158

Mg 0.77400 42.44400 25.60500
C  2.73200 42.65000 28.43000
C  -2.00600 41.58600 27.44200
C  -1.02500 42.14600 22.66700
C  3.65500 42.99000 23.67100
N  0.45800 42.23600 27.62800
C  1.37500 42.37600 28.67400
C  0.70700 42.11000 30.04700
C  -0.77300 41.69700 29.67900
C  -0.76800 41.87100 28.13600
C  -1.16900 40.30300 30.10300
C  0.79700 43.43200 30.91000
C  1.46800 43.23200 32.28500
H  0.67500 43.38400 33.58600
N  -1.28900 41.93900 25.11700
C  -2.27300 41.75200 26.05100
C  -3.53800 41.57600 25.35300
C  -3.25400 41.81300 23.94100
C  -1.79300 41.92000 23.85600
C  -4.76400 41.14600 26.07200
C  -4.22500 41.85400 22.83400
O  -3.97500 42.21100 21.64700
C  -5.71500 41.62100 23.16700
N  1.24700 42.64400 23.52400
C  0.37700 42.25000 22.57500
C  1.02000 42.20800 21.18300
C  2.53700 42.43200 21.50400
C  2.49400 42.79500 22.98200
C  0.74200 40.94800 20.36500
C  3.31300 43.43600 20.64100
C  2.70700 44.82900 20.23600
N  2.86600 42.98600 25.96900
C  3.86500 43.06800 25.07400
C  5.13400 43.29600 25.79900
C  4.69800 43.20100 27.12200
C  3.32300 42.96700 27.16400
C  6.51300 43.46500 25.19600
C  5.12700 43.02800 28.53200
O  6.23700 43.05500 29.05500
C  3.83100 42.83400 29.39200
C  4.02900 41.64700 30.26400
O  3.97000 40.50200 29.91200
O  4.21500 42.10000 31.54600
C  4.27400 41.05400 32.56200
H  -2.68000 41.17600 28.19700
H  -1.64500 42.02100 21.77700
H  4.56700 43.17800 23.10100
H  1.16900 41.24700 30.52500
H  -1.48100 42.37200 30.15900
H  -0.89400 39.52800 29.38700
H  -2.24400 40.30300 30.28400
H  -0.75300 40.18800 31.10300
H  -0.22600 43.69500 31.18100
H  1.26600 44.19200 30.28500
H  2.31200 43.91300 32.39000
H  1.80100 42.19500 32.32900
H  -5.57200 41.87800 26.08900
H  -4.55600 41.01200 27.13300
H  -4.99200 40.14100 25.71500
H  -5.84500 40.59100 23.49900
H  -6.32700 41.80900 22.28400
H  -6.06400 42.21800 24.01000
H  0.70100 43.03300 20.54600
H  3.05600 41.47400 21.49000
H  1.67600 40.68600 19.86800
H  0.14600 41.12500 19.47000
H  0.46600 39.98000 20.78200
H  3.40800 42.84500 19.73000
H  4.33500 43.62400 20.97100
H  1.73300 44.88900 20.72100
H  2.60700 44.79200 19.15100
H  3.26800 45.63900 20.70200
H  6.95100 42.47500 25.06700
H  7.04500 44.09100 25.91300
H  6.45900 43.98700 24.24000
H  3.62500 43.74400 29.95500
H  3.29800 40.57900 32.66200
H  4.47100 41.52100 33.52700
H  5.02800 40.28700 32.38900
Mg -1.82200 34.26600 26.53800
C  -3.50600 32.60300 29.18600
C  -0.27800 36.30700 28.84600
C  -0.59800 36.15900 23.96800
C  -3.62300 32.46500 24.20600
N  -1.80800 34.39800 28.75300
C  -2.58600 33.61700 29.67100
C  -2.30400 33.95300 31.10500
C  -1.27300 35.25700 31.01800
C  -1.07500 35.36800 29.47400
C  -1.63600 36.49200 31.86200
C  -1.73800 32.69700 31.79400
C  -2.53900 32.10700 32.95500
H  -1.80400 31.91000 34.31800
N  -0.51300 35.89300 26.46000
C  0.00700 36.58900 27.54000
C  0.90600 37.55200 27.03500
C  0.70700 37.57700 25.59600
C  -0.13900 36.48900 25.28200
C  1.70800 38.50400 27.99800
C  1.30200 38.54500 24.55100
O  1.17500 38.58200 23.34200
C  2.26100 39.66200 25.08200
N  -2.22600 34.44400 24.39600
C  -1.53400 35.24100 23.54900
C  -1.81400 35.03400 22.00100
C  -2.75500 33.78400 22.14600
C  -2.90800 33.58000 23.65400
C  -2.45000 36.22600 21.33500
C  -2.19500 32.54500 21.30400
C  -0.99600 31.94100 21.92100
N  -3.25000 32.83600 26.65000
C  -3.87500 32.15300 25.64000
C  -4.83900 31.23900 26.14300
C  -4.75700 31.36300 27.54000
C  -3.76500 32.34400 27.76600
C  -5.58300 30.17500 25.35200
C  -5.23700 30.79300 28.77600
O  -6.07800 29.93900 28.96500
C  -4.47900 31.59500 29.93200
C  -5.46100 32.22300 30.85400
O  -6.15300 33.20500 30.55600
O  -5.59800 31.60000 32.06500
C  -6.69300 32.12600 32.87300
H  0.12100 36.90400 29.66800
H  -0.14500 36.69900 23.13400
H  -4.08600 31.77000 23.50200
H  -3.31300 34.14900 31.46900
H  -0.32300 34.95200 31.45600
H  -1.59600 37.42700 31.30400
H  -1.00700 36.57300 32.75000
H  -2.68500 36.33500 32.11300
H  -0.72800 32.97900 32.09300
H  -1.74000 31.88000 31.07200
H  -2.94200 31.12500 32.71100
H  -3.40700 32.73700 33.15200
H  1.31800 38.55000 29.01400
H  1.75700 39.51000 27.58000
H  2.75200 38.26500 28.20400
H  2.62200 40.34800 24.31500
H  3.12400 39.29900 25.64100
H  1.77100 40.33300 25.78700
H  -0.86000 34.75000 21.55800
H  -3.76500 34.00000 21.79800
H  -2.19400 36.22100 20.27600
H  -2.21000 37.07200 21.97900
H  -3.52600 36.07500 21.42100
H  -2.02800 32.87000 20.27800
H  -2.91300 31.73600 21.16800
H  -1.20600 30.88800 22.10800
H  -0.74500 32.25700 22.93400
H  -0.15500 32.01300 21.23100
H  -4.81900 29.63000 24.79800
H  -6.37100 30.66100 24.77700
H  -6.04700 29.47600 26.04800
H  -3.81600 30.89200 30.43500
H  -7.54700 32.44000 32.27300
H  -6.32900 33.05700 33.30700
H  -6.98600 31.47500 33.69600

