158

Mg 42.01900 41.63900 27.97300
C  40.89000 44.02200 30.47500
C  43.11800 39.67000 30.44300
C  43.25900 39.69100 25.66000
C  41.41000 44.16600 25.52900
N  41.84600 41.82500 30.15600
C  41.40600 42.83200 30.98300
C  41.54400 42.40000 32.45000
C  42.38600 41.04000 32.46600
C  42.50400 40.85800 30.90700
C  43.75400 41.31400 33.11900
C  40.06900 42.28000 33.05100
C  39.92700 43.15000 34.32700
H  39.26900 42.42300 35.54400
N  42.99800 39.82100 28.03200
C  43.35700 39.18300 29.13400
C  43.99500 37.93400 28.78300
C  43.89300 37.86900 27.33500
C  43.32800 39.14900 26.96500
C  44.49900 36.92600 29.83400
C  44.38100 36.75900 26.36100
O  44.54300 36.96000 25.19200
C  44.66100 35.39400 26.92700
N  42.50500 41.98500 25.92600
C  42.92300 40.94300 25.21500
C  42.96000 41.30100 23.71800
C  42.37600 42.70600 23.65900
C  42.12900 43.03000 25.15800
C  44.36300 41.23400 23.03000
C  41.06500 42.81300 22.87200
C  39.87700 42.11800 23.41600
N  41.26200 43.67500 27.98000
C  41.04300 44.49800 26.89100
C  40.34400 45.63100 27.33900
C  40.25900 45.53100 28.73700
C  40.92600 44.36000 29.08700
C  39.74500 46.75500 26.50100
C  39.81400 46.13700 30.02100
O  39.08800 47.08300 30.22300
C  40.30100 45.22200 31.17800
C  41.33500 45.86800 31.94500
O  42.46100 46.19900 31.54900
O  40.89800 45.97100 33.25100
C  41.69300 46.75100 34.26100
H  43.49900 39.00500 31.22100
H  43.48300 39.01200 24.83500
H  41.25200 44.93100 24.76500
H  42.12900 43.19500 32.91300
H  41.95400 40.11800 32.85700
H  43.95300 40.53000 33.85100
H  43.74200 42.25100 33.67600
H  44.50500 41.16100 32.34500
H  39.88000 41.25400 33.36700
H  39.32700 42.67600 32.35800
H  39.30500 43.99200 34.02300
H  40.90700 43.50000 34.65100
H  45.54900 36.84800 29.55400
H  43.97600 35.97100 29.78900
H  44.46400 37.25700 30.87200
H  43.77000 35.01200 27.42500
H  45.43800 35.45700 27.68800
H  44.98800 34.68600 26.16500
H  42.26100 40.58700 23.28200
H  43.02600 43.52900 23.36000
H  44.72000 42.26300 23.06200
H  44.23300 40.81500 22.03200
H  44.96400 40.55700 23.63800
H  41.17800 42.44200 21.85300
H  40.84700 43.85700 22.64300
H  39.19900 42.95300 23.59500
H  39.98700 41.45700 24.27500
H  39.44800 41.58700 22.56600
H  39.16100 46.29500 25.70300
H  40.56600 47.32100 26.06000
H  39.11000 47.34200 27.16400
H  39.46700 44.81200 31.74800
H  41.10800 47.64900 34.46200
H  42.66300 47.17200 33.99500
H  41.85600 46.07400 35.09900
Mg 26.44800 49.75500 27.14500
C  24.28700 51.22600 29.66000
C  28.53200 48.78200 29.72000
C  28.65600 49.17200 24.78500
C  24.43500 51.49000 24.73800
N  26.47600 50.17400 29.46300
C  25.43800 50.67300 30.23800
C  25.64300 50.21400 31.72800
C  27.05600 49.59800 31.73500
C  27.39500 49.45100 30.18700
C  28.10400 50.41600 32.53900
C  24.50300 49.42500 32.37100
C  23.99500 49.98400 33.66500
H  24.97800 50.68700 34.60900
N  28.25800 48.92500 27.22000
C  28.94600 48.53200 28.36700
C  30.29600 47.92400 28.00400
C  30.39300 48.21300 26.56500
C  29.11200 48.85000 26.10800
C  31.35500 47.34900 28.85800
C  31.62100 48.03400 25.58800
O  31.56100 48.35500 24.38600
C  32.86400 47.48100 26.11500
N  26.64300 50.34100 25.13400
C  27.52000 49.76000 24.29200
C  27.09800 49.94900 22.82400
C  25.67200 50.49000 22.87600
C  25.58700 50.83400 24.36300
C  27.97300 50.90800 22.08100
C  24.62300 49.42600 22.35700
C  23.85600 49.82700 21.08100
N  24.62700 50.99800 27.14500
C  23.97400 51.62000 26.08500
C  22.91100 52.42900 26.64100
C  22.96700 52.24900 28.04200
C  24.06800 51.38100 28.31200
C  21.90200 53.24100 25.96600
C  22.38700 52.72900 29.33200
O  21.39100 53.43100 29.61300
C  23.25100 52.00000 30.43400
C  23.72800 53.01300 31.35800
O  24.83600 53.51200 31.21500
O  22.84900 53.19600 32.38100
C  23.10900 54.29800 33.42800
H  29.19500 48.38500 30.49200
H  29.34600 48.81000 24.02000
H  23.71000 51.92200 24.04500
H  25.68500 51.17000 32.25000
H  27.04100 48.60700 32.18800
H  27.69400 50.90100 33.42500
H  28.47600 51.18900 31.86600
H  28.97400 49.79200 32.74400
H  24.91900 48.44800 32.61600
H  23.73200 49.20200 31.63400
H  23.63900 49.06900 34.13700
H  23.16400 50.67300 33.51400
H  31.60200 46.36000 28.47100
H  30.96200 47.29100 29.87300
H  32.22600 48.00200 28.90300
H  33.40200 48.17700 26.75800
H  33.47300 47.18000 25.26300
H  32.57300 46.56700 26.63300
H  27.09100 48.93400 22.42700
H  25.56000 51.40000 22.28700
H  27.53800 51.88100 21.85300
H  28.35400 50.36500 21.21600
H  28.85400 51.23300 22.63400
H  23.94100 49.26000 23.19100
H  25.09800 48.50800 22.00900
H  24.05200 49.13500 20.26200
H  24.10900 50.84700 20.79000
H  22.84600 49.74300 21.48000
H  22.37900 53.84100 25.19100
H  21.35100 53.92600 26.61000
H  21.12600 52.64300 25.48800
H  22.61200 51.36600 31.04900
H  23.25200 55.18300 32.80900
H  24.05400 54.12400 33.94200
H  22.25300 54.36000 34.10100

