158

Mg 40.97000 9.24600 29.60900
C  42.77600 10.37700 32.46700
C  38.61900 7.84300 31.73800
C  39.32100 8.72000 26.96600
C  43.69300 10.61900 27.67100
N  40.83800 9.03300 31.85100
C  41.70600 9.56600 32.80500
C  41.13000 9.29100 34.21000
C  39.89200 8.31300 33.94900
C  39.71700 8.44000 32.45400
C  40.18400 6.84300 34.38900
C  40.78900 10.55000 35.02200
C  41.27300 10.41700 36.49300
H  41.18000 11.54400 37.40200
N  39.27100 8.37800 29.39000
C  38.41900 7.91100 30.35600
C  37.24100 7.43200 29.64400
C  37.43400 7.71500 28.28300
C  38.75400 8.29600 28.20100
C  36.24200 6.68400 30.38100
C  36.35100 7.64200 27.15600
O  36.48600 8.07800 26.05000
C  35.11200 6.93700 27.47200
N  41.53400 9.47300 27.55900
C  40.55400 9.29700 26.66500
C  41.07400 9.39700 25.17100
C  42.46900 10.09300 25.46300
C  42.55900 10.14300 27.03900
C  41.12500 8.06200 24.42100
C  42.70400 11.49100 24.84400
C  41.65900 12.57500 25.17000
N  42.82100 10.16300 29.95500
C  43.85700 10.62100 29.09200
C  44.92100 11.25900 29.78800
C  44.47500 11.23700 31.09300
C  43.24900 10.57200 31.16000
C  46.14200 12.03800 29.28100
C  44.89800 11.62600 32.36800
O  45.90900 12.19300 32.78100
C  43.77900 11.10900 33.33200
C  44.52100 10.29200 34.36800
O  44.87500 9.16600 34.22800
O  44.87000 11.03200 35.51100
C  45.40600 10.29500 36.63100
H  37.98300 7.36900 32.48900
H  38.68300 8.51900 26.10200
H  44.42100 11.12500 27.03300
H  41.87200 8.76700 34.81300
H  39.08300 8.57900 34.63000
H  39.38400 6.54900 35.07000
H  41.14700 6.87000 34.89800
H  40.20000 6.13100 33.56300
H  39.70200 10.53900 35.09300
H  40.97800 11.47100 34.46900
H  42.30200 10.06000 36.52500
H  40.67300 9.61600 36.92300
H  35.38700 7.33900 30.20900
H  36.34800 6.51700 31.45200
H  36.06900 5.76000 29.83000
H  34.51700 7.56400 28.13600
H  35.20700 6.01700 28.05000
H  34.43200 6.72100 26.64900
H  40.39700 10.04500 24.61400
H  43.31700 9.49400 25.12900
H  41.93200 8.09100 23.68900
H  40.18800 7.75000 23.95900
H  41.35500 7.22700 25.08200
H  42.84900 11.37100 23.77000
H  43.62300 11.92400 25.23800
H  42.21000 13.47300 25.44900
H  40.90000 12.24200 25.87700
H  41.24300 12.85300 24.20200
H  46.33300 11.88800 28.21900
H  46.99700 11.71100 29.87400
H  46.02200 13.09000 29.53800
H  43.34100 11.99900 33.78500
H  45.56500 9.22000 36.54800
H  44.76900 10.36000 37.51200
H  46.34700 10.72000 36.98100
Mg 48.93500 35.15700 27.07800
C  47.07800 33.62300 29.76700
C  49.30300 37.85700 29.32000
C  50.40200 36.62200 24.73900
C  48.01900 32.52200 24.98700
N  48.24200 35.61800 29.21600
C  47.63100 34.84100 30.16300
C  47.66000 35.46900 31.53200
C  47.91700 36.96300 31.18000
C  48.49000 36.84600 29.76200
C  46.66900 37.87800 31.17000
C  48.85900 34.84600 32.34500
C  48.65300 34.62000 33.84800
H  47.59300 35.38400 34.69400
N  49.87100 36.91400 27.03700
C  49.97800 37.88400 28.02000
C  50.94100 38.84300 27.56400
C  51.24700 38.54400 26.17300
C  50.46300 37.30600 25.92200
C  51.33600 40.00100 28.39800
C  52.08800 39.34500 25.19100
O  52.27100 39.08200 23.99900
C  52.79200 40.60800 25.71700
N  48.97000 34.70100 24.95100
C  49.82600 35.43400 24.26500
C  50.18700 34.75500 22.94300
C  49.45700 33.37500 23.05200
C  48.74600 33.55200 24.36500
C  49.92900 35.74400 21.77500
C  50.35100 32.11400 23.12000
C  51.48000 32.06400 22.09100
N  47.79000 33.36300 27.26200
C  47.54400 32.41500 26.32900
C  46.76100 31.41000 26.87500
C  46.51700 31.80200 28.26200
C  47.14700 33.07500 28.39800
C  46.06800 30.23800 26.13800
C  45.80700 31.50600 29.50600
O  45.13200 30.56800 29.92300
C  46.05400 32.73300 30.49700
C  46.53600 32.26200 31.80600
O  47.67400 31.91700 32.18400
O  45.50600 32.30400 32.66900
C  45.71400 31.90600 34.01200
H  49.38200 38.78000 29.89900
H  51.16700 36.99900 24.05600
H  47.79400 31.64300 24.38000
H  46.67900 35.30500 31.97600
H  48.68000 37.38700 31.83300
H  46.07000 37.79300 30.26400
H  47.03900 38.90400 31.16900
H  46.08800 37.64300 32.06200
H  49.74700 35.46500 32.21100
H  49.12400 33.88200 31.91200
H  49.65200 34.84800 34.22000
H  48.53700 33.54800 34.01000
H  52.32200 40.40400 28.16900
H  51.41600 39.67300 29.43500
H  50.58500 40.78900 28.45900
H  52.99300 41.15300 24.79500
H  53.65500 40.43000 26.35800
H  52.16100 41.28100 26.29800
H  51.27500 34.69700 22.89100
H  48.72900 33.17800 22.26500
H  48.84300 35.75800 21.87000
H  50.15500 35.34100 20.78700
H  50.34500 36.72900 21.98600
H  49.66200 31.27200 23.05800
H  50.84600 32.11400 24.09100
H  51.39800 31.12200 21.54900
H  52.43400 31.99500 22.61300
H  51.44400 32.94200 21.44600
H  45.25700 30.64900 25.53700
H  45.84300 29.39900 26.79600
H  46.89500 29.87000 25.53200
H  45.09800 33.23800 30.63800
H  44.78600 31.36800 34.20500
H  45.65900 32.85800 34.54100
H  46.61600 31.39300 34.34400

