158

Mg 9.35900 4.19500 28.33900
C  10.66900 2.38300 31.03200
C  7.59600 6.13000 30.45400
C  7.72800 5.45200 25.54100
C  10.71500 1.74600 26.11200
N  9.13600 4.12100 30.53000
C  9.91100 3.44600 31.49300
C  9.68600 3.95800 32.90200
C  8.38300 4.81800 32.66200
C  8.34300 5.11700 31.11400
C  7.14000 4.07800 33.23500
C  10.89900 4.66000 33.46300
C  11.81300 4.10500 34.58900
H  11.98000 4.75700 35.92500
N  7.93300 5.67300 28.07500
C  7.41300 6.36200 29.10800
C  6.67000 7.49000 28.49300
C  6.65800 7.28000 27.13600
C  7.45600 6.03600 26.87600
C  6.05400 8.68900 29.23800
C  6.02500 8.05600 26.05800
O  5.79100 7.52100 24.99100
C  5.43200 9.42200 26.21800
N  9.02000 3.47400 26.10400
C  8.39400 4.27500 25.21300
C  8.70500 3.88100 23.79800
C  9.76500 2.77200 23.93900
C  9.90400 2.67300 25.44100
C  7.44400 3.35100 23.05800
C  11.12300 3.13200 23.26900
C  12.02000 1.88200 22.98000
N  10.47000 2.47200 28.50200
C  10.88200 1.59000 27.53200
C  11.49300 0.45800 28.13900
C  11.50800 0.78400 29.53700
C  10.81900 1.98500 29.70200
C  12.02500 -0.74100 27.43400
C  12.01700 0.36900 30.83600
O  12.69600 -0.59400 31.15800
C  11.47000 1.42400 31.87400
C  10.64600 0.75600 32.82900
O  9.50700 0.38700 32.64300
O  11.34600 0.64900 33.98800
C  10.51000 0.12200 35.06700
H  7.03400 6.79900 31.10900
H  7.27200 5.90600 24.65900
H  11.19300 0.92600 25.57100
H  9.41300 3.10900 33.52900
H  8.48100 5.78000 33.16600
H  7.42000 3.14000 33.71500
H  6.47500 3.77700 32.42600
H  6.67400 4.73200 33.97200
H  10.50800 5.65700 33.66400
H  11.53800 4.85300 32.60100
H  12.78300 4.03600 34.09800
H  11.39200 3.11200 34.74800
H  5.10200 8.99900 28.80700
H  6.55200 9.64500 29.07500
H  5.99000 8.51200 30.31100
H  5.21600 9.90500 25.26500
H  6.20600 10.02300 26.69600
H  4.54200 9.41000 26.84700
H  9.17900 4.75400 23.34900
H  9.47000 1.81700 23.50500
H  6.62500 3.50300 23.76100
H  7.58400 2.35800 22.62900
H  7.30400 3.99000 22.18700
H  11.72800 3.83400 23.84200
H  10.92700 3.54100 22.27700
H  12.57300 1.58000 23.86900
H  12.71800 2.09200 22.16900
H  11.42500 1.01600 22.69200
H  11.46600 -1.03300 26.54500
H  12.01400 -1.59700 28.10800
H  13.07300 -0.60000 27.16700
H  12.31100 2.02800 32.21700
H  9.44400 0.26000 34.88600
H  10.75300 0.50800 36.05700
H  10.76200 -0.93800 35.04900
Mg 26.83000 0.81400 29.90600
C  28.58800 0.40700 32.87700
C  23.99300 1.13600 32.02700
C  24.82700 0.47700 27.21700
C  29.64900 -0.11300 28.10200
N  26.35500 0.75600 32.24600
C  27.24200 0.65600 33.22800
C  26.64300 0.70900 34.61100
C  25.13500 1.12000 34.24100
C  25.14500 0.94100 32.72100
C  24.06500 0.24600 34.93800
C  27.45200 1.71700 35.54200
C  26.68800 2.33700 36.72200
H  27.47200 2.78000 37.96600
N  24.72800 0.84100 29.64100
C  23.73700 1.02900 30.62400
C  22.46200 1.18600 29.96900
C  22.66500 0.81200 28.61400
C  24.14500 0.67900 28.42600
C  21.19600 1.59100 30.58600
C  21.63700 0.65100 27.48200
O  21.93000 0.28100 26.32200
C  20.14200 0.74000 27.75300
N  27.21000 0.23400 27.89100
C  26.23400 0.26700 26.96600
C  26.83600 -0.12400 25.55900
C  28.40800 -0.17200 25.84400
C  28.46500 0.06200 27.38600
C  26.20400 -1.48900 25.12400
C  29.39900 0.74200 25.07700
C  29.84100 2.06000 25.61600
N  28.75000 0.32000 30.33600
C  29.75700 -0.05600 29.47300
C  30.99900 -0.21900 30.25600
C  30.57600 -0.05500 31.56800
C  29.18100 0.25000 31.59300
C  32.34000 -0.64200 29.75800
C  30.98100 -0.09900 32.97900
O  32.08500 -0.36400 33.49000
C  29.78200 0.24700 33.88100
C  29.62800 -0.97000 34.69700
O  29.21200 -2.01200 34.29400
O  30.00400 -0.76900 35.99400
C  29.83600 -1.89900 36.93200
H  23.19400 1.45300 32.70100
H  24.14300 0.28000 26.38900
H  30.54000 -0.33800 27.51200
H  26.76900 -0.29500 35.01600
H  24.98800 2.19900 34.28500
H  23.38200 0.81700 35.56600
H  24.62300 -0.28800 35.70600
H  23.58200 -0.45900 34.26000
H  27.87100 2.52200 34.93800
H  28.28700 1.11800 35.90500
H  25.99800 1.52500 36.95300
H  26.14500 3.17300 36.28200
H  21.41200 2.12300 31.51200
H  20.60900 0.69700 30.79800
H  20.62400 2.27100 29.95500
H  19.89700 0.23200 28.68600
H  19.66800 0.27000 26.89100
H  19.74700 1.74500 27.90300
H  26.48900 0.63200 24.85500
H  28.79700 -1.19000 25.81200
H  25.52200 -2.08500 25.73000
H  27.06900 -2.04200 24.75700
H  25.56000 -1.29000 24.26800
H  29.02400 0.82100 24.05600
H  30.21400 0.06200 24.82900
H  29.45500 2.25800 26.61700
H  29.40200 2.81400 24.96300
H  30.92200 2.18400 25.56600
H  32.63800 0.04700 28.96800
H  32.30700 -1.68700 29.44900
H  33.14500 -0.53700 30.48500
H  29.98200 1.10500 34.52300
H  29.99500 -2.89700 36.52500
H  28.86900 -1.87200 37.43300
H  30.59600 -1.71900 37.69400

