158

Mg 8.86500 3.05700 26.73000
C  10.11100 1.64300 29.72800
C  7.11100 5.31700 28.69700
C  7.35100 4.17900 24.02200
C  10.55200 0.59200 24.92200
N  8.63900 3.42000 29.01500
C  9.40400 2.78500 30.00500
C  9.02400 3.41100 31.37700
C  7.89700 4.45800 31.02600
C  7.83000 4.43800 29.46100
C  6.48900 4.15000 31.66600
C  10.20100 4.04200 32.20000
C  9.81700 4.58000 33.55200
H  10.25600 3.83800 34.81900
N  7.42700 4.59400 26.42500
C  6.93600 5.42400 27.33600
C  6.04100 6.40200 26.65400
C  6.06500 6.03700 25.29500
C  6.96900 4.87600 25.19000
C  5.19000 7.44600 27.31200
C  5.36800 6.76900 24.08600
O  5.30000 6.27800 22.96700
C  4.55900 8.09600 24.27200
N  8.88900 2.46300 24.76600
C  8.20700 3.09900 23.78500
C  8.30200 2.38600 22.45200
C  9.45600 1.42000 22.70400
C  9.65100 1.45400 24.21900
C  6.94400 1.64500 22.09000
C  10.73400 1.67000 21.97300
C  11.62000 0.48700 21.43700
N  10.06700 1.40400 27.21000
C  10.68200 0.50900 26.35800
C  11.41600 -0.47700 27.16300
C  11.32400 0.01200 28.50900
C  10.36000 1.06600 28.47000
C  12.30600 -1.46200 26.56500
C  11.72300 -0.19500 29.85900
O  12.52800 -0.92400 30.47500
C  11.00400 0.89500 30.67200
C  10.25200 0.24800 31.77900
O  9.18000 -0.35700 31.65500
O  10.81400 0.53600 32.97200
C  10.13600 0.04200 34.18500
H  6.55100 6.02200 29.31600
H  6.95900 4.59300 23.09100
H  11.07000 -0.15000 24.31000
H  8.63200 2.61100 32.00400
H  8.17500 5.49300 31.22200
H  5.76900 3.78900 30.93200
H  6.05300 5.08000 32.03000
H  6.56400 3.38500 32.44000
H  10.67100 4.91100 31.74200
H  11.09900 3.42500 32.19400
H  8.73800 4.67200 33.43000
H  10.34600 5.52200 33.69800
H  5.78500 8.35500 27.40600
H  4.89500 7.10100 28.30300
H  4.27000 7.78400 26.83500
H  3.62400 7.96400 24.81600
H  4.30700 8.54200 23.31000
H  5.28100 8.81200 24.66400
H  8.58700 3.11500 21.69400
H  9.18600 0.40200 22.42300
H  6.12300 1.90300 22.75900
H  7.10100 0.56700 22.14100
H  6.72200 1.85700 21.04500
H  11.49200 2.20600 22.54400
H  10.56900 2.36100 21.14700
H  11.19600 -0.49400 21.65200
H  12.58600 0.64200 21.91800
H  11.89000 0.59900 20.38700
H  11.67400 -2.04800 25.89700
H  12.75300 -2.05900 27.36000
H  13.10900 -0.94400 26.04200
H  11.72300 1.52000 31.20100
H  9.11900 0.43000 34.23900
H  10.67400 0.43900 35.04600
H  10.14800 -1.04700 34.15100
Mg 0.16900 44.05300 25.80700
C  2.51500 43.78900 28.38700
C  -2.30100 43.23400 27.89000
C  -1.74600 44.08000 23.10400
C  2.93600 44.31000 23.50600
N  0.15700 43.51400 27.90900
C  1.15800 43.61700 28.73900
C  0.66300 43.56800 30.19100
C  -0.85900 43.04700 30.03900
C  -1.04200 43.29400 28.52100
C  -1.05000 41.55300 30.56500
C  0.79000 44.94200 30.87900
C  0.49400 44.96600 32.40700
H  0.52800 43.61600 33.15600
N  -1.74800 43.69800 25.50300
C  -2.67500 43.37000 26.49700
C  -3.96000 43.07200 25.87900
C  -3.82600 43.38400 24.50000
C  -2.41300 43.76000 24.29400
C  -5.12900 42.58500 26.72800
C  -4.89300 43.33300 23.45400
O  -4.61900 43.67000 22.27900
C  -6.26100 42.89800 23.76400
N  0.56900 44.37400 23.61400
C  -0.46900 44.34900 22.73700
C  0.01500 44.91600 21.33200
C  1.48900 45.23400 21.60600
C  1.75500 44.63700 22.99600
C  -0.15600 43.93900 20.24600
C  1.96400 46.71300 21.53900
C  1.08400 47.63300 22.42200
N  2.27300 44.06400 25.88000
C  3.25200 44.16100 24.86500
C  4.58500 44.22400 25.49600
C  4.34800 44.11900 26.84100
C  2.95600 44.01000 27.06600
C  5.94400 44.33500 24.78200
C  4.94600 43.99900 28.10200
O  6.10700 43.94700 28.43300
C  3.82400 43.89300 29.16900
C  4.10900 42.77600 30.02300
O  4.22900 41.67100 29.63700
O  4.18900 43.10900 31.35900
C  4.45700 42.12700 32.34100
H  -3.13800 43.22100 28.59100
H  -2.31700 43.96900 22.18000
H  3.75900 44.50600 22.81600
H  1.29700 42.82700 30.67800
H  -1.51000 43.67100 30.65200
H  -1.36300 40.89600 29.75400
H  -1.84700 41.55900 31.30900
H  -0.10900 41.25400 31.02700
H  0.12200 45.58400 30.30500
H  1.79400 45.34900 30.75900
H  -0.43700 45.50600 32.57400
H  1.23400 45.50600 32.99700
H  -5.89400 43.35900 26.78900
H  -4.82600 42.36700 27.75200
H  -5.53800 41.65700 26.32900
H  -6.44800 41.89400 24.14500
H  -6.84300 42.94300 22.84300
H  -6.67300 43.49900 24.57600
H  -0.45700 45.86200 21.06800
H  2.18000 44.76700 20.90300
H  -1.22700 43.82700 20.07600
H  0.26400 42.96100 20.47800
H  0.23300 44.32600 19.30400
H  1.76100 46.99500 20.50600
H  3.01900 46.65500 21.80900
H  0.42200 47.02600 23.04000
H  0.51400 48.43400 21.95100
H  1.68200 48.30000 23.04300
H  5.89100 44.64200 23.73700
H  6.36900 43.34600 24.94900
H  6.57000 45.07200 25.28500
H  3.89700 44.78100 29.79800
H  4.09900 42.41700 33.32900
H  5.48900 41.78600 32.42400
H  3.75700 41.31400 32.14700

