158

Mg 41.51200 8.70400 29.67800
C  43.42600 10.04200 32.05300
C  39.33600 7.47100 31.97700
C  39.54400 7.64200 27.08400
C  43.99700 9.56400 27.30300
N  41.43700 8.80100 31.79500
C  42.31800 9.43800 32.63500
C  41.82200 9.36500 34.07600
C  40.74000 8.21500 33.97400
C  40.46500 8.15300 32.45800
C  41.10800 6.80600 34.59200
C  41.36100 10.73700 34.62700
C  40.75300 10.93700 36.06400
H  41.42200 11.82700 37.11800
N  39.63300 7.80600 29.58100
C  38.87300 7.35800 30.63600
C  37.60100 6.84600 30.15300
C  37.59900 7.03400 28.73200
C  38.97500 7.50700 28.42900
C  36.72600 6.03800 31.00700
C  36.47300 6.74600 27.72800
O  36.48200 6.79900 26.49100
C  35.17800 6.24500 28.29300
N  41.70900 8.68700 27.46300
C  40.81500 8.11700 26.64900
C  41.34900 8.05000 25.16700
C  42.60100 9.00500 25.22500
C  42.82100 9.12700 26.76600
C  41.44700 6.61200 24.68200
C  42.48500 10.43600 24.55500
C  43.68700 10.89300 23.67100
N  43.36600 9.57200 29.67000
C  44.24900 9.84200 28.62200
C  45.40300 10.52200 29.16700
C  45.10000 10.66400 30.51600
C  43.87200 10.05400 30.70900
C  46.57500 11.13400 28.47000
C  45.57700 11.19100 31.82100
O  46.57300 11.79600 32.19800
C  44.42000 10.89200 32.80300
C  45.08100 10.14800 33.96400
O  45.71900 9.11500 33.87300
O  44.97500 10.89400 35.08100
C  45.51100 10.26400 36.29700
H  38.78800 7.01200 32.80200
H  38.82700 7.30300 26.33300
H  44.71300 9.71300 26.49200
H  42.66200 8.96200 34.64200
H  39.85500 8.64200 34.44500
H  42.11800 6.84100 35.00000
H  40.93900 6.00700 33.87000
H  40.49100 6.67200 35.48100
H  40.79700 11.22800 33.83500
H  42.34500 11.20300 34.57100
H  40.63700 9.98500 36.58300
H  39.79500 11.43500 35.91400
H  37.00400 6.03000 32.06100
H  36.66400 5.02800 30.60400
H  35.78800 6.59100 30.95900
H  34.37200 6.29500 27.56100
H  34.90500 6.93900 29.08800
H  35.26300 5.21000 28.62100
H  40.57400 8.53000 24.56900
H  43.50800 8.46700 24.94900
H  41.04800 5.94200 25.44400
H  42.51200 6.40900 24.56500
H  40.84300 6.50600 23.78100
H  42.39900 11.21400 25.31400
H  41.56700 10.54600 23.97800
H  43.39800 11.35000 22.72400
H  44.32200 10.00800 23.65300
H  44.21900 11.69400 24.18500
H  47.00900 10.58300 27.63500
H  47.33400 11.41800 29.19900
H  46.22200 12.08800 28.07700
H  44.00700 11.84500 33.13400
H  44.64400 9.96200 36.88400
H  45.91700 11.12600 36.82600
H  46.34600 9.56600 36.25100
Mg 48.30100 45.79900 42.68400
C  45.19200 46.76500 41.56300
C  48.02900 42.86600 40.95000
C  51.74000 45.21100 43.20400
C  48.77900 48.98500 44.01900
N  46.94600 45.06200 41.08100
C  45.62200 45.53800 40.96200
C  44.78700 44.72200 39.97600
C  45.55500 43.34500 40.14200
C  46.95300 43.76100 40.74400
C  44.82700 42.25400 41.05300
C  44.93100 45.22200 38.51800
C  43.83200 44.79200 37.49800
H  44.20200 43.72000 36.53700
N  49.71500 44.25700 42.20800
C  49.30700 43.11300 41.53400
C  50.48600 42.20600 41.52400
C  51.62400 42.87500 42.21600
C  51.03500 44.16200 42.62300
C  50.44400 40.77100 40.90500
C  52.97300 42.21800 42.47700
O  53.36400 41.23000 41.91300
C  53.97100 42.82100 43.40000
N  50.08700 47.00300 43.31900
C  51.35700 46.51100 43.48400
C  52.29800 47.66200 43.99500
C  51.28400 48.71100 44.51500
C  49.97400 48.28200 43.89900
C  53.52000 47.34000 44.93700
C  51.75200 50.16500 44.23200
C  51.56900 51.10100 45.45900
N  47.20800 47.44000 42.84900
C  47.48900 48.63400 43.49200
C  46.27400 49.48300 43.39500
C  45.29800 48.65300 42.86000
C  45.97800 47.51900 42.42300
C  46.07900 50.83600 43.94400
C  43.88600 48.59900 42.45800
O  42.89000 49.32700 42.65600
C  43.81400 47.47100 41.42100
C  42.71100 46.61900 41.94000
O  41.57300 46.64300 41.41400
O  43.06000 45.85400 43.00300
C  42.21900 44.68800 43.30500
H  47.91900 41.83100 40.62100
H  52.74900 45.00900 43.57000
H  48.88100 49.99100 44.42900
H  43.74500 44.72100 40.29600
H  45.68500 42.82600 39.19300
H  43.84500 42.70800 41.18800
H  45.29900 42.14200 42.02900
H  44.73700 41.26500 40.60500
H  45.88000 44.83700 38.14400
H  45.01700 46.30700 38.57900
H  43.49100 45.65500 36.92500
H  42.92400 44.48900 38.02000
H  50.69500 40.88200 39.85000
H  49.46600 40.29200 40.95400
H  51.16900 40.10900 41.38000
H  53.52000 43.07900 44.35800
H  54.24700 43.78400 42.97100
H  54.84500 42.17700 43.49400
H  52.70400 48.04600 43.06000
H  51.18600 48.45000 45.56900
H  53.43500 47.79200 45.92500
H  54.36300 47.81100 44.43300
H  53.72700 46.27900 45.07700
H  51.18700 50.59700 43.40600
H  52.80800 50.17200 43.96000
H  51.06600 50.63700 46.30700
H  50.92500 51.95600 45.25300
H  52.57700 51.41000 45.73600
H  45.63000 51.39100 43.12000
H  46.96500 51.36300 44.29700
H  45.31600 50.79600 44.72100
H  43.60400 47.74700 40.38800
H  42.76000 43.76800 43.52700
H  41.52500 44.50000 42.48500
H  41.44300 44.96100 44.02000

