158

Mg 29.86900 57.76300 41.06300
C  27.25800 55.88200 39.80000
C  32.01300 55.37100 40.10700
C  32.42600 59.83600 41.57300
C  27.56700 60.50400 41.50200
N  29.55500 55.83400 40.17600
C  28.42900 55.23200 39.72800
C  28.62600 53.80800 39.25200
C  30.16300 53.60000 39.54500
C  30.63100 54.97600 40.04900
C  30.37400 52.47600 40.54500
C  28.25900 53.38300 37.82200
C  28.47500 54.51200 36.77100
H  28.86400 54.15900 35.24800
N  31.90800 57.57700 40.97300
C  32.59800 56.53700 40.52900
C  34.01400 56.77700 40.45400
C  34.22300 58.04400 40.93800
C  32.81800 58.56400 41.21500
C  34.89600 55.73300 39.96400
C  35.53500 58.74700 41.13800
O  36.54900 58.07400 41.00900
C  35.67100 60.20600 41.57100
N  29.93400 59.83300 41.43900
C  31.13400 60.42000 41.67300
C  31.01500 61.92700 42.05900
C  29.54200 62.07900 42.22900
C  28.96300 60.72200 41.74700
C  31.76300 62.28200 43.33300
C  28.92900 63.31100 41.37800
C  27.82000 64.02900 42.10300
N  27.81900 58.15600 40.74900
C  27.01900 59.28900 40.96700
C  25.65400 58.95400 40.74800
C  25.74900 57.66600 40.15500
C  27.08400 57.20400 40.23500
C  24.34600 59.76300 40.98600
C  24.94700 56.63800 39.48100
O  23.76600 56.66600 39.14800
C  25.90600 55.40200 39.23100
C  25.43500 54.24200 39.93500
O  25.61800 54.03100 41.12300
O  24.54000 53.39300 39.20300
C  23.79200 52.34700 39.87400
H  32.60600 54.47500 39.91400
H  33.20500 60.57500 41.77400
H  26.77900 61.19500 41.81000
H  28.03000 53.17900 39.91200
H  30.78400 53.47700 38.65700
H  31.33400 51.95900 40.51400
H  29.56100 51.75400 40.47300
H  30.29700 52.84000 41.56900
H  27.21300 53.11300 37.67900
H  28.84500 52.50100 37.56200
H  29.19300 55.20000 37.21900
H  27.52000 55.02800 36.67000
H  34.55300 55.40900 38.98100
H  34.93700 54.81700 40.55300
H  35.90300 56.10800 39.77900
H  35.16600 60.88600 40.88500
H  36.68700 60.50400 41.83000
H  35.16300 60.23600 42.53400
H  31.36700 62.63700 41.31100
H  29.21400 62.28800 43.24700
H  32.31900 61.39900 43.65000
H  31.05500 62.46000 44.14200
H  32.41300 63.15600 43.29500
H  28.48500 62.89600 40.47200
H  29.73000 64.03300 41.21900
H  28.25700 64.86900 42.64200
H  27.31200 63.53400 42.93200
H  27.03000 64.41300 41.45700
H  23.48100 59.16500 41.27200
H  23.95800 60.12400 40.03400
H  24.46800 60.59800 41.67600
H  25.88600 55.18800 38.16200
H  23.09500 52.83400 40.55500
H  24.39700 51.70000 40.51000
H  23.25100 51.75400 39.13700
Mg -1.04000 33.89400 27.17200
C  -2.95300 32.38800 29.66300
C  0.21800 35.93900 29.75400
C  0.18300 35.98200 24.89200
C  -2.74300 32.26000 24.83200
N  -1.42500 34.15500 29.39100
C  -2.17300 33.36700 30.23500
C  -2.08200 33.70800 31.76400
C  -1.19000 35.00700 31.62200
C  -0.85100 35.11800 30.14700
C  -1.82400 36.42400 32.13300
C  -1.77500 32.53700 32.77000
C  -0.80500 32.84600 33.89400
H  -1.12100 32.21400 35.25500
N  0.22400 35.56200 27.29700
C  0.68800 36.19100 28.41500
C  1.60400 37.26600 27.99200
C  1.57000 37.37200 26.59100
C  0.59800 36.29400 26.15700
C  2.24900 38.15500 28.97700
C  2.32200 38.23100 25.63600
O  2.30100 38.21000 24.42000
C  3.39700 39.07400 26.25800
N  -1.27000 34.11600 25.19800
C  -0.59500 34.97000 24.37400
C  -0.81300 34.72800 22.91300
C  -1.69800 33.43000 22.86200
C  -1.92200 33.18200 24.38900
C  -1.46900 35.89200 22.19100
C  -0.95000 32.29500 22.17300
C  0.01500 31.39000 22.96400
N  -2.53300 32.51300 27.19000
C  -3.11300 31.91800 26.10600
C  -4.06600 30.99400 26.53500
C  -4.02900 31.05400 27.94500
C  -3.11400 32.06600 28.33000
C  -4.99500 30.11300 25.70500
C  -4.60100 30.56700 29.19600
O  -5.52100 29.73400 29.41400
C  -3.76600 31.30500 30.35700
C  -4.86300 31.77800 31.25400
O  -5.43700 32.84700 31.08500
O  -5.01200 30.86600 32.35700
C  -5.93000 31.37400 33.35800
H  0.61100 36.52000 30.59100
H  0.45800 36.64800 24.07100
H  -3.13600 31.55200 24.09900
H  -3.07500 34.08000 32.01600
H  -0.21500 34.81100 32.06900
H  -2.78500 36.22400 32.60700
H  -1.84500 36.99500 31.20500
H  -1.18600 36.84400 32.91000
H  -1.29600 31.77500 32.15500
H  -2.67900 32.10800 33.20300
H  -0.80600 33.92600 34.03800
H  0.19400 32.56300 33.56300
H  2.31500 39.22400 28.77800
H  3.23700 37.71700 29.12100
H  1.85700 38.05000 29.98900
H  4.09900 38.44200 26.80300
H  2.74900 39.65700 26.91200
H  3.92200 39.79700 25.63400
H  0.17000 34.52000 22.49200
H  -2.63000 33.59100 22.32000
H  -1.46600 36.85300 22.70500
H  -2.50500 35.75700 21.87900
H  -0.91300 36.06300 21.26900
H  -0.33500 32.70400 21.37200
H  -1.78000 31.71400 21.76800
H  0.12900 31.68200 24.00800
H  0.91800 31.38200 22.35400
H  -0.41800 30.39000 22.99300
H  -5.98700 30.49000 25.95200
H  -4.89000 29.05500 25.94900
H  -4.74400 30.26700 24.65500
H  -3.12100 30.58400 30.85800
H  -6.84800 31.77200 32.92500
H  -5.42700 32.20900 33.84500
H  -6.27400 30.54000 33.97100

