158

Mg 1.76100 -2.07300 43.44400
C  5.37000 -2.23600 42.79100
C  1.69700 0.82300 41.64900
C  -1.66400 -2.45000 43.08400
C  1.98900 -5.36100 44.56400
N  3.43200 -0.79400 42.52700
C  4.80000 -1.03400 42.37900
C  5.43500 0.16300 41.69500
C  4.30600 1.13500 41.46900
C  3.00900 0.36000 41.82600
C  4.48900 2.58800 42.02200
C  6.12100 -0.24200 40.35400
C  6.76300 0.80800 39.53600
H  6.14200 1.05300 38.17600
N  0.17600 -0.92400 42.67700
C  0.38300 0.26100 41.95400
C  -0.83600 0.78100 41.47600
C  -1.82700 -0.15100 41.85200
C  -1.13400 -1.24600 42.59800
C  -0.98200 2.04800 40.68700
C  -3.35100 0.07500 41.70900
O  -3.86200 1.04700 41.15200
C  -4.33100 -0.83900 42.42700
N  0.35600 -3.67900 43.78100
C  -0.96200 -3.54400 43.60500
C  -1.64800 -4.85300 43.95800
C  -0.47400 -5.82000 44.50500
C  0.68900 -4.90600 44.38600
C  -2.88700 -4.75700 44.90300
C  -0.45600 -7.18900 43.70500
C  -1.55100 -8.20200 44.09500
N  3.28000 -3.57400 43.71500
C  3.19600 -4.84000 44.17900
C  4.56300 -5.34600 44.32600
C  5.43000 -4.35400 43.79100
C  4.59600 -3.33700 43.38900
C  5.03100 -6.61200 44.98700
C  6.84200 -3.99300 43.50500
O  7.88400 -4.59000 43.71100
C  6.79800 -2.67400 42.66500
C  7.81500 -1.74200 43.08200
O  8.88300 -1.61400 42.48700
O  7.41700 -1.05600 44.21800
C  8.46500 -0.14800 44.71300
H  1.70300 1.69200 40.98800
H  -2.71700 -2.66000 42.89000
H  1.96900 -6.40100 44.89500
H  6.18100 0.53900 42.39600
H  4.21900 1.29400 40.39400
H  3.51400 2.85500 42.43000
H  4.69200 3.31600 41.23600
H  5.22900 2.62500 42.82100
H  5.44100 -0.79700 39.70800
H  6.97300 -0.85300 40.65200
H  7.83800 0.68500 39.41000
H  6.56800 1.71000 40.11600
H  -1.99300 2.44600 40.77500
H  -0.68700 1.77000 39.67500
H  -0.28800 2.81700 41.02400
H  -5.37800 -0.53300 42.43000
H  -4.04100 -1.08500 43.44800
H  -4.35600 -1.81300 41.93900
H  -2.12900 -5.19000 43.03900
H  -0.63200 -6.03700 45.56100
H  -3.03300 -3.74200 45.27100
H  -2.90000 -5.48300 45.71600
H  -3.78000 -5.00100 44.32800
H  0.47500 -7.72700 43.88500
H  -0.43600 -6.98300 42.63500
H  -2.38000 -7.58600 44.44500
H  -1.37200 -8.98100 44.83700
H  -1.84900 -8.75300 43.20300
H  4.73900 -7.45900 44.36500
H  4.67900 -6.65400 46.01700
H  6.10600 -6.76500 45.08000
H  7.03800 -2.98600 41.64900
H  9.12100 -0.87900 45.18500
H  8.13000 0.47000 45.54600
H  9.02900 0.48100 44.02500
Mg 54.49400 24.18600 45.43600
C  51.71200 26.26500 44.92100
C  52.70900 21.46600 44.25700
C  57.25700 22.43700 45.56500
C  56.28100 27.12900 46.31500
N  52.44200 23.99900 44.59800
C  51.53100 24.96000 44.37800
C  50.25400 24.36200 43.73800
C  50.49700 22.81500 44.01700
C  51.98600 22.75800 44.21700
C  49.94700 22.23600 45.30000
C  50.25700 24.76000 42.19200
C  48.94400 25.13800 41.44000
H  48.44900 24.18000 40.27400
N  54.85000 22.16900 45.02700
C  54.03000 21.22200 44.52000
C  54.78000 19.96100 44.41600
C  56.09000 20.19600 44.93000
C  56.07500 21.64000 45.24000
C  54.04300 18.64100 44.01000
C  57.18400 19.12300 45.13900
O  56.89800 18.00200 44.74400
C  58.51900 19.48900 45.61600
N  56.55200 24.73900 45.79900
C  57.47300 23.73300 45.87500
C  58.82800 24.35300 46.31700
C  58.52900 25.89400 46.31900
C  57.01300 25.87600 46.24400
C  59.33000 23.62700 47.61600
C  59.06200 26.86000 45.08100
C  60.54100 26.63700 44.70800
N  54.17100 26.28300 45.60400
C  54.97400 27.34900 46.03000
C  54.20600 28.50300 46.10900
C  52.94800 28.16000 45.67000
C  52.91700 26.77100 45.40700
C  54.67400 29.79500 46.50100
C  51.62100 28.75400 45.40300
O  51.15800 29.84100 45.61800
C  50.79700 27.51900 44.82300
C  50.35900 27.89700 43.44200
O  51.20500 28.26000 42.60800
O  48.98700 27.81400 43.27400
C  48.49800 28.30200 41.99600
H  52.00500 20.67600 43.98900
H  58.22300 21.94300 45.68400
H  56.80300 28.03200 46.64000
H  49.38200 24.68400 44.30600
H  50.25100 22.18100 43.16600
H  49.08100 22.78400 45.67200
H  50.65300 22.11100 46.12100
H  49.61100 21.22300 45.07600
H  50.66800 23.88700 41.68500
H  50.90800 25.61800 42.02100
H  49.09000 26.05000 40.86100
H  48.18700 25.29400 42.20800
H  53.56700 18.82700 43.04700
H  53.28600 18.15300 44.62500
H  54.74100 17.83100 43.79700
H  59.13000 20.07300 44.92800
H  59.05700 18.58900 45.91700
H  58.34000 20.00000 46.56200
H  59.55100 24.21000 45.51300
H  58.63500 26.34800 47.30500
H  59.74900 24.37400 48.29000
H  60.08200 22.85300 47.46500
H  58.51700 23.21800 48.21600
H  58.77100 27.87300 45.36100
H  58.54900 26.74000 44.12700
H  60.54900 26.14600 43.73500
H  61.00300 26.04700 45.50000
H  61.15000 27.51700 44.49800
H  54.19400 30.01300 47.45500
H  54.36600 30.35500 45.61800
H  55.73600 30.03000 46.55700
H  49.95300 27.27100 45.46600
H  49.09800 28.01900 41.13100
H  48.63400 29.38400 41.99900
H  47.46000 28.14900 41.69900

