158

Mg -1.49300 34.49600 26.47400
C  -3.27800 32.59800 29.00600
C  -0.93500 36.82400 28.93300
C  -0.63300 36.65600 24.06900
C  -3.20900 32.47500 24.06400
N  -2.12200 34.68500 28.72200
C  -2.60200 33.65300 29.58900
C  -2.37200 33.95700 31.06700
C  -1.75200 35.44200 31.02100
C  -1.64200 35.70800 29.47100
C  -2.47400 36.55700 31.79100
C  -1.56200 32.81900 31.83500
C  -2.19500 32.20900 33.09900
H  -1.32100 32.26000 34.36900
N  -0.67000 36.33700 26.52000
C  -0.50400 37.13400 27.61000
C  0.37700 38.14200 27.19700
C  0.50100 38.25500 25.80900
C  -0.30800 37.06900 25.38300
C  1.06900 39.10400 28.23500
C  1.24600 39.20000 24.88400
O  1.17700 39.08400 23.64900
C  2.06700 40.27100 25.51600
N  -1.83700 34.45300 24.37700
C  -1.30900 35.50000 23.60300
C  -1.49000 35.19300 22.07300
C  -2.17000 33.80900 22.06000
C  -2.40300 33.49400 23.58500
C  -2.32800 36.31900 21.25800
C  -1.28400 32.73300 21.39600
C  0.04800 32.33900 22.02000
N  -2.93600 32.84800 26.47100
C  -3.50200 32.15500 25.44500
C  -4.40800 31.08800 25.88100
C  -4.32000 31.24800 27.27200
C  -3.43700 32.35200 27.59500
C  -5.09000 30.20400 24.93900
C  -4.79600 30.69900 28.53900
O  -5.60200 29.81900 28.93800
C  -3.96600 31.51000 29.66300
C  -5.00400 31.99200 30.68300
O  -5.92200 32.84700 30.59700
O  -4.95800 31.24900 31.85000
C  -5.89300 31.61300 32.93400
H  -0.60900 37.54200 29.68800
H  -0.09300 37.24300 23.32400
H  -3.58400 31.80100 23.29100
H  -3.38800 34.06800 31.44600
H  -0.75700 35.38900 31.46200
H  -3.00000 37.18600 31.07300
H  -1.65700 37.06700 32.30200
H  -3.21200 36.14500 32.48000
H  -0.55900 33.17900 32.06500
H  -1.30500 32.01800 31.14100
H  -2.57400 31.21200 32.87600
H  -3.05200 32.85600 33.28800
H  1.11300 40.16100 27.97400
H  2.14800 38.96500 28.15800
H  0.71600 39.06600 29.26600
H  2.82100 39.90800 26.21400
H  1.46800 41.08100 25.93100
H  2.61000 40.65200 24.65100
H  -0.44600 35.20500 21.76000
H  -3.17400 33.89100 21.64300
H  -3.33900 35.98800 21.02000
H  -1.83400 36.67200 20.35300
H  -2.30900 37.16800 21.94100
H  -1.14600 32.91600 20.33000
H  -1.92800 31.85400 21.42200
H  0.15700 33.03700 22.85000
H  0.84200 32.41200 21.27700
H  0.15400 31.34200 22.44900
H  -4.51300 29.92700 24.05700
H  -6.09900 30.49500 24.64500
H  -5.26800 29.31000 25.53600
H  -3.43800 30.74600 30.23400
H  -5.38900 32.27600 33.63700
H  -6.14500 30.67000 33.42100
H  -6.86800 31.91700 32.55300
Mg -10.92900 16.44500 42.94100
C  -7.46500 17.40000 42.88400
C  -11.65000 19.90100 42.45100
C  -14.03500 15.64000 42.69000
C  -9.86700 13.16600 42.66700
N  -9.65600 18.48600 42.56700
C  -8.27600 18.56000 42.73800
C  -7.86300 20.01000 42.49300
C  -9.17200 20.80800 42.59000
C  -10.24500 19.73700 42.45100
C  -9.25000 21.53800 43.99100
C  -7.00200 20.18400 41.20200
C  -5.56700 20.68700 41.22400
H  -4.64400 20.06300 40.20100
N  -12.61500 17.54800 42.75200
C  -12.72900 18.96000 42.57600
C  -14.10300 19.32300 42.39400
C  -14.84400 18.13400 42.69100
C  -13.85400 17.03700 42.78200
C  -14.66900 20.72700 42.05400
C  -16.38900 18.03800 42.70500
O  -17.07600 18.97600 42.31100
C  -17.01400 16.80200 43.33700
N  -11.83200 14.65200 42.69600
C  -13.17200 14.55200 42.66000
C  -13.62500 13.09000 42.91600
C  -12.27600 12.32500 42.57100
C  -11.21300 13.40900 42.64100
C  -14.35500 12.92700 44.29500
C  -12.38300 11.58400 41.13400
C  -12.86700 10.11500 41.08300
N  -9.09800 15.49500 42.74400
C  -8.84400 14.16100 42.74700
C  -7.41400 13.89300 42.83300
C  -6.82600 15.15500 42.97500
C  -7.91200 16.09300 42.87300
C  -6.84000 12.51200 42.74900
C  -5.56600 15.79400 43.14300
O  -4.38000 15.40100 43.29500
C  -5.94300 17.30400 43.25100
C  -5.69200 17.64000 44.63500
O  -5.94400 16.96100 45.61000
O  -5.12600 18.85600 44.64100
C  -4.88500 19.48200 46.01100
H  -11.93000 20.92300 42.18700
H  -15.04400 15.22200 42.67800
H  -9.62800 12.10700 42.79000
H  -7.20900 20.14000 43.35500
H  -9.27900 21.60100 41.84900
H  -8.31200 21.74900 44.50600
H  -9.76500 20.92200 44.72800
H  -9.90400 22.40400 43.88800
H  -7.57100 20.87100 40.57600
H  -7.04400 19.21400 40.70600
H  -5.05400 20.45100 42.15700
H  -5.50500 21.77300 41.15800
H  -14.83200 20.84800 40.98300
H  -13.98000 21.54000 42.28100
H  -15.56900 21.09500 42.54600
H  -18.03600 17.00200 43.66000
H  -16.35400 16.38100 44.09500
H  -17.03600 16.10000 42.50300
H  -14.42300 12.99000 42.18000
H  -12.02700 11.59800 43.34300
H  -14.36200 13.91800 44.74900
H  -13.83700 12.25300 44.97700
H  -15.41200 12.67000 44.23400
H  -11.59100 11.88300 40.44800
H  -13.27800 12.00100 40.67300
H  -12.13900 9.36900 40.76500
H  -13.76100 10.14400 40.46000
H  -13.27200 9.93400 42.07800
H  -7.54000 11.77600 42.35400
H  -6.61200 12.05200 43.71000
H  -5.88900 12.44300 42.22100
H  -5.32600 17.90500 42.58400
H  -3.99600 20.04800 45.73400
H  -4.57000 18.71700 46.72000
H  -5.71500 20.10800 46.34100

