158

Mg 46.12400 24.41600 28.58900
C  46.99800 26.71600 31.11600
C  45.83900 22.02400 30.99600
C  45.50500 22.18700 26.07800
C  47.21000 26.74300 26.24000
N  46.19800 24.46200 30.78200
C  46.53500 25.51200 31.56800
C  46.42900 25.12400 33.04300
C  46.52900 23.51700 33.03500
C  46.10600 23.30400 31.51400
C  47.92300 22.92900 33.44700
C  45.12800 25.69100 33.61500
C  45.37700 26.84000 34.64800
H  44.68700 26.75500 35.99000
N  45.58000 22.39800 28.59200
C  45.54300 21.57400 29.72800
C  45.29500 20.18600 29.27100
C  45.33300 20.23100 27.79000
C  45.46200 21.60300 27.40200
C  45.39300 19.00300 30.18500
C  45.38900 18.99600 26.82000
O  45.44600 19.07800 25.59400
C  45.48900 17.65500 27.41200
N  46.38600 24.42300 26.52800
C  45.96200 23.48200 25.69800
C  46.17600 23.80800 24.19300
C  46.49800 25.28700 24.30500
C  46.71100 25.50900 25.74900
C  47.30500 22.83000 23.67600
C  45.37400 26.14300 23.74500
C  45.72400 27.39000 23.00500
N  47.02300 26.25900 28.58900
C  47.34300 27.11300 27.56000
C  47.67600 28.42700 28.04900
C  47.57600 28.30400 29.45600
C  47.18800 26.98600 29.71100
C  48.17500 29.52500 27.25000
C  47.77400 28.96200 30.78700
O  48.30400 30.04500 30.95000
C  47.37400 27.98400 31.91500
C  48.66000 27.74000 32.75100
O  49.60500 27.29700 32.25000
O  48.56400 28.17900 34.05300
C  49.78000 28.07200 34.85500
H  45.82700 21.30100 31.81400
H  45.24600 21.54100 25.23700
H  47.47900 27.42100 25.42700
H  47.29400 25.52300 33.57200
H  45.77200 23.06100 33.67300
H  48.30000 22.34700 32.60600
H  47.69400 22.40500 34.37500
H  48.63300 23.75400 33.51500
H  44.48100 24.94800 34.08200
H  44.54600 26.01700 32.75300
H  44.83400 27.69600 34.24700
H  46.45600 26.94600 34.76900
H  45.49400 19.30600 31.22800
H  46.31500 18.42700 30.11000
H  44.49000 18.39400 30.16400
H  46.46800 17.56400 27.88200
H  45.46800 16.88100 26.64400
H  44.63800 17.43600 28.05700
H  45.17900 23.64800 23.78200
H  47.41800 25.50900 23.76400
H  48.22300 23.41000 23.58900
H  47.04100 22.60000 22.64400
H  47.31700 21.92100 24.27800
H  44.66000 26.34200 24.54400
H  44.90900 25.58500 22.93300
H  45.59500 27.30300 21.92600
H  46.80400 27.52400 23.07500
H  45.20200 28.24900 23.42600
H  47.71300 29.45900 26.26500
H  49.25900 29.50000 27.14200
H  47.82200 30.43100 27.74200
H  46.56800 28.22800 32.60700
H  49.57100 27.56200 35.79500
H  50.02900 29.11800 35.03200
H  50.59800 27.60600 34.30700
Mg -5.78500 25.77100 25.71700
C  -4.69500 27.34500 28.72800
C  -7.64700 23.50100 27.86000
C  -6.41700 23.89100 23.11800
C  -3.34300 27.61600 24.02500
N  -6.03900 25.33000 28.07400
C  -5.54700 26.20600 28.99200
C  -6.10700 25.80100 30.37700
C  -7.05100 24.60200 30.13300
C  -6.91700 24.43000 28.60000
C  -6.63100 23.25600 30.81000
C  -6.81700 26.98800 31.10400
C  -6.39800 27.32600 32.54700
H  -5.85900 26.26700 33.54100
N  -6.95000 24.00000 25.43900
C  -7.64800 23.23600 26.44600
C  -8.40500 22.16600 25.78300
C  -8.01400 22.17600 24.40600
C  -7.06900 23.36000 24.27300
C  -9.36400 21.22600 26.50100
C  -8.40800 21.32700 23.19900
O  -7.98800 21.47300 22.00600
C  -9.38600 20.25400 23.38800
N  -5.02000 25.79500 23.76600
C  -5.47900 24.87600 22.82900
C  -4.79200 25.12600 21.44900
C  -3.74400 26.26300 21.81000
C  -4.07500 26.68900 23.25400
C  -4.05400 23.81300 20.89500
C  -3.69800 27.47100 20.96300
C  -2.30300 27.70700 20.22000
N  -4.22100 27.15600 26.23200
C  -3.38800 27.87800 25.39600
C  -2.82800 28.97000 26.08800
C  -3.32600 28.81500 27.38700
C  -4.17800 27.68500 27.44300
C  -1.87000 30.00900 25.53500
C  -3.20300 29.28500 28.78500
O  -2.45400 30.17200 29.17400
C  -4.04000 28.36800 29.61600
C  -2.98600 27.70200 30.53400
O  -2.26000 26.76900 30.19900
O  -3.10000 28.21000 31.80200
C  -2.16100 27.60400 32.81500
H  -8.37700 22.93600 28.44300
H  -6.52300 23.33600 22.18400
H  -2.57200 28.25000 23.58200
H  -5.27300 25.50000 31.01000
H  -8.09700 24.75700 30.39600
H  -6.06900 23.41400 31.73000
H  -6.00500 22.59800 30.20800
H  -7.51100 22.70900 31.14800
H  -7.87400 26.72300 31.10400
H  -6.73000 27.94100 30.58200
H  -7.08800 27.96000 33.10400
H  -5.46600 27.87100 32.40200
H  -9.27100 21.29000 27.58500
H  -9.07600 20.23000 26.16700
H  -10.37800 21.44600 26.16500
H  -9.84400 20.07000 22.41600
H  -10.13900 20.47600 24.14500
H  -8.82900 19.39600 23.76300
H  -5.55500 25.46900 20.75000
H  -2.71300 25.90800 21.79800
H  -4.63600 23.37600 20.08400
H  -3.80800 23.17700 21.74600
H  -3.20800 24.07900 20.26200
H  -3.78200 28.42000 21.49100
H  -4.46800 27.34100 20.20300
H  -1.56000 27.25200 20.87400
H  -2.24200 28.78300 20.05400
H  -2.21200 27.11200 19.31100
H  -2.16200 30.37200 24.55000
H  -0.86000 29.60800 25.44800
H  -1.81800 30.86900 26.20300
H  -4.68100 28.93200 30.29300
H  -1.31200 28.28800 32.82100
H  -1.82100 26.59700 32.57400
H  -2.65100 27.52400 33.78600

