158

Mg 8.27700 3.72800 27.95000
C  9.97900 2.33600 30.58000
C  6.71700 5.87300 30.07300
C  6.57000 4.87900 25.27000
C  9.97900 1.50700 25.88400
N  8.10800 3.94800 30.08100
C  9.00800 3.25900 30.96500
C  9.01300 3.86300 32.35900
C  7.86000 4.92200 32.22100
C  7.50100 4.92600 30.72000
C  6.57500 4.73300 33.16900
C  10.36200 4.50800 32.83200
C  11.14000 3.81300 33.97600
H  11.22100 4.57900 35.30100
N  6.83100 5.18300 27.69700
C  6.30000 5.99700 28.67300
C  5.27300 6.79700 28.03400
C  5.23100 6.58000 26.65200
C  6.25100 5.44600 26.47100
C  4.46500 7.81600 28.89700
C  4.36000 7.21400 25.51800
O  4.53400 6.89000 24.34200
C  3.41400 8.34400 25.81200
N  8.28500 3.23900 25.88900
C  7.50200 3.89200 24.97000
C  7.86200 3.57600 23.50900
C  9.04800 2.56700 23.76600
C  9.05200 2.37500 25.29400
C  6.66200 3.00400 22.70400
C  10.44400 2.98400 23.09500
C  11.14600 1.96200 22.08100
N  9.58900 2.13300 28.16500
C  10.15000 1.29900 27.21500
C  11.09300 0.41000 27.85400
C  11.06100 0.80900 29.20600
C  10.12500 1.85700 29.33600
C  11.91700 -0.67800 27.23400
C  11.55800 0.45800 30.48400
O  12.37800 -0.38900 30.73800
C  10.88400 1.40400 31.50100
C  10.08900 0.61800 32.54300
O  8.92500 0.21200 32.49800
O  10.97600 0.37000 33.54600
C  10.34100 -0.20500 34.69400
H  6.17200 6.51200 30.76900
H  6.07900 5.22900 24.36000
H  10.46600 0.89900 25.11800
H  8.69400 3.16600 33.13400
H  8.29000 5.90000 32.43900
H  5.69500 4.63400 32.53400
H  6.57700 5.53800 33.90300
H  6.54300 3.86900 33.83300
H  10.13400 5.52800 33.14200
H  11.02300 4.50000 31.96500
H  12.15100 3.48400 33.73600
H  10.63600 2.87800 34.21900
H  4.74300 7.68600 29.94300
H  3.44600 7.50600 28.66900
H  4.73400 8.81700 28.55900
H  2.66400 8.19300 26.58900
H  2.97300 8.80400 24.92900
H  4.07800 9.14600 26.13400
H  8.14700 4.58500 23.21200
H  8.90400 1.53600 23.44400
H  5.79700 2.96700 23.36700
H  6.80600 1.95800 22.43500
H  6.55200 3.61100 21.80500
H  11.05600 3.21500 23.96700
H  10.26900 3.94900 22.62000
H  11.08600 2.37000 21.07200
H  10.65100 0.99300 22.02400
H  12.21200 1.90800 22.30000
H  12.30400 -0.18800 26.34000
H  11.46900 -1.64000 26.98800
H  12.71000 -0.88100 27.95400
H  11.71600 1.98600 31.89700
H  9.65600 -0.99400 34.38400
H  9.79800 0.57000 35.23600
H  11.11000 -0.55500 35.38200
Mg -6.48900 25.33600 25.49500
C  -5.04100 26.82400 28.34500
C  -8.46100 23.42400 27.51400
C  -7.67600 23.84000 22.68600
C  -4.35300 27.22300 23.50100
N  -6.71300 25.13400 27.72300
C  -6.02800 25.88900 28.64300
C  -6.47700 25.36300 29.99900
C  -7.37400 24.15700 29.78100
C  -7.60400 24.24300 28.22300
C  -6.75500 22.74300 30.20700
C  -7.12500 26.49000 30.85600
C  -6.70800 26.67800 32.29400
H  -5.90300 25.53500 32.97200
N  -7.91500 23.91500 25.18900
C  -8.72200 23.31700 26.12800
C  -9.77300 22.55900 25.51100
C  -9.50200 22.57600 24.10700
C  -8.38500 23.54000 23.95000
C  -10.85600 21.81400 26.27600
C  -10.16200 21.80700 22.94800
O  -9.74000 21.81100 21.79800
C  -11.45300 21.06800 23.20700
N  -5.98600 25.41500 23.40400
C  -6.57100 24.60400 22.43200
C  -5.74300 24.82300 21.11800
C  -4.92700 26.11800 21.35900
C  -5.15700 26.33300 22.82900
C  -4.93100 23.61400 20.74300
C  -5.22900 27.32700 20.44400
C  -4.07600 27.64000 19.43200
N  -5.05400 26.76500 25.81300
C  -4.29100 27.43000 24.89800
C  -3.33100 28.26700 25.52200
C  -3.54900 28.00700 26.87800
C  -4.65900 27.13300 27.02200
C  -2.34000 29.20400 24.77700
C  -3.16100 28.42000 28.24900
O  -2.23700 29.19400 28.65400
C  -4.05700 27.60100 29.26300
C  -3.16100 26.64800 29.98400
O  -2.74300 25.64000 29.43300
O  -2.96300 26.93200 31.23900
C  -2.03400 26.00100 31.89300
H  -9.04800 22.84800 28.23200
H  -8.16400 23.56600 21.74800
H  -3.56900 27.74500 22.94700
H  -5.49500 25.12400 30.40600
H  -8.33000 24.23300 30.29800
H  -7.42400 22.27000 30.92500
H  -5.79500 22.83500 30.71500
H  -6.65600 22.12300 29.31600
H  -8.19400 26.34900 30.70200
H  -7.07900 27.46200 30.36400
H  -7.65400 26.72200 32.83400
H  -6.20900 27.62300 32.50500
H  -11.78000 22.16900 25.81800
H  -10.91300 22.04300 27.34000
H  -10.86700 20.72800 26.17900
H  -11.32600 20.07200 23.63000
H  -11.71500 20.82700 22.17700
H  -12.23200 21.65400 23.69500
H  -6.51200 24.95500 20.35700
H  -3.85400 25.93000 21.32100
H  -5.29200 22.69900 21.21300
H  -3.87000 23.75300 20.95200
H  -5.08200 23.30900 19.70800
H  -5.47600 28.25200 20.96500
H  -6.10700 26.98100 19.89900
H  -4.33700 27.63800 18.37400
H  -3.21300 26.97500 19.46800
H  -3.56300 28.55800 19.71700
H  -2.91000 30.04700 24.38600
H  -1.69600 28.75700 24.01900
H  -1.67600 29.59100 25.55000
H  -4.56700 28.24000 29.98300
H  -2.13400 24.94100 31.66000
H  -2.06700 26.17400 32.96900
H  -1.01700 26.25900 31.59900

