158

Mg 35.92800 1.24000 29.73000
C  33.79300 2.23700 32.37400
C  38.50400 0.96400 32.13200
C  38.11100 0.94400 27.26400
C  33.25800 1.72700 27.50700
N  36.11300 1.52500 32.02900
C  35.11400 1.96400 32.83700
C  35.61300 1.75800 34.32600
C  37.19800 1.75700 34.17400
C  37.27900 1.41000 32.67200
C  37.88400 3.14100 34.56800
C  34.93600 0.50100 35.05300
C  34.13200 0.76500 36.26600
H  34.47200 2.03700 37.01400
N  38.06100 0.82300 29.75700
C  38.86000 0.72200 30.80300
C  40.21400 0.45500 30.29500
C  40.08700 0.38700 28.86600
C  38.67000 0.71100 28.56700
C  41.36400 0.05100 31.29200
C  41.14400 0.27600 27.70200
O  40.87000 0.14700 26.49700
C  42.54600 0.11900 27.98800
N  35.73200 1.32300 27.68400
C  36.78200 1.25100 26.87300
C  36.36700 1.33200 25.40900
C  34.78100 1.44800 25.46100
C  34.53200 1.44800 26.96800
C  36.97600 2.56800 24.70800
C  34.12100 0.30200 24.71400
C  33.80400 -1.00000 25.47500
N  33.94000 1.76700 29.89800
C  33.00200 2.00200 28.91600
C  31.75100 2.53400 29.50600
C  31.99800 2.54400 30.88100
C  33.39400 2.11000 31.05600
C  30.47100 3.00200 28.75400
C  31.41300 2.89800 32.15800
O  30.29000 3.27600 32.48300
C  32.57000 2.65800 33.20700
C  32.74300 3.90500 33.99300
O  33.57700 4.75100 33.67100
O  31.85900 3.99300 35.04000
C  31.88800 5.22600 35.80500
H  39.34400 0.76900 32.80200
H  38.73800 0.74100 26.39300
H  32.47900 1.91700 26.76600
H  35.36500 2.71400 34.78800
H  37.55400 0.85900 34.67900
H  37.16000 3.89400 34.88000
H  38.38900 3.54000 33.68800
H  38.65100 3.12900 35.34200
H  35.73400 -0.21100 35.26200
H  34.40800 -0.02100 34.25500
H  34.12800 -0.05200 36.98800
H  33.06600 0.79700 36.04100
H  42.20200 -0.48100 30.84200
H  40.93800 -0.61000 32.04600
H  41.78000 0.94500 31.75700
H  42.59300 -0.82100 28.53800
H  42.76700 1.05300 28.50500
H  43.17200 0.06700 27.09800
H  36.71500 0.47300 24.83500
H  34.30900 2.35200 25.07600
H  36.16600 3.28200 24.56000
H  37.49300 2.36700 23.77000
H  37.63600 3.17300 25.32900
H  34.85000 -0.07200 23.99600
H  33.26700 0.66400 24.14100
H  34.39600 -1.86200 25.16400
H  32.82300 -1.43000 25.27100
H  33.80500 -0.91100 26.56100
H  30.67100 2.78100 27.70500
H  30.34900 4.05600 29.00400
H  29.73900 2.27300 29.10200
H  32.17700 1.90500 33.89000
H  31.59300 6.06000 35.16800
H  32.90000 5.44400 36.14500
H  31.24400 5.13800 36.67900
Mg 40.97600 7.93400 29.61500
C  42.93000 9.32800 32.19500
C  38.74300 6.70200 31.91200
C  39.26200 6.57800 27.09900
C  43.48700 8.88900 27.43600
N  40.86800 8.12500 31.71300
C  41.73400 8.78200 32.51900
C  41.19700 8.68600 34.04700
C  39.80800 7.98100 33.92700
C  39.79900 7.51900 32.48400
C  39.63500 6.88300 34.94400
C  41.06700 10.12500 34.72800
C  40.33100 10.15700 36.09200
H  41.18100 10.36600 37.40000
N  39.22100 6.85400 29.53700
C  38.48600 6.41300 30.56700
C  37.34200 5.64400 30.09300
C  37.39800 5.67900 28.67300
C  38.68000 6.39600 28.33400
C  36.40100 4.86200 30.94900
C  36.42700 5.30200 27.60400
O  36.68600 5.32600 26.44200
C  34.98500 5.08200 28.07000
N  41.41300 7.66800 27.54100
C  40.40200 7.25500 26.72400
C  40.91500 7.34600 25.26000
C  42.11700 8.32000 25.34900
C  42.30900 8.37300 26.84900
C  41.36100 5.96500 24.65800
C  41.84600 9.82500 24.89600
C  40.55000 10.52400 25.28500
N  42.85500 8.72600 29.78000
C  43.77000 9.06100 28.82500
C  44.93300 9.66000 29.31700
C  44.62800 9.84900 30.64200
C  43.39700 9.22900 30.86600
C  46.05900 10.37400 28.55300
C  45.21100 10.32900 31.90100
O  46.27600 10.88100 32.09000
C  44.14400 9.92200 32.93600
C  44.74900 9.07600 33.99600
O  45.06300 7.87900 33.98000
O  44.92200 9.96900 35.03600
C  45.31400 9.36800 36.34800
H  37.98500 6.27900 32.57500
H  38.70800 6.23500 26.22300
H  44.22800 9.33300 26.76800
H  41.94000 8.03000 34.50000
H  39.04200 8.74800 34.04100
H  40.04200 7.20600 35.90200
H  40.22600 6.02300 34.63200
H  38.60500 6.57600 35.12900
H  40.56600 10.71800 33.96200
H  42.07100 10.51200 34.90200
H  39.78500 9.21700 36.17200
H  39.53200 10.88200 35.93800
H  37.04000 4.52200 31.76400
H  36.10300 3.90900 30.51200
H  35.60600 5.44600 31.41000
H  34.90200 4.12500 28.58600
H  34.36800 4.97200 27.17800
H  34.64800 5.91300 28.68900
H  40.15200 7.73200 24.58400
H  43.00300 8.06600 24.76800
H  41.04100 5.17800 25.34200
H  42.43400 6.02600 24.48200
H  40.83600 5.71100 23.73700
H  41.93300 9.81400 23.81000
H  42.78000 10.27300 25.23400
H  40.17300 11.01000 24.38500
H  40.74900 11.13800 26.16300
H  39.74500 9.84500 25.56400
H  45.71700 11.30800 28.10700
H  46.50300 9.76800 27.76300
H  46.87800 10.46700 29.26600
H  43.73700 10.83100 33.37800
H  46.38500 9.55700 36.41700
H  45.13200 8.29400 36.32900
H  44.75200 9.85600 37.14500

