158

Mg -10.92100 38.78100 41.75100
C  -9.21400 35.83500 40.63200
C  -8.20400 40.63100 40.73800
C  -12.80300 41.45100 42.06700
C  -13.64600 36.74800 42.57800
N  -9.06300 38.22600 40.50900
C  -8.50900 37.01700 40.26600
C  -7.18000 37.11200 39.58700
C  -6.74300 38.60600 39.87000
C  -8.08300 39.22500 40.45800
C  -5.58500 38.68500 40.87100
C  -7.17600 36.63700 38.11000
C  -6.21200 35.52100 37.69900
H  -5.01800 35.98200 36.77600
N  -10.54100 40.82900 41.40800
C  -9.35700 41.39000 41.00900
C  -9.44300 42.79000 40.95400
C  -10.82400 43.08600 41.28600
C  -11.46500 41.77700 41.61700
C  -8.30400 43.73600 40.35600
C  -11.43000 44.50500 41.19900
O  -10.64200 45.44400 40.91800
C  -12.83900 44.83800 41.60000
N  -13.00300 39.04200 42.00400
C  -13.38900 40.23400 42.39200
C  -14.81400 40.17300 43.03400
C  -15.13100 38.73500 43.06300
C  -13.82800 38.12600 42.52700
C  -14.80700 41.00800 44.34900
C  -16.38900 38.30000 42.28800
C  -17.70900 38.30000 43.05200
N  -11.44000 36.70600 41.61500
C  -12.51100 36.06800 42.10600
C  -12.24400 34.59700 42.06000
C  -11.01900 34.43900 41.53200
C  -10.51600 35.75400 41.20400
C  -13.24500 33.56300 42.46100
C  -10.01700 33.42100 41.06700
O  -9.91400 32.19300 41.01200
C  -8.77900 34.36700 40.53700
C  -7.53300 34.07900 41.32700
O  -6.74400 33.16700 41.06000
O  -7.25300 34.93300 42.30300
C  -5.92100 34.78600 42.96000
H  -7.22800 41.12100 40.72000
H  -13.46500 42.31900 42.09100
H  -14.52800 36.25100 42.98700
H  -6.53900 36.46100 40.18100
H  -6.39600 39.04800 38.93600
H  -4.66900 38.32400 40.40400
H  -5.87800 38.16300 41.78200
H  -5.44100 39.74300 41.09000
H  -7.07300 37.48400 37.43200
H  -8.21600 36.34600 37.96400
H  -6.81600 34.74200 37.23300
H  -5.72300 35.13300 38.59300
H  -7.43600 43.11900 40.12300
H  -7.98300 44.38700 41.16900
H  -8.61900 44.32100 39.49200
H  -13.55600 44.13400 41.17700
H  -13.03200 45.87000 41.30800
H  -12.84300 44.71900 42.68300
H  -15.56400 40.68700 42.43300
H  -15.37100 38.42900 44.08100
H  -15.35200 41.92800 44.13900
H  -13.82200 41.34000 44.67800
H  -15.38100 40.42100 45.06500
H  -16.26300 37.33700 41.79400
H  -16.42100 39.04600 41.49400
H  -18.29800 37.39700 42.89600
H  -18.31200 39.13700 42.70000
H  -17.59700 38.37900 44.13400
H  -13.81000 33.84800 43.34900
H  -12.75500 32.60400 42.62400
H  -13.79600 33.31600 41.55300
H  -8.54000 34.04900 39.52200
H  -5.43900 35.76200 43.02500
H  -5.16700 34.14500 42.50500
H  -6.09900 34.40300 43.96500
Mg 1.96500 42.03200 24.29900
C  3.52900 42.07000 27.68900
C  -0.89300 41.16200 25.81200
C  0.81400 41.83000 21.33700
C  5.19600 42.67900 23.04000
N  1.41100 41.51400 26.49500
C  2.16500 41.69600 27.69000
C  1.27600 41.45500 28.95200
C  -0.11100 41.18500 28.34100
C  0.11300 41.24200 26.78700
C  -0.75600 39.90300 28.77900
C  1.32400 42.69000 29.87800
C  1.24000 42.41600 31.43300
H  -0.16400 42.10000 31.96000
N  0.28100 41.36000 23.67400
C  -0.86200 41.16500 24.45800
C  -2.04400 41.14300 23.57700
C  -1.55500 41.21100 22.21200
C  -0.09300 41.50300 22.38400
C  -3.46700 41.06100 24.13200
C  -2.28900 41.12400 20.91100
O  -1.76600 41.13600 19.77700
C  -3.76300 40.86100 21.01600
N  2.86700 42.04200 22.50000
C  2.15600 42.07100 21.36700
C  2.99200 42.33900 20.13200
C  4.38400 42.66800 20.77000
C  4.12100 42.47100 22.23200
C  2.97500 41.11500 19.10700
C  4.98900 44.06300 20.45100
C  4.37200 45.21900 21.16600
N  3.92300 42.39800 25.16000
C  5.12200 42.63800 24.47400
C  6.23100 42.69300 25.42800
C  5.60300 42.55900 26.70600
C  4.20600 42.35000 26.51400
C  7.71000 42.72700 25.15100
C  5.86800 42.47500 28.12400
O  6.94100 42.50700 28.64100
C  4.52000 42.15700 28.86100
C  4.68300 40.89900 29.64400
O  4.44600 39.74300 29.24700
O  5.31400 41.18100 30.82800
C  5.80800 39.98400 31.61300
H  -1.86300 41.04700 26.30000
H  0.37900 41.79600 20.33600
H  6.20600 42.97200 22.74600
H  1.61400 40.60700 29.54800
H  -0.81800 41.99000 28.54500
H  -0.18600 39.38200 29.54800
H  -0.80700 39.28300 27.88400
H  -1.73700 40.22400 29.12800
H  0.40500 43.25400 29.71500
H  2.10200 43.35700 29.50600
H  1.61200 43.27800 31.98700
H  1.88800 41.55700 31.60600
H  -3.44500 40.89800 25.21000
H  -4.02200 40.19000 23.78300
H  -4.06400 41.94100 23.89300
H  -4.28200 41.74100 21.39400
H  -3.94600 39.95300 21.59100
H  -4.16000 40.68600 20.01600
H  2.64600 43.19000 19.54600
H  5.02800 41.83100 20.49900
H  3.94700 40.68400 18.86600
H  2.71700 41.50600 18.12300
H  2.30200 40.36100 19.51300
H  4.85600 44.27400 19.39000
H  6.05200 44.07300 20.69100
H  3.49500 44.87900 21.71700
H  3.90600 45.86900 20.42500
H  5.09000 45.68100 21.84300
H  8.09500 41.86000 24.61400
H  8.23800 42.84700 26.09700
H  7.84100 43.58400 24.49100
H  4.10900 42.94200 29.49500
H  6.66000 39.48300 31.15500
H  4.98900 39.26400 31.60900
H  6.13200 40.33500 32.59200

