158

Mg 24.83200 -5.20200 45.28900
C  26.22000 -2.22600 44.02800
C  21.93700 -4.35500 43.74100
C  23.86500 -8.37100 45.78500
C  28.07700 -6.02100 46.48700
N  24.18700 -3.51900 43.93300
C  24.89600 -2.38500 43.57600
C  24.10300 -1.47900 42.62600
C  22.61800 -1.98400 43.01600
C  22.89900 -3.40000 43.53400
C  21.86900 -1.12600 44.07100
C  24.59100 -1.67400 41.11600
C  25.06800 -0.39800 40.43600
H  26.15100 -0.51200 39.43500
N  23.12900 -6.17100 44.99600
C  22.03700 -5.61700 44.40000
C  20.97400 -6.61600 44.46200
C  21.44800 -7.76200 45.18100
C  22.85400 -7.50200 45.35800
C  19.51800 -6.46300 43.86800
C  20.58800 -8.99100 45.50500
O  19.35800 -9.07100 45.35500
C  21.24000 -10.24500 46.09200
N  25.79900 -6.96300 46.10000
C  25.16600 -8.15300 46.22000
C  26.13400 -9.21100 46.88700
C  27.35000 -8.32300 47.38300
C  27.08800 -7.02600 46.60400
C  25.58600 -10.15300 47.98900
C  28.76200 -8.94900 47.05300
C  29.65400 -9.12000 48.25900
N  26.84500 -4.35900 45.29900
C  27.99700 -4.73000 45.90500
C  29.01500 -3.65600 45.73700
C  28.30600 -2.69600 45.01100
C  27.03800 -3.15500 44.73200
C  30.42200 -3.54000 46.31500
C  28.54700 -1.40900 44.42000
O  29.53200 -0.70900 44.42400
C  27.17100 -1.08900 43.71600
C  26.68600 0.21900 44.26700
O  26.34500 0.52200 45.41100
O  26.67200 1.17900 43.25200
C  26.34700 2.57600 43.60800
H  20.95600 -4.02400 43.39300
H  23.56800 -9.41900 45.86700
H  28.95400 -6.44800 46.97900
H  24.33400 -0.49000 43.02100
H  22.06800 -2.17100 42.09300
H  22.12000 -0.07500 43.92400
H  22.06900 -1.47900 45.08200
H  20.79800 -1.30500 43.97700
H  23.64300 -1.95000 40.65400
H  25.36900 -2.43700 41.08100
H  25.45300 0.16500 41.28600
H  24.29300 0.08600 39.84200
H  18.82000 -6.27400 44.68300
H  19.06400 -7.39100 43.51800
H  19.42800 -5.65500 43.14200
H  20.51900 -11.06100 46.12900
H  21.65200 -9.96900 47.06300
H  21.98400 -10.61200 45.38500
H  26.59300 -9.86900 46.14900
H  27.15500 -8.07300 48.42600
H  25.72100 -11.19100 47.68500
H  24.52300 -9.92000 48.04900
H  25.99100 -10.08700 48.99900
H  29.32100 -8.32700 46.35300
H  28.71700 -9.97200 46.68100
H  29.83900 -10.19400 48.29600
H  29.04500 -8.82300 49.11200
H  30.56400 -8.55500 48.05500
H  30.76700 -4.52600 46.62700
H  30.27100 -3.06200 47.28300
H  31.16600 -3.03900 45.69500
H  27.24700 -1.18000 42.63200
H  27.25400 2.84800 44.14800
H  25.50500 2.73000 44.28400
H  26.18100 3.08100 42.65700
Mg 16.95700 -2.13800 28.27400
C  15.83900 -0.06200 31.00000
C  18.74300 -3.79800 30.76600
C  18.27500 -3.84500 25.85500
C  15.32400 0.11100 26.13200
N  17.23200 -1.89200 30.64500
C  16.67900 -1.05100 31.49600
C  17.25400 -1.22700 32.88600
C  18.41900 -2.23600 32.66000
C  18.09500 -2.67700 31.27400
C  19.91500 -1.78900 32.85800
C  16.19500 -1.71800 33.95600
C  15.77200 -0.79200 35.04800
H  16.86700 -0.36200 36.02200
N  18.28800 -3.72100 28.33500
C  18.87500 -4.30600 29.42100
C  19.67500 -5.40400 28.94100
C  19.38800 -5.56400 27.50300
C  18.58600 -4.40700 27.14700
C  20.38200 -6.31800 29.86400
C  19.94500 -6.62600 26.52500
O  19.61700 -6.64700 25.36000
C  20.90200 -7.64800 27.01300
N  16.98100 -1.77500 26.28600
C  17.58900 -2.63400 25.44200
C  17.41200 -2.22600 23.92100
C  16.34600 -1.09600 24.03100
C  16.16100 -0.92100 25.57300
C  18.73300 -1.67000 23.32100
C  15.03500 -1.37600 23.30500
C  13.97300 -2.05200 24.22900
N  15.75300 -0.37900 28.47700
C  15.15600 0.35700 27.51000
C  14.29300 1.31600 28.09900
C  14.58600 1.21600 29.47800
C  15.43500 0.16200 29.63700
C  13.47300 2.32000 27.42900
C  14.25100 1.74200 30.77800
O  13.48200 2.68100 31.09600
C  15.10800 1.00400 31.81000
C  16.03100 2.14900 32.27600
O  17.04700 2.55300 31.70600
O  15.43300 2.71200 33.33100
C  16.01500 4.02100 33.84600
H  19.36400 -4.31100 31.50400
H  18.64600 -4.46600 25.03700
H  14.78600 0.76800 25.44500
H  17.58300 -0.25700 33.25900
H  18.22600 -3.05200 33.35700
H  20.52800 -2.50400 32.30900
H  20.17800 -1.96800 33.90100
H  20.13400 -0.76200 32.56800
H  16.54600 -2.58500 34.51500
H  15.31100 -2.08000 33.43100
H  15.02600 -1.42100 35.53300
H  15.27700 0.03300 34.53700
H  20.59600 -5.82000 30.81000
H  21.35300 -6.62200 29.47300
H  19.85300 -7.21200 30.19500
H  21.29800 -8.14400 26.12700
H  20.38500 -8.35000 27.66800
H  21.76400 -7.23400 27.53600
H  16.99800 -3.04300 23.33000
H  16.72500 -0.09000 23.84900
H  19.32100 -1.18000 24.09700
H  18.57600 -1.03300 22.45000
H  19.35200 -2.51600 23.02400
H  15.29800 -1.93400 22.40700
H  14.60800 -0.47300 22.86900
H  14.37300 -2.68300 25.02200
H  13.33400 -2.70900 23.63800
H  13.31200 -1.33600 24.71700
H  12.86500 2.87200 28.14600
H  12.82100 1.94700 26.63900
H  14.04500 3.09400 26.91700
H  14.51800 0.61300 32.63900
H  15.98700 4.82400 33.10900
H  16.88900 3.87400 34.48000
H  15.28900 4.38200 34.57400

