158

Mg 0.58600 7.79400 25.23800
C  0.97800 9.51500 28.28400
C  0.73400 4.82400 27.00600
C  0.40100 6.07500 22.43300
C  0.68500 10.78300 23.61000
N  0.97000 7.24000 27.37300
C  0.96800 8.08700 28.50800
C  0.99700 7.39200 29.90300
C  1.09600 5.85500 29.38300
C  0.91000 5.97100 27.84100
C  2.39400 5.21400 29.76300
C  -0.21300 7.78500 30.77600
C  0.06000 7.74900 32.32200
H  1.37000 7.18400 32.97100
N  0.43600 5.73000 24.83100
C  0.64900 4.67700 25.63000
C  0.66700 3.49500 24.84900
C  0.24100 3.82800 23.51600
C  0.33700 5.27000 23.58400
C  0.99600 2.24500 25.49600
C  -0.06400 2.92600 22.27400
O  -0.20600 3.38200 21.14400
C  -0.01300 1.42200 22.50900
N  0.45800 8.35600 23.25700
C  0.40200 7.47000 22.26000
C  0.50700 8.09400 20.92100
C  0.46500 9.61800 21.26800
C  0.55800 9.64300 22.79700
C  1.81100 7.72000 20.06700
C  -0.89100 10.25900 20.75400
C  -1.01600 11.78200 20.65200
N  0.69100 9.77100 25.74900
C  0.78300 10.89000 25.00400
C  0.86100 12.10500 25.80200
C  0.95400 11.57400 27.14800
C  0.85000 10.14400 27.01500
C  0.94700 13.58100 25.27700
C  1.20800 11.92800 28.53700
O  1.53500 13.02400 29.01200
C  1.00900 10.65500 29.34000
C  2.17700 10.42600 30.24900
O  3.27400 9.97200 29.85600
O  2.04600 11.00200 31.49900
C  3.23000 11.12400 32.34200
H  0.87400 3.93300 27.62200
H  0.41900 5.57800 21.46100
H  0.78600 11.65200 22.95600
H  1.94000 7.75500 30.31100
H  0.24900 5.31300 29.80300
H  2.96700 5.76300 30.51000
H  3.09800 5.12800 28.93500
H  2.29000 4.21300 30.18300
H  -1.04300 7.07900 30.78400
H  -0.59100 8.79000 30.58800
H  -0.67300 7.08900 32.78600
H  -0.11800 8.74400 32.72800
H  0.58500 1.34000 25.04900
H  0.73800 2.24000 26.55500
H  2.08300 2.30600 25.55300
H  -0.87000 1.13400 23.11800
H  0.94300 1.23300 22.99700
H  -0.09500 1.11700 21.46600
H  -0.38500 7.86100 20.33800
H  1.29300 10.28200 21.01900
H  1.71800 6.73500 19.60800
H  2.68100 7.60800 20.71300
H  1.99600 8.45700 19.28600
H  -1.57500 10.07000 21.58100
H  -1.22300 9.75400 19.84800
H  -1.60000 11.93800 19.74600
H  -0.09200 12.35500 20.56900
H  -1.57700 12.15300 21.51000
H  0.14500 14.21000 25.66400
H  0.95000 13.61100 24.18800
H  1.86400 14.12400 25.50600
H  0.05400 10.83900 29.83200
H  3.71900 10.16800 32.52800
H  2.92000 11.57700 33.28300
H  3.94100 11.84100 31.93100
Mg -10.54100 17.27800 42.69600
C  -7.08600 16.64700 42.53000
C  -9.95800 20.40100 41.39200
C  -13.78600 17.83900 42.65200
C  -11.14000 13.82000 43.09600
N  -8.71600 18.26200 41.90800
C  -7.40800 17.91600 42.19500
C  -6.32300 19.05100 41.91000
C  -7.35500 20.30900 41.72900
C  -8.75800 19.66500 41.63600
C  -7.20700 21.54100 42.66100
C  -5.34200 18.85900 40.70400
C  -5.77500 18.10100 39.43700
H  -5.54400 18.86600 38.11100
N  -11.69900 18.92500 42.04500
C  -11.29700 20.11000 41.56000
C  -12.39700 20.97400 41.39200
C  -13.59100 20.24300 41.69200
C  -13.08200 18.96200 42.13500
C  -12.18900 22.38700 40.96900
C  -15.01300 20.78800 41.56200
O  -15.18600 21.96100 41.22100
C  -16.12100 19.96400 42.04200
N  -12.24900 15.99200 42.61900
C  -13.47100 16.55100 42.92500
C  -14.48000 15.50400 43.43600
C  -13.71900 14.15000 43.12900
C  -12.24300 14.65800 42.93100
C  -14.93000 15.73400 44.92200
C  -14.21800 13.40400 41.89200
C  -15.19600 12.22500 42.25900
N  -9.38000 15.55000 42.91400
C  -9.73000 14.22600 43.03900
C  -8.49600 13.42600 43.36200
C  -7.42800 14.32300 43.11700
C  -8.02200 15.59900 42.82700
C  -8.46400 11.96400 43.76200
C  -5.99100 14.53600 43.14600
O  -5.02200 13.76100 43.34000
C  -5.73300 16.02100 42.65400
C  -4.80300 16.65200 43.75200
O  -3.61100 17.00700 43.53100
O  -5.47500 16.74900 44.88200
C  -4.74300 17.48000 45.96100
H  -9.66100 21.43100 41.18800
H  -14.85400 17.81500 42.88100
H  -11.29800 12.77400 43.36800
H  -5.68400 19.14300 42.78800
H  -7.25100 20.78600 40.75500
H  -8.19000 21.82400 43.03800
H  -6.83400 22.38900 42.08700
H  -6.53400 21.38800 43.50400
H  -4.37400 18.52800 41.08000
H  -5.20600 19.90300 40.42100
H  -6.78000 17.68800 39.52900
H  -5.16700 17.21200 39.27300
H  -13.04900 23.00300 41.23000
H  -12.09400 22.39900 39.88300
H  -11.38300 22.96100 41.42400
H  -15.97200 18.94000 41.69900
H  -16.96000 20.37100 41.47700
H  -16.21700 20.16100 43.10900
H  -15.36700 15.58700 42.80700
H  -13.68600 13.60100 44.07000
H  -15.93200 16.16100 44.88600
H  -14.24200 16.44500 45.37900
H  -15.00600 14.75800 45.40100
H  -13.38500 12.97500 41.33500
H  -14.75600 14.10000 41.24800
H  -14.79200 11.28300 41.88700
H  -16.16000 12.44100 41.79800
H  -15.21900 12.03300 43.33200
H  -7.63900 11.94200 44.47400
H  -8.28100 11.32800 42.89600
H  -9.33400 11.57000 44.28700
H  -5.25800 15.95100 41.67500
H  -3.77600 17.96300 45.81500
H  -4.51100 16.79300 46.77400
H  -5.44000 18.17400 46.43200

