158

Mg 45.85900 17.21000 27.98900
C  44.22200 16.97900 31.05800
C  48.18700 19.14500 29.54200
C  47.26600 17.50100 25.13600
C  43.21900 15.25500 26.62500
N  46.09300 18.04800 30.08100
C  45.35700 17.73900 31.12500
C  46.06000 18.18300 32.46800
C  47.20000 19.11000 31.94100
C  47.19200 18.73600 30.44600
C  47.01200 20.65600 32.26600
C  46.63100 16.99300 33.33900
C  46.94400 17.33300 34.88100
H  46.52100 18.67400 35.49400
N  47.51800 18.20800 27.40700
C  48.29900 18.99200 28.20900
C  49.31800 19.63500 27.35700
C  49.07500 19.14700 26.06000
C  47.96500 18.22400 26.15900
C  50.34900 20.52800 27.93100
C  49.75400 19.46400 24.72100
O  49.51900 18.99700 23.66900
C  50.85500 20.51700 24.74500
N  45.36100 16.30200 26.19800
C  46.15400 16.64400 25.10000
C  45.54800 16.16100 23.80200
C  44.44900 15.10100 24.27500
C  44.35000 15.50700 25.79700
C  44.83200 17.22800 22.93200
C  44.84200 13.57100 24.13500
C  44.35200 12.89600 22.83000
N  44.01200 16.35000 28.62300
C  43.05500 15.60600 27.95100
C  41.97000 15.14900 28.78000
C  42.37100 15.65900 30.08000
C  43.62400 16.32600 29.89100
C  40.80200 14.33000 28.43700
C  42.02500 15.83600 31.49600
O  41.01000 15.50400 32.15000
C  43.23500 16.63900 32.16500
C  42.79700 17.79600 33.01000
O  42.26200 18.83700 32.63400
O  42.98400 17.48300 34.34300
C  42.26000 18.33400 35.34400
H  48.94100 19.70600 30.09800
H  47.59300 17.75600 24.12600
H  42.43800 14.58900 26.25000
H  45.30600 18.74100 33.02300
H  48.10200 18.76000 32.44300
H  46.74100 21.21100 31.36800
H  47.93800 21.09700 32.63400
H  46.18800 20.70000 32.97800
H  47.52800 16.61700 32.84700
H  45.89300 16.20800 33.18000
H  48.01800 17.18500 35.00000
H  46.43800 16.65600 35.56900
H  51.18500 20.81200 27.29100
H  50.86000 20.22000 28.84300
H  49.91500 21.50600 28.13900
H  50.43300 21.32200 25.34600
H  51.08700 21.05000 23.82400
H  51.83100 20.23900 25.14300
H  46.30900 15.72700 23.15300
H  43.46000 15.25400 23.84400
H  45.13800 18.25000 23.15800
H  43.75000 17.10100 22.98400
H  45.14200 17.01100 21.91000
H  44.30300 13.03400 24.91600
H  45.91600 13.49800 24.30300
H  43.55300 13.52000 22.43000
H  43.92200 11.91600 23.03700
H  45.09800 12.88300 22.03500
H  40.47900 14.63100 27.44100
H  39.94800 14.40100 29.11000
H  41.13400 13.30200 28.29500
H  43.64500 15.81800 32.75300
H  41.20900 18.49800 35.10600
H  42.74700 19.30900 35.32100
H  42.33100 18.02300 36.38600
Mg 42.86400 42.61400 26.39800
C  41.96700 44.91800 28.80600
C  44.10300 40.53800 28.91400
C  44.42900 40.63300 24.00100
C  42.21300 45.02800 23.97800
N  43.12400 42.73000 28.64200
C  42.47200 43.71900 29.36100
C  42.57100 43.39800 30.89800
C  43.39000 42.03300 30.88500
C  43.48700 41.63700 29.39300
C  44.75100 42.03400 31.58200
C  41.12400 43.29200 31.46000
C  40.78400 44.22400 32.58200
H  40.13600 43.78200 33.90700
N  44.02800 40.85100 26.44000
C  44.33600 40.08300 27.57300
C  44.80700 38.77300 27.11100
C  44.93900 38.86700 25.69600
C  44.51300 40.20600 25.31200
C  45.14700 37.73900 28.22100
C  45.41700 37.78900 24.72100
O  45.59600 37.92700 23.51200
C  45.56000 36.31700 25.27600
N  43.41200 42.80800 24.35000
C  43.79500 41.79700 23.53700
C  43.61400 42.09400 22.09700
C  42.80300 43.40500 22.17200
C  42.78000 43.75300 23.61900
C  44.84900 42.18900 21.17400
C  41.38400 43.30000 21.50800
C  40.32900 42.55900 22.34100
N  42.13200 44.56100 26.30900
C  42.00900 45.40100 25.31400
C  41.54500 46.65400 25.79800
C  41.48300 46.50700 27.20300
C  41.86700 45.20000 27.46400
C  41.36200 47.96700 24.97300
C  41.23500 47.24500 28.38000
O  40.79900 48.37100 28.56500
C  41.50900 46.21200 29.54100
C  42.51100 46.83300 30.46200
O  43.73300 46.81600 30.33300
O  41.92300 47.33200 31.56700
C  42.81600 47.63400 32.68100
H  44.23600 39.81000 29.71700
H  44.61500 39.88500 23.22700
H  41.96600 45.61600 23.09100
H  43.18300 44.17800 31.35000
H  42.84500 41.18100 31.29100
H  45.55000 41.73400 30.90400
H  44.78700 41.43200 32.48900
H  44.99300 43.04800 31.89900
H  40.87000 42.25300 31.66700
H  40.41800 43.58600 30.68400
H  40.07500 44.93300 32.15500
H  41.63300 44.86000 32.83200
H  45.01100 36.68900 27.96100
H  44.67800 37.84800 29.19900
H  46.21100 37.79500 28.44900
H  46.27700 36.39100 26.09300
H  46.01700 35.65200 24.54200
H  44.53400 36.03400 25.51400
H  42.99400 41.33200 21.62500
H  43.32600 44.16000 21.58600
H  45.45400 41.32400 21.44800
H  45.39500 43.13200 21.18000
H  44.54000 42.13700 20.13000
H  41.53600 42.83500 20.53400
H  40.97900 44.29100 21.30300
H  40.78500 42.12800 23.23200
H  39.75200 41.87000 21.72500
H  39.57800 43.31800 22.56100
H  41.46300 48.94800 25.43700
H  40.35900 47.89300 24.55300
H  42.05000 48.07300 24.13500
H  40.56500 46.19600 30.08700
H  42.13300 47.67200 33.52900
H  43.32900 48.58400 32.52900
H  43.49100 46.79100 32.83100

