158

Mg -1.95400 16.95400 27.33700
C  -2.76300 14.77500 30.01100
C  -2.00100 19.48600 29.65600
C  -1.38900 19.08000 24.76800
C  -2.32700 14.31200 25.10600
N  -2.26900 17.08700 29.59700
C  -2.50000 16.09900 30.51400
C  -2.35900 16.59400 31.96700
C  -2.21700 18.18000 31.76300
C  -2.20100 18.26700 30.23100
C  -3.40700 18.95600 32.39700
C  -1.10100 15.97200 32.66200
C  -0.61700 16.70800 33.96400
H  -0.38700 15.82400 35.25100
N  -1.77300 19.03000 27.28300
C  -1.83900 19.91600 28.36200
C  -1.74900 21.31900 27.84500
C  -1.61900 21.17000 26.41400
C  -1.54100 19.71500 26.07900
C  -1.70600 22.57900 28.72900
C  -1.62800 22.28000 25.38700
O  -1.62200 22.03100 24.18200
C  -1.70000 23.74900 25.79000
N  -1.84200 16.74600 25.29200
C  -1.56500 17.72100 24.43700
C  -1.58300 17.33800 22.97200
C  -1.60300 15.81400 23.08900
C  -1.96900 15.56600 24.56300
C  -2.78600 17.87200 22.15000
C  -0.40200 15.08800 22.43800
C  0.83700 15.03300 23.31000
N  -2.48600 14.99200 27.46100
C  -2.67100 14.02700 26.46200
C  -3.15000 12.79100 27.04100
C  -3.10200 12.99000 28.40600
C  -2.73400 14.34900 28.66100
C  -3.46700 11.55300 26.11200
C  -3.35800 12.38900 29.71000
O  -3.60700 11.26300 29.97000
C  -3.07000 13.46500 30.79300
C  -1.92100 13.06400 31.54200
O  -0.73100 13.14000 31.17900
O  -2.29500 12.58700 32.77800
C  -1.27900 12.10500 33.68500
H  -1.84200 20.29800 30.36700
H  -1.08800 19.80900 24.01300
H  -2.32900 13.46000 24.42300
H  -3.17900 16.37800 32.65100
H  -1.31300 18.57100 32.23000
H  -3.21800 19.50600 33.31900
H  -4.23700 18.28900 32.63100
H  -3.90600 19.56400 31.64300
H  -0.33100 16.00800 31.89100
H  -1.23700 14.96200 33.04800
H  -1.34100 17.49000 34.19300
H  0.33200 17.07100 33.57000
H  -1.73300 22.35500 29.79500
H  -2.64800 23.08800 28.52200
H  -0.82100 23.14400 28.44000
H  -2.73300 23.89200 26.10700
H  -1.30400 24.45600 25.06200
H  -1.00700 24.02100 26.58600
H  -0.59300 17.58400 22.58700
H  -2.49500 15.41300 22.60900
H  -3.52300 18.31000 22.82300
H  -3.35800 17.15400 21.56300
H  -2.43000 18.65600 21.48000
H  -0.23000 15.53500 21.45900
H  -0.81800 14.08600 22.32800
H  0.73400 15.73600 24.13700
H  1.70800 15.38800 22.75800
H  0.95500 13.97600 23.55000
H  -3.89700 11.92200 25.18000
H  -4.21100 10.91200 26.58500
H  -2.55200 10.97500 25.98400
H  -3.96700 13.57500 31.40200
H  -1.43100 11.03900 33.85700
H  -1.15700 12.58900 34.65400
H  -0.28800 12.11300 33.23000
Mg 36.24000 49.69500 24.48300
C  36.27300 47.80700 27.23100
C  35.07000 52.37800 26.16400
C  35.73400 51.29100 21.47300
C  37.26600 46.75700 22.61900
N  35.59600 50.00400 26.36900
C  35.83100 49.09300 27.41600
C  35.57900 49.74700 28.76800
C  35.07700 51.14900 28.42500
C  35.26700 51.16700 26.92100
C  33.65800 51.42000 28.87400
C  36.81600 49.75000 29.74400
C  36.63300 49.30000 31.22900
H  35.19900 49.34300 31.74300
N  35.56000 51.61600 23.89000
C  35.22600 52.63100 24.75800
C  34.94900 53.85900 23.98300
C  35.09800 53.54700 22.57200
C  35.43200 52.08400 22.57600
C  34.64600 55.12300 24.71500
C  34.99400 54.48400 21.32700
O  35.10100 54.04600 20.19600
C  34.71000 55.89000 21.47000
N  36.48400 49.06600 22.40000
C  36.21200 49.93300 21.35500
C  36.39800 49.28200 19.92100
C  36.99700 47.89300 20.34100
C  36.80300 47.83700 21.85000
C  35.13700 49.30100 19.03700
C  38.49200 47.55500 19.90600
C  39.65800 48.10300 20.73500
N  36.58600 47.56600 24.79200
C  37.12600 46.57000 23.96700
C  37.46900 45.38700 24.80400
C  37.12200 45.78900 26.11700
C  36.56900 47.11400 26.03000
C  38.08700 44.08400 24.31500
C  37.18400 45.51200 27.50200
O  37.61600 44.50700 28.00600
C  36.63700 46.74900 28.35600
C  35.47800 46.35000 29.16600
O  34.33500 46.36300 28.83500
O  36.02800 45.87900 30.31600
C  35.02100 45.32200 31.28300
H  34.74500 53.24800 26.73800
H  35.70400 51.85900 20.54100
H  37.58000 45.92500 21.98400
H  34.79000 49.17300 29.25500
H  35.68600 51.96600 28.81000
H  33.60600 52.29900 29.51700
H  33.23000 50.52800 29.33100
H  33.09600 51.50700 27.94400
H  37.10800 50.79700 29.82000
H  37.60000 49.11000 29.33700
H  37.20700 49.97700 31.86300
H  36.95000 48.25800 31.26500
H  33.63400 55.42700 24.45000
H  35.28000 55.93300 24.35400
H  34.67700 55.05500 25.80200
H  35.73000 56.27500 21.47400
H  34.33800 56.28200 22.41700
H  34.22100 56.28700 20.58000
H  37.16000 49.85500 19.39200
H  36.41500 47.08800 19.89100
H  34.92700 50.20600 18.46800
H  34.32900 49.09200 19.73800
H  35.23900 48.47200 18.33600
H  38.66400 48.00300 18.92700
H  38.62000 46.47600 19.81500
H  40.25600 48.74200 20.08500
H  40.32300 47.33900 21.13800
H  39.40300 48.78600 21.54500
H  39.16900 44.09500 24.45300
H  37.78100 43.88800 23.28800
H  37.71500 43.34700 25.02700
H  37.45400 47.13900 28.96400
H  34.02900 45.11100 30.88500
H  35.00700 46.07800 32.06800
H  35.29000 44.35900 31.71800

