158

Mg 23.77400 -5.75800 45.91600
C  25.88000 -3.38300 44.14400
C  21.16100 -4.78300 43.93400
C  22.08900 -8.60300 46.66500
C  26.72300 -7.05100 47.36300
N  23.53200 -4.20800 44.31000
C  24.53000 -3.36400 43.67800
C  23.92100 -2.60300 42.50000
C  22.40800 -2.83200 42.69700
C  22.34600 -4.02600 43.67000
C  21.70400 -1.60900 43.19800
C  24.46000 -2.97000 41.07500
C  25.13100 -1.79900 40.27700
H  25.94800 -2.19100 38.99100
N  21.84300 -6.46100 45.57200
C  20.91500 -5.83800 44.79600
C  19.60200 -6.51200 45.00600
C  19.92000 -7.81500 45.65200
C  21.34500 -7.65200 45.98500
C  18.35600 -5.96700 44.48600
C  18.86100 -8.86700 46.11200
O  17.66000 -8.65200 45.86700
C  19.20200 -9.97900 46.90700
N  24.29700 -7.48600 46.91400
C  23.43200 -8.52500 47.12400
C  24.07600 -9.62600 47.93900
C  25.39500 -8.95200 48.38000
C  25.52200 -7.75200 47.45200
C  23.13400 -10.20800 49.07300
C  26.64200 -9.95600 48.36900
C  27.16200 -10.19400 46.89900
N  25.84800 -5.26000 45.90900
C  26.92900 -5.88600 46.48700
C  28.07800 -5.16000 46.31700
C  27.76400 -4.19600 45.36500
C  26.34400 -4.29200 45.15300
C  29.39300 -5.43100 46.98000
C  28.24200 -3.11300 44.50300
O  29.32700 -2.71900 44.27400
C  27.08400 -2.57600 43.66800
C  26.98100 -1.11900 43.99400
O  26.35100 -0.61700 44.89300
O  27.67400 -0.38400 43.12400
C  27.79800 1.02200 43.33100
H  20.25100 -4.47500 43.41500
H  21.67000 -9.56700 46.95800
H  27.54600 -7.37300 48.00400
H  24.13000 -1.56800 42.77100
H  21.96100 -3.00800 41.71900
H  21.69100 -1.50700 44.28300
H  20.66800 -1.68000 42.86700
H  22.09300 -0.68300 42.77600
H  23.60900 -3.29500 40.47700
H  25.12600 -3.81300 41.25900
H  25.73900 -1.31900 41.04400
H  24.30500 -1.16400 39.95900
H  18.17900 -6.49900 43.55100
H  18.47300 -4.92400 44.19000
H  17.52500 -6.19700 45.15200
H  18.28000 -10.55700 46.97700
H  19.59900 -9.58300 47.84200
H  19.93900 -10.62600 46.43200
H  24.22700 -10.51100 47.32100
H  25.20600 -8.51500 49.36000
H  22.34500 -9.46700 49.19800
H  23.65200 -10.57200 49.96000
H  22.61600 -11.11200 48.75200
H  26.33600 -10.93800 48.72800
H  27.44500 -9.69600 49.05900
H  26.86000 -11.22600 46.72000
H  28.24900 -10.26300 46.87900
H  26.81300 -9.51900 46.11800
H  29.88700 -6.21600 46.40700
H  29.19800 -5.68300 48.02200
H  29.96800 -4.50600 46.93400
H  27.19500 -2.48100 42.58800
H  28.27800 1.10900 44.30600
H  26.84800 1.55200 43.39300
H  28.56100 1.47200 42.69600
Mg 9.94500 48.98400 26.55200
C  7.95300 48.63100 29.46900
C  12.57300 50.03900 28.43300
C  11.68300 49.04800 23.71100
C  7.04700 48.18600 24.72800
N  10.08500 49.61800 28.69900
C  9.22800 49.25500 29.70400
C  9.86300 49.54900 31.09600
C  11.35400 50.09800 30.67700
C  11.36100 49.92300 29.19800
C  11.59500 51.52400 31.09700
C  9.83800 48.26200 31.99000
C  8.91600 48.40600 33.26500
H  9.48500 49.28800 34.42400
N  11.84200 49.64000 26.11300
C  12.85200 49.91000 27.03900
C  14.10100 50.04500 26.37300
C  13.94600 49.74500 24.96500
C  12.41600 49.45500 24.89800
C  15.35700 50.39600 27.12500
C  14.92200 49.58200 23.82800
O  14.46500 49.41400 22.67400
C  16.41300 49.36200 24.19700
N  9.39800 48.86600 24.51700
C  10.30100 48.80900 23.51400
C  9.77300 48.41200 22.09400
C  8.38000 47.84900 22.54300
C  8.23100 48.33300 24.02900
C  9.91000 49.71200 21.19500
C  8.18300 46.30500 22.37600
C  9.19800 45.29500 22.73300
N  7.83800 48.56400 26.92900
C  6.76900 48.31900 26.07900
C  5.55500 47.94300 26.91000
C  5.96300 48.07000 28.21300
C  7.38300 48.44400 28.18900
C  4.20300 47.58500 26.36700
C  5.61300 47.98200 29.61200
O  4.56000 47.72300 30.22700
C  6.94900 48.28200 30.44900
C  7.17400 46.90800 31.03800
O  7.80100 45.98600 30.53800
O  6.34700 46.72500 32.15000
C  6.36200 45.38800 32.80200
H  13.46400 50.21800 29.03800
H  12.21500 48.83800 22.78100
H  6.15500 47.93800 24.14900
H  9.32100 50.40500 31.49600
H  12.01200 49.41100 31.20900
H  12.45800 51.48900 31.76200
H  10.77100 51.82500 31.74400
H  11.67000 52.11700 30.18600
H  10.84000 48.15100 32.40500
H  9.56300 47.38500 31.40400
H  8.93400 47.40700 33.70100
H  7.93100 48.85700 33.14200
H  15.03600 51.00600 27.97000
H  15.95400 51.08800 26.53100
H  15.88500 49.50700 27.47000
H  16.53900 48.79500 25.11900
H  17.01600 50.26100 24.31800
H  16.82100 48.86900 23.31400
H  10.50300 47.65500 21.81000
H  7.49900 48.23800 22.03200
H  8.98800 50.04100 20.71600
H  10.76900 49.56400 20.53900
H  10.27000 50.52200 21.83000
H  7.93100 46.15100 21.32700
H  7.26100 46.04800 22.89800
H  8.74600 44.52100 23.35300
H  9.99100 45.73200 23.34000
H  9.50500 44.76500 21.83200
H  4.46600 46.90500 25.55700
H  3.72400 48.51100 26.05000
H  3.55200 47.14100 27.12100
H  6.81100 49.03500 31.22500
H  6.68000 45.50500 33.83800
H  7.01900 44.68800 32.28600
H  5.39900 44.88400 32.87800

