158

Mg 52.65200 24.59800 44.68700
C  49.83400 26.72600 44.01000
C  50.95500 22.01500 43.03000
C  55.48900 23.00200 44.38600
C  54.41100 27.59700 45.72800
N  50.68800 24.53600 43.47100
C  49.68000 25.44300 43.43900
C  48.42300 24.87300 42.80300
C  48.73900 23.28300 42.80100
C  50.24900 23.24800 43.12700
C  47.77900 22.44500 43.69800
C  48.23300 25.55500 41.39100
C  49.02400 24.98500 40.20200
H  48.21600 24.33000 39.07600
N  53.14800 22.74600 43.92500
C  52.33000 21.74500 43.37700
C  53.02700 20.54300 43.25600
C  54.38800 20.82800 43.64500
C  54.45200 22.24300 44.01300
C  52.30300 19.12500 42.98600
C  55.48900 19.73700 43.75000
O  55.26700 18.52800 43.46400
C  56.87600 20.13200 44.31600
N  54.71600 25.23300 44.96600
C  55.66100 24.29700 44.80200
C  57.00000 24.82900 45.24600
C  56.63500 26.31800 45.75500
C  55.20900 26.44300 45.38700
C  57.72900 23.95900 46.34300
C  57.49100 27.42800 45.11000
C  58.43100 28.09200 46.16400
N  52.16900 26.69500 45.07600
C  53.01600 27.68300 45.53600
C  52.22800 28.85800 45.66800
C  50.91800 28.53400 45.15800
C  50.97300 27.21400 44.73800
C  52.68700 30.18000 46.18600
C  49.58200 29.03400 44.80000
O  49.12800 30.16800 45.00300
C  48.73300 27.83600 44.19200
C  48.04600 28.44800 42.98800
O  48.56800 29.02300 42.06000
O  46.69500 28.35000 43.26300
C  45.89600 29.00200 42.18400
H  50.31500 21.18600 42.71900
H  56.45500 22.50900 44.25600
H  54.97300 28.50200 45.96700
H  47.55100 25.08400 43.42100
H  48.62700 22.76100 41.85100
H  47.21500 23.13200 44.32800
H  48.31500 21.71100 44.29900
H  47.09400 21.89400 43.05300
H  48.48200 26.61500 41.44900
H  47.17400 25.43400 41.16500
H  49.73500 24.24900 40.57700
H  49.68900 25.76100 39.82400
H  52.27900 18.65200 43.96800
H  52.60700 18.44300 42.19100
H  51.27900 19.34300 42.68100
H  57.50800 19.24400 44.35900
H  56.73300 20.48200 45.33800
H  57.34700 20.83700 43.63100
H  57.77900 24.75500 44.48800
H  56.69900 26.33800 46.84300
H  57.07300 23.16300 46.69500
H  58.06600 24.71400 47.05300
H  58.62100 23.54300 45.87500
H  56.97600 28.16400 44.49200
H  58.12300 26.89900 44.39700
H  58.05000 29.06200 46.48400
H  59.45500 28.19400 45.80500
H  58.57000 27.34200 46.94300
H  53.23700 30.73500 45.42500
H  53.31700 30.03900 47.06500
H  51.76500 30.65500 46.51900
H  48.00300 27.60300 44.96600
H  44.85500 29.24900 42.39300
H  45.92000 28.40600 41.27200
H  46.38000 29.95100 41.95200
Mg 15.61300 51.96100 25.18000
C  17.20000 50.81100 28.16100
C  13.05300 53.02300 27.28700
C  14.11700 53.40900 22.64700
C  18.25300 50.90400 23.34800
N  15.22100 51.96600 27.50900
C  16.07700 51.57000 28.47800
C  15.49800 51.89000 29.92100
C  14.11100 52.40300 29.57400
C  14.15600 52.48600 28.01400
C  12.86300 51.59900 30.19700
C  16.47200 52.91400 30.56200
C  16.44300 52.98000 32.13400
H  15.50300 52.10600 32.97100
N  13.72500 52.85100 24.94300
C  12.84400 53.20600 25.91900
C  11.61800 53.83700 25.30300
C  11.97500 54.10100 23.97200
C  13.27800 53.35800 23.77000
C  10.45600 54.24800 26.11100
C  11.23500 54.95700 22.93600
O  11.59900 55.12200 21.76800
C  10.02800 55.69500 23.27100
N  16.11100 52.24500 23.32100
C  15.39900 52.88200 22.39200
C  16.14800 52.95700 21.00000
C  17.51600 52.31100 21.43600
C  17.29200 51.77500 22.72600
C  15.43700 52.32800 19.80000
C  18.73700 53.26400 21.44500
C  19.71500 53.05800 20.27200
N  17.36900 51.03200 25.61300
C  18.34000 50.61200 24.73300
C  19.30100 49.84500 25.47100
C  18.92800 49.88000 26.81000
C  17.72600 50.55900 26.84500
C  20.54400 49.31900 24.91300
C  19.28000 49.53000 28.13800
O  20.17700 48.82200 28.61900
C  18.23100 50.19000 29.08100
C  17.64200 49.08700 29.98900
O  16.59400 48.54100 29.87100
O  18.46700 49.02800 31.07600
C  18.07700 48.26900 32.24500
H  12.26900 53.30500 27.99300
H  13.71000 54.00700 21.82900
H  19.09900 50.63900 22.71100
H  15.41900 51.04200 30.60100
H  14.06600 53.42300 29.95500
H  13.17800 50.77800 30.84100
H  12.23800 51.17300 29.41300
H  12.29800 52.28800 30.82500
H  16.17000 53.89700 30.19900
H  17.52400 52.81600 30.29400
H  16.17600 54.03300 32.22500
H  17.46700 52.78900 32.45300
H  10.26800 53.47600 26.85700
H  9.53500 54.28300 25.53000
H  10.63100 55.19500 26.62100
H  10.35500 56.10600 24.22600
H  9.26000 54.94100 23.44400
H  9.86000 56.48600 22.54000
H  16.22700 54.02400 20.79000
H  17.76800 51.55800 20.69000
H  15.21500 53.09100 19.05400
H  14.45600 51.90600 20.02000
H  16.02200 51.57700 19.27100
H  19.31100 53.08300 22.35400
H  18.34200 54.27700 21.36500
H  19.40200 52.41900 19.44600
H  20.62400 52.65000 20.71500
H  20.03600 54.00000 19.82800
H  21.33400 50.06800 24.96700
H  20.35400 49.16000 23.85200
H  20.74100 48.31700 25.29400
H  18.74300 50.97300 29.63900
H  17.78700 47.28400 31.87700
H  17.23700 48.64700 32.82700
H  18.90600 48.11200 32.93500

