158

Mg 8.86300 2.67200 28.20400
C  10.41400 1.21900 30.88000
C  7.23600 4.86200 30.22900
C  7.18200 3.78800 25.44200
C  10.33700 0.16900 25.97600
N  8.79000 2.91000 30.29000
C  9.60100 2.31500 31.18200
C  9.50800 2.90200 32.60100
C  8.28300 3.86900 32.48100
C  8.03100 3.84700 30.91000
C  7.00900 3.45700 33.22000
C  10.85200 3.44600 33.26500
C  10.97700 3.28900 34.77100
H  9.71500 2.97000 35.55500
N  7.49000 4.13700 27.84900
C  6.99800 4.95000 28.87300
C  5.97200 5.80700 28.28700
C  6.04200 5.60600 26.86700
C  6.94500 4.48000 26.65200
C  5.30600 6.86700 29.08500
C  5.27700 6.38300 25.77100
O  5.42400 6.23700 24.53900
C  4.17100 7.35900 26.17700
N  8.82600 2.06800 25.96700
C  8.00700 2.73600 25.10000
C  8.06000 2.09700 23.70900
C  9.31000 1.09900 23.80300
C  9.50700 1.07100 25.30800
C  6.62700 1.48000 23.45500
C  10.63000 1.49700 22.98300
C  11.23500 0.31900 22.26900
N  9.93200 0.88300 28.33400
C  10.49100 0.05900 27.37600
C  11.35100 -0.96300 28.09500
C  11.31100 -0.54300 29.45700
C  10.48100 0.55700 29.58600
C  12.04300 -2.16400 27.46400
C  11.76500 -0.82300 30.80700
O  12.63500 -1.64100 31.16900
C  11.08800 0.26300 31.83300
C  10.07900 -0.43400 32.72000
O  8.90700 -0.76600 32.42100
O  10.71500 -0.67200 33.92100
C  9.90100 -1.34500 34.97300
H  6.80300 5.51800 30.98700
H  6.46400 4.11000 24.68400
H  10.87900 -0.55300 25.36100
H  9.10000 2.10300 33.22100
H  8.49300 4.82200 32.96700
H  6.20500 3.14200 32.55400
H  6.59700 4.30200 33.77100
H  7.13400 2.64100 33.93200
H  10.74400 4.46700 32.89700
H  11.61900 2.89200 32.72400
H  11.35300 4.24800 35.12600
H  11.63400 2.43600 34.94200
H  5.88900 7.17200 29.95400
H  4.26000 6.62500 29.27600
H  5.30300 7.73900 28.43100
H  3.59000 7.77000 25.35100
H  4.74800 8.25000 26.42400
H  3.53200 6.87700 26.91800
H  8.29800 2.94400 23.06500
H  9.02300 0.09200 23.50100
H  6.03300 1.60100 24.36100
H  6.72500 0.40800 23.28400
H  6.20100 1.88500 22.53700
H  11.35600 2.07600 23.55400
H  10.37400 2.14100 22.14200
H  10.77800 0.36000 21.28000
H  11.16300 -0.70100 22.64800
H  12.26500 0.65400 22.14900
H  11.80400 -2.39600 26.42600
H  11.69500 -3.03000 28.02900
H  13.08700 -1.98000 27.71700
H  11.86600 0.64400 32.49500
H  10.35800 -2.27300 35.31600
H  8.83100 -1.44100 34.78800
H  9.87800 -0.79900 35.91600
Mg 40.10800 8.65700 29.29300
C  41.84900 9.75800 32.20000
C  37.82900 7.03900 31.45800
C  38.58400 7.58700 26.70500
C  42.87400 9.56800 27.52600
N  39.96100 8.33900 31.67600
C  40.65300 9.10000 32.60500
C  40.00800 8.85500 33.97100
C  38.76100 8.00200 33.79100
C  38.83500 7.76900 32.24100
C  38.74200 6.77300 34.66300
C  39.74400 10.18700 34.70300
C  40.01900 10.29900 36.19200
H  40.38500 11.62500 36.88100
N  38.47900 7.46100 29.13200
C  37.73800 6.83100 30.07800
C  36.60300 6.14300 29.41700
C  36.78900 6.32400 28.03300
C  37.97700 7.18200 27.92300
C  35.53400 5.44400 30.09500
C  35.92900 5.78500 26.85400
O  36.36100 5.82600 25.69200
C  34.56800 5.12500 27.13200
N  40.84800 8.23400 27.38000
C  39.89000 8.01600 26.45400
C  40.45500 8.06600 25.03600
C  41.79300 8.96400 25.29600
C  41.85200 8.95200 26.81600
C  40.89300 6.71800 24.38900
C  41.59900 10.40200 24.80200
C  40.44300 11.22400 25.27500
N  41.88900 9.57900 29.66200
C  42.94200 9.83600 28.85800
C  43.94200 10.56200 29.52800
C  43.54800 10.54000 30.83500
C  42.31200 9.90700 30.90000
C  45.19600 11.06200 28.92100
C  43.98100 10.92800 32.14700
O  44.91200 11.57300 32.54300
C  42.84500 10.41300 33.10500
C  43.34700 9.33200 34.06200
O  43.53900 8.19500 33.68400
O  43.34800 9.72100 35.38400
C  43.96800 8.91200 36.46700
H  37.01500 6.70300 32.10300
H  38.06100 7.32900 25.78200
H  43.73500 9.90500 26.94500
H  40.75000 8.30600 34.55100
H  37.84400 8.57400 33.93600
H  39.56600 6.76200 35.37700
H  38.78200 5.83300 34.11100
H  37.93200 6.76300 35.39300
H  38.69800 10.42900 34.51700
H  40.29800 11.03100 34.29000
H  40.76000 9.51800 36.36600
H  39.07100 10.19300 36.72000
H  35.79700 5.33200 31.14700
H  35.31200 4.44500 29.72100
H  34.56500 5.91900 29.94100
H  34.07300 5.88600 27.73600
H  34.74300 4.22000 27.71300
H  34.04000 4.82600 26.22600
H  39.72200 8.54600 24.38800
H  42.75000 8.58400 24.93800
H  41.89100 6.76100 23.95300
H  40.38000 6.29400 23.52500
H  40.76300 5.91800 25.11800
H  41.56100 10.24700 23.72400
H  42.52100 10.88200 25.13000
H  39.93300 10.74000 26.10800
H  39.74100 11.52200 24.49500
H  40.75200 12.20100 25.64600
H  45.64800 10.30100 28.28500
H  45.87700 11.31700 29.73300
H  44.96400 11.86200 28.21800
H  42.33900 11.12700 33.75400
H  45.01100 9.22100 36.39600
H  43.79200 7.84000 36.38400
H  43.48500 9.26300 37.37900

