158

Mg 35.08400 3.02500 29.64700
C  32.80100 4.02100 32.21500
C  37.52200 3.34200 31.82300
C  37.13300 2.58100 27.02500
C  32.38700 3.58300 27.35000
N  35.13300 3.55900 31.80500
C  34.13400 3.77700 32.65300
C  34.59800 3.82900 34.15200
C  36.19300 3.72600 33.92800
C  36.32600 3.57100 32.44400
C  37.00700 4.95900 34.52700
C  34.01900 2.60000 34.94600
C  33.93000 2.79800 36.51200
H  34.56700 3.98000 37.19500
N  36.98000 2.80400 29.48500
C  37.89600 2.93700 30.52300
C  39.23000 2.58700 30.05000
C  39.10800 2.30500 28.70000
C  37.69700 2.59700 28.32400
C  40.44500 2.30500 31.00800
C  40.15700 1.76500 27.76400
O  39.88700 1.43600 26.61900
C  41.57700 1.68500 28.21700
N  34.76200 3.01000 27.46800
C  35.78600 2.72400 26.64400
C  35.34500 2.62900 25.19900
C  33.86600 3.05600 25.30200
C  33.61600 3.24700 26.79300
C  36.16000 3.41200 24.14500
C  32.83200 2.05500 24.67700
C  32.52300 0.80800 25.56200
N  33.05800 3.63000 29.68300
C  32.14100 3.81000 28.71500
C  30.80900 4.11900 29.28600
C  31.03800 4.15500 30.67800
C  32.41900 3.95200 30.85800
C  29.50600 4.19400 28.53800
C  30.41300 4.45900 31.96900
O  29.29200 4.90100 32.17300
C  31.57100 4.37300 33.00300
C  31.61500 5.59400 33.79000
O  32.26100 6.56500 33.44500
O  31.10500 5.33100 35.06700
C  31.40300 6.44100 36.01300
H  38.32500 3.40300 32.56100
H  37.84200 2.47200 26.20200
H  31.53100 3.77400 26.69900
H  34.20500 4.74300 34.59700
H  36.46800 2.80700 34.44600
H  37.52700 5.52900 33.75700
H  37.70000 4.64300 35.30700
H  36.24200 5.60500 34.95800
H  34.49400 1.63700 34.75600
H  33.01200 2.51900 34.53900
H  34.34300 1.94700 37.05400
H  32.87300 2.84000 36.77600
H  40.46400 1.24200 31.24900
H  40.43800 2.90000 31.92100
H  41.41700 2.59700 30.61000
H  41.72600 0.90300 28.96200
H  41.99200 2.67000 28.42900
H  42.19200 1.43400 27.35300
H  35.49000 1.57200 24.97400
H  33.76400 4.04800 24.86400
H  36.47500 2.70000 23.38200
H  37.04500 3.85300 24.60300
H  35.57100 4.22700 23.72500
H  33.31200 1.78600 23.73600
H  31.94100 2.56700 24.31300
H  32.70800 1.05600 26.60700
H  33.22100 0.01800 25.28600
H  31.46600 0.64000 25.35300
H  28.78600 4.28000 29.35200
H  29.17600 3.35800 27.92000
H  29.40000 5.15300 28.03200
H  31.28200 3.63600 33.75200
H  30.72000 7.28400 35.90600
H  32.46500 6.68300 36.04200
H  31.21200 6.17200 37.05200
Mg 47.51000 25.81800 28.17500
C  48.41500 28.10000 30.65500
C  46.40000 23.66800 30.51700
C  46.64000 23.73800 25.66900
C  48.79600 28.08600 25.79700
N  47.36200 25.93100 30.38200
C  47.66000 27.04400 31.16800
C  47.13300 26.82600 32.64800
C  46.69800 25.28800 32.60200
C  46.82800 24.88900 31.05600
C  47.43500 24.30800 33.57500
C  45.99500 27.89900 33.11700
C  45.27800 27.48000 34.36900
H  45.18400 28.50000 35.59900
N  46.64500 23.91100 28.12200
C  46.30400 23.12100 29.15100
C  45.79600 21.81300 28.72400
C  45.83600 21.83500 27.25400
C  46.37400 23.17600 26.92800
C  45.27000 20.76800 29.66500
C  45.39200 20.77100 26.18600
O  45.46100 20.88900 24.98900
C  44.79600 19.51500 26.68500
N  47.78700 25.86700 26.09000
C  47.12300 24.97900 25.27300
C  47.10600 25.40600 23.78600
C  47.81100 26.81100 23.82700
C  48.20200 26.91800 25.32100
C  47.78200 24.42400 22.78200
C  46.93600 27.95900 23.26900
C  47.05600 28.27900 21.77200
N  48.67300 27.58500 28.18700
C  49.07400 28.40900 27.17300
C  49.66300 29.60300 27.67400
C  49.50100 29.50600 29.03600
C  48.82000 28.27300 29.31700
C  50.25900 30.74200 26.84000
C  49.75600 30.21500 30.28400
O  50.24100 31.28200 30.49400
C  48.96100 29.37000 31.36800
C  49.78300 29.00800 32.54100
O  50.71100 28.26500 32.50500
O  49.36500 29.71600 33.64500
C  50.14800 29.55500 34.93400
H  46.05400 23.04700 31.34600
H  46.26900 23.02300 24.93100
H  49.11000 28.76000 24.99800
H  47.96700 26.95100 33.33800
H  45.66100 25.23900 32.93300
H  47.57100 23.34900 33.07500
H  46.84700 24.05000 34.45600
H  48.46300 24.59300 33.80200
H  45.25000 28.09500 32.34600
H  46.50300 28.83900 33.33400
H  45.63600 26.55600 34.82400
H  44.28000 27.10500 34.14500
H  44.18700 20.63900 29.65800
H  45.56800 20.87300 30.70800
H  45.68900 19.79800 29.40000
H  44.00900 19.87000 27.35100
H  45.60700 19.03800 27.23500
H  44.36400 18.90000 25.89500
H  46.07600 25.55600 23.46200
H  48.67100 26.76400 23.15900
H  48.27700 23.63100 23.34300
H  48.45300 24.89000 22.06000
H  46.97600 23.84800 22.32700
H  47.09000 28.85800 23.86600
H  45.87900 27.75100 23.43900
H  47.79400 27.63900 21.28600
H  47.40900 29.29700 21.61100
H  46.08800 28.29000 21.27200
H  50.41200 31.59100 27.50700
H  49.54300 31.00800 26.06200
H  51.20000 30.35800 26.44500
H  48.15800 30.00800 31.73700
H  49.40800 29.15100 35.62500
H  50.53000 30.48400 35.35700
H  51.02200 28.94400 34.70800

