158

Mg 10.34600 47.37200 26.07400
C  8.32100 47.61200 28.90100
C  13.01900 48.18100 27.88700
C  12.26100 47.56800 23.08100
C  7.44300 47.32000 24.11200
N  10.56100 48.04900 28.24100
C  9.70800 47.79300 29.20000
C  10.39800 47.86800 30.52800
C  11.77000 48.57000 30.12600
C  11.82600 48.20800 28.64500
C  11.76100 50.14400 30.34000
C  10.47200 46.53900 31.35700
C  10.30700 46.62500 32.90300
H  10.47600 45.40900 33.87500
N  12.35700 47.74800 25.63200
C  13.30900 47.99700 26.53000
C  14.64100 47.83800 25.89500
C  14.41900 47.65000 24.54500
C  13.01300 47.69600 24.32700
C  15.99800 47.95200 26.66600
C  15.42500 47.37500 23.44300
O  15.15400 46.90800 22.33400
C  16.89600 47.47200 23.72300
N  9.93800 47.44500 23.88700
C  10.88600 47.57800 22.92800
C  10.24000 47.64200 21.59000
C  8.66500 47.57000 21.90200
C  8.66800 47.44600 23.45000
C  10.70300 48.93400 20.83000
C  7.94800 46.41400 21.15000
C  7.95400 45.03500 21.79300
N  8.33700 47.28500 26.35900
C  7.25200 47.26600 25.49100
C  6.05500 47.11400 26.26400
C  6.43100 47.30600 27.57200
C  7.81900 47.39500 27.62600
C  4.69900 46.95400 25.67900
C  5.80300 47.53400 28.90600
O  4.67800 47.80400 29.23400
C  7.08000 47.47200 29.83800
C  6.99500 46.13100 30.49900
O  6.98200 45.09400 29.87300
O  7.09800 46.31600 31.83200
C  7.13900 45.08400 32.56000
H  13.92200 48.37900 28.46800
H  12.74200 47.48400 22.10400
H  6.53900 47.26600 23.50200
H  9.79600 48.46900 31.20900
H  12.54600 48.20000 30.79700
H  12.67600 50.30600 30.91000
H  10.94200 50.50400 30.96300
H  11.85300 50.64700 29.37800
H  11.28400 45.95100 30.92700
H  9.55000 45.96500 31.26700
H  9.26800 46.93300 33.02100
H  10.92800 47.47500 33.18700
H  15.91800 47.78500 27.74000
H  16.37600 48.93600 26.39000
H  16.64900 47.12100 26.39300
H  17.22200 48.23800 24.42700
H  17.36500 47.50100 22.73900
H  17.27700 46.55500 24.17100
H  10.52100 46.65000 21.23700
H  8.16900 48.50300 21.63300
H  11.61200 49.41600 21.19100
H  9.80700 49.49600 20.56500
H  10.98200 48.50500 19.86700
H  8.37700 46.24700 20.16200
H  6.91400 46.68100 20.93300
H  7.12900 45.02300 22.50500
H  8.91100 44.87200 22.28900
H  7.66300 44.30400 21.03900
H  4.46200 47.77600 25.00300
H  4.05800 47.14400 26.54000
H  4.47900 45.95100 25.31400
H  7.07000 48.20800 30.64100
H  6.23400 44.52700 32.31800
H  6.92300 45.36800 33.59000
H  7.99600 44.41700 32.47300
Mg -10.06600 37.32300 42.33600
C  -7.91600 34.81500 41.53100
C  -7.94900 39.71200 41.30100
C  -12.55400 39.79100 42.68700
C  -12.58800 34.96600 42.84000
N  -8.12300 37.24500 41.58300
C  -7.43200 36.10300 41.22900
C  -6.07700 36.47800 40.65900
C  -5.97000 38.04400 40.72800
C  -7.44300 38.38000 41.28300
C  -4.79500 38.67200 41.56700
C  -5.91900 35.95100 39.20000
C  -4.50100 35.57700 38.78600
H  -4.05200 35.99900 37.31800
N  -10.22400 39.48500 42.01700
C  -9.19500 40.24800 41.62500
C  -9.53900 41.57800 41.50500
C  -10.81400 41.67700 42.15000
C  -11.24700 40.24700 42.36000
C  -8.62900 42.62200 40.92500
C  -11.61600 42.94300 42.48000
O  -11.08800 44.04000 42.18800
C  -12.93700 42.96000 43.25400
N  -12.21300 37.40500 42.81500
C  -12.98200 38.47600 42.77100
C  -14.44300 38.13300 42.86100
C  -14.51500 36.61300 42.84600
C  -13.00300 36.31000 42.79600
C  -15.11200 38.67200 44.17800
C  -15.35300 36.01500 41.72800
C  -16.18700 34.74000 42.11800
N  -10.21000 35.29900 42.40100
C  -11.23300 34.46000 42.71100
C  -10.75100 33.10300 42.73700
C  -9.45500 33.21200 42.15000
C  -9.20900 34.57200 42.05900
C  -11.42400 31.86100 43.16000
C  -8.39200 32.47800 41.57700
O  -8.28900 31.30500 41.24400
C  -7.27600 33.47000 41.24000
C  -6.00500 33.21800 42.09400
O  -5.05800 32.49000 41.75000
O  -5.99800 33.96100 43.25100
C  -4.73600 34.07500 44.03800
H  -7.23000 40.47500 40.99700
H  -13.28200 40.60500 42.66900
H  -13.40800 34.24500 42.81300
H  -5.33900 36.10100 41.36700
H  -5.85000 38.56200 39.77700
H  -3.92600 38.01900 41.64800
H  -5.14800 38.96500 42.55600
H  -4.38200 39.49100 40.97800
H  -6.27600 36.76500 38.56800
H  -6.50700 35.04100 39.07800
H  -4.36800 34.49900 38.87200
H  -3.77500 36.04900 39.44800
H  -8.60200 42.75800 39.84400
H  -7.59700 42.38600 41.18400
H  -8.83800 43.62200 41.30500
H  -13.08800 43.92300 43.74000
H  -12.87700 42.30300 44.12200
H  -13.69600 42.63400 42.54300
H  -14.91700 38.46600 41.93800
H  -14.93800 36.21900 43.77000
H  -14.44100 39.17900 44.87100
H  -15.67800 37.90600 44.70900
H  -15.87100 39.38600 43.85900
H  -14.79400 35.72400 40.83900
H  -16.06300 36.77700 41.40800
H  -17.24800 34.89800 41.92800
H  -16.07400 34.48900 43.17300
H  -15.83100 33.98000 41.42300
H  -11.33600 31.75000 44.24100
H  -11.00400 31.05100 42.56300
H  -12.50200 31.99600 43.08000
H  -7.05300 33.43100 40.17400
H  -3.89700 33.78000 43.40700
H  -4.84900 33.49900 44.95600
H  -4.42200 35.10700 44.19300

