158

Mg 0.86100 9.24900 27.06400
C  1.46800 11.27100 29.89300
C  1.18600 6.50500 29.22900
C  0.44800 7.36100 24.55300
C  1.09800 12.22200 25.09100
N  1.35600 8.98400 29.25100
C  1.44400 9.91400 30.25900
C  1.29600 9.40100 31.64800
C  1.49600 7.83600 31.40700
C  1.23100 7.72900 29.90400
C  2.82400 7.30500 31.87200
C  -0.10300 9.85100 32.23400
C  -0.41800 9.25900 33.67700
H  0.74200 8.69800 34.55900
N  0.84000 7.28500 26.86800
C  1.04300 6.28600 27.86600
C  0.84100 4.96000 27.26400
C  0.49400 5.20900 25.90400
C  0.55200 6.62900 25.72700
C  0.96400 3.67000 28.00900
C  -0.03800 4.26500 24.74100
O  -0.37100 4.66800 23.60700
C  -0.15000 2.75300 24.86300
N  0.71100 9.81800 25.15400
C  0.55200 8.80400 24.27100
C  0.65800 9.31500 22.75000
C  0.42900 10.86400 23.04800
C  0.75100 10.99300 24.54100
C  2.00700 9.02700 22.14700
C  -0.98700 11.36100 22.81400
C  -1.16200 11.89100 21.35100
N  1.20400 11.38500 27.35000
C  1.27300 12.42900 26.49700
C  1.48000 13.64400 27.24300
C  1.67000 13.25000 28.58800
C  1.34800 11.85200 28.58800
C  1.57600 15.02800 26.63600
C  1.97600 13.56500 29.93800
O  2.47600 14.60000 30.34800
C  1.73700 12.42800 30.81800
C  2.85400 12.18600 31.81400
O  3.96600 11.83100 31.45200
O  2.48700 12.52700 33.10500
C  3.40700 12.33500 34.18500
H  1.22700 5.58000 29.80800
H  0.33700 6.84100 23.59900
H  1.26600 13.02800 24.37300
H  2.04100 9.82100 32.32400
H  0.69700 7.28000 31.89800
H  3.25900 6.83100 30.99200
H  2.83100 6.56700 32.67400
H  3.41200 8.16300 32.19800
H  -0.92400 9.36400 31.70800
H  -0.19800 10.93500 32.30000
H  -1.05100 8.39600 33.46700
H  -0.89600 10.02100 34.29200
H  -0.02500 3.29100 28.26600
H  1.62100 3.76500 28.87500
H  1.53000 3.03000 27.33200
H  0.18500 2.26900 25.78000
H  0.41100 2.27700 24.05800
H  -1.21800 2.61800 24.69200
H  -0.12400 8.93000 22.09700
H  1.20400 11.47500 22.58500
H  2.58200 8.55500 22.94400
H  2.51600 9.92400 21.79400
H  1.80300 8.32300 21.34000
H  -1.17700 12.22900 23.44500
H  -1.76000 10.60500 22.95000
H  -0.30300 11.55000 20.77300
H  -1.16800 12.97900 21.29100
H  -2.07700 11.41600 20.99600
H  2.56600 15.26600 26.24800
H  1.14500 15.74300 27.33700
H  0.99900 15.04700 25.71200
H  0.85900 12.66000 31.42200
H  3.66200 13.37500 34.39300
H  4.23000 11.69700 33.86400
H  2.98000 11.86900 35.07300
Mg 44.48600 5.49600 47.79300
C  42.59300 8.52400 47.60300
C  41.65100 3.89300 46.84800
C  46.27700 2.78500 47.50100
C  47.40500 7.46600 47.97900
N  42.32400 6.17900 47.34900
C  41.77600 7.40900 47.39600
C  40.28400 7.41100 47.07600
C  39.98200 5.89800 47.04800
C  41.38100 5.28200 47.06100
C  39.06100 5.38400 48.20900
C  39.76200 8.08300 45.77700
C  38.24800 7.90800 45.39000
H  37.96600 7.06700 44.17000
N  44.02700 3.55000 47.25100
C  42.83200 3.06900 46.92700
C  42.94300 1.61400 46.92500
C  44.30400 1.26500 47.02400
C  44.95900 2.53300 47.25900
C  41.70100 0.69100 46.77900
C  44.97900 -0.09900 46.94500
O  44.24400 -1.02800 46.65900
C  46.44500 -0.48200 47.22100
N  46.59500 5.22200 47.56900
C  46.99600 3.92600 47.62800
C  48.52000 3.85800 47.95700
C  48.92600 5.39900 48.08600
C  47.57200 6.12400 47.82500
C  48.82400 3.02800 49.27900
C  50.14000 5.85800 47.22200
C  51.19700 6.78100 47.96100
N  44.96600 7.54900 47.74800
C  46.17800 8.18900 47.88000
C  45.95600 9.54100 47.99500
C  44.60100 9.72400 47.86500
C  43.99700 8.45500 47.75500
C  47.01200 10.67300 48.31300
C  43.53900 10.69500 47.93800
O  43.69600 11.88900 48.07800
C  42.16700 9.95700 47.65000
C  41.11800 10.27100 48.64300
O  40.99000 9.63200 49.68000
O  40.26200 11.31300 48.35100
C  39.06700 11.44500 49.23800
H  40.74100 3.29500 46.76400
H  46.85200 1.86000 47.57900
H  48.31000 7.94800 48.35700
H  39.70000 7.77800 47.92000
H  39.45500 5.62600 46.13400
H  39.70200 4.88500 48.93500
H  38.39600 4.60300 47.84100
H  38.56100 6.18000 48.76100
H  40.43200 7.85200 44.94800
H  40.00800 9.14200 45.85200
H  37.77600 8.88100 45.25300
H  37.67100 7.52700 46.23300
H  40.80700 1.28100 46.57700
H  41.66200 0.07200 47.67500
H  41.82700 0.07500 45.88800
H  46.99500 -0.13000 46.34700
H  46.48000 -1.57100 47.18900
H  46.81500 -0.11500 48.17800
H  49.01100 3.28800 47.16800
H  49.21400 5.59800 49.11800
H  49.60100 2.26500 49.23900
H  47.90500 2.56500 49.64000
H  49.20000 3.70000 50.05000
H  49.70900 6.33000 46.33900
H  50.64800 4.96300 46.86200
H  51.39100 7.73200 47.46400
H  52.14200 6.25000 48.07500
H  50.81900 6.99100 48.96200
H  46.43300 11.57300 48.52000
H  47.68400 10.69200 47.45500
H  47.55200 10.44400 49.23100
H  41.77800 10.37400 46.72100
H  39.19200 11.97600 50.18200
H  38.78900 10.42500 49.50200
H  38.17300 11.82900 48.74500

