158

Mg 46.94900 15.47900 28.01100
C  45.17400 15.61200 30.94100
C  49.40900 17.39900 29.38500
C  48.51500 15.37000 25.04000
C  44.09100 13.82700 26.41200
N  47.37400 16.16300 30.08300
C  46.41800 16.23100 31.06000
C  47.13800 16.82400 32.30200
C  48.25400 17.58900 31.64300
C  48.33300 17.04800 30.25800
C  48.00900 19.17400 31.68700
C  47.62400 15.79000 33.32900
C  46.90100 15.81400 34.72100
H  47.79300 15.50600 35.97700
N  48.82000 16.15400 27.37000
C  49.68600 16.89000 28.08800
C  50.91200 17.04800 27.38400
C  50.75300 16.43400 26.09200
C  49.31300 15.96500 26.09300
C  52.08500 17.70800 27.97800
C  51.65100 16.38000 24.93500
O  51.34300 15.77800 23.90300
C  52.97600 16.93400 25.03800
N  46.31700 14.78100 26.06500
C  47.18800 14.79400 24.98200
C  46.50400 14.24300 23.62600
C  45.37800 13.37100 24.26200
C  45.22000 14.10400 25.63200
C  45.97100 15.33600 22.63500
C  45.54800 11.82200 24.28700
C  46.96000 11.29700 24.69500
N  44.99600 14.88400 28.53500
C  44.03200 14.18600 27.79100
C  42.96500 13.86600 28.64800
C  43.30400 14.42900 29.92600
C  44.60700 14.98500 29.79400
C  41.78800 13.04000 28.38600
C  42.94000 14.56000 31.28800
O  41.90900 14.24800 31.85800
C  44.20600 15.25900 32.01900
C  43.63300 16.46300 32.66700
O  43.55300 17.57600 32.13700
O  43.18000 16.16900 33.97600
C  42.40400 17.07200 34.79300
H  50.15700 18.07800 29.79800
H  49.00800 15.24900 24.07300
H  43.22800 13.36900 25.92500
H  46.41800 17.56100 32.65800
H  49.19900 17.52900 32.18100
H  48.92800 19.55400 32.13200
H  47.15700 19.38000 32.33600
H  47.96400 19.64200 30.70400
H  48.70200 15.89900 33.44600
H  47.60500 14.77200 32.93900
H  46.21400 14.96800 34.74400
H  46.32600 16.72300 34.89500
H  51.96400 17.87400 29.04800
H  52.30500 18.65300 27.48000
H  52.96500 17.07100 27.89100
H  53.47700 17.08100 24.08100
H  53.45100 16.18200 25.66700
H  52.94900 17.92600 25.48900
H  47.23000 13.71900 23.00500
H  44.38900 13.45300 23.81200
H  46.61800 15.40200 21.76000
H  46.04500 16.30000 23.13900
H  44.95800 15.08900 22.31800
H  45.20400 11.20100 23.46000
H  44.90000 11.49800 25.10100
H  47.63000 12.15300 24.77700
H  47.26600 10.60300 23.91200
H  46.95700 10.72300 25.62200
H  42.03900 12.09000 27.91400
H  41.11400 13.59100 27.73100
H  41.43700 12.69700 29.35900
H  44.61100 14.57300 32.76200
H  42.42600 18.02100 34.25800
H  42.80200 17.10400 35.80800
H  41.37800 16.70300 34.77200
Mg 30.57600 59.58500 38.24500
C  27.66100 57.79800 37.54700
C  32.39400 56.83200 37.26600
C  33.29400 61.50100 38.21300
C  28.56900 62.45500 38.49100
N  30.06100 57.59700 37.43100
C  28.82200 57.04700 37.22800
C  28.94500 55.66600 36.55800
C  30.42800 55.29200 36.77100
C  31.04100 56.62500 37.17000
C  30.56700 54.22100 37.93700
C  28.45500 55.78400 35.08500
C  27.15800 54.91300 34.77500
H  26.13500 55.51000 33.66700
N  32.56400 59.20300 37.87700
C  33.17100 58.00900 37.50200
C  34.62200 58.17300 37.49000
C  34.90000 59.51300 37.88000
C  33.57200 60.11000 37.98400
C  35.64300 57.03400 37.11500
C  36.27500 60.11300 38.13600
O  37.29400 59.46600 37.92400
C  36.52400 61.42100 38.56700
N  30.84200 61.65700 38.35100
C  32.04600 62.15500 38.33000
C  32.05700 63.70300 38.64400
C  30.52300 64.04900 38.68600
C  29.90700 62.62500 38.35300
C  32.72700 64.09400 40.01300
C  30.12000 65.20400 37.57100
C  31.17000 66.37500 37.38900
N  28.54100 60.03600 38.27500
C  27.88300 61.22300 38.44500
C  26.45400 61.00000 38.33600
C  26.38200 59.67800 37.99200
C  27.63600 59.10200 38.01500
C  25.28000 61.97500 38.52800
C  25.42600 58.67000 37.63400
O  24.23500 58.77800 37.51900
C  26.18100 57.37000 37.40200
C  25.82500 56.40300 38.51500
O  26.52400 56.09300 39.46700
O  24.50500 56.02100 38.34100
C  24.06100 55.01000 39.37600
H  32.97900 55.93900 37.03700
H  34.10200 62.22500 38.34400
H  28.00000 63.38300 38.57100
H  28.34200 54.97900 37.15100
H  30.92600 54.95900 35.86100
H  31.39000 54.29900 38.64800
H  30.78500 53.29500 37.40400
H  29.57900 54.09000 38.37900
H  29.27700 55.51800 34.42000
H  28.29400 56.85400 34.94800
H  26.56700 54.52100 35.60200
H  27.52200 54.04900 34.21900
H  35.17200 56.37000 36.39000
H  35.86800 56.39000 37.96500
H  36.56700 57.39500 36.66300
H  37.56000 61.51800 38.89000
H  36.03100 61.75800 39.47900
H  36.30900 62.14000 37.77700
H  32.54800 64.17400 37.79300
H  30.07600 64.40300 39.61400
H  33.31800 63.25700 40.38400
H  32.00500 64.33200 40.79500
H  33.36900 64.95200 39.81300
H  29.13000 65.52000 37.90100
H  30.01800 64.58600 36.67900
H  30.51600 67.23300 37.23500
H  31.67200 66.25500 36.42900
H  31.79400 66.43500 38.28200
H  24.94800 62.32600 37.55100
H  25.52300 62.72700 39.27900
H  24.40000 61.49100 38.95000
H  25.86900 56.99800 36.42600
H  24.00400 55.35900 40.40700
H  24.65000 54.09700 39.28700
H  23.13700 54.62300 38.94800

