158

Mg 25.26900 2.04200 29.76600
C  27.34000 1.98100 32.53700
C  22.46500 2.46900 32.03000
C  23.19600 1.82000 27.13200
C  27.92800 1.25400 27.66600
N  24.91500 2.21800 32.08400
C  25.99400 2.25100 32.90200
C  25.54600 2.53400 34.37900
C  23.93400 2.54100 34.24000
C  23.74100 2.36600 32.71100
C  23.25700 1.49600 35.01600
C  26.27900 3.66100 35.18100
C  27.17100 3.23100 36.42500
H  27.15100 4.08700 37.71100
N  23.14900 1.99600 29.63300
C  22.17500 2.19400 30.64600
C  20.85500 2.03000 30.04100
C  21.10800 1.92800 28.65100
C  22.58200 1.98400 28.41000
C  19.56500 2.20000 30.93300
C  20.05600 1.75200 27.59400
O  20.29200 1.64400 26.35100
C  18.65500 1.80700 27.94800
N  25.50000 1.61800 27.73600
C  24.55100 1.66800 26.82000
C  24.99200 1.69100 25.36700
C  26.50400 1.65800 25.52600
C  26.68200 1.56100 27.09300
C  24.36900 0.65000 24.44300
C  27.16900 2.99800 24.96900
C  26.91000 4.21200 25.84000
N  27.26200 1.84400 30.00200
C  28.22500 1.45300 29.04900
C  29.53600 1.33000 29.71000
C  29.19300 1.47400 31.06000
C  27.78600 1.75300 31.19400
C  30.82200 0.90200 29.09100
C  29.72000 1.36800 32.39600
O  30.89200 1.09200 32.74900
C  28.57600 1.67100 33.39100
C  28.40700 0.55100 34.35100
O  27.68100 -0.44900 34.22100
O  29.26100 0.87000 35.40100
C  29.16300 -0.14000 36.52600
H  21.53700 2.65200 32.57500
H  22.55200 1.77100 26.25100
H  28.71600 1.14500 26.91800
H  25.91600 1.66500 34.92200
H  23.61500 3.50200 34.64400
H  22.91400 0.72600 34.32500
H  22.44200 1.92800 35.59700
H  23.95900 1.04800 35.72000
H  25.52900 4.31800 35.62200
H  26.97500 4.11400 34.47500
H  28.18200 3.33900 36.03100
H  27.05500 2.18000 36.69000
H  19.33000 3.26400 30.89400
H  19.70100 1.99200 31.99400
H  18.69000 1.67500 30.54700
H  18.34100 0.87000 28.40800
H  18.09400 1.98400 27.03000
H  18.43400 2.65800 28.59200
H  24.57700 2.61800 24.97100
H  26.94700 0.74000 25.14000
H  23.42100 0.16100 24.66900
H  25.19600 -0.03100 24.24400
H  24.29200 1.11800 23.46100
H  26.84400 3.14600 23.93900
H  28.21600 2.78800 24.74800
H  26.56900 4.97600 25.14200
H  27.91100 4.36400 26.24400
H  26.16700 3.99500 26.60700
H  30.71700 0.99400 28.01000
H  31.02900 -0.14700 29.30400
H  31.64600 1.49500 29.48900
H  28.85100 2.61600 33.86000
H  28.16100 -0.08200 36.95200
H  29.82000 0.03300 37.37800
H  29.31100 -1.17100 36.20400
Mg 42.53700 41.79100 26.26200
C  41.35200 43.94400 28.70200
C  43.66000 39.81000 28.71500
C  43.63100 39.58600 23.81700
C  41.72200 44.07900 23.79000
N  42.27500 41.77400 28.50200
C  41.83300 42.79800 29.22700
C  41.88800 42.39300 30.68600
C  42.67600 41.03800 30.74200
C  42.90900 40.87600 29.25700
C  44.01300 41.04700 31.62900
C  40.45000 42.30200 31.21800
C  40.24000 41.59200 32.53600
H  39.69900 42.48000 33.71800
N  43.48200 40.00200 26.27300
C  43.93400 39.40800 27.42300
C  44.59400 38.12400 27.00300
C  44.50200 38.02700 25.60200
C  43.88100 39.25400 25.15700
C  45.12900 37.17400 28.08200
C  44.80600 36.84900 24.67500
O  44.94800 36.91500 23.46900
C  45.10600 35.54200 25.32800
N  42.68200 41.85300 24.06600
C  43.19700 40.81300 23.32500
C  42.96700 41.11500 21.83700
C  42.16800 42.47600 21.81100
C  42.13600 42.84200 23.28800
C  44.25000 41.12300 20.95200
C  40.75400 42.31100 21.17400
C  39.83500 41.13300 21.71400
N  41.75600 43.65800 26.17400
C  41.47400 44.44600 25.11100
C  41.04800 45.81800 25.56600
C  40.94200 45.57800 26.96200
C  41.36600 44.27400 27.30400
C  40.62700 46.92300 24.78800
C  40.57900 46.20400 28.26100
O  40.26300 47.36800 28.47300
C  40.87500 45.17500 29.41100
C  41.86000 45.80200 30.37700
O  42.99700 46.18100 30.10200
O  41.27100 45.96600 31.64700
C  42.00700 46.75400 32.61700
H  44.01100 39.17600 29.53100
H  43.85500 38.97900 22.93700
H  41.27600 44.83000 23.13400
H  42.40900 43.12800 31.30000
H  42.01700 40.21800 31.02600
H  43.97900 41.96100 32.22300
H  44.91600 40.94500 31.02600
H  44.10600 40.21900 32.33100
H  39.73200 41.92200 30.49200
H  40.14800 43.31400 31.48700
H  41.20900 41.21600 32.86300
H  39.47600 40.84800 32.31100
H  46.11400 36.80700 27.79600
H  44.44300 36.35200 28.28900
H  45.21400 37.71700 29.02400
H  45.02300 34.83400 24.50400
H  44.21500 35.29500 25.90500
H  46.02800 35.54700 25.90900
H  42.34300 40.27600 21.52700
H  42.73000 43.24400 21.28000
H  44.49000 42.05900 20.44800
H  44.27800 40.36100 20.17300
H  45.11800 40.89600 21.57200
H  40.99800 42.08000 20.13800
H  40.23500 43.26800 21.12700
H  39.67900 40.35000 20.97300
H  38.88800 41.62400 21.93900
H  40.19900 40.63600 22.61300
H  39.54300 46.85300 24.69600
H  41.13100 46.84100 23.82500
H  40.95400 47.87500 25.20500
H  39.92600 45.17000 29.94700
H  41.31300 47.10100 33.38200
H  42.52100 47.66700 32.31600
H  42.74500 46.08900 33.06600

