158

Mg 43.03400 4.10700 47.41900
C  40.89800 6.80400 47.31700
C  40.31200 2.07900 47.07900
C  45.17200 1.55600 46.95600
C  45.71700 6.38600 47.16200
N  40.82800 4.46000 46.92800
C  40.20300 5.63400 47.25900
C  38.64100 5.42600 47.38000
C  38.57000 3.87200 47.36500
C  39.99800 3.48000 47.05700
C  37.97800 3.32800 48.62700
C  37.79500 6.20300 46.25300
C  38.09600 5.75700 44.77600
H  38.50900 6.80000 43.79400
N  42.73600 2.10200 47.01100
C  41.57600 1.44100 46.85600
C  41.78400 0.06600 46.65100
C  43.21700 -0.14800 46.58700
C  43.80400 1.18200 46.82400
C  40.74300 -1.02100 46.58800
C  43.91600 -1.43700 46.39600
O  43.31600 -2.47700 46.32100
C  45.39100 -1.58000 46.34700
N  45.17200 3.97300 47.21000
C  45.77600 2.78500 47.03000
C  47.31800 2.96400 47.05200
C  47.40300 4.52900 46.79700
C  46.02300 5.05800 47.11100
C  47.97500 2.37600 48.37900
C  48.11600 4.90000 45.46200
C  49.44200 5.70500 45.59600
N  43.26400 6.19600 47.35800
C  44.42200 6.97700 47.30400
C  43.99100 8.39100 47.22800
C  42.61900 8.34100 47.30500
C  42.24600 7.00600 47.31100
C  45.01700 9.52000 47.27700
C  41.48700 9.27800 47.34000
O  41.39800 10.50000 47.29400
C  40.25600 8.23400 47.36900
C  39.42500 8.54500 48.58900
O  39.48500 7.78100 49.53200
O  38.49700 9.55000 48.31800
C  37.41800 9.63600 49.22400
H  39.50300 1.36500 47.24900
H  45.93800 0.78100 46.87400
H  46.55000 7.09200 47.11500
H  38.24800 5.87200 48.29400
H  38.00900 3.56100 46.48400
H  38.69600 2.66700 49.11100
H  37.12900 2.72800 48.30000
H  37.60100 4.09100 49.30800
H  38.12800 7.24000 46.21200
H  36.71000 6.19300 46.35700
H  37.23300 5.31000 44.28200
H  38.94100 5.06900 44.79600
H  40.98800 -1.72400 45.79200
H  39.73600 -0.60500 46.60500
H  40.76400 -1.65100 47.47700
H  45.80100 -0.76300 45.75300
H  45.66300 -2.51800 45.86300
H  45.83500 -1.64600 47.34000
H  47.55700 2.27100 46.24500
H  47.99400 4.93100 47.62000
H  48.64500 1.56500 48.09400
H  47.22900 1.91900 49.02900
H  48.35800 3.23500 48.93000
H  47.36600 5.50400 44.95200
H  48.42700 4.02200 44.89600
H  50.14800 5.09400 46.15800
H  49.15000 6.55500 46.21200
H  49.70400 5.96100 44.56900
H  45.73300 9.38400 48.08700
H  44.51200 10.44300 47.56300
H  45.52700 9.61300 46.31800
H  39.69800 8.41000 46.44900
H  36.89300 10.58700 49.13700
H  37.60800 9.53800 50.29300
H  36.63000 8.95600 48.90000
Mg 46.44200 24.58000 28.43300
C  47.11700 26.71600 31.21200
C  45.34700 22.20400 30.61900
C  46.28600 22.43600 25.79300
C  47.88900 27.03600 26.38400
N  46.45000 24.46200 30.71800
C  46.59500 25.45600 31.62000
C  46.23900 25.06600 33.05400
C  45.59300 23.65200 32.76600
C  45.86500 23.33800 31.28900
C  46.10800 22.61900 33.83200
C  45.31700 26.13700 33.72600
C  45.77800 26.62900 35.09500
H  44.72800 26.87500 36.19600
N  45.69400 22.66500 28.24000
C  45.27500 21.86200 29.30700
C  44.89100 20.61500 28.77500
C  45.19800 20.56000 27.35700
C  45.74200 21.94600 27.01500
C  44.22400 19.52700 29.49300
C  44.88800 19.43400 26.35600
O  45.11300 19.54200 25.16600
C  44.28600 18.15600 26.74700
N  46.79400 24.79300 26.35800
C  46.75500 23.74300 25.50400
C  47.44700 24.17200 24.14500
C  47.80800 25.63700 24.29600
C  47.43000 25.88700 25.75200
C  48.64300 23.31700 23.63500
C  47.17400 26.57700 23.22400
C  47.55300 26.28700 21.77900
N  47.32800 26.47700 28.63300
C  47.84600 27.33900 27.71000
C  48.29300 28.52400 28.37200
C  47.94700 28.38200 29.71200
C  47.44900 27.09300 29.88900
C  48.96100 29.66300 27.68000
C  48.00100 29.00100 30.97900
O  48.27300 30.14000 31.21800
C  47.55300 27.90800 31.96400
C  48.72900 27.58800 32.89200
O  49.58900 26.76500 32.68400
O  48.61500 28.37200 33.96800
C  49.56900 28.08400 35.00900
H  44.84600 21.55000 31.33500
H  46.46800 21.64400 25.06300
H  48.26900 27.73200 25.63400
H  47.16800 24.90700 33.60200
H  44.50500 23.59700 32.82000
H  46.66700 21.91300 33.21800
H  45.35300 22.01700 34.33700
H  46.80100 22.98900 34.58700
H  44.30800 25.74400 33.85500
H  45.04000 26.94300 33.04600
H  46.27800 27.59400 35.00300
H  46.52100 25.92800 35.47500
H  44.54500 18.55600 29.11800
H  43.17300 19.70500 29.26700
H  44.41700 19.66700 30.55700
H  43.92100 17.59900 25.88400
H  43.45300 18.36600 27.41700
H  45.07200 17.62200 27.28100
H  46.68100 23.95100 23.40200
H  48.86000 25.89900 24.18300
H  49.60200 23.81900 23.50300
H  48.35500 22.97900 22.64000
H  48.78300 22.42500 24.24600
H  47.50000 27.59200 23.45400
H  46.08600 26.58200 23.28400
H  46.72900 25.80700 21.25000
H  48.41700 25.62600 21.71300
H  47.74500 27.23000 21.26700
H  48.76200 30.68000 28.02000
H  48.78600 29.50700 26.61600
H  50.04200 29.58000 27.79400
H  46.74600 28.24100 32.61600
H  49.17300 27.36600 35.72800
H  49.83000 28.99600 35.54500
H  50.51100 27.68400 34.63100

