158

Mg -1.38000 16.93800 26.45300
C  -1.88100 14.67300 29.19600
C  -2.08500 19.47400 28.70000
C  -1.41000 19.06200 23.90600
C  -1.79800 14.19300 24.28000
N  -1.77600 17.04500 28.66700
C  -1.80100 16.05000 29.59100
C  -2.05800 16.57500 31.09400
C  -2.40000 18.08900 30.84300
C  -2.07400 18.18800 29.34700
C  -3.92300 18.34100 31.11000
C  -0.76800 16.34500 31.95000
C  -0.46200 17.38300 33.04200
H  0.10600 16.73800 34.27400
N  -1.54200 18.96500 26.32500
C  -1.78900 19.87200 27.37200
C  -1.69300 21.22000 26.88700
C  -1.25400 21.09900 25.50300
C  -1.30700 19.65700 25.18800
C  -1.98200 22.44500 27.79100
C  -0.96400 22.16300 24.47800
O  -0.42500 21.88200 23.40000
C  -1.20900 23.59600 24.95500
N  -1.46300 16.62000 24.39200
C  -1.45800 17.74600 23.56900
C  -1.67500 17.24800 22.09500
C  -1.43600 15.71900 22.28800
C  -1.56000 15.47100 23.71400
C  -3.15400 17.55300 21.61600
C  -0.02200 15.32500 21.69100
C  0.05300 13.89000 21.09900
N  -1.75600 14.87100 26.57100
C  -1.90500 13.88800 25.65900
C  -2.25200 12.61500 26.30100
C  -2.17800 12.89500 27.64300
C  -1.87500 14.26400 27.82100
C  -2.49900 11.33100 25.60000
C  -2.47300 12.34400 28.96200
O  -2.76600 11.19200 29.26800
C  -2.29500 13.52600 30.05600
C  -1.31000 13.21200 31.03800
O  -0.11300 13.10500 30.87200
O  -1.88700 12.93600 32.28100
C  -0.95200 12.36000 33.27700
H  -2.14400 20.23800 29.47800
H  -1.47300 19.72400 23.03900
H  -1.95400 13.38300 23.56600
H  -2.87000 16.06600 31.61300
H  -1.67200 18.71200 31.36300
H  -4.58500 18.08500 30.28300
H  -4.03000 19.42300 31.19200
H  -4.30800 17.78700 31.96600
H  0.07300 16.23200 31.26600
H  -1.02600 15.39600 32.42100
H  -1.42000 17.82300 33.31900
H  0.23900 18.14100 32.69400
H  -2.30900 22.12800 28.78100
H  -2.68300 23.13200 27.31800
H  -0.98800 22.87400 27.92300
H  -1.44000 24.22100 24.09300
H  -0.27800 23.92600 25.41700
H  -1.99900 23.80300 25.67700
H  -0.89600 17.71700 21.49300
H  -2.20600 15.20900 21.70900
H  -3.63700 16.75100 21.05900
H  -3.03800 18.46600 21.03200
H  -3.86100 17.74500 22.42300
H  0.69200 15.31400 22.51400
H  0.27600 16.03900 20.92200
H  0.28500 13.96000 20.03700
H  -0.79500 13.23000 21.27900
H  0.88300 13.41700 21.62400
H  -2.67000 11.40300 24.52600
H  -3.35400 10.96900 26.16900
H  -1.69800 10.61000 25.76200
H  -3.23300 13.81300 30.53000
H  -0.77800 13.15100 34.00700
H  0.02500 11.95900 33.00600
H  -1.57800 11.63800 33.80200
Mg -11.40700 16.32400 41.85000
C  -8.49800 14.42100 41.40700
C  -9.83800 18.84800 40.09200
C  -14.44200 17.88300 41.33200
C  -13.04900 13.49400 42.98900
N  -9.36600 16.50200 40.66400
C  -8.34300 15.64500 40.75100
C  -7.01300 16.26100 40.25600
C  -7.47100 17.75000 39.98200
C  -8.98300 17.71300 40.27400
C  -6.67300 18.85000 40.84200
C  -6.54100 15.50000 38.93700
C  -5.07000 15.24000 38.78800
H  -4.29000 15.81200 37.53300
N  -11.96100 18.20500 40.98000
C  -11.15800 19.12100 40.38600
C  -11.91300 20.27800 40.07200
C  -13.28200 20.01600 40.38400
C  -13.26500 18.70200 40.97700
C  -11.27900 21.46600 39.46400
C  -14.45600 20.94900 40.05400
O  -14.29700 22.09500 39.60400
C  -16.00300 20.58000 40.39000
N  -13.43000 15.77000 42.11100
C  -14.51500 16.57900 41.83900
C  -15.85700 15.87300 42.09200
C  -15.36800 14.69800 43.00000
C  -13.84100 14.62000 42.70400
C  -16.91500 16.74900 42.75800
C  -16.17600 13.39300 42.78000
C  -16.63900 12.67300 44.09700
N  -10.94200 14.39300 42.21900
C  -11.66600 13.35600 42.71800
C  -10.82600 12.11300 42.91300
C  -9.61300 12.54400 42.37000
C  -9.69400 13.85600 41.94900
C  -11.25200 10.78100 43.46900
C  -8.27100 12.11200 42.24200
O  -7.69500 11.09500 42.63800
C  -7.43300 13.27000 41.54100
C  -6.25900 13.70700 42.27500
O  -6.23000 14.00700 43.46600
O  -5.15000 13.78200 41.39400
C  -3.94900 14.33300 42.04400
H  -9.24400 19.68300 39.71400
H  -15.43100 18.27100 41.07700
H  -13.46900 12.60000 43.45700
H  -6.27000 16.42300 41.03700
H  -7.36300 17.98300 38.92300
H  -7.19000 18.85900 41.80100
H  -6.77000 19.80900 40.33400
H  -5.64100 18.50700 40.90900
H  -6.91300 16.05500 38.07600
H  -7.16000 14.61400 38.79800
H  -4.97500 14.15700 38.70300
H  -4.44700 15.64300 39.58600
H  -11.94300 21.90600 38.72000
H  -10.40700 21.39300 38.81400
H  -11.18800 22.19200 40.27200
H  -16.67800 21.42400 40.24900
H  -15.99500 20.31800 41.44800
H  -16.27600 19.81700 39.66100
H  -16.27700 15.42400 41.19200
H  -15.41500 14.93900 44.06200
H  -16.60500 17.78200 42.91300
H  -17.20500 16.40900 43.75200
H  -17.78200 16.70700 42.10000
H  -15.48300 12.75800 42.22800
H  -17.01500 13.60900 42.11900
H  -16.17000 11.69200 44.01700
H  -17.70800 12.72400 44.29900
H  -16.08700 13.09700 44.93600
H  -11.75200 10.91600 44.42800
H  -10.42100 10.11400 43.69800
H  -12.01300 10.33100 42.83100
H  -7.22600 13.03400 40.49700
H  -4.04500 15.41300 41.94000
H  -3.06400 13.94200 41.54200
H  -3.93600 13.94100 43.06100

