158

Mg 1.73000 8.16000 25.70800
C  1.79300 10.13800 28.67000
C  1.93700 5.46400 27.65000
C  1.67200 6.37500 22.90100
C  2.11900 11.09600 23.78800
N  1.57900 7.82300 27.97700
C  1.66500 8.73500 28.92300
C  1.57100 8.06100 30.27700
C  1.88200 6.54800 29.95700
C  1.87000 6.63800 28.41700
C  3.21700 5.91400 30.55900
C  0.25100 8.40300 31.07900
C  0.27400 8.49200 32.66000
H  1.60400 7.95700 33.39800
N  1.72300 6.19600 25.38900
C  1.85800 5.20300 26.29000
C  1.98500 3.92200 25.55300
C  1.80100 4.16800 24.14400
C  1.77200 5.65100 24.09100
C  2.16300 2.62400 26.30300
C  1.81200 3.18400 22.97100
O  1.70100 3.59000 21.84000
C  1.91600 1.81900 23.20700
N  1.85300 8.74100 23.59700
C  1.71400 7.78000 22.59700
C  1.71600 8.43500 21.16900
C  1.70100 10.00000 21.50500
C  1.88200 9.98000 23.00300
C  2.96300 7.99700 20.28100
C  0.32000 10.70700 21.05100
C  0.20600 11.08800 19.58400
N  1.84600 10.18300 26.10000
C  2.04400 11.25300 25.22800
C  2.04200 12.50100 26.05200
C  1.93700 12.10100 27.40800
C  1.84700 10.69000 27.35000
C  2.25400 13.87400 25.52900
C  2.00300 12.64000 28.77400
O  2.20900 13.74900 29.17300
C  1.83300 11.30800 29.68800
C  3.06600 11.14800 30.52500
O  4.13800 10.90000 30.13600
O  2.82300 11.53200 31.78300
C  3.80600 11.37200 32.87300
H  1.99600 4.59400 28.30800
H  1.69500 5.92800 21.90500
H  2.04500 11.97700 23.14800
H  2.43400 8.27100 30.90800
H  1.02600 5.97800 30.31900
H  2.96000 4.92200 30.93100
H  3.55800 6.57700 31.35400
H  4.04500 5.83900 29.85400
H  -0.50200 7.64000 30.88800
H  -0.23400 9.31500 30.73100
H  -0.63300 7.96500 32.95600
H  0.27800 9.55800 32.88400
H  2.86100 1.91900 25.85100
H  1.18500 2.27100 26.62700
H  2.65000 2.73100 27.27200
H  2.91100 1.50400 23.52200
H  1.67400 1.25000 22.30900
H  1.10100 1.65500 23.91200
H  0.75600 8.18700 20.71700
H  2.50500 10.52400 20.99000
H  2.56300 7.63900 19.33200
H  3.47100 7.18400 20.79900
H  3.56300 8.86200 19.99700
H  0.20200 11.67700 21.53300
H  -0.53700 10.04400 21.16700
H  -0.18600 12.09900 19.46800
H  -0.50400 10.39900 19.12600
H  1.20000 10.96600 19.15500
H  2.49000 13.87700 24.46500
H  3.10200 14.30500 26.06000
H  1.43200 14.50900 25.86100
H  0.93700 11.29200 30.30800
H  4.55500 10.61600 32.63600
H  3.14800 11.03000 33.67200
H  4.22400 12.32800 33.19100
Mg 8.60900 3.11500 28.07800
C  10.12600 1.76700 30.88200
C  7.16300 5.49200 30.13800
C  7.22100 4.49900 25.34000
C  10.00600 0.56900 26.23800
N  8.30000 3.28300 30.41100
C  9.18200 2.76500 31.27000
C  9.00100 3.47900 32.65600
C  7.90600 4.54600 32.39200
C  7.77400 4.46500 30.81300
C  6.59000 4.31700 33.11800
C  10.38300 4.19700 32.96200
C  10.90900 4.03200 34.33800
H  10.02100 3.66800 35.47500
N  7.26400 4.73600 27.83700
C  6.84200 5.65100 28.77200
C  6.13300 6.75600 28.14400
C  6.18400 6.57400 26.67300
C  6.84300 5.20000 26.57500
C  5.44300 7.81400 28.92800
C  5.72100 7.46200 25.60200
O  5.68400 7.06500 24.44700
C  5.19600 8.89100 25.92400
N  8.38800 2.48700 26.13800
C  7.83400 3.22600 25.16300
C  8.24900 2.77200 23.81000
C  9.07500 1.41200 24.07200
C  9.16800 1.50800 25.59700
C  7.10800 2.52800 22.82200
C  10.41400 1.19000 23.26700
C  10.34300 0.93600 21.74200
N  9.68200 1.43000 28.43200
C  10.38800 0.55800 27.52800
C  11.26200 -0.33900 28.21300
C  11.29100 0.16800 29.51800
C  10.31500 1.18100 29.56500
C  12.09800 -1.44400 27.59300
C  11.95500 0.09800 30.83700
O  12.89600 -0.56500 31.23200
C  11.15700 1.00800 31.77000
C  10.37700 0.15300 32.83000
O  9.22400 -0.27400 32.74400
O  11.17600 -0.02300 33.91300
C  10.61300 -0.85600 35.03900
H  6.98200 6.37300 30.75800
H  7.06400 5.00700 24.38600
H  10.40900 -0.28000 25.68400
H  8.67700 2.72500 33.37300
H  8.28900 5.54500 32.60000
H  5.81300 4.79800 32.52400
H  6.71600 4.92800 34.01200
H  6.33100 3.28400 33.35300
H  10.34600 5.28500 32.90100
H  11.11600 3.89600 32.21300
H  11.50400 4.93500 34.47300
H  11.75700 3.34800 34.33200
H  5.86200 8.80300 28.74300
H  5.35500 7.70100 30.00800
H  4.46500 7.95400 28.46700
H  4.21000 8.70200 26.34800
H  5.19700 9.41400 24.96800
H  5.77800 9.53800 26.58000
H  8.86700 3.50400 23.29000
H  8.51500 0.48900 23.91800
H  7.38800 1.68000 22.19800
H  6.80500 3.39300 22.23200
H  6.25200 2.10500 23.34800
H  10.84500 0.33300 23.78500
H  11.07100 2.03300 23.48300
H  11.12800 1.52000 21.26200
H  9.40100 1.35700 21.39000
H  10.30300 -0.10500 21.42100
H  13.02200 -1.51100 28.16800
H  12.18400 -1.21700 26.53000
H  11.58700 -2.40100 27.69900
H  11.75700 1.70600 32.35400
H  11.50500 -1.39700 35.35600
H  9.85000 -1.57300 34.73600
H  10.17800 -0.20500 35.79700

