158

Mg 42.83900 41.42100 26.47800
C  41.49500 43.64500 28.72000
C  43.60300 39.24000 29.02200
C  43.93800 39.29800 24.17100
C  41.80600 43.66500 23.94600
N  42.67600 41.48100 28.61600
C  42.07900 42.57000 29.35100
C  42.07600 42.18100 30.85000
C  42.82200 40.79200 30.94800
C  43.05100 40.45800 29.42600
C  44.18900 40.75600 31.74700
C  40.69300 42.12500 31.53600
C  40.44200 43.05500 32.74600
H  39.93400 42.43600 34.06900
N  43.65200 39.51100 26.58500
C  43.88500 38.77500 27.75200
C  44.42700 37.55300 27.36300
C  44.79100 37.54900 25.99600
C  44.09300 38.82700 25.51500
C  44.68100 36.52800 28.39400
C  45.53200 36.59500 25.01700
O  45.85000 36.83700 23.85900
C  45.84600 35.30600 25.58900
N  42.79700 41.49900 24.40700
C  43.33700 40.49300 23.66900
C  43.03800 40.62600 22.18200
C  42.42200 42.08200 22.01700
C  42.31900 42.46300 23.56600
C  44.22600 40.33700 21.26000
C  41.14400 42.38100 21.16300
C  41.22900 43.66400 20.24400
N  41.92500 43.30600 26.33700
C  41.63700 44.11000 25.28100
C  40.94400 45.31900 25.71800
C  40.88400 45.16000 27.08600
C  41.48000 43.89300 27.38700
C  40.42400 46.38200 24.86300
C  40.45400 45.82200 28.24500
O  39.83200 46.86500 28.38900
C  40.86600 44.87100 29.45100
C  41.65000 45.68900 30.39000
O  42.78700 46.08900 30.18200
O  40.94000 45.97200 31.51300
C  41.55800 46.52900 32.67100
H  44.04300 38.55600 29.75200
H  44.21900 38.50100 23.47900
H  41.58400 44.34600 23.12300
H  42.68700 42.88800 31.41200
H  42.13300 40.08500 31.41200
H  44.05500 39.92400 32.43900
H  44.27300 41.66600 32.34000
H  45.03600 40.70800 31.06300
H  40.47400 41.17600 32.02500
H  39.90800 42.26700 30.79300
H  39.65600 43.72000 32.38900
H  41.37700 43.53400 33.03700
H  44.77100 35.58700 27.85100
H  43.93400 36.42800 29.18200
H  45.66300 36.72100 28.82500
H  46.60700 35.53900 26.33400
H  46.35700 34.68200 24.85700
H  45.08100 34.62200 25.95700
H  42.24300 39.88600 22.09500
H  43.22400 42.73500 21.67300
H  44.99900 39.75000 21.75600
H  44.70400 41.26200 20.93700
H  43.91300 39.77100 20.38300
H  40.34300 42.49900 21.89300
H  40.80800 41.51700 20.59100
H  41.66900 43.44500 19.27100
H  41.97800 44.35300 20.63400
H  40.33800 44.29100 20.19900
H  40.81700 46.37600 23.84700
H  40.73500 47.28500 25.38800
H  39.34600 46.22200 24.87600
H  39.92800 44.66000 29.96500
H  42.47600 47.09700 32.52100
H  41.79800 45.76400 33.40900
H  40.91100 47.28600 33.11400
Mg -12.41500 38.89400 42.97500
C  -10.62200 36.13600 41.62700
C  -10.37100 40.96600 41.26500
C  -14.59100 41.35900 43.73700
C  -14.89700 36.48600 44.07900
N  -10.73800 38.55400 41.47300
C  -10.14000 37.39500 41.18500
C  -8.88000 37.63600 40.41900
C  -8.74200 39.18100 40.43300
C  -10.02500 39.64400 41.14000
C  -7.46500 39.78000 41.14400
C  -8.81200 36.94700 39.04700
C  -7.54200 36.02800 38.68400
H  -6.50700 36.59000 37.76000
N  -12.40600 40.90700 42.61700
C  -11.45900 41.57800 41.95400
C  -11.87400 42.96000 41.87000
C  -13.08000 43.11200 42.57100
C  -13.42200 41.78900 43.06800
C  -11.13700 43.97800 40.99300
C  -13.73000 44.45500 42.79400
O  -13.26200 45.49000 42.33300
C  -14.98100 44.62200 43.63100
N  -14.45200 38.92100 43.75700
C  -15.01500 40.09800 44.09200
C  -16.35200 39.84800 44.75100
C  -16.50300 38.28500 44.75500
C  -15.23200 37.79200 44.11900
C  -16.42200 40.53100 46.07400
C  -17.73000 37.76900 44.03800
C  -18.94700 37.43600 44.95600
N  -12.76100 36.76000 42.89000
C  -13.72000 35.94100 43.49300
C  -13.32900 34.51700 43.33600
C  -12.10600 34.58600 42.60500
C  -11.83700 35.92700 42.35400
C  -13.99200 33.28400 43.76000
C  -11.04600 33.81200 42.05800
O  -10.99300 32.58900 41.95200
C  -9.98100 34.75100 41.35400
C  -8.74000 34.57500 41.99300
O  -7.89600 33.90600 41.50000
O  -8.65500 35.34600 43.15800
C  -7.37000 35.25700 43.84700
H  -9.68200 41.69500 40.83400
H  -15.42100 42.03500 43.95200
H  -15.56600 35.81100 44.61800
H  -8.12600 37.25700 41.11000
H  -8.69600 39.68300 39.46600
H  -6.64100 39.08400 41.29900
H  -7.66700 40.25100 42.10600
H  -7.06700 40.46600 40.39600
H  -8.82900 37.65600 38.22000
H  -9.72600 36.39700 38.82600
H  -7.81800 35.09100 38.19900
H  -7.03200 35.86500 39.63300
H  -11.53100 43.87800 39.98200
H  -10.07400 43.73600 41.00300
H  -11.14400 45.00200 41.36700
H  -15.88500 44.29200 43.11800
H  -15.16600 45.60100 44.07400
H  -14.81900 43.91100 44.44100
H  -17.01800 40.29000 44.01100
H  -16.43300 37.84100 45.74800
H  -15.48100 40.94600 46.43500
H  -16.79500 39.85900 46.84700
H  -17.15800 41.32700 45.96200
H  -17.55700 36.80400 43.56000
H  -17.95600 38.47700 43.24100
H  -19.08200 36.36000 44.85100
H  -19.72800 38.11800 44.62000
H  -18.73400 37.59600 46.01300
H  -13.71400 32.40100 43.18400
H  -15.05900 33.46100 43.62300
H  -13.64000 33.05100 44.76500
H  -10.09600 34.64300 40.27500
H  -7.55100 35.38600 44.91400
H  -6.67300 36.02700 43.51600
H  -6.93300 34.25800 43.82900

