158

Mg 36.36700 1.67000 29.53500
C  34.19200 2.58800 31.91400
C  38.91600 1.65100 31.90700
C  38.60200 1.11300 27.07600
C  33.86600 2.00500 27.13500
N  36.52000 2.12100 31.67100
C  35.48400 2.45300 32.48200
C  35.83300 2.35400 33.93700
C  37.42400 2.33000 33.86900
C  37.65300 1.94100 32.41600
C  38.06500 3.68900 34.28000
C  35.20800 1.07500 34.56400
C  34.75900 1.20700 35.98200
H  35.10900 2.50300 36.74500
N  38.45800 1.40400 29.52900
C  39.32700 1.48900 30.61700
C  40.68300 1.17400 30.14200
C  40.66000 1.01000 28.74100
C  39.20400 1.17900 28.37300
C  41.86300 0.95900 31.16600
C  41.80800 0.72800 27.78800
O  41.64400 0.74000 26.57800
C  43.23900 0.53300 28.26500
N  36.33400 1.81900 27.39300
C  37.34100 1.31100 26.65900
C  36.98900 1.22200 25.18200
C  35.45700 1.46700 25.18100
C  35.17800 1.80700 26.60600
C  37.77400 2.13100 24.23500
C  34.67400 0.30100 24.48300
C  33.80000 -0.68600 25.34700
N  34.41600 2.14800 29.47800
C  33.51900 2.25900 28.45300
C  32.22600 2.65700 28.96000
C  32.43000 2.74300 30.32800
C  33.78900 2.48800 30.50500
C  31.01900 2.81400 28.23900
C  31.75400 2.92500 31.60100
O  30.58600 3.23100 31.89700
C  32.88200 2.88700 32.63700
C  32.95700 4.22100 33.41500
O  33.33700 5.24700 32.87600
O  32.33500 4.10700 34.65700
C  32.12200 5.30700 35.38600
H  39.67800 1.60600 32.68800
H  39.32700 0.92300 26.28100
H  33.06000 2.11100 26.40700
H  35.49100 3.31200 34.32900
H  37.80500 1.48200 34.43700
H  37.33300 4.35100 34.74200
H  38.51500 4.12600 33.38800
H  38.89600 3.65800 34.98500
H  35.93400 0.28000 34.39400
H  34.31100 0.77800 34.02100
H  35.12700 0.36900 36.57500
H  33.66900 1.24400 35.99300
H  42.38400 0.07800 30.79300
H  41.58900 0.72800 32.19600
H  42.48200 1.85600 31.17700
H  43.83200 0.51900 27.35100
H  43.22100 -0.51400 28.56900
H  43.55700 1.30200 28.96800
H  37.30900 0.20300 24.96600
H  35.20700 2.42500 24.72700
H  38.22800 2.86700 24.89900
H  37.08200 2.56600 23.51500
H  38.50100 1.55100 23.66700
H  35.52300 -0.26400 24.09900
H  34.08100 0.73200 23.67700
H  32.75600 -0.49000 25.10100
H  33.89800 -0.76500 26.42900
H  34.06900 -1.73200 25.19900
H  30.97900 3.68400 27.58400
H  30.20900 2.84700 28.96800
H  30.88300 1.99700 27.53000
H  32.56600 2.11500 33.33900
H  31.64200 5.08900 36.34000
H  31.43400 5.94700 34.83300
H  33.05100 5.86600 35.49600
Mg 47.59300 16.39200 28.89600
C  45.42000 15.55200 31.60300
C  49.42500 18.32000 31.06800
C  49.93600 16.81300 26.39700
C  45.60500 14.50300 26.77000
N  47.32500 16.95300 30.96900
C  46.51700 16.35900 31.95900
C  46.95400 16.76600 33.32800
C  47.76700 18.04500 33.04200
C  48.24000 17.76300 31.57000
C  47.09800 19.41100 33.08200
C  47.70200 15.66100 34.06800
C  47.80000 15.83200 35.61900
H  49.11400 15.90200 36.28700
N  49.46000 17.41300 28.75500
C  50.02600 18.17600 29.78600
C  51.19900 18.81300 29.23400
C  51.43200 18.35300 27.95000
C  50.22800 17.58300 27.59600
C  52.14000 19.70600 30.01700
C  52.61600 18.53100 26.97600
O  52.53500 18.12600 25.81800
C  53.72300 19.46300 27.40000
N  47.69000 15.89900 26.77400
C  48.83100 15.96700 26.07300
C  48.76900 15.12400 24.77800
C  47.51700 14.30100 25.04700
C  46.85500 14.96800 26.26700
C  48.78200 16.08400 23.55700
C  47.76400 12.81400 25.32700
C  47.22200 11.81600 24.28200
N  45.78500 15.38800 29.01500
C  45.04300 14.71800 28.05800
C  43.90000 14.13900 28.69100
C  43.98900 14.38200 30.03500
C  45.10500 15.28400 30.23100
C  42.89900 13.28100 27.96900
C  43.47800 14.11700 31.38800
O  42.50700 13.47300 31.69600
C  44.28700 14.99000 32.40700
C  43.48600 16.01900 33.06300
O  42.82500 16.86400 32.45900
O  43.50700 15.83600 34.40500
C  42.54900 16.42200 35.35000
H  50.05800 18.98700 31.65700
H  50.66400 16.81700 25.58300
H  45.10900 13.75900 26.14300
H  46.04600 17.08800 33.83800
H  48.73000 18.07100 33.55400
H  46.01800 19.30800 32.97900
H  47.48100 20.05900 32.29300
H  47.39800 19.88400 34.01700
H  48.72600 15.56800 33.70700
H  47.07500 14.79300 33.86700
H  47.43100 14.84500 35.89700
H  47.15900 16.66300 35.91600
H  53.02800 19.17200 30.35300
H  51.63300 20.20800 30.84100
H  52.47400 20.47900 29.32500
H  53.35000 20.48700 27.40700
H  54.47900 19.39200 26.61800
H  54.16900 19.02000 28.29100
H  49.61400 14.46200 24.59000
H  46.93800 14.38100 24.12800
H  48.73500 17.10500 23.93600
H  47.86100 16.08800 22.97500
H  49.66600 15.87600 22.95400
H  47.09500 12.56000 26.14900
H  48.82300 12.64200 25.51700
H  46.42300 11.26200 24.77400
H  48.02100 11.12900 24.00300
H  46.90700 12.34100 23.38000
H  41.93100 13.73800 28.17400
H  43.00000 12.31800 28.47000
H  43.22000 13.23600 26.92800
H  44.71100 14.35200 33.18300
H  41.75300 16.95400 34.82700
H  43.09700 17.02400 36.07500
H  42.01800 15.63100 35.87900

