158

Mg 2.31600 -0.63100 44.12600
C  5.62200 0.33300 43.97500
C  1.39700 2.54100 43.09400
C  -0.76300 -1.66100 43.95600
C  3.53300 -3.98100 44.61800
N  3.41400 1.21500 43.37400
C  4.75800 1.39500 43.57100
C  5.17900 2.82500 43.25400
C  3.77200 3.53900 43.16300
C  2.78000 2.40000 43.16100
C  3.53400 4.53100 44.36600
C  5.97700 2.94400 41.94800
C  5.46100 2.18100 40.72300
H  5.32100 2.98700 39.42800
N  0.54000 0.40500 43.61000
C  0.32500 1.66900 43.16900
C  -1.10900 1.92000 42.97200
C  -1.72300 0.66700 43.11500
C  -0.65800 -0.23700 43.57600
C  -1.75800 3.18800 42.46600
C  -3.24200 0.36500 42.98900
O  -3.95600 1.17100 42.46400
C  -3.85500 -0.92800 43.60000
N  1.52100 -2.58500 44.21000
C  0.18100 -2.68300 44.35500
C  -0.23400 -4.15900 44.62000
C  1.08400 -4.92700 44.57000
C  2.13800 -3.80500 44.47200
C  -1.07600 -4.41600 45.84200
C  1.22800 -5.88000 43.35400
C  1.82300 -7.34200 43.48700
N  4.13900 -1.68200 44.37600
C  4.51200 -2.92700 44.75200
C  5.93800 -3.00000 45.02800
C  6.38900 -1.73800 44.71100
C  5.27600 -0.98400 44.30100
C  6.68400 -4.11000 45.61100
C  7.64200 -0.96400 44.55400
O  8.80800 -1.23000 44.78400
C  7.11000 0.50500 44.18900
C  7.46800 1.53200 45.19800
O  8.37800 2.36500 45.08300
O  6.76800 1.43400 46.44100
C  6.87400 2.62400 47.29600
H  0.99100 3.53700 42.90700
H  -1.74000 -2.12300 44.11200
H  3.83900 -4.98900 44.90500
H  5.86900 3.11500 44.04600
H  3.68900 4.09500 42.23000
H  4.29000 4.27900 45.10900
H  2.54700 4.28900 44.76100
H  3.57200 5.56600 44.02700
H  6.93800 2.46000 42.12000
H  6.24300 3.98700 41.77700
H  4.54100 1.66000 40.98800
H  6.15300 1.38300 40.45100
H  -1.10600 4.00700 42.77000
H  -2.59300 3.51000 43.08900
H  -2.03600 3.08800 41.41700
H  -3.56600 -1.08500 44.63900
H  -3.74500 -1.71500 42.85500
H  -4.84800 -0.48300 43.65800
H  -0.86900 -4.45400 43.78500
H  1.24900 -5.56300 45.44000
H  -1.81000 -3.63200 46.02900
H  -0.50000 -4.55700 46.75600
H  -1.72200 -5.28700 45.73200
H  1.79600 -5.38400 42.56600
H  0.26100 -6.00100 42.86600
H  1.04600 -8.09300 43.34300
H  2.33500 -7.47100 44.44000
H  2.60200 -7.58800 42.76500
H  5.91200 -4.81600 45.92000
H  7.33200 -3.71800 46.39500
H  7.31800 -4.47400 44.80300
H  7.57200 0.74300 43.23100
H  7.88800 3.00600 47.40900
H  6.42600 2.49200 48.28100
H  6.19200 3.30100 46.78200
Mg 40.90000 8.37700 29.25700
C  42.43900 9.78300 32.09900
C  38.49100 7.01000 31.28400
C  39.68400 6.97200 26.50400
C  43.85600 9.30200 27.54500
N  40.53900 8.33500 31.51700
C  41.23600 9.10500 32.44500
C  40.47800 9.11900 33.81700
C  39.33700 8.12500 33.52500
C  39.43900 7.79400 31.98600
C  39.45900 6.68800 34.21600
C  40.07300 10.50300 34.32700
C  39.97900 10.57700 35.83600
H  40.95100 11.49300 36.61800
N  39.20200 7.17600 28.93300
C  38.33400 6.70600 29.90900
C  37.26100 6.02400 29.22400
C  37.56000 6.03400 27.87000
C  38.86300 6.69400 27.70500
C  36.08400 5.38400 29.92800
C  36.68100 5.53300 26.73100
O  36.97700 5.61000 25.55100
C  35.22200 5.06900 27.01500
N  41.67100 8.20500 27.34800
C  40.92400 7.61700 26.35200
C  41.65200 7.58000 25.03900
C  42.89000 8.62900 25.23200
C  42.81800 8.68400 26.84700
C  42.16200 6.20700 24.53100
C  42.92700 9.92900 24.44800
C  42.15800 11.08700 25.01500
N  42.78700 9.32800 29.70000
C  43.76000 9.71700 28.86700
C  44.70600 10.62200 29.59300
C  44.26600 10.63700 30.92400
C  43.05100 9.85000 30.90100
C  45.87300 11.30700 29.04900
C  44.53900 11.14900 32.25400
O  45.44600 11.75200 32.73500
C  43.35000 10.50800 33.07300
C  44.05300 9.61400 34.04600
O  44.79100 8.71100 33.69700
O  43.56200 9.84200 35.31400
C  43.95900 8.84000 36.31700
H  37.60900 6.80500 31.89300
H  39.29900 6.57800 25.56100
H  44.55400 9.88600 26.94100
H  41.08300 8.60900 34.56600
H  38.33100 8.42000 33.82400
H  39.92100 5.93100 33.58200
H  38.47500 6.26200 34.41200
H  40.02600 6.64000 35.14600
H  39.11500 10.75300 33.87100
H  40.72200 11.20200 33.79800
H  40.00600 9.58200 36.28100
H  38.96000 10.92400 36.00500
H  35.09900 5.75700 29.64600
H  36.19000 5.46700 31.00900
H  36.12500 4.33100 29.64700
H  35.20000 4.09100 27.49600
H  34.72700 5.03800 26.04400
H  34.81300 5.88600 27.61000
H  41.11200 8.03300 24.20800
H  43.75100 8.03700 24.92100
H  41.84600 6.09900 23.49400
H  41.70600 5.35300 25.03100
H  43.24500 6.08500 24.56100
H  42.40500 9.61300 23.54500
H  43.94900 10.15100 24.13800
H  41.66200 11.55700 24.16600
H  42.91500 11.70200 25.50300
H  41.46800 10.77600 25.80000
H  45.87800 11.36900 27.96100
H  46.71700 10.65400 29.27100
H  46.00400 12.27400 29.53500
H  42.93800 11.39400 33.55600
H  43.75700 9.12800 37.34800
H  45.02900 8.63500 36.28100
H  43.32100 7.97000 36.16600

