158

Mg 26.13200 -0.31000 29.15800
C  28.01900 -0.48600 32.19200
C  23.33900 0.34400 31.27200
C  24.26100 -0.18400 26.42300
C  28.93600 -0.94100 27.38000
N  25.73400 -0.18200 31.55700
C  26.71400 -0.08500 32.46300
C  26.16200 0.37800 33.80900
C  24.55800 0.48600 33.52900
C  24.47800 0.18100 32.02500
C  23.69300 -0.59600 34.30100
C  26.70400 1.69000 34.46800
C  26.03000 2.10700 35.79700
H  27.00800 2.24600 37.00100
N  24.03800 -0.12100 28.88600
C  23.11000 0.14200 29.88400
C  21.78600 0.15600 29.16400
C  22.00400 0.04600 27.76500
C  23.46100 -0.06900 27.60400
C  20.46700 0.28600 29.86400
C  21.02100 0.06600 26.67200
O  21.39800 0.00900 25.51100
C  19.47300 0.15500 26.85100
N  26.56000 -0.61500 27.17600
C  25.62400 -0.44000 26.21600
C  26.26500 -0.29500 24.84900
C  27.78700 -0.66800 25.12800
C  27.78800 -0.78800 26.63000
C  25.65100 -1.09800 23.70700
C  28.81300 0.34400 24.55300
C  30.06200 -0.35600 23.91900
N  28.04200 -0.75300 29.60300
C  29.12500 -1.00300 28.77800
C  30.30500 -1.25600 29.60400
C  29.90900 -1.14600 30.90800
C  28.51600 -0.81400 30.91000
C  31.63100 -1.50400 29.04000
C  30.41000 -1.10200 32.23800
O  31.56600 -1.42400 32.67300
C  29.18200 -0.65900 33.10100
C  28.95300 -1.76500 34.14600
O  28.11000 -2.64800 34.04100
O  29.65400 -1.46000 35.32900
C  29.71800 -2.44300 36.42000
H  22.46900 0.65200 31.85600
H  23.70500 -0.26000 25.48700
H  29.92000 -1.07800 26.92700
H  26.40000 -0.47800 34.43900
H  24.23700 1.50600 33.74000
H  23.77900 -0.58200 35.38800
H  23.95500 -1.61100 34.00300
H  22.63800 -0.39900 34.11100
H  26.38600 2.48700 33.79500
H  27.78600 1.71600 34.59900
H  25.25700 1.36800 36.01000
H  25.66300 3.08400 35.48100
H  19.94400 1.22700 29.69800
H  20.74600 0.26000 30.91700
H  19.79600 -0.53300 29.60400
H  18.98400 -0.53800 27.53500
H  19.02900 -0.06800 25.88100
H  19.28100 1.18200 27.16300
H  26.18100 0.75000 24.55200
H  27.95200 -1.70900 24.85000
H  24.87800 -1.70800 24.17500
H  26.25500 -1.81500 23.15100
H  25.20800 -0.38700 23.01000
H  29.24500 1.05800 25.25300
H  28.31500 0.90200 23.75900
H  30.99700 -0.05800 24.39400
H  30.07700 -0.29900 22.83100
H  29.93900 -1.41400 24.15100
H  32.22200 -0.61400 29.25800
H  31.58300 -1.60600 27.95600
H  32.06400 -2.34400 29.58300
H  29.44400 0.23600 33.66700
H  29.64300 -3.47500 36.07600
H  28.91600 -2.19500 37.11500
H  30.64200 -2.33600 36.98800
Mg 47.72400 45.95700 43.55300
C  44.47500 46.34500 42.47500
C  47.67200 42.69300 42.35300
C  50.96300 45.63300 44.24000
C  47.72800 49.16000 44.82700
N  46.28300 44.75100 42.25400
C  45.00400 45.14000 41.99100
C  44.17900 43.96600 41.42000
C  45.13100 42.72500 41.49900
C  46.40900 43.36300 42.10500
C  44.61500 41.47900 42.34100
C  43.55600 44.31500 39.98100
C  42.27600 43.64200 39.59100
H  42.53100 42.58000 38.49800
N  49.13500 44.32200 43.46000
C  48.93100 43.11000 42.89600
C  50.15100 42.26500 43.03600
C  51.14300 43.08600 43.63400
C  50.41200 44.42300 43.83300
C  50.18100 40.84000 42.68100
C  52.52500 42.67100 43.91600
O  52.85000 41.59200 43.54700
C  53.53800 43.71500 44.46000
N  49.17100 47.29500 44.22900
C  50.43700 46.91000 44.49700
C  51.28400 48.10300 45.10200
C  50.26900 49.28200 45.17300
C  48.96400 48.57100 44.75400
C  51.91500 47.83300 46.43800
C  50.67200 50.47200 44.20200
C  51.31200 51.70300 44.88700
N  46.40600 47.49400 43.54400
C  46.55000 48.71300 44.26100
C  45.27500 49.37100 44.27100
C  44.44500 48.47800 43.65900
C  45.15800 47.36400 43.19900
C  45.02000 50.85800 44.83900
C  43.06900 48.27400 43.25200
O  42.05300 48.97000 43.25100
C  43.11300 46.91500 42.39900
C  42.04500 45.98100 42.75200
O  41.06200 45.76200 42.06700
O  42.20300 45.46200 44.03900
C  41.21800 44.49100 44.43700
H  47.63200 41.67500 41.96200
H  52.02900 45.67900 44.47400
H  47.61300 50.09900 45.37300
H  43.42700 43.61900 42.12900
H  45.39100 42.32800 40.51800
H  45.41000 41.02500 42.93300
H  44.13700 40.79900 41.63600
H  43.79500 41.71500 43.02000
H  44.30300 44.01400 39.24700
H  43.33200 45.38100 39.94300
H  41.52000 44.32900 39.21100
H  41.92900 43.10700 40.47500
H  50.05400 40.61900 41.62100
H  49.30100 40.36900 43.11900
H  50.99900 40.23300 43.07100
H  53.64500 44.46900 43.68000
H  54.49000 43.27400 44.75400
H  53.05100 44.09900 45.35700
H  52.05700 48.20700 44.34100
H  50.03900 49.58200 46.19500
H  53.00500 47.81500 46.45300
H  51.41400 46.94500 46.82600
H  51.64800 48.62100 47.14300
H  49.77500 50.60800 43.59600
H  51.42800 50.09800 43.51200
H  52.26900 51.95600 44.43100
H  51.55200 51.33200 45.88300
H  50.56700 52.49400 44.79200
H  44.00300 51.11600 45.13400
H  45.28500 51.59200 44.07800
H  45.57800 50.97600 45.76800
H  42.88200 47.34600 41.42500
H  41.57700 43.51900 44.09900
H  40.25000 44.55800 43.94000
H  41.08100 44.56600 45.51500

