158

Mg 34.57500 2.97400 29.70400
C  32.52100 4.09100 32.27800
C  37.28200 3.37200 31.79800
C  36.49200 2.62500 26.95500
C  31.70700 3.31000 27.49900
N  34.90400 3.76600 31.78300
C  33.89900 4.05400 32.69000
C  34.40600 4.04100 34.13000
C  35.95400 4.00400 33.86800
C  36.07500 3.60300 32.40200
C  36.70600 5.31100 34.26000
C  33.88400 2.77800 34.91800
C  33.53200 3.04500 36.46600
H  34.16800 4.30600 37.14300
N  36.58900 2.76300 29.47700
C  37.51000 3.01800 30.45100
C  38.86400 2.90500 29.90800
C  38.67100 2.72800 28.48400
C  37.17100 2.66300 28.23500
C  40.15700 3.15800 30.76200
C  39.63200 2.62600 27.30100
O  39.35700 2.41300 26.10800
C  41.13300 2.73400 27.63200
N  34.08900 2.87400 27.49900
C  35.12500 2.88100 26.58400
C  34.59800 2.94800 25.17700
C  33.03800 2.83900 25.36100
C  32.89100 2.99900 26.83100
C  35.12700 4.24100 24.45500
C  32.39700 1.52000 24.89500
C  32.36200 0.26500 25.78200
N  32.57300 3.44000 29.76600
C  31.47700 3.47000 28.87500
C  30.31500 3.99000 29.52600
C  30.62500 4.07700 30.90900
C  32.00600 3.85100 30.94500
C  28.95200 4.12700 28.98000
C  30.08200 4.38600 32.19500
O  28.96400 4.73900 32.47600
C  31.35500 4.40300 33.15400
C  31.46100 5.77300 33.76000
O  32.09000 6.70000 33.31700
O  30.76000 5.83000 34.86700
C  30.86900 7.10100 35.66300
H  38.15200 3.47000 32.45100
H  37.06300 2.64000 26.02500
H  30.81000 3.57400 26.93500
H  34.17700 5.03200 34.52200
H  36.40600 3.24800 34.51000
H  37.51600 4.89800 34.86200
H  36.15500 5.95900 34.94200
H  37.00200 5.85600 33.36300
H  34.61600 1.97900 34.79700
H  33.00400 2.47100 34.35200
H  33.88500 2.16700 37.00600
H  32.45800 3.03400 36.65100
H  40.17200 4.24100 30.88300
H  41.07100 2.69300 30.39400
H  39.87800 2.64900 31.68500
H  41.22800 3.68400 28.15700
H  41.60000 2.68500 26.64800
H  41.57400 1.99000 28.29500
H  34.85500 2.11300 24.52500
H  32.58500 3.76400 25.00500
H  34.65900 5.15900 24.81000
H  35.10700 4.17100 23.36700
H  36.17900 4.33600 24.72200
H  32.76300 1.18800 23.92300
H  31.33700 1.70800 24.72600
H  33.21300 0.22600 26.46200
H  32.33700 -0.64400 25.18100
H  31.47600 0.27200 26.41700
H  28.20700 3.93400 29.75300
H  28.84600 3.38600 28.18800
H  28.70700 5.09900 28.55300
H  31.11600 3.59500 33.84500
H  31.86100 7.26800 36.08200
H  30.26700 7.02400 36.56900
H  30.46800 7.94200 35.09600
Mg 40.01800 10.13800 29.46900
C  41.99300 11.41500 32.15800
C  37.84500 8.98200 31.79300
C  38.46900 8.72500 27.00000
C  42.71900 10.90300 27.37000
N  39.95700 10.12900 31.75400
C  40.70800 10.91400 32.60200
C  40.16700 10.93800 34.01200
C  38.88900 10.01000 33.87500
C  38.85100 9.68800 32.38300
C  38.81100 8.84300 34.88700
C  39.94300 12.37600 34.51600
C  40.63300 12.76100 35.81800
H  39.77000 13.61600 36.81700
N  38.32500 9.03700 29.44600
C  37.54900 8.61100 30.47900
C  36.33000 8.01900 29.91100
C  36.42100 8.01500 28.49200
C  37.81600 8.58200 28.27400
C  35.21000 7.58400 30.92400
C  35.45300 7.54400 27.42700
O  35.69400 7.54900 26.20400
C  34.14100 7.03500 27.80000
N  40.64100 9.78000 27.51200
C  39.72500 9.20200 26.67300
C  40.16700 9.29200 25.17300
C  41.52500 9.94900 25.36600
C  41.66200 10.19900 26.81300
C  40.26500 7.96500 24.36500
C  41.78400 11.24800 24.50300
C  41.18600 12.58700 24.93800
N  41.87100 11.01000 29.64800
C  42.82100 11.31300 28.72300
C  44.00100 11.93900 29.31600
C  43.70200 12.04500 30.61500
C  42.43200 11.39400 30.82200
C  45.31400 12.26100 28.67300
C  44.18300 12.52000 31.85800
O  45.27000 13.11100 32.05800
C  43.13600 12.10300 32.96600
C  43.79000 11.23000 34.00600
O  43.82000 10.00900 33.97800
O  44.11700 11.96900 35.06900
C  44.29500 11.17300 36.33300
H  37.22000 8.59700 32.60200
H  37.92400 8.40400 26.10900
H  43.50700 11.10600 26.64200
H  40.87500 10.47600 34.69900
H  37.94100 10.54000 33.97000
H  37.88200 8.66900 35.43100
H  39.56000 9.04300 35.65300
H  39.12600 7.91300 34.41300
H  38.85400 12.38800 34.57900
H  40.15000 13.11400 33.74100
H  41.46900 13.36600 35.46900
H  41.05100 11.90500 36.34800
H  34.61400 8.38300 31.36500
H  35.66400 7.19900 31.83700
H  34.58100 6.78200 30.53800
H  34.17300 6.38500 28.67400
H  33.52600 6.57600 27.02600
H  33.58200 7.91700 28.11400
H  39.53800 9.94000 24.56300
H  42.30800 9.23100 25.12500
H  39.45100 7.95400 23.64100
H  40.18300 7.06400 24.97300
H  41.16500 8.00800 23.75100
H  41.60600 10.93700 23.47400
H  42.86000 11.38100 24.60800
H  40.71300 13.15900 24.13900
H  41.91800 13.21700 25.44400
H  40.35800 12.33800 25.60100
H  45.21000 13.28800 28.32300
H  45.50000 11.63900 27.79700
H  46.18600 12.33000 29.32300
H  42.74100 13.00400 33.43400
H  44.03000 10.12100 36.23600
H  43.48400 11.65200 36.88200
H  45.28600 11.42000 36.71400

