158

Mg 24.16000 -4.70500 45.79100
C  26.09900 -2.39300 44.15000
C  21.49700 -3.79000 43.75700
C  22.54600 -7.36700 46.82100
C  27.09100 -5.94500 47.45900
N  23.86200 -3.23000 44.16600
C  24.77400 -2.36100 43.69700
C  24.10400 -1.29100 42.70400
C  22.59500 -1.63100 42.91500
C  22.61300 -2.96900 43.65200
C  21.82000 -0.54300 43.60700
C  24.70200 -1.54700 41.26000
C  25.08400 -0.27900 40.52600
H  24.69200 -0.09500 39.05100
N  22.27400 -5.46900 45.39000
C  21.34200 -4.95700 44.50700
C  20.15300 -5.73900 44.68300
C  20.32600 -6.81300 45.59100
C  21.74100 -6.61400 45.95900
C  18.93400 -5.24300 43.95400
C  19.32300 -7.87600 45.97100
O  18.16200 -7.96200 45.50300
C  19.61500 -8.81400 47.23000
N  24.81900 -6.55100 46.92100
C  23.83700 -7.38200 47.29700
C  24.41800 -8.52700 48.22000
C  25.88200 -8.02600 48.43300
C  25.96200 -6.73800 47.64500
C  23.41700 -8.93100 49.30600
C  26.98200 -9.03600 48.24800
C  27.53000 -9.26700 46.86100
N  26.18500 -4.26600 45.84000
C  27.23800 -4.81000 46.62400
C  28.40400 -4.04400 46.43100
C  28.04000 -3.13800 45.46700
C  26.66900 -3.26100 45.15800
C  29.75500 -4.27300 47.09700
C  28.47900 -2.07000 44.68100
O  29.59600 -1.57300 44.72100
C  27.27400 -1.52500 43.77400
C  27.07700 -0.07700 44.06200
O  26.33200 0.38800 44.94000
O  27.93400 0.67800 43.28000
C  27.83900 2.07700 43.46700
H  20.68100 -3.54800 43.07300
H  22.03000 -8.25900 47.18200
H  27.91200 -6.34500 48.05700
H  24.43400 -0.30600 43.03400
H  22.08800 -1.74700 41.95700
H  21.70000 -0.71700 44.67600
H  20.80100 -0.47700 43.22400
H  22.28600 0.43800 43.51000
H  23.96400 -2.01300 40.60700
H  25.48600 -2.30400 41.28900
H  26.15600 -0.16600 40.68400
H  24.77400 0.60000 41.09100
H  19.13000 -5.33400 42.88600
H  18.65500 -4.22200 44.21300
H  18.08700 -5.80800 44.34500
H  18.72000 -9.17500 47.73700
H  20.14400 -8.19000 47.95000
H  20.26800 -9.65400 46.99400
H  24.37000 -9.30600 47.46000
H  25.92800 -7.83300 49.50500
H  23.91600 -8.69700 50.24700
H  23.21200 -9.99000 49.14900
H  22.48900 -8.35900 49.28800
H  26.41200 -9.93300 48.49100
H  27.75300 -8.91700 49.00900
H  28.46300 -8.70500 46.89400
H  27.01100 -8.83000 46.00800
H  27.60900 -10.35400 46.85200
H  29.91700 -5.35000 47.07300
H  29.77500 -4.06600 48.16700
H  30.54100 -3.77200 46.53100
H  27.57400 -1.52300 42.72600
H  28.81600 2.48000 43.20100
H  27.57800 2.49900 44.43700
H  27.06100 2.41500 42.78200
Mg 7.04900 53.43700 41.91900
C  6.22700 50.00300 41.18500
C  10.28300 52.79900 40.68900
C  7.73700 56.69500 41.87600
C  3.60700 54.01800 42.32300
N  8.11100 51.61800 40.85000
C  7.57300 50.34500 40.91100
C  8.71300 49.34300 40.35700
C  10.01700 50.17200 40.46800
C  9.45100 51.62500 40.71600
C  11.00900 49.67100 41.56100
C  8.31600 48.78400 38.94100
C  7.42400 49.66000 38.05900
H  7.15900 49.14900 36.71200
N  8.80900 54.60100 41.38200
C  10.02000 54.18200 40.96300
C  10.96000 55.24000 40.92000
C  10.13600 56.36600 41.17900
C  8.79200 55.93400 41.49300
C  12.44400 55.01200 40.44400
C  10.63200 57.78300 41.04100
O  11.81500 58.02400 40.78900
C  9.73500 59.00100 41.08400
N  5.81200 55.11300 41.96900
C  6.40600 56.40200 42.13800
C  5.29900 57.37900 42.43800
C  4.04500 56.52600 42.62400
C  4.47900 55.13700 42.26700
C  5.52300 58.49200 43.50300
C  2.80800 57.05700 41.77600
C  1.40700 56.94400 42.41900
N  5.33200 52.30000 41.90100
C  3.97500 52.68200 42.09000
C  3.11900 51.51600 42.05800
C  4.05200 50.41500 41.84500
C  5.31100 50.99900 41.59300
C  1.62300 51.48000 42.33400
C  4.12500 49.01000 41.82700
O  3.26600 48.20700 42.13800
C  5.56700 48.61500 41.33300
C  5.39400 47.68400 40.11800
O  4.93000 47.99800 39.03100
O  5.59400 46.42300 40.54700
C  5.18900 45.31100 39.62300
H  11.33800 52.56400 40.53300
H  7.72100 57.78500 41.82200
H  2.52500 54.15000 42.39000
H  8.66200 48.53700 41.08900
H  10.56400 50.15300 39.52500
H  11.96900 49.30900 41.19500
H  10.57300 48.81100 42.07000
H  11.26700 50.41500 42.31500
H  7.76100 47.86300 39.12000
H  9.17800 48.42800 38.37700
H  7.98200 50.59400 37.99300
H  6.48400 49.93800 38.53800
H  12.41500 54.41700 39.53000
H  12.90900 54.39800 41.21500
H  13.10400 55.87600 40.36900
H  10.36800 59.88700 41.03700
H  9.40500 59.03000 42.12300
H  9.00700 58.99300 40.27300
H  5.24400 57.85200 41.45800
H  3.86900 56.44500 43.69600
H  5.55300 59.50300 43.09700
H  6.43900 58.36600 44.08000
H  4.67500 58.51600 44.18800
H  2.80400 56.66200 40.76100
H  3.02400 58.08400 41.48100
H  0.73100 56.44100 41.72700
H  1.01400 57.94300 42.61000
H  1.43900 56.40300 43.36500
H  1.48400 51.93400 43.31500
H  1.21800 50.46800 42.33500
H  1.14400 52.25700 41.73800
H  5.99200 48.03300 42.15100
H  5.68400 44.35600 39.79900
H  5.43700 45.64300 38.61500
H  4.11100 45.15000 39.66600

