158

Mg 40.35200 10.17700 29.32000
C  42.13900 11.31900 32.25000
C  38.07100 8.64700 31.46300
C  38.89300 8.74100 26.66200
C  43.06800 11.05200 27.53100
N  40.08200 10.08300 31.55600
C  40.87100 10.67300 32.56100
C  40.33000 10.36300 33.98400
C  39.06500 9.38700 33.69700
C  39.04600 9.35200 32.11000
C  39.17600 7.96000 34.33900
C  39.98800 11.66700 34.65600
C  39.91500 11.38900 36.17700
H  40.68600 12.26100 37.16800
N  38.59200 9.02600 29.08900
C  37.79900 8.50900 30.06500
C  36.61200 7.86600 29.50900
C  36.78700 8.07800 28.07200
C  38.14300 8.63500 27.88800
C  35.54200 7.12300 30.32300
C  35.87100 7.65600 26.89500
O  36.25000 7.84700 25.74600
C  34.45900 7.20800 27.28100
N  40.97800 9.76300 27.41600
C  40.22000 9.18700 26.45700
C  41.02600 9.14800 25.09600
C  42.28900 9.96000 25.37600
C  42.10500 10.28600 26.84000
C  41.14100 7.73100 24.58800
C  42.37100 11.27500 24.60900
C  41.30200 12.41700 24.69200
N  42.18900 11.07900 29.69900
C  43.12400 11.48800 28.86000
C  44.20300 12.23700 29.54100
C  43.81600 12.15800 30.90300
C  42.61600 11.50500 30.93200
C  45.45400 12.86000 29.04600
C  44.22000 12.47400 32.21500
O  45.24200 13.02700 32.60900
C  43.14200 11.98800 33.18400
C  43.81000 11.00300 34.15800
O  44.03700 9.82500 33.94600
O  44.21600 11.65400 35.27000
C  44.77400 10.73000 36.29600
H  37.32500 8.33400 32.19600
H  38.43600 8.37600 25.74000
H  43.84000 11.43600 26.86100
H  41.22600 9.85300 34.33700
H  38.11400 9.82500 34.00000
H  39.66200 8.14800 35.29600
H  39.70700 7.27600 33.67700
H  38.17200 7.58600 34.53700
H  38.96400 11.92500 34.38300
H  40.67500 12.50500 34.54300
H  40.19700 10.34900 36.34100
H  38.85300 11.37500 36.41900
H  35.62300 7.17900 31.40800
H  35.48100 6.11500 29.91100
H  34.59200 7.65400 30.26600
H  33.93900 7.84900 27.99200
H  34.57500 6.23700 27.76200
H  33.83200 7.10900 26.39500
H  40.45500 9.72800 24.37100
H  43.12500 9.26200 25.34800
H  40.86200 6.98800 25.33600
H  42.17200 7.42200 24.41700
H  40.43200 7.51200 23.78900
H  42.35900 10.97400 23.56200
H  43.37800 11.67400 24.72700
H  40.85500 12.44200 23.69900
H  41.69700 13.43000 24.77500
H  40.50000 12.22500 25.40500
H  45.47900 12.72500 27.96500
H  46.36800 12.33400 29.32200
H  45.53800 13.91100 29.32300
H  42.60600 12.83300 33.61500
H  44.12900 9.90800 36.60700
H  44.86500 11.33700 37.19700
H  45.72200 10.34300 35.92300
Mg -5.88200 24.84600 26.86300
C  -4.27900 25.93300 29.75100
C  -8.01200 22.93600 28.78400
C  -7.20800 23.59800 24.02500
C  -3.58500 26.70900 25.01400
N  -6.11900 24.50700 28.98800
C  -5.33400 25.00800 30.00600
C  -5.85800 24.57600 31.32800
C  -6.77000 23.36700 31.02500
C  -7.05400 23.67700 29.51300
C  -6.14400 21.97400 31.24700
C  -6.57800 25.73600 32.17400
C  -6.07400 25.98200 33.62100
H  -5.15600 24.98600 34.37100
N  -7.46400 23.51700 26.44400
C  -8.19300 22.83700 27.38700
C  -9.28500 22.15500 26.74500
C  -9.07300 22.36800 25.35500
C  -7.90400 23.19700 25.18700
C  -10.36600 21.33200 27.51200
C  -9.93300 21.90600 24.11700
O  -9.64800 22.12200 22.96400
C  -11.20200 21.02200 24.30500
N  -5.44500 25.12300 24.74000
C  -6.09100 24.41200 23.80500
C  -5.56500 24.64200 22.47000
C  -4.37700 25.68900 22.72600
C  -4.50000 25.91600 24.25800
C  -4.99300 23.46300 21.75200
C  -4.34300 27.04900 21.84500
C  -3.13200 27.17800 20.89500
N  -4.34200 26.16800 27.20900
C  -3.51200 26.95700 26.38300
C  -2.57400 27.62100 27.13400
C  -2.85500 27.31200 28.46600
C  -3.90900 26.39500 28.46500
C  -1.53900 28.51000 26.51900
C  -2.40600 27.56800 29.86800
O  -1.43800 28.21200 30.25500
C  -3.34400 26.58600 30.83600
C  -2.36800 25.71300 31.53100
O  -1.97300 24.65800 31.08000
O  -1.97000 26.26500 32.75000
C  -0.96500 25.57700 33.45700
H  -8.64000 22.40100 29.49900
H  -7.56400 23.11700 23.11100
H  -2.85100 27.26800 24.42900
H  -4.94900 24.33900 31.88200
H  -7.67100 23.32500 31.63700
H  -5.08200 22.18400 31.37700
H  -6.09000 21.36700 30.34400
H  -6.60300 21.41300 32.06100
H  -7.56300 25.29900 32.33800
H  -6.66500 26.61400 31.53500
H  -6.95600 26.16400 34.23500
H  -5.49900 26.90600 33.55600
H  -11.32200 21.83000 27.66900
H  -9.94100 21.11700 28.49300
H  -10.57200 20.41600 26.95800
H  -11.81600 21.50400 25.06600
H  -10.79700 20.08400 24.68200
H  -11.60100 20.90200 23.29700
H  -6.26600 25.04000 21.73700
H  -3.41400 25.18000 22.71100
H  -3.98400 23.39100 21.34600
H  -5.48800 23.41700 20.78200
H  -5.20300 22.53800 22.28900
H  -4.24000 27.83800 22.59000
H  -5.31000 27.17800 21.35800
H  -2.50700 26.30400 21.07900
H  -2.59100 28.04500 21.27400
H  -3.38300 27.30900 19.84200
H  -0.92100 27.78400 25.98900
H  -1.04200 28.95300 27.38100
H  -1.89100 29.27600 25.82800
H  -3.94000 27.13600 31.56500
H  -0.09300 26.20500 33.63900
H  -0.63800 24.67600 32.93700
H  -1.30800 25.22000 34.42800

