158

Mg 1.95500 -1.28200 44.36400
C  5.34400 -0.66400 43.96700
C  1.35000 1.71400 42.73700
C  -1.31500 -2.27800 44.00500
C  2.57400 -4.53700 45.50600
N  3.22100 0.24200 43.23800
C  4.57400 0.33400 43.39500
C  5.13900 1.66500 42.82900
C  3.79900 2.47000 42.51200
C  2.74000 1.49300 42.91100
C  3.62700 3.91100 43.23900
C  5.99000 1.46000 41.50900
C  7.43500 1.80600 41.50400
H  8.27000 2.04900 40.24600
N  0.31400 -0.44200 43.56000
C  0.21000 0.84400 42.92300
C  -1.19400 1.11500 42.58800
C  -1.90300 -0.01300 43.10000
C  -0.94600 -1.00000 43.58800
C  -1.72400 2.36500 41.88000
C  -3.44700 -0.01700 42.91400
O  -4.09200 0.77300 42.24800
C  -4.24000 -1.14000 43.54600
N  0.78000 -3.22400 44.75400
C  -0.53700 -3.30300 44.55600
C  -1.00900 -4.74000 44.69800
C  0.23800 -5.50200 45.32600
C  1.25100 -4.36500 45.21000
C  -2.34300 -5.04200 45.56500
C  0.62500 -6.77100 44.50500
C  1.09400 -7.94600 45.16000
N  3.53000 -2.38600 44.81900
C  3.66500 -3.63400 45.31000
C  5.04000 -3.83700 45.69200
C  5.72900 -2.68800 45.17900
C  4.77800 -1.84200 44.60100
C  5.66300 -5.14700 46.17600
C  7.05900 -2.07000 45.00400
O  8.13500 -2.52700 45.38400
C  6.82900 -0.74300 44.29700
C  7.22700 0.35200 45.21000
O  6.66200 0.58800 46.29800
O  8.23500 1.18100 44.73300
C  8.77600 2.29300 45.46300
H  1.13300 2.73300 42.41100
H  -2.35500 -2.54600 43.80600
H  2.84800 -5.50700 45.92800
H  5.69400 2.18500 43.61000
H  3.61200 2.81300 41.49400
H  2.88700 3.85600 44.03700
H  3.25300 4.74200 42.64100
H  4.56600 4.21700 43.70100
H  5.57900 1.95100 40.62700
H  5.96300 0.39300 41.28600
H  7.91100 1.00200 42.06600
H  7.50800 2.64100 42.20100
H  -0.99100 3.16500 41.77300
H  -2.42900 2.87300 42.53800
H  -2.19800 2.17900 40.91600
H  -5.28300 -0.84700 43.65900
H  -3.98400 -1.16600 44.60500
H  -4.24400 -2.03500 42.92400
H  -1.17500 -5.16400 43.70800
H  0.03700 -5.91400 46.31500
H  -2.33100 -6.05900 45.95600
H  -3.16300 -5.01700 44.84700
H  -2.55900 -4.31500 46.34800
H  1.48200 -6.59400 43.85400
H  -0.22900 -7.12800 43.93000
H  1.49000 -7.58900 46.11000
H  1.95500 -8.44100 44.71000
H  0.47600 -8.82800 45.32500
H  5.26800 -5.44200 47.14800
H  6.74600 -5.04000 46.23700
H  5.40800 -5.98500 45.52600
H  7.52100 -0.59100 43.46900
H  8.58900 3.25000 44.97500
H  9.86200 2.19600 45.43000
H  8.58200 2.34700 46.53400
Mg 0.27100 44.04400 25.94000
C  2.47800 43.86200 28.64300
C  -2.31200 43.62700 28.24000
C  -1.82800 43.88400 23.49400
C  2.96800 44.35900 23.82100
N  0.11600 43.93000 28.18400
C  1.16300 43.80500 29.01800
C  0.58900 43.68800 30.45300
C  -0.92000 43.30300 30.32800
C  -1.06500 43.67000 28.80100
C  -1.25600 41.75900 30.64800
C  0.85300 44.99800 31.24800
C  1.38300 44.70800 32.66800
H  0.63700 43.68200 33.50600
N  -1.76500 43.85200 25.89100
C  -2.64800 43.73600 26.93200
C  -4.04500 43.69700 26.49400
C  -3.93000 43.81300 25.04700
C  -2.45600 43.87500 24.76300
C  -5.30500 43.56600 27.39000
C  -5.01400 43.91200 24.03400
O  -4.78600 43.97600 22.84700
C  -6.53600 43.98500 24.46500
N  0.63700 43.88700 23.92000
C  -0.45100 43.87200 23.11400
C  -0.02900 44.03000 21.66800
C  1.50400 44.45200 21.74800
C  1.71100 44.21700 23.21500
C  -0.24900 42.79700 20.78800
C  1.80800 45.88200 21.20500
C  2.14400 45.78800 19.67100
N  2.41000 44.01100 26.14300
C  3.35800 44.15800 25.17300
C  4.65600 44.08500 25.77400
C  4.38100 44.03100 27.14500
C  2.99600 43.90400 27.30100
C  6.02600 44.00100 25.03600
C  4.89600 43.88200 28.50500
O  6.06900 43.93200 28.91700
C  3.70500 43.88000 29.50100
C  3.83200 42.72700 30.39300
O  3.68000 41.60500 29.98600
O  4.35500 43.05900 31.65800
C  4.79300 41.94600 32.48600
H  -3.08600 43.57100 29.00900
H  -2.47900 43.89200 22.61800
H  3.66900 44.59800 23.01800
H  1.20300 42.84800 30.77600
H  -1.50100 44.07300 30.83700
H  -0.32900 41.26200 30.93200
H  -1.63300 41.39400 29.69300
H  -1.93900 41.67300 31.49400
H  -0.05200 45.58500 31.40600
H  1.61600 45.59500 30.75000
H  1.45700 45.69800 33.11600
H  2.45600 44.57200 32.53500
H  -5.79800 44.51400 27.60200
H  -4.97800 43.22000 28.37000
H  -5.97900 42.82500 26.96100
H  -6.83800 42.98300 24.77000
H  -7.00900 44.41900 23.58500
H  -6.58800 44.64700 25.33000
H  -0.62800 44.81800 21.21200
H  2.18300 43.74100 21.27700
H  0.51800 42.48400 20.08100
H  -1.07800 42.97900 20.10400
H  -0.54900 41.93900 21.39000
H  2.73400 46.28900 21.61000
H  0.96300 46.56800 21.24900
H  1.68700 46.67000 19.22100
H  1.56700 44.92200 19.34800
H  3.19800 45.70000 19.41000
H  6.77500 44.42200 25.70700
H  5.89900 44.60600 24.13800
H  6.30500 42.97500 24.79500
H  3.80400 44.77000 30.12200
H  5.86500 41.78700 32.36600
H  4.23800 41.01200 32.39800
H  4.69500 42.20400 33.54100

