158

Mg 49.15400 45.22000 42.74000
C  45.86900 45.76200 41.62000
C  48.86000 41.91300 41.72600
C  52.43000 44.89500 42.73400
C  49.42700 48.73800 43.09600
N  47.53000 43.98600 41.63400
C  46.26000 44.45600 41.28300
C  45.41300 43.30200 40.57900
C  46.26900 42.03400 41.06800
C  47.64000 42.64000 41.46600
C  45.67200 41.15100 42.16000
C  45.40900 43.47700 39.10800
C  44.33100 42.68800 38.40800
H  44.76800 41.61200 37.30500
N  50.46500 43.62500 42.48400
C  50.14000 42.37600 42.04200
C  51.31700 41.56800 42.05300
C  52.39000 42.34600 42.36500
C  51.80600 43.66900 42.57800
C  51.47700 40.10100 41.70000
C  53.86600 41.92900 42.46200
O  54.23300 40.77200 42.22100
C  54.98500 42.93900 42.85800
N  50.66700 46.60000 43.18400
C  51.93300 46.19900 42.97900
C  52.92300 47.43200 42.96200
C  51.95400 48.63500 43.28800
C  50.60500 47.96300 43.12800
C  54.19600 47.33000 43.94000
C  52.21000 49.79500 42.27600
C  52.46200 51.12700 42.98800
N  47.88700 46.88500 42.55000
C  48.12800 48.23200 42.80200
C  46.94300 48.97000 42.60000
C  45.96800 48.04300 42.20000
C  46.60800 46.82800 42.20500
C  46.84500 50.48900 42.75100
C  44.68500 47.93100 41.68000
O  43.78200 48.69500 41.44000
C  44.53000 46.42600 41.25900
C  43.25100 45.83800 41.72000
O  42.53100 45.05100 41.08400
O  42.87800 46.28100 42.94800
C  41.61900 45.74600 43.55900
H  48.63200 40.85500 41.58700
H  53.51700 44.97400 42.65800
H  49.45300 49.76800 43.46000
H  44.39600 43.42200 40.95300
H  46.36200 41.32300 40.24600
H  46.16900 41.01100 43.12000
H  45.56700 40.11700 41.83200
H  44.67400 41.57100 42.28900
H  46.43300 43.22500 38.83400
H  45.29400 44.55400 38.98700
H  43.78100 43.44000 37.84300
H  43.68200 42.21000 39.14200
H  51.93100 39.54600 42.52100
H  52.05900 40.01800 40.78300
H  50.49700 39.64300 41.57100
H  55.12100 43.49800 41.93200
H  55.86000 42.31600 43.04600
H  54.76800 43.46300 43.78800
H  53.30400 47.49200 41.94300
H  51.96500 48.84000 44.35800
H  55.09000 47.13300 43.34800
H  54.15900 46.59100 44.74000
H  54.30800 48.29700 44.43100
H  51.38200 49.91100 41.57700
H  53.14600 49.64000 41.73800
H  53.49700 51.38400 42.76200
H  52.51700 51.07800 44.07600
H  51.76300 51.93200 42.75800
H  46.72800 50.71100 43.81200
H  45.99200 50.89400 42.20600
H  47.75300 50.97500 42.39600
H  44.33800 46.42500 40.18600
H  40.77300 45.88000 42.88500
H  41.39000 46.21600 44.51600
H  41.71400 44.71500 43.89900
Mg 42.66600 41.76500 25.89000
C  41.72400 44.09400 28.15300
C  43.45800 39.52100 28.41100
C  43.43900 39.34600 23.57000
C  42.17700 44.02400 23.15100
N  42.52100 41.81100 28.01600
C  42.03000 42.84200 28.77400
C  42.19500 42.53200 30.31800
C  43.11800 41.19300 30.22700
C  43.00300 40.83500 28.75700
C  44.57400 41.47400 30.72700
C  40.82800 42.34700 30.93600
C  40.81900 41.82600 32.41700
H  40.18000 42.75600 33.44900
N  43.52800 39.69300 25.93100
C  43.58500 38.94400 27.07800
C  44.01200 37.61000 26.73800
C  43.94900 37.53200 25.29700
C  43.65900 38.89800 24.86600
C  44.54100 36.58100 27.80600
C  44.05100 36.35600 24.34000
O  43.98400 36.32500 23.10600
C  44.21300 35.01600 25.01300
N  42.87500 41.69900 23.70600
C  43.13800 40.58900 22.95700
C  43.16200 40.93300 21.44100
C  42.43000 42.26200 21.34200
C  42.51200 42.70200 22.83600
C  44.46300 40.66200 20.65300
C  41.00600 42.08300 20.88100
C  39.83100 41.77200 21.81300
N  42.02500 43.70200 25.61900
C  41.89300 44.53700 24.49100
C  41.39000 45.75500 24.98700
C  41.32500 45.70600 26.38100
C  41.68300 44.41100 26.73800
C  40.98400 46.90300 24.16500
C  41.04000 46.37500 27.65000
O  40.73800 47.49600 27.90400
C  41.31000 45.35900 28.77500
C  42.17200 45.88300 29.81300
O  43.16000 46.59200 29.65000
O  41.59700 45.78800 31.05800
C  42.59300 46.01000 32.16700
H  43.65000 38.84000 29.24300
H  43.57100 38.58800 22.79500
H  42.04900 44.86400 22.46500
H  42.77100 43.39100 30.65900
H  42.68200 40.40100 30.83600
H  44.78200 40.61400 31.36400
H  44.66300 42.39900 31.29600
H  45.28700 41.41400 29.90500
H  40.32200 41.49200 30.48900
H  40.16800 43.16100 30.63500
H  41.84500 41.61300 32.72100
H  40.28000 40.87900 32.44500
H  44.99300 37.18800 28.59100
H  45.22900 35.82100 27.43900
H  43.63000 36.09500 28.15600
H  45.21600 34.69700 25.29600
H  43.83400 34.17200 24.43800
H  43.66800 35.05100 25.95600
H  42.44800 40.17800 21.11100
H  42.95100 42.95100 20.67600
H  45.16600 40.22200 21.36000
H  44.94400 41.58100 20.31800
H  44.27500 39.94500 19.85400
H  40.94500 41.40500 20.03000
H  40.68900 42.98200 20.35400
H  39.49900 40.73600 21.75100
H  38.95900 42.39800 21.62500
H  40.08600 41.87400 22.86800
H  41.88600 47.49500 24.01500
H  40.27600 47.46100 24.77900
H  40.45200 46.60200 23.26200
H  40.33400 45.07700 29.17100
H  42.23000 45.81300 33.17600
H  42.95200 47.03600 32.09300
H  43.50200 45.41100 32.11400

