158

Mg 6.57900 54.23400 41.41200
C  5.86500 50.73000 40.89400
C  9.70100 53.74100 40.23000
C  6.92700 57.62100 41.15700
C  3.07900 54.65200 41.97400
N  7.57200 52.46400 40.30000
C  7.14400 51.11300 40.40200
C  8.31100 50.23900 39.84500
C  9.57300 51.16200 39.88500
C  8.95300 52.53700 40.22100
C  10.73300 50.70400 40.75800
C  7.97200 49.51000 38.52500
C  6.96400 50.17300 37.51000
H  7.60200 50.64600 36.17600
N  8.11600 55.52200 40.84300
C  9.33300 55.06100 40.49200
C  10.27700 56.17200 40.32000
C  9.51600 57.31100 40.62200
C  8.11000 56.83500 40.87600
C  11.61500 56.01000 39.78400
C  9.97600 58.73400 40.49200
O  11.10000 58.99800 40.02700
C  9.16700 59.97500 40.88100
N  5.23300 55.91500 41.71900
C  5.58100 57.16100 41.41300
C  4.44300 58.22500 41.63700
C  3.25100 57.19200 41.72200
C  3.85700 55.82900 41.77100
C  4.56000 59.14300 43.05300
C  2.09600 57.38100 40.60400
C  2.23100 56.34200 39.47000
N  4.87100 53.03200 41.72300
C  3.56300 53.36900 42.00300
C  2.80400 52.16900 42.13500
C  3.65200 51.15600 41.77000
C  4.89500 51.69200 41.44400
C  1.41000 52.04000 42.66900
C  3.68600 49.71800 41.63600
O  2.80800 48.88300 41.86800
C  5.15100 49.37300 41.01800
C  4.94800 48.51400 39.81400
O  4.25400 48.76300 38.85100
O  5.69900 47.36000 39.99200
C  5.44700 46.33100 38.95700
H  10.77500 53.54500 40.20900
H  7.00000 58.70800 41.07800
H  1.99300 54.74100 42.04300
H  8.43500 49.47200 40.60900
H  9.82500 51.36000 38.84300
H  10.90100 51.55600 41.41600
H  11.56000 50.51500 40.07300
H  10.49200 49.82200 41.35200
H  7.87100 48.43900 38.70100
H  8.90800 49.58100 37.97100
H  6.43600 50.98300 38.01300
H  6.14800 49.49900 37.24900
H  12.18000 55.39500 40.48500
H  12.18500 56.92800 39.64000
H  11.48800 55.44400 38.86100
H  8.41300 60.16800 40.11800
H  9.85300 60.81200 41.00500
H  8.76200 59.75400 41.86800
H  4.46100 58.89600 40.77800
H  2.61900 57.22900 42.60900
H  4.41200 60.16000 42.69100
H  5.56400 58.99400 43.45100
H  3.90900 58.84000 43.87300
H  2.13900 58.39700 40.21000
H  1.17300 57.29800 41.17800
H  3.29000 56.13100 39.32500
H  2.11300 56.73500 38.46000
H  1.66600 55.43600 39.69000
H  1.05600 51.01700 42.79800
H  0.61600 52.55000 42.12300
H  1.39900 52.47700 43.66800
H  5.67200 48.72600 41.72300
H  5.47500 45.38800 39.50200
H  6.19200 46.42700 38.16700
H  4.48100 46.37500 38.45400
Mg 0.79100 43.96700 25.47500
C  2.58300 43.93800 28.50000
C  -2.10600 43.46700 27.31600
C  -0.87300 43.70600 22.53400
C  3.75400 44.61100 23.75300
N  0.29700 43.56400 27.63000
C  1.21700 43.72700 28.70700
C  0.57400 43.40300 30.03300
C  -0.91200 43.12500 29.57000
C  -0.95700 43.42900 28.09100
C  -1.43300 41.61700 29.77500
C  0.64300 44.65500 31.03500
C  1.33900 44.48900 32.40500
H  1.00000 43.25900 33.19000
N  -1.16400 43.62000 24.99300
C  -2.23200 43.61100 25.87900
C  -3.47900 43.37400 25.12900
C  -3.14400 43.31600 23.75100
C  -1.70000 43.57800 23.71400
C  -4.87600 43.38300 25.67900
C  -4.04300 43.21800 22.54900
O  -3.58400 43.07200 21.42800
C  -5.56900 43.25800 22.64400
N  1.34400 44.15200 23.45300
C  0.50000 43.90600 22.38200
C  1.29300 43.93700 21.04000
C  2.58500 44.72800 21.51500
C  2.60700 44.50200 23.01400
C  1.53200 42.56400 20.61800
C  2.61300 46.18900 21.03900
C  2.85400 46.29300 19.52300
N  2.72000 44.19000 25.96700
C  3.84000 44.42500 25.19800
C  5.09300 44.51800 25.93400
C  4.65200 44.33400 27.28500
C  3.21700 44.14000 27.21700
C  6.44900 44.76700 25.50700
C  5.06400 44.21800 28.71500
O  6.20400 44.16100 29.22400
C  3.72600 44.10200 29.51700
C  3.94800 42.88100 30.34700
O  3.60400 41.71900 30.09800
O  4.57500 43.29600 31.52200
C  4.97200 42.25500 32.55200
H  -3.00500 43.25500 27.89900
H  -1.33500 43.71900 21.54500
H  4.66100 44.79800 23.17400
H  1.05300 42.51800 30.45400
H  -1.67700 43.67500 30.11800
H  -0.64900 41.08900 30.31800
H  -1.72000 41.08500 28.86800
H  -2.32700 41.82600 30.36200
H  -0.35900 44.98700 31.30500
H  1.20300 45.39000 30.45600
H  1.01900 45.35900 32.97900
H  2.42400 44.57200 32.34100
H  -5.52500 44.17900 25.31600
H  -4.97100 43.22400 26.75300
H  -5.35500 42.46200 25.34400
H  -6.03400 42.34900 23.02600
H  -6.01900 43.32600 21.65400
H  -5.78900 44.09100 23.31200
H  0.78400 44.48300 20.24600
H  3.54300 44.25600 21.29600
H  2.26100 42.53100 19.80900
H  0.61200 42.11500 20.24100
H  1.88700 41.87800 21.38600
H  3.51900 46.53000 21.54000
H  1.72000 46.75400 21.30300
H  3.83900 46.70500 19.30300
H  2.23100 47.03700 19.02800
H  2.78700 45.28000 19.12800
H  7.12800 43.99600 25.87100
H  6.71600 45.76300 25.85900
H  6.48700 44.91800 24.42800
H  3.58700 45.03200 30.06900
H  4.55700 42.58200 33.50500
H  6.06100 42.27500 32.51800
H  4.58100 41.26500 32.31900

