158

Mg 47.15500 44.73500 43.06600
C  43.70200 43.80300 42.60500
C  48.06600 41.41200 42.47200
C  50.34700 45.71300 42.82400
C  46.09000 48.08900 42.99800
N  46.00600 42.86200 42.69000
C  44.64600 42.67700 42.61600
C  44.25900 41.25000 42.65900
C  45.63800 40.47200 42.84600
C  46.60600 41.60800 42.65700
C  45.74700 39.59900 44.10300
C  43.47300 40.90300 41.36100
C  43.92400 41.68200 40.07700
H  43.59600 41.04000 38.71400
N  48.99500 43.73600 42.61800
C  49.14300 42.39000 42.48900
C  50.63500 42.13300 42.35500
C  51.26600 43.40600 42.41700
C  50.18100 44.35800 42.61900
C  51.26900 40.65200 42.21300
C  52.72100 43.55900 42.16000
O  53.43700 42.55000 42.01200
C  53.38000 44.93000 41.94900
N  48.07800 46.61600 43.02700
C  49.43200 46.76300 43.03400
C  49.95600 48.25500 43.12900
C  48.53800 48.99000 43.02700
C  47.47700 47.82500 42.92700
C  50.68800 48.53500 44.44000
C  48.56700 49.94000 41.77200
C  48.99400 51.33700 42.09100
N  45.31100 45.77900 42.93000
C  45.02600 47.11900 42.83500
C  43.62200 47.45000 42.70900
C  42.99300 46.14300 42.70700
C  44.11200 45.15800 42.80400
C  42.93300 48.79300 42.67100
C  41.82700 45.36100 42.65300
O  40.60400 45.70000 42.66000
C  42.24600 43.86600 42.71900
C  41.78700 43.38700 44.00900
O  41.00600 42.42300 44.09400
O  42.27600 44.09000 45.09400
C  41.93700 43.56400 46.35100
H  48.34100 40.36100 42.58300
H  51.41300 45.94900 42.80900
H  45.68200 49.09700 42.90000
H  43.64600 41.07400 43.54200
H  45.76100 39.83300 41.97100
H  44.75500 39.28200 44.42200
H  46.25900 40.31000 44.75100
H  46.32700 38.69400 43.92200
H  42.46600 41.27200 41.55200
H  43.44600 39.82200 41.22600
H  45.01300 41.63800 40.09200
H  43.41000 42.64300 40.11500
H  52.15000 40.46100 41.60000
H  50.41300 40.05900 41.89200
H  51.47100 40.31600 43.23000
H  52.80400 45.51600 41.23300
H  54.37700 44.76400 41.54100
H  53.40200 45.51800 42.86700
H  50.55300 48.55200 42.26700
H  48.33000 49.56100 43.93200
H  51.75900 48.62000 44.25600
H  50.65000 47.65300 45.07900
H  50.37400 49.46500 44.91500
H  47.64400 49.86800 41.19600
H  49.26300 49.50800 41.05200
H  49.08500 51.48500 43.16700
H  48.12400 51.89100 41.73800
H  49.86300 51.62200 41.49900
H  43.61200 49.61400 42.43800
H  42.34500 49.09400 43.53800
H  42.30200 48.78500 41.78300
H  41.78500 43.32900 41.89000
H  41.81100 42.48100 46.36200
H  40.96600 43.95400 46.65700
H  42.63100 43.84600 47.14200
Mg 16.77100 51.83100 24.64200
C  18.55100 50.90100 27.41000
C  13.99000 52.31200 26.62900
C  14.78200 52.13100 21.80700
C  19.45100 51.09100 22.53100
N  16.41500 51.87200 26.86500
C  17.27600 51.40300 27.82800
C  16.68000 51.55500 29.23200
C  15.16000 51.90100 28.91000
C  15.17500 51.98300 27.36300
C  14.09100 51.03800 29.55400
C  17.39500 52.73200 30.00900
C  17.91200 52.47900 31.46800
H  17.11500 51.64500 32.53900
N  14.73000 52.28700 24.31100
C  13.80400 52.50900 25.23100
C  12.54100 52.93600 24.62500
C  12.76300 52.88900 23.14900
C  14.14000 52.38500 23.05900
C  11.33400 53.31400 25.40800
C  11.85500 53.27100 22.00900
O  12.05900 53.18000 20.77300
C  10.60100 53.96000 22.33700
N  17.11000 51.55000 22.36500
C  16.09800 51.79200 21.45300
C  16.67200 51.90800 20.07000
C  18.29100 51.68100 20.35100
C  18.35200 51.50700 21.80900
C  16.05300 50.91200 19.00900
C  19.21900 52.81200 19.80800
C  19.06400 53.13600 18.24400
N  18.57800 51.11700 24.83100
C  19.59900 50.81400 23.92500
C  20.68000 50.15900 24.60600
C  20.28400 50.23800 25.98500
C  19.06100 50.87100 26.11400
C  21.95500 49.58300 23.99000
C  20.73100 49.83200 27.31400
O  21.68600 49.24600 27.72000
C  19.69800 50.34700 28.23000
C  19.32000 49.23200 29.19500
O  18.65000 48.29200 28.90700
O  19.79200 49.63400 30.41400
C  19.56400 48.74800 31.53400
H  13.23600 52.57600 27.37400
H  14.12600 52.06200 20.93600
H  20.30900 50.92500 21.87600
H  16.82100 50.68200 29.86900
H  14.86300 52.90500 29.21400
H  14.56900 50.31400 30.21400
H  13.51100 50.57700 28.75500
H  13.39200 51.64100 30.13500
H  16.65600 53.52800 30.10100
H  18.22700 53.13200 29.42900
H  17.88900 53.48300 31.89300
H  18.98000 52.25800 31.48100
H  11.42600 53.04400 26.46000
H  10.50400 52.68500 25.08700
H  11.17400 54.38300 25.26300
H  9.95500 54.12300 21.47500
H  10.83100 54.91400 22.81300
H  10.03500 53.29000 22.98400
H  16.51700 52.93400 19.73900
H  18.71700 50.77500 19.92100
H  15.60300 51.40500 18.14700
H  15.26700 50.35300 19.51800
H  16.80700 50.20900 18.65600
H  20.25500 52.47800 19.85600
H  19.16300 53.78200 20.30300
H  18.74600 54.16300 18.06500
H  18.50500 52.36100 17.72000
H  20.00600 53.29100 17.71700
H  22.51400 50.36700 23.47900
H  21.55600 48.86800 23.27000
H  22.71900 49.15400 24.63900
H  20.24400 51.09400 28.80500
H  19.77200 49.23900 32.48500
H  20.22600 47.88200 31.52600
H  18.50700 48.49000 31.46100

