158

Mg 53.02300 24.29100 44.98000
C  50.39200 26.39300 43.83300
C  51.47700 21.71500 43.60100
C  55.98500 22.75500 45.14400
C  54.57300 27.34900 45.83900
N  51.25900 24.15200 43.62200
C  50.25000 25.06200 43.36600
C  49.18400 24.44500 42.46300
C  49.26500 22.93100 42.83300
C  50.76000 22.90900 43.39200
C  48.30300 22.38700 43.95200
C  49.52500 24.84600 40.96200
C  48.29600 25.09400 40.10100
H  48.02700 24.15600 38.86800
N  53.64800 22.40800 44.62700
C  52.83600 21.47600 44.03100
C  53.54300 20.23900 44.05700
C  54.89300 20.44700 44.52100
C  54.90700 21.92500 44.79900
C  52.83200 18.93700 43.57100
C  55.96700 19.34500 44.68500
O  55.77400 18.18700 44.35100
C  57.21000 19.64100 45.46900
N  55.04400 25.00200 45.38200
C  56.02300 24.12200 45.57800
C  57.35000 24.80000 46.08800
C  56.85400 26.28000 46.19700
C  55.39600 26.23300 45.79900
C  58.24500 24.15900 47.25900
C  57.62700 27.28100 45.39500
C  58.33500 28.52500 46.04400
N  52.53500 26.38500 45.03900
C  53.22900 27.42100 45.51000
C  52.34200 28.57100 45.68800
C  51.20000 28.26000 44.95800
C  51.39800 26.90000 44.61100
C  52.77100 29.85800 46.31400
C  50.00300 28.71300 44.39700
O  49.51800 29.79400 44.41600
C  49.38500 27.55000 43.65600
C  49.32300 27.97300 42.17700
O  50.20400 28.60500 41.61700
O  48.05200 27.83400 41.72400
C  47.77000 28.55800 40.46800
H  50.91200 20.87000 43.20300
H  56.94200 22.25200 45.29600
H  55.03000 28.29200 46.14900
H  48.19200 24.84000 42.68200
H  49.38800 22.31700 41.94100
H  48.71200 21.82100 44.78900
H  47.69500 21.63300 43.45200
H  47.63000 23.18200 44.27500
H  50.09400 24.04100 40.49700
H  50.23500 25.66800 40.87000
H  48.39200 26.00200 39.50600
H  47.38400 25.19600 40.68800
H  52.75200 19.05800 42.49100
H  51.86300 18.86800 44.06600
H  53.43900 18.07600 43.84700
H  57.89600 20.39200 45.07800
H  57.61000 18.64700 45.66900
H  56.84900 19.91500 46.46000
H  58.04700 24.79300 45.24900
H  56.86600 26.48700 47.26700
H  57.76200 23.23900 47.58700
H  58.41400 24.85300 48.08200
H  59.25700 23.91900 46.93400
H  56.89100 27.71200 44.71500
H  58.35800 26.84500 44.71400
H  58.54700 28.38100 47.10400
H  57.73400 29.42100 45.89100
H  59.28100 28.56200 45.50300
H  53.34700 29.88500 47.23900
H  51.84600 30.38800 46.53800
H  53.36000 30.50900 45.66800
H  48.39100 27.30200 44.02800
H  48.59400 28.95400 39.87400
H  47.13500 29.41500 40.69300
H  47.18300 27.86600 39.86300
Mg 25.60200 51.70900 26.55300
C  23.17100 52.53900 29.03500
C  27.72600 50.69500 29.14100
C  28.08400 51.24600 24.41100
C  23.53700 52.94400 24.03800
N  25.49100 51.77400 28.85900
C  24.35600 52.00500 29.56900
C  24.66200 51.60300 30.98500
C  26.13100 51.06500 31.02100
C  26.51800 51.18100 29.57400
C  27.10800 51.72200 32.10800
C  23.67000 50.60100 31.58000
C  22.98700 51.06500 32.83400
H  23.14200 50.25600 34.11600
N  27.63900 51.08300 26.74100
C  28.28300 50.68200 27.89400
C  29.66700 50.35900 27.55100
C  29.80400 50.38200 26.12600
C  28.47000 50.92800 25.72100
C  30.55000 49.66900 28.58700
C  31.01000 49.97900 25.26200
O  31.12100 50.06000 24.00800
C  32.32200 49.40200 25.93600
N  25.75300 52.00800 24.52000
C  26.87600 51.76500 23.94500
C  26.66000 51.89400 22.43500
C  25.23600 52.42600 22.29400
C  24.76100 52.41700 23.67700
C  27.70300 52.82100 21.66000
C  24.36500 51.55000 21.35800
C  23.36100 52.30100 20.48200
N  23.76000 52.53600 26.48800
C  23.06200 53.06700 25.37000
C  21.74300 53.51200 25.88800
C  21.79400 53.33500 27.29100
C  22.97100 52.71600 27.60600
C  20.63800 53.98400 25.06800
C  20.97200 53.42100 28.45000
O  19.80600 53.75200 28.51000
C  21.82400 52.90400 29.62100
C  22.10000 54.01700 30.53300
O  22.56200 55.10300 30.22200
O  21.51300 53.64900 31.71800
C  21.26500 54.87200 32.54900
H  28.40700 50.32700 29.91100
H  28.80400 51.18300 23.59200
H  22.91400 53.41000 23.27200
H  24.63700 52.53200 31.55500
H  26.24100 49.98500 30.92400
H  27.55500 50.93300 32.71300
H  26.51800 52.44100 32.67800
H  27.85500 52.27000 31.53400
H  24.18000 49.66500 31.81000
H  22.94500 50.47400 30.77600
H  21.91700 51.05900 32.62700
H  23.21500 52.11200 33.03100
H  30.59100 48.58600 28.47000
H  30.39500 49.91500 29.63700
H  31.54700 50.02500 28.33000
H  32.05300 48.55500 26.56600
H  32.81000 50.20500 26.48800
H  33.06700 49.05600 25.21800
H  26.73100 50.87600 22.05100
H  25.25500 53.45700 21.94100
H  27.13000 53.55100 21.08800
H  28.41300 52.28300 21.03300
H  28.31500 53.38200 22.36600
H  23.94200 50.77700 22.00000
H  25.01000 51.04300 20.64100
H  23.48400 52.07800 19.42200
H  23.37700 53.37200 20.68600
H  22.36900 51.95100 20.76700
H  19.78800 53.63100 25.65100
H  20.68000 53.55300 24.06800
H  20.44600 55.05300 24.97500
H  21.36100 52.03400 30.08600
H  21.45100 55.84900 32.10300
H  21.70300 54.84700 33.54600
H  20.21800 54.88600 32.84900

