158

Mg 17.28500 -1.18000 28.61100
C  15.78400 0.87200 31.06300
C  19.06900 -2.78300 31.07500
C  18.78300 -2.88100 26.22700
C  15.83300 0.90800 26.17300
N  17.28700 -1.05400 30.88000
C  16.61800 -0.10300 31.67800
C  16.92100 -0.29800 33.15700
C  18.29300 -1.18100 33.01900
C  18.27100 -1.75900 31.54800
C  19.55800 -0.27600 33.36900
C  15.80000 -0.98300 33.97500
C  15.81500 -0.70500 35.49500
H  16.99700 -0.09600 36.24300
N  18.66400 -2.70500 28.63900
C  19.23600 -3.26000 29.73900
C  20.08700 -4.28500 29.32900
C  19.98100 -4.38300 27.92500
C  19.10700 -3.24300 27.50300
C  20.89200 -5.07300 30.40000
C  20.75100 -5.28600 26.96000
O  20.70500 -5.17300 25.76100
C  21.54500 -6.51600 27.45700
N  17.46800 -0.83400 26.52100
C  17.98100 -1.85100 25.78500
C  17.83900 -1.54200 24.29800
C  16.95000 -0.30400 24.22600
C  16.68400 -0.03400 25.71000
C  19.21500 -1.57100 23.49400
C  15.68000 -0.38200 23.25800
C  14.27000 -0.91900 23.64600
N  16.01300 0.48000 28.60800
C  15.52300 1.22200 27.49700
C  14.67400 2.27700 27.98200
C  14.81700 2.21000 29.37100
C  15.56300 1.09100 29.70300
C  13.97700 3.34500 27.14700
C  14.51000 2.89300 30.59000
O  13.96500 3.98400 30.81300
C  15.10800 2.05800 31.80200
C  16.01400 2.75600 32.67500
O  17.12500 3.07800 32.38100
O  15.33100 3.15400 33.88000
C  16.12900 3.87200 34.85600
H  19.63200 -3.31600 31.84400
H  19.18000 -3.57500 25.48400
H  15.30000 1.52400 25.44600
H  17.19500 0.62600 33.66400
H  18.38800 -2.02600 33.70100
H  20.36000 -0.82900 32.87900
H  19.69700 -0.24200 34.44900
H  19.47200 0.77500 33.09100
H  15.88600 -2.06000 33.82600
H  14.89000 -0.76500 33.41700
H  15.64300 -1.72500 35.83900
H  14.96000 -0.15400 35.88500
H  20.29000 -5.82600 30.90900
H  21.27400 -4.38900 31.15800
H  21.77300 -5.50100 29.92100
H  21.91200 -7.14000 26.64200
H  20.94700 -7.14200 28.11900
H  22.34000 -6.09000 28.07000
H  17.23400 -2.35000 23.88700
H  17.59300 0.51700 23.91100
H  20.08900 -1.50100 24.14200
H  19.37100 -0.66700 22.90500
H  19.19500 -2.47400 22.88300
H  15.97800 -0.91800 22.35700
H  15.48800 0.61400 22.85700
H  13.59000 -0.10100 23.88500
H  14.47700 -1.64500 24.43100
H  14.00300 -1.45600 22.73600
H  14.64400 3.42600 26.28900
H  13.79000 4.35800 27.50300
H  13.00800 2.92400 26.87900
H  14.24600 1.64800 32.32700
H  17.14100 4.08200 34.50900
H  16.12000 3.25500 35.75400
H  15.64500 4.80400 35.14800
Mg 41.79700 41.07100 26.28800
C  40.95300 43.40500 28.79800
C  42.65900 38.75700 28.55400
C  43.00200 39.20300 23.72000
C  40.91100 43.63300 23.83300
N  41.83600 41.15000 28.36900
C  41.41200 42.14600 29.25200
C  41.39900 41.67500 30.77300
C  41.96000 40.26800 30.65200
C  42.13000 40.00200 29.08700
C  43.26600 39.91700 31.44800
C  39.92100 41.86500 31.43500
C  39.76300 42.82700 32.62200
H  39.07000 42.32900 33.86300
N  42.76500 39.28000 26.17900
C  42.97800 38.42200 27.20500
C  43.74700 37.27700 26.76200
C  43.80100 37.32100 25.35400
C  43.16300 38.64700 25.05000
C  44.35000 36.21700 27.69300
C  44.39900 36.36000 24.26800
O  44.42800 36.62300 23.06700
C  44.89300 35.00200 24.70600
N  42.10400 41.48900 24.06000
C  42.51200 40.42100 23.30200
C  42.29400 40.80800 21.81600
C  41.31900 42.06400 21.78600
C  41.39400 42.42300 23.27300
C  43.66900 40.98900 21.19000
C  39.90200 41.66200 21.26200
C  38.88300 41.15300 22.28200
N  41.16300 43.07800 26.29700
C  40.83300 43.96900 25.23500
C  40.31300 45.22100 25.78600
C  40.37900 45.03300 27.25000
C  40.96500 43.76300 27.42200
C  39.78300 46.36000 25.03800
C  40.09000 45.69800 28.54300
O  39.69600 46.83100 28.74900
C  40.43600 44.62100 29.62700
C  41.49400 45.11300 30.52800
O  42.68600 44.96000 30.33400
O  40.94800 45.73400 31.55800
C  41.88100 46.17700 32.63400
H  42.71400 38.10800 29.43000
H  43.15300 38.56500 22.84700
H  40.63700 44.32000 23.03000
H  42.08800 42.14100 31.47700
H  41.20800 39.51300 30.88100
H  44.07700 40.04100 30.73100
H  43.21400 38.92000 31.88500
H  43.45000 40.61600 32.26300
H  39.61400 40.86700 31.74800
H  39.25200 42.11900 30.61300
H  39.10300 43.63700 32.31200
H  40.76000 43.23800 32.77900
H  44.31200 35.21900 27.25700
H  43.70700 36.24100 28.57300
H  45.39500 36.48600 27.84500
H  45.63000 35.12100 25.50100
H  45.42200 34.48700 23.90500
H  44.07500 34.45500 25.17600
H  41.87000 39.94300 21.30600
H  41.70300 42.94200 21.26700
H  43.82500 42.00200 20.82100
H  43.87400 40.23300 20.43200
H  44.38700 40.88200 22.00400
H  40.06400 40.90000 20.50100
H  39.47700 42.46100 20.65500
H  39.30900 40.84300 23.23600
H  38.28100 40.29700 21.97700
H  38.18200 41.95600 22.51000
H  39.26700 45.94600 24.17100
H  40.52100 47.04000 24.61300
H  39.03400 46.82100 25.68300
H  39.48100 44.35700 30.08100
H  42.08400 47.22200 32.40400
H  42.78500 45.57400 32.72400
H  41.35600 46.20400 33.58900

