158

Mg 45.30500 3.92000 47.45700
C  43.15300 6.43200 46.74500
C  42.73800 1.72400 47.25900
C  47.58500 1.48000 47.61100
C  47.99500 6.25000 47.40400
N  43.22600 4.06600 47.09100
C  42.54300 5.20000 46.73800
C  41.01300 4.91700 46.71000
C  40.90800 3.45200 46.98700
C  42.40500 3.05000 47.11400
C  40.00400 2.99900 48.14100
C  40.33600 5.31900 45.33900
C  39.25700 6.43000 45.42700
H  39.27700 7.53300 44.29200
N  45.17700 1.84400 47.41000
C  44.03600 1.10100 47.30500
C  44.31900 -0.30600 47.29100
C  45.71000 -0.41800 47.45200
C  46.21400 1.00100 47.47200
C  43.28000 -1.47400 47.18400
C  46.40700 -1.68200 47.61100
O  45.84400 -2.76100 47.55800
C  47.78900 -1.74300 48.02000
N  47.51300 3.86100 47.57200
C  48.17900 2.73100 47.71400
C  49.69800 2.89100 47.43000
C  49.84200 4.42100 47.58500
C  48.40500 4.90000 47.40600
C  50.67700 2.13200 48.44800
C  50.89800 5.07500 46.67000
C  51.72100 6.22400 47.21600
N  45.57000 5.98800 47.09400
C  46.68700 6.75500 47.25300
C  46.25800 8.17100 47.09700
C  44.86300 8.07700 46.97400
C  44.52600 6.78200 46.97700
C  47.14800 9.47900 47.05100
C  43.60400 8.81600 46.84000
O  43.43400 10.02800 46.85200
C  42.45900 7.75500 46.72200
C  41.48800 7.97200 47.83100
O  41.45300 7.40300 48.92300
O  40.66700 8.96700 47.55000
C  39.74300 9.62700 48.44300
H  41.92100 1.03700 47.02700
H  48.31800 0.67300 47.56000
H  48.88000 6.88500 47.33000
H  40.41100 5.37200 47.49600
H  40.71900 2.88300 46.07600
H  39.19700 3.71000 48.31900
H  40.66100 2.92800 49.00800
H  39.53000 2.05700 47.86500
H  39.89000 4.51400 44.75500
H  41.15400 5.71700 44.73900
H  39.29100 6.93300 46.39300
H  38.32600 5.86700 45.36300
H  43.61400 -2.11000 46.36400
H  42.28900 -1.06300 46.99400
H  43.24400 -2.05300 48.10600
H  48.06800 -2.74800 48.33400
H  48.08400 -1.10500 48.85400
H  48.42100 -1.57700 47.14800
H  49.85300 2.63900 46.38100
H  49.92400 4.74500 48.62300
H  51.54600 2.70700 48.76800
H  50.98600 1.17100 48.03800
H  50.01200 2.03900 49.30600
H  50.35300 5.59700 45.88300
H  51.56600 4.35200 46.20200
H  51.39300 7.19100 46.83500
H  52.74700 6.00200 46.92300
H  51.70700 6.25800 48.30600
H  46.93000 9.98600 46.11100
H  48.21500 9.28200 47.14800
H  46.81300 10.15700 47.83600
H  41.86200 7.74700 45.80900
H  39.67300 10.70100 48.27100
H  40.08700 9.39500 49.45100
H  38.73000 9.27400 48.24900
Mg 41.24100 41.36900 26.67300
C  40.74700 44.11800 29.01900
C  41.87100 39.31700 29.35900
C  42.06500 39.10400 24.52000
C  41.14300 43.77200 24.19000
N  41.27500 41.73900 28.92600
C  40.91900 42.80900 29.64100
C  40.96600 42.55500 31.10700
C  41.43700 41.02600 31.32500
C  41.63600 40.70700 29.80200
C  42.74500 40.60500 32.12800
C  39.64700 42.86300 31.92500
C  39.81400 43.78900 33.19400
H  39.32100 43.25900 34.54800
N  41.80500 39.48300 26.93000
C  42.00500 38.80600 28.08700
C  42.41300 37.45800 27.82800
C  42.38400 37.33000 26.42300
C  42.07600 38.70300 25.88200
C  42.90200 36.42200 28.90400
C  42.58400 36.14000 25.53000
O  42.46600 36.17500 24.31700
C  43.12900 34.89700 26.08000
N  41.69200 41.39000 24.65000
C  41.85600 40.31200 23.94900
C  41.67800 40.56600 22.43500
C  41.35700 42.10600 22.35000
C  41.41600 42.48000 23.82900
C  42.90400 40.10300 21.57500
C  40.01100 42.48300 21.69700
C  38.69300 42.26200 22.46500
N  40.94900 43.53400 26.56500
C  41.00500 44.31700 25.45000
C  40.83100 45.66500 25.90600
C  40.78000 45.62500 27.31500
C  40.84100 44.32300 27.66700
C  40.79200 46.85300 25.09700
C  40.70600 46.40800 28.46600
O  40.69100 47.61900 28.62500
C  40.68600 45.42300 29.65800
C  41.81700 45.79500 30.52900
O  42.96600 45.34000 30.40400
O  41.42100 46.79900 31.37600
C  42.56200 47.30500 32.17500
H  42.06300 38.79000 30.29600
H  42.11900 38.45200 23.64600
H  41.05200 44.57000 23.45000
H  41.77400 43.09500 31.60000
H  40.67700 40.33200 31.68300
H  42.69300 39.60800 32.56500
H  42.70700 41.36100 32.91200
H  43.59500 40.70600 31.45200
H  39.26800 41.92100 32.32100
H  38.89300 43.39400 31.34300
H  39.15900 44.64900 33.05800
H  40.86100 43.98700 33.42400
H  43.92300 36.07400 28.74100
H  42.32200 35.50500 29.01100
H  42.89500 36.87400 29.89600
H  42.41600 34.49600 26.80000
H  44.01000 35.08700 26.69400
H  43.38000 34.22100 25.26200
H  40.76300 40.02000 22.20500
H  42.15900 42.62000 21.82000
H  43.64400 39.53700 22.14000
H  43.57300 40.77500 21.03700
H  42.52200 39.33300 20.90500
H  39.85400 42.01000 20.72800
H  40.06500 43.52700 21.38700
H  38.80100 42.03500 23.52600
H  38.17300 41.48800 21.90000
H  38.15800 43.20300 22.34300
H  40.04300 47.57100 25.42900
H  40.57100 46.69100 24.04200
H  41.75800 47.34700 24.98800
H  39.69700 45.61000 30.07500
H  43.34900 47.72400 31.54800
H  43.06900 46.48900 32.69000
H  42.28500 48.11200 32.85300

