158

Mg 8.73500 3.41000 28.21700
C  9.94900 1.86800 31.10200
C  7.03500 5.61600 30.03200
C  7.26100 4.39100 25.30600
C  10.01300 0.54600 26.37300
N  8.66100 3.78200 30.37200
C  9.17700 3.06400 31.37500
C  8.81600 3.56200 32.77700
C  7.61900 4.57900 32.37700
C  7.81900 4.74900 30.87100
C  6.08200 4.18600 32.76300
C  10.03100 4.29700 33.53500
C  10.41600 3.82100 35.07100
H  9.26700 3.70600 36.03100
N  7.43700 4.84300 27.69900
C  6.88000 5.71700 28.62700
C  6.06600 6.74100 27.93100
C  6.07200 6.37900 26.56200
C  6.98100 5.15400 26.46900
C  5.31400 7.79700 28.74200
C  5.39700 7.08000 25.43900
O  5.40600 6.71500 24.28800
C  4.71000 8.32900 25.71100
N  8.46700 2.46900 26.10400
C  8.00000 3.26200 25.13200
C  8.49200 2.70000 23.72900
C  9.29800 1.36200 24.10900
C  9.18800 1.40700 25.63500
C  7.47500 2.74200 22.58300
C  10.73400 1.22400 23.46500
C  11.08100 -0.19800 23.01900
N  9.93200 1.66300 28.62700
C  10.35800 0.60200 27.77300
C  11.14900 -0.34800 28.52600
C  11.02500 0.08300 29.88900
C  10.21100 1.28300 29.83300
C  11.84000 -1.52400 28.00400
C  11.30300 -0.23900 31.27900
O  12.01600 -1.06800 31.80500
C  10.52800 0.84900 32.10200
C  9.49900 0.17700 32.89600
O  8.65000 -0.61300 32.47700
O  9.72200 0.41000 34.21700
C  8.91300 -0.24500 35.28900
H  6.47300 6.27400 30.69800
H  6.83900 4.83000 24.40000
H  10.52500 -0.27600 25.86700
H  8.43200 2.77500 33.42500
H  7.75700 5.55600 32.83900
H  5.62500 4.72700 33.59100
H  6.14200 3.12100 32.98900
H  5.33600 4.26300 31.97200
H  9.80800 5.36100 33.61300
H  10.92900 4.06800 32.96100
H  11.03500 4.63800 35.44300
H  11.03500 2.92300 35.06000
H  5.81200 8.73200 28.48400
H  5.37200 7.76400 29.83000
H  4.28300 7.69400 28.40200
H  5.41000 9.01700 26.18500
H  3.84800 8.15500 26.35400
H  4.32900 8.76300 24.78700
H  9.34400 3.35500 23.55000
H  8.69800 0.51100 23.78700
H  6.56400 3.12200 23.04500
H  7.33700 1.78700 22.07700
H  7.69400 3.57100 21.91000
H  11.56400 1.52200 24.10600
H  10.81000 1.91300 22.62300
H  12.01300 -0.06100 22.47100
H  10.23900 -0.50200 22.39700
H  11.15200 -0.85400 23.88600
H  12.69300 -1.20100 27.40600
H  11.20300 -2.24000 27.48400
H  12.30600 -1.96000 28.88700
H  11.25900 1.32600 32.75500
H  9.47300 -1.00400 35.83500
H  8.00100 -0.69300 34.89400
H  8.51400 0.50500 35.97200
Mg 7.11200 53.00800 41.20100
C  6.72300 49.60900 40.42500
C  10.25200 52.78300 40.10600
C  7.19900 56.24300 41.44200
C  3.57600 53.01300 41.79400
N  8.26700 51.34200 40.41500
C  8.03000 50.03500 40.17000
C  9.20700 49.23700 39.71500
C  10.42100 50.22300 39.93800
C  9.60500 51.60400 40.11800
C  11.37200 49.94600 41.11800
C  9.22600 48.69000 38.22000
C  8.80800 49.74800 37.12500
H  7.78700 49.31800 36.02600
N  8.60200 54.36200 40.87000
C  9.83000 54.08000 40.36700
C  10.56100 55.32400 40.22400
C  9.69500 56.33000 40.65500
C  8.45900 55.65900 41.03300
C  11.99800 55.47000 39.74000
C  10.07900 57.81800 40.70500
O  11.15300 58.21900 40.26200
C  9.29900 58.72700 41.47400
N  5.60800 54.40700 41.40300
C  5.92600 55.68900 41.67000
C  4.68900 56.54000 42.09800
C  3.57900 55.51100 42.30700
C  4.27700 54.23500 41.77600
C  4.85600 57.69200 43.16700
C  2.14200 55.82300 41.76200
C  1.95500 55.66700 40.23900
N  5.47600 51.62600 41.10500
C  4.11900 51.76700 41.39500
C  3.46300 50.44000 41.39000
C  4.49900 49.60100 41.05100
C  5.61800 50.32300 40.80800
C  2.04000 50.19200 41.64500
C  4.76700 48.18000 40.83600
O  4.03500 47.21900 41.04600
C  6.23900 48.12600 40.36600
C  6.09200 47.58600 38.98800
O  5.60600 48.17200 38.07100
O  6.48400 46.23900 39.01600
C  6.23700 45.45600 37.81400
H  11.32800 52.61600 40.03500
H  7.15900 57.33100 41.52200
H  2.55300 53.06300 42.17100
H  9.32700 48.47700 40.48800
H  11.05700 50.31600 39.05800
H  11.20100 50.57700 41.99000
H  12.41000 49.88500 40.79000
H  11.18900 48.94200 41.50000
H  8.72400 47.72700 38.13900
H  10.23900 48.37000 37.97600
H  9.78300 49.89000 36.65900
H  8.47500 50.63200 37.67000
H  12.64600 56.19300 40.23500
H  12.06600 55.75800 38.69100
H  12.45900 54.49400 39.88800
H  8.62000 59.02600 40.67600
H  9.96400 59.51000 41.83800
H  8.72300 58.23800 42.26000
H  4.38700 57.04000 41.17800
H  3.42600 55.33400 43.37200
H  5.88300 57.74200 43.52800
H  4.17300 57.49900 43.99500
H  4.72900 58.61400 42.59900
H  1.86100 56.87200 41.85200
H  1.42200 55.23300 42.32900
H  1.97600 54.60300 40.00600
H  2.69400 56.21000 39.64900
H  0.93700 55.99200 40.02400
H  1.61400 51.06900 42.13200
H  1.96300 49.32100 42.29700
H  1.52200 49.84700 40.75000
H  6.79600 47.41900 40.98000
H  5.20200 45.31500 37.50100
H  6.61500 44.45700 38.02900
H  6.79800 45.94000 37.01400

