158

Mg 36.13300 1.90300 30.01400
C  33.77700 3.07900 32.32600
C  38.48200 1.68300 32.35700
C  38.28000 1.08700 27.55000
C  33.59300 2.42400 27.44200
N  36.07300 2.18200 32.19900
C  34.96200 2.65900 32.91900
C  35.30200 2.69400 34.37400
C  36.92300 2.56400 34.35400
C  37.20300 2.11700 32.90700
C  37.75800 3.82700 34.60400
C  34.62400 1.57400 35.20000
C  34.09200 1.82300 36.68100
H  34.61000 3.07600 37.33200
N  38.05500 1.29600 30.02300
C  38.93100 1.31000 31.12600
C  40.20400 0.84900 30.71200
C  40.12600 0.54500 29.30000
C  38.79200 1.04200 28.84900
C  41.28800 0.60200 31.77200
C  41.13800 -0.12300 28.45100
O  40.87000 -0.51400 27.28900
C  42.47500 -0.48200 28.97500
N  35.99300 1.64200 27.76600
C  37.01200 1.35400 26.99200
C  36.66200 1.47700 25.49600
C  35.16000 1.53000 25.51600
C  34.86500 1.95800 26.97800
C  37.23900 2.85900 25.00000
C  34.46700 0.11200 25.22400
C  33.59800 0.08900 24.00400
N  34.15000 2.43300 29.94600
C  33.24700 2.58800 28.83300
C  31.99200 3.05100 29.30000
C  32.15900 3.17200 30.67300
C  33.50100 2.87700 30.97100
C  30.81200 3.38100 28.48600
C  31.44200 3.63600 31.82900
O  30.32000 4.08200 32.05400
C  32.45000 3.58900 32.99900
C  32.45200 4.89600 33.62300
O  33.12900 5.85000 33.25900
O  31.70000 4.93200 34.77600
C  32.03300 6.07600 35.70200
H  39.23100 1.64900 33.15100
H  39.07500 0.83200 26.84700
H  32.81300 2.55300 26.68900
H  35.07400 3.66900 34.80500
H  37.34200 1.75100 34.94700
H  38.75400 3.60800 34.99000
H  37.32700 4.57200 35.27200
H  37.84200 4.32200 33.63700
H  35.32100 0.73600 35.17800
H  33.84900 1.17100 34.54700
H  34.25200 1.09600 37.47700
H  33.02300 1.91100 36.48600
H  40.95600 0.65500 32.80900
H  41.97800 1.43100 31.61800
H  41.83000 -0.32300 31.57400
H  42.76900 0.28600 29.69100
H  43.13200 -0.43300 28.10600
H  42.55000 -1.52500 29.28100
H  37.05000 0.62400 24.93800
H  34.75000 2.37500 24.96200
H  38.18100 2.66800 24.48600
H  37.34200 3.68800 25.70000
H  36.66400 3.33500 24.20600
H  33.74300 -0.08000 26.01500
H  35.19100 -0.70100 25.18200
H  32.68000 -0.49100 24.09900
H  34.03900 -0.36900 23.11900
H  33.32100 1.11800 23.77500
H  31.10400 4.26800 27.92300
H  30.01900 3.68900 29.16700
H  30.65600 2.45700 27.93000
H  31.96400 2.86200 33.64900
H  31.70800 7.02500 35.27400
H  33.07200 6.05500 36.03200
H  31.46400 5.87800 36.61100
Mg 26.23800 48.98800 27.01600
C  24.27700 50.32900 29.49700
C  28.71100 48.37200 29.19500
C  28.41000 48.34600 24.41800
C  24.00600 50.35000 24.65400
N  26.45300 49.21100 29.12300
C  25.49600 49.75000 29.97900
C  25.85900 49.45500 31.46300
C  27.43100 49.08400 31.33900
C  27.52900 48.91700 29.79800
C  28.41600 50.18200 31.85400
C  25.00700 48.31900 32.05700
C  24.96700 48.20800 33.56800
H  25.74900 49.15500 34.48800
N  28.27100 48.39100 26.82000
C  29.13700 48.21500 27.84300
C  30.36600 47.82200 27.38400
C  30.28600 47.74800 25.99400
C  28.92200 48.16600 25.64900
C  31.50600 47.41600 28.23100
C  31.31700 47.53700 24.95500
O  31.15400 47.62200 23.75000
C  32.77200 47.41600 25.46700
N  26.32200 49.59000 24.89600
C  27.26300 48.98700 24.07600
C  26.83700 49.08500 22.57700
C  25.39200 49.56500 22.68100
C  25.24700 49.90800 24.13500
C  27.77300 49.89500 21.70000
C  24.44200 48.47000 22.20700
C  24.01600 47.44100 23.24900
N  24.51800 50.10600 27.01700
C  23.66700 50.56500 25.99600
C  22.49500 51.17100 26.52200
C  22.70300 51.10800 27.89000
C  23.93600 50.40900 28.12200
C  21.42100 51.80900 25.69500
C  22.13200 51.40600 29.22000
O  21.07000 51.89800 29.54400
C  23.18500 50.94000 30.29300
C  23.64000 52.09400 31.17800
O  24.40500 52.98300 30.83000
O  22.95800 52.02600 32.35700
C  23.29100 53.06100 33.35800
H  29.45100 48.24800 29.98800
H  28.89300 47.89400 23.55000
H  23.29000 50.45000 23.83600
H  25.64800 50.42700 31.90800
H  27.58700 48.14800 31.87500
H  27.91000 51.13200 32.02800
H  29.12700 50.47900 31.08300
H  28.98900 49.77300 32.68700
H  25.54900 47.44700 31.69100
H  24.02300 48.31600 31.58900
H  25.19600 47.21400 33.95200
H  23.93600 48.47300 33.80200
H  31.21900 47.23900 29.26800
H  32.17000 48.28000 28.25400
H  32.23200 46.68100 27.88200
H  32.83700 46.40700 25.87500
H  32.96300 48.24400 26.14900
H  33.39800 47.65800 24.60800
H  26.73400 48.11900 22.08100
H  25.26500 50.40400 21.99800
H  28.64300 50.26500 22.24300
H  27.28800 50.73100 21.19500
H  28.20300 49.21100 20.96800
H  24.84800 47.91700 21.36000
H  23.56900 48.95200 21.76900
H  24.58900 47.55800 24.16900
H  24.15900 46.45400 22.80800
H  22.98300 47.67300 23.50800
H  21.06000 51.04500 25.00600
H  21.83900 52.69500 25.21800
H  20.51500 52.08200 26.23600
H  22.83100 50.11400 30.91000
H  22.92600 54.06500 33.14300
H  24.37700 53.13800 33.32400
H  23.09300 52.75000 34.38400

