158

Mg 40.29700 9.49200 29.26100
C  42.60400 10.75000 31.88500
C  38.32700 8.18100 31.74500
C  38.42100 8.16200 26.80400
C  42.78200 10.14300 27.00600
N  40.48500 9.45800 31.56800
C  41.34500 10.18400 32.38100
C  40.80300 10.20300 33.88100
C  39.57300 9.21600 33.80700
C  39.40400 8.95400 32.26300
C  39.65500 7.95900 34.70400
C  40.62100 11.65500 34.38400
C  41.09800 12.09900 35.74800
H  39.90300 12.36000 36.70400
N  38.54900 8.46200 29.35500
C  37.86900 7.94600 30.44800
C  36.81600 7.11200 30.00100
C  36.75200 7.19300 28.51600
C  37.91500 7.94000 28.17400
C  35.99900 6.29600 30.97300
C  35.75300 6.54900 27.60200
O  35.77800 6.60500 26.35800
C  34.72100 5.71100 28.19800
N  40.46900 9.37900 27.15000
C  39.54500 8.85300 26.30100
C  39.98000 8.96400 24.82100
C  41.51500 9.35400 24.99700
C  41.64200 9.63900 26.48700
C  39.72700 7.70800 24.04800
C  41.84600 10.52900 24.08300
C  41.48800 11.99100 24.49900
N  42.19600 10.30300 29.35200
C  43.10900 10.45100 28.29300
C  44.33300 11.15400 28.81700
C  44.10600 11.19500 30.13400
C  42.85100 10.63500 30.43800
C  45.46200 11.61600 27.91700
C  44.77800 11.60300 31.41500
O  45.90500 12.09000 31.60400
C  43.71700 11.50600 32.48700
C  44.30100 10.85200 33.69500
O  44.52400 9.64200 33.83500
O  44.54200 11.77500 34.70900
C  44.75000 11.45200 36.10600
H  37.70400 7.76800 32.54200
H  37.94700 7.52800 26.05200
H  43.54600 10.45600 26.29100
H  41.58600 9.67200 34.42200
H  38.67100 9.69500 34.18800
H  39.57800 7.07600 34.06900
H  38.79500 7.91400 35.37200
H  40.50200 7.98500 35.38900
H  39.56100 11.90200 34.43200
H  40.99000 12.34000 33.62100
H  41.61300 13.01300 35.45200
H  41.78000 11.31500 36.07700
H  35.92400 5.29100 30.55700
H  35.08100 6.87900 31.04600
H  36.34300 6.20500 32.00400
H  34.28500 6.16900 29.08600
H  35.21600 4.78600 28.49700
H  33.93300 5.47600 27.48200
H  39.51300 9.80700 24.31300
H  42.13500 8.49900 24.72700
H  38.75500 7.78800 23.56000
H  39.69600 6.95800 24.83900
H  40.52000 7.47900 23.33600
H  41.43600 10.32200 23.09400
H  42.93000 10.47400 23.98300
H  41.25600 12.01000 25.56300
H  40.68800 12.38900 23.87500
H  42.31300 12.70300 24.45500
H  44.85400 12.05900 27.12800
H  46.06800 10.86500 27.41100
H  46.02900 12.33100 28.51400
H  43.37500 12.44400 32.92400
H  45.27100 10.51400 36.30200
H  43.88000 11.41800 36.76200
H  45.50300 12.20800 36.32800
Mg 9.68100 47.75800 25.78900
C  7.71500 48.11500 28.48100
C  12.40000 49.09600 27.69000
C  11.84800 47.51000 23.20100
C  6.99800 47.54500 23.62500
N  10.01000 48.67500 27.80400
C  9.04500 48.51900 28.78100
C  9.50800 49.06400 30.16500
C  10.97400 49.58700 29.81200
C  11.13600 49.13500 28.32800
C  11.15100 51.13800 29.97800
C  9.21500 48.15300 31.44600
C  9.77800 48.58200 32.72800
H  8.96600 48.29400 33.98100
N  11.82900 48.13000 25.57000
C  12.72400 48.62900 26.42300
C  14.09600 48.36400 26.00000
C  13.94300 47.78900 24.69900
C  12.51100 47.78500 24.39600
C  15.35000 48.61500 26.79100
C  14.97300 47.30900 23.77000
O  14.69400 46.91300 22.69200
C  16.37700 47.44200 24.13200
N  9.49500 47.46500 23.75500
C  10.56600 47.50800 22.90900
C  10.06100 47.30000 21.45200
C  8.49200 47.22400 21.64300
C  8.27700 47.45100 23.09500
C  10.48800 48.36000 20.42600
C  7.86000 45.82200 21.12400
C  7.45900 45.74000 19.63500
N  7.70900 47.78500 25.96900
C  6.70300 47.62500 25.06400
C  5.43700 47.57800 25.77900
C  5.77500 47.61600 27.11000
C  7.17100 47.89100 27.17400
C  4.11600 47.26800 25.16800
C  5.22900 47.54400 28.51400
O  4.15400 47.44000 29.02800
C  6.54700 47.86300 29.40100
C  6.72200 46.65900 30.30900
O  7.59900 45.76700 30.12400
O  5.89800 46.71400 31.37500
C  6.08100 45.64200 32.41200
H  13.10400 49.59500 28.36000
H  12.43200 47.49300 22.27800
H  6.23400 47.38300 22.86100
H  8.90100 49.95800 30.31000
H  11.60800 49.00500 30.48100
H  11.90000 51.36900 30.73600
H  10.28300 51.75100 30.22000
H  11.53000 51.42200 28.99600
H  9.26200 47.08300 31.24600
H  8.18900 48.44200 31.67300
H  9.87600 49.66200 32.61600
H  10.74900 48.09200 32.79800
H  15.38400 48.97800 27.81800
H  15.90400 49.35100 26.20900
H  15.89500 47.67100 26.80900
H  16.51300 46.81800 25.01600
H  16.58100 48.47400 24.41900
H  17.07300 47.13500 23.35200
H  10.45100 46.30400 21.24300
H  8.09800 48.10800 21.14000
H  9.70000 48.59600 19.71100
H  11.41000 48.03900 19.94100
H  10.77600 49.30800 20.88000
H  7.01300 45.60100 21.77300
H  8.61100 45.05700 21.32200
H  7.79800 46.69100 19.22300
H  6.37500 45.62100 19.62100
H  7.97900 44.87100 19.23200
H  3.72300 48.10700 24.59400
H  3.46200 47.15500 26.03300
H  4.23400 46.35300 24.58700
H  6.30800 48.70800 30.04500
H  6.49300 46.11200 33.30500
H  6.73700 44.81200 32.15000
H  5.11400 45.14500 32.48400

