158

Mg 44.61100 4.46700 47.25700
C  42.27600 7.21000 46.64800
C  41.77700 2.41800 47.06100
C  46.56100 1.82500 46.85700
C  47.19000 6.64500 46.47600
N  42.35700 4.86300 46.84100
C  41.64600 5.94500 46.68200
C  40.18300 5.64500 46.49700
C  40.01500 4.22900 46.94300
C  41.46600 3.76300 46.97700
C  39.32000 4.01200 48.27800
C  39.63700 5.91500 45.01800
C  38.69900 7.02000 44.66300
H  39.15600 8.09600 43.64800
N  44.15200 2.37600 47.11500
C  42.97000 1.73200 47.14700
C  43.15500 0.31400 47.05200
C  44.56900 0.10300 46.91500
C  45.19000 1.47800 46.96900
C  42.01900 -0.69700 46.97800
C  45.28200 -1.24300 46.79700
O  44.57500 -2.23100 46.94200
C  46.66000 -1.40700 46.43800
N  46.52000 4.29600 46.58400
C  47.11300 3.05100 46.71400
C  48.69400 3.15600 46.53100
C  48.78900 4.72000 46.17500
C  47.41500 5.25000 46.54600
C  49.50500 2.80200 47.85100
C  49.22200 4.98400 44.72800
C  50.73100 4.76600 44.38300
N  44.74900 6.59700 46.86700
C  45.92900 7.33700 46.62700
C  45.59900 8.67900 46.48300
C  44.15300 8.66200 46.58500
C  43.68700 7.36900 46.62700
C  46.61000 9.82500 46.27000
C  42.93000 9.53200 46.66500
O  42.85100 10.75200 46.67900
C  41.72700 8.61100 46.57400
C  40.75600 8.96500 47.68300
O  40.59400 8.25500 48.66300
O  39.94100 10.01600 47.29400
C  38.88900 10.38400 48.20700
H  40.84000 1.85800 47.01100
H  47.32000 1.04000 46.87000
H  48.05700 7.28000 46.28600
H  39.58500 6.26500 47.16400
H  39.48800 3.61200 46.21500
H  39.24900 4.95900 48.81100
H  39.73900 3.28600 48.97400
H  38.36000 3.58000 47.99400
H  39.03300 5.05500 44.72900
H  40.58600 6.03400 44.49500
H  38.48300 7.61600 45.55000
H  37.71100 6.72800 44.30700
H  42.12300 -1.09400 45.96800
H  40.95800 -0.45500 47.04500
H  42.16800 -1.48200 47.71900
H  46.73600 -0.73800 45.58000
H  46.71500 -2.42600 46.05600
H  47.29300 -1.15800 47.28900
H  49.01600 2.52500 45.70200
H  49.45000 5.27700 46.83900
H  49.94700 3.71000 48.26100
H  50.21800 2.00600 47.63600
H  48.82600 2.41000 48.60700
H  49.08100 6.04000 44.50100
H  48.60900 4.31100 44.12800
H  50.87800 4.15600 43.49200
H  51.19100 4.16800 45.17000
H  51.25500 5.71800 44.31000
H  46.28000 10.75500 46.73300
H  46.73200 9.97600 45.19700
H  47.58500 9.58100 46.68900
H  41.18500 8.74900 45.63900
H  39.28800 10.73700 49.15800
H  38.19600 9.59100 48.48700
H  38.31900 11.21700 47.79600
Mg 35.38300 2.67800 29.99000
C  33.07800 3.76400 32.32200
C  37.82200 2.75700 32.69400
C  37.78600 1.64400 27.98300
C  32.96400 2.77200 27.52400
N  35.47800 3.21700 32.26000
C  34.32600 3.61700 32.93200
C  34.61300 3.72200 34.47100
C  36.20600 3.91800 34.51900
C  36.60200 3.30900 33.08200
C  36.95300 5.24000 34.86300
C  33.96300 2.48400 35.27100
C  33.32700 2.91900 36.63400
H  34.09200 4.03700 37.36200
N  37.49100 2.26200 30.25400
C  38.23900 2.28600 31.45300
C  39.50200 1.68900 31.19100
C  39.58700 1.41600 29.73200
C  38.24100 1.79300 29.23800
C  40.56100 1.50900 32.27600
C  40.76700 0.94300 28.84400
O  40.71000 0.73300 27.62900
C  42.03400 0.60500 29.50600
N  35.36400 2.32100 28.05200
C  36.52000 1.83500 27.48800
C  36.24200 1.56000 25.94600
C  34.65100 1.82300 25.82100
C  34.27800 2.37000 27.19800
C  37.09500 2.46100 24.96700
C  33.77500 0.64500 25.38400
C  33.24500 0.65500 23.90400
N  33.49900 3.24400 29.86400
C  32.56300 3.14700 28.85800
C  31.23500 3.54100 29.33800
C  31.37100 3.79800 30.65600
C  32.77900 3.59400 30.97700
C  30.09700 3.69400 28.43200
C  30.70000 4.18000 31.85700
O  29.54000 4.47700 32.10900
C  31.74000 4.08400 33.02500
C  31.80300 5.39800 33.68100
O  32.25200 6.39300 33.14400
O  31.34300 5.29800 34.96300
C  31.10600 6.59400 35.54200
H  38.58200 2.86700 33.47100
H  38.36500 1.07700 27.25100
H  32.13600 2.64400 26.82400
H  34.11200 4.63700 34.78800
H  36.54400 3.21700 35.28200
H  37.96300 5.31000 34.45900
H  36.96900 5.35100 35.94700
H  36.40500 6.04800 34.37700
H  34.70400 1.69400 35.39600
H  33.19600 2.10200 34.59700
H  33.21000 2.04200 37.27000
H  32.34000 3.25800 36.32100
H  40.12500 1.55100 33.27400
H  41.35200 2.25500 32.20900
H  41.06700 0.54800 32.18800
H  41.89400 -0.25900 30.15700
H  42.18500 1.59500 29.93600
H  42.73900 0.31100 28.72800
H  36.44400 0.51300 25.71800
H  34.56600 2.58600 25.04700
H  37.40800 3.44100 25.32800
H  36.44600 2.63900 24.11000
H  37.98200 1.92100 24.63400
H  32.90900 0.51700 26.03400
H  34.37900 -0.23800 25.59400
H  33.08600 -0.36300 23.54700
H  34.01100 1.07300 23.25100
H  32.42900 1.37600 23.85600
H  29.24300 3.98400 29.04400
H  29.95300 2.67300 28.08100
H  30.26400 4.36200 27.58700
H  31.39300 3.29000 33.68600
H  30.57100 7.16700 34.78500
H  32.08700 7.01900 35.75400
H  30.54800 6.50300 36.47400

