158

Mg 16.88900 52.22400 26.74400
C  18.63500 50.81200 29.45900
C  14.37800 53.06200 28.87300
C  15.22000 53.26200 24.11800
C  19.27900 50.73800 24.55100
N  16.43700 51.66800 28.95300
C  17.41600 51.37500 29.92600
C  16.91600 51.60500 31.34800
C  15.41400 52.07600 31.09500
C  15.43600 52.40300 29.58400
C  14.35800 51.01700 31.49600
C  17.99500 52.58100 32.12600
C  18.31000 52.30500 33.59300
H  17.32300 51.61900 34.59800
N  15.00400 53.06300 26.53300
C  14.11300 53.30600 27.54700
C  12.92600 53.84400 27.02600
C  13.14100 53.89300 25.59300
C  14.49500 53.48000 25.37100
C  11.70000 54.25100 27.76700
C  12.32400 54.52600 24.44400
O  12.75500 54.82900 23.32200
C  10.99100 54.97900 24.71100
N  17.02200 51.76200 24.62100
C  16.28400 52.52200 23.74900
C  16.77800 52.40000 22.29800
C  18.25500 51.97700 22.53900
C  18.24800 51.43200 23.96400
C  15.89800 51.33200 21.48400
C  19.19600 53.23700 22.33800
C  20.68000 52.93100 22.16000
N  18.55700 50.93400 26.91200
C  19.45200 50.41800 25.95300
C  20.44600 49.66700 26.61900
C  20.14800 49.88700 27.96500
C  19.02500 50.62800 28.09600
C  21.54300 48.87700 26.03500
C  20.55100 49.50700 29.29800
O  21.44900 48.79800 29.69800
C  19.59800 50.13200 30.30000
C  19.05800 49.03200 31.22500
O  18.18900 48.24800 30.89500
O  19.74800 48.96700 32.38700
C  19.43900 47.90500 33.36400
H  13.59700 53.36800 29.57300
H  14.81300 53.73300 23.22100
H  20.11700 50.45700 23.91000
H  16.98900 50.64100 31.85100
H  15.29600 52.99700 31.66500
H  13.56400 50.85000 30.76700
H  13.79900 51.41800 32.34200
H  14.84400 50.07600 31.75300
H  17.49100 53.54200 32.01700
H  18.97300 52.63900 31.64900
H  18.51500 53.30600 33.97300
H  19.27100 51.81900 33.75600
H  11.69100 54.14500 28.85200
H  10.98400 53.63700 27.22000
H  11.46100 55.29400 27.55700
H  11.06600 55.70600 25.52000
H  10.51000 54.03800 24.97900
H  10.39100 55.32300 23.86800
H  16.64600 53.36000 21.79800
H  18.63800 51.25800 21.81500
H  16.48200 50.41500 21.40300
H  15.70200 51.62200 20.45200
H  14.90200 51.11000 21.86900
H  19.08700 53.84300 23.23800
H  18.83300 53.86000 21.52100
H  20.66700 51.84500 22.24800
H  21.40300 53.30700 22.88400
H  20.94800 53.20700 21.14000
H  22.33600 49.56900 25.75000
H  21.14900 48.43000 25.12200
H  21.87300 48.09200 26.71500
H  20.18900 50.86200 30.85400
H  20.30600 47.59600 33.94800
H  18.97400 47.05000 32.87400
H  18.70100 48.39100 34.00300
Mg 9.93100 48.07100 26.01700
C  7.71400 48.15200 28.78200
C  12.34800 49.41100 27.95700
C  11.89800 47.43100 23.49400
C  7.16500 47.46000 23.97700
N  10.02000 48.63700 28.14800
C  9.02300 48.48500 29.11200
C  9.62100 48.86200 30.49400
C  10.91300 49.61700 30.06800
C  11.16600 49.07500 28.65200
C  10.85100 51.18500 30.15100
C  9.90000 47.68000 31.48200
C  9.27700 47.92300 32.89700
H  9.02600 46.72800 33.77400
N  11.89200 48.45000 25.72400
C  12.72500 49.00800 26.66300
C  14.09600 48.91200 26.12500
C  13.97700 48.28900 24.86800
C  12.55600 48.05500 24.63700
C  15.19600 49.28400 27.03100
C  15.05400 48.11900 23.85200
O  14.76900 47.89600 22.67400
C  16.50500 48.16200 24.20400
N  9.58800 47.79000 23.87700
C  10.57100 47.28300 23.13400
C  10.10400 46.64000 21.80900
C  8.61500 46.78100 21.94600
C  8.45100 47.34500 23.36300
C  10.74300 47.20000 20.45600
C  7.80200 45.44200 21.60900
C  6.47200 45.69000 20.83400
N  7.85200 48.00200 26.22700
C  6.87800 47.71300 25.31300
C  5.62800 47.57400 25.99400
C  5.89300 47.72100 27.35000
C  7.25800 47.99500 27.43400
C  4.34600 47.20200 25.32600
C  5.28900 47.81500 28.68500
O  4.13500 47.74900 29.05100
C  6.46900 47.99000 29.61700
C  6.55900 46.70800 30.43900
O  7.01500 45.62500 30.09900
O  5.85400 46.91400 31.62900
C  5.51300 45.76400 32.49800
H  13.12400 49.97500 28.47900
H  12.68500 46.93600 22.92100
H  6.26600 47.25700 23.39100
H  8.96200 49.59800 30.95600
H  11.83000 49.27100 30.54400
H  11.26400 51.37800 31.14100
H  9.85100 51.61900 30.14400
H  11.51600 51.66000 29.43000
H  10.91300 47.30800 31.63300
H  9.43200 46.76000 31.12900
H  8.34100 48.46800 32.77100
H  9.79400 48.70900 33.44700
H  15.85800 48.42400 27.13600
H  14.92000 49.66700 28.01300
H  15.85400 50.05800 26.63800
H  16.84400 49.13300 24.56600
H  17.24800 47.74700 23.52400
H  16.57300 47.48300 25.05400
H  10.23900 45.55900 21.83100
H  8.27800 47.58600 21.29400
H  10.03800 47.51400 19.68700
H  11.33300 46.41500 19.98400
H  11.42000 48.02700 20.67100
H  7.44000 45.00600 22.54000
H  8.47300 44.68700 21.19900
H  6.37000 46.74700 20.58900
H  5.64400 45.29200 21.42100
H  6.57000 45.16900 19.88100
H  3.61200 47.19600 26.13300
H  4.29000 46.27500 24.75700
H  4.10000 48.01000 24.63700
H  6.16900 48.80800 30.27200
H  4.50400 45.92700 32.87700
H  6.12700 45.88300 33.39100
H  5.60400 44.76600 32.07100

