158

Mg 46.14900 25.05200 29.44100
C  46.96700 27.36700 31.94500
C  45.05700 22.87700 31.75000
C  45.77600 22.90000 26.98800
C  47.84400 27.26700 27.18500
N  45.89800 25.17000 31.52200
C  46.34300 26.21600 32.40300
C  46.04900 25.91100 33.86000
C  45.49000 24.44100 33.79300
C  45.44900 24.11100 32.24100
C  46.10500 23.33300 34.72500
C  44.97900 26.94000 34.48100
C  45.26000 27.54200 35.82500
H  45.74100 26.67200 36.99100
N  45.29100 23.19500 29.33500
C  44.89200 22.44000 30.39700
C  44.30500 21.25800 29.88500
C  44.35400 21.22500 28.50000
C  45.16700 22.45700 28.18500
C  43.64400 20.27400 30.83500
C  43.80300 20.16300 27.48100
O  43.98100 20.24500 26.25800
C  42.94200 18.99900 28.01600
N  46.75800 25.13900 27.38800
C  46.44600 24.05600 26.63400
C  46.93700 24.30100 25.18100
C  47.53400 25.70000 25.20500
C  47.37100 26.12600 26.66200
C  47.85800 23.20600 24.51600
C  46.81600 26.68300 24.29100
C  47.04100 26.49300 22.79600
N  47.10300 26.92600 29.44600
C  47.76400 27.63200 28.47800
C  48.32400 28.84500 28.96400
C  48.00500 28.84300 30.34900
C  47.24200 27.63200 30.60000
C  49.00400 29.86600 28.08500
C  48.23600 29.53500 31.59900
O  48.78900 30.62400 31.81600
C  47.54600 28.59100 32.64000
C  48.65100 28.41100 33.61400
O  49.73300 28.00300 33.42100
O  48.27700 28.87400 34.82400
C  49.17000 28.71000 35.97400
H  44.65100 22.23500 32.53500
H  45.61700 22.31000 26.08200
H  48.56900 27.69900 26.49200
H  47.01600 25.88200 34.36300
H  44.42100 24.51100 33.99500
H  45.34400 22.64500 35.09300
H  46.59600 23.90400 35.51400
H  46.97400 23.03300 34.14000
H  44.09000 26.31000 34.46900
H  44.72600 27.69000 33.73100
H  44.28000 27.88100 36.16100
H  45.95800 28.34900 35.60300
H  42.55400 20.29700 30.83400
H  43.97000 20.49100 31.85200
H  43.97500 19.27000 30.57200
H  43.45300 18.40900 28.77700
H  42.64200 18.34900 27.19400
H  42.01900 19.15400 28.57500
H  46.02800 24.35900 24.58200
H  48.55600 25.63700 24.82900
H  48.31300 22.52900 25.23900
H  48.69300 23.62300 23.95300
H  47.21000 22.67200 23.82100
H  47.09700 27.71300 24.50900
H  45.74800 26.52700 24.44300
H  47.77600 25.69700 22.67900
H  47.51600 27.37400 22.36400
H  46.12700 26.15300 22.30900
H  48.25600 30.28600 27.41200
H  49.91900 29.52300 27.60200
H  49.32000 30.71200 28.69500
H  46.67700 29.14300 32.99800
H  49.63600 27.73600 35.82200
H  48.56300 28.58100 36.87100
H  49.99600 29.41500 36.06200
Mg 37.21100 49.95300 25.15700
C  37.47600 47.90700 28.02400
C  36.26100 52.63400 27.15400
C  36.40600 51.43400 22.36400
C  37.96600 47.03800 23.25100
N  36.88700 50.20900 27.28400
C  37.07400 49.23500 28.27600
C  36.89500 49.81100 29.69700
C  36.36600 51.26500 29.43500
C  36.48700 51.35800 27.89600
C  34.96700 51.62700 30.08300
C  38.23100 49.82400 30.48600
C  38.25500 49.14900 31.87500
H  37.06000 49.53200 32.76900
N  36.48900 51.75300 24.78600
C  36.16100 52.79200 25.74000
C  35.70300 53.92000 25.03600
C  35.67800 53.54600 23.62500
C  36.26500 52.20600 23.52800
C  35.08600 55.12100 25.67900
C  35.34200 54.42100 22.49600
O  35.38700 54.00900 21.36300
C  35.01400 55.87800 22.65900
N  37.21800 49.33400 23.12300
C  36.92200 50.18500 22.11000
C  37.14900 49.58000 20.70500
C  37.94800 48.27500 21.00600
C  37.69300 48.18400 22.59400
C  35.73700 49.40800 19.93700
C  39.50400 48.30200 20.84100
C  40.10900 47.01600 20.25400
N  37.68300 47.86200 25.54400
C  37.97300 46.87200 24.64900
C  38.12800 45.60300 25.37700
C  37.99000 45.95400 26.73900
C  37.67800 47.33100 26.81300
C  38.24500 44.25700 24.64700
C  38.08500 45.45100 28.10300
O  38.32500 44.36600 28.64700
C  37.58100 46.71700 28.96500
C  36.28400 46.36000 29.49700
O  35.18000 46.43700 28.93600
O  36.43300 46.03600 30.85000
C  35.27800 45.66000 31.59400
H  36.00600 53.57700 27.64200
H  36.11600 52.02900 21.49400
H  38.20900 46.20500 22.58700
H  36.14800 49.22500 30.23200
H  37.02400 51.98100 29.92800
H  35.07300 52.47000 30.76500
H  34.52300 50.77300 30.59500
H  34.21100 51.86000 29.33300
H  38.65400 50.79400 30.74700
H  38.98400 49.25000 29.94600
H  39.20300 49.35600 32.37200
H  38.28900 48.08800 31.62800
H  34.21100 55.50600 25.15500
H  35.82700 55.85400 25.99800
H  34.58900 54.75000 26.57400
H  34.02400 56.02400 23.09100
H  35.08900 56.36700 21.68800
H  35.73900 56.37600 23.30300
H  37.77900 50.29500 20.17600
H  37.50200 47.43100 20.47900
H  35.81900 49.72400 18.89700
H  34.99000 49.97900 20.48800
H  35.42200 48.36800 20.01600
H  39.97800 48.50500 21.80100
H  39.71700 49.15900 20.20300
H  39.48400 46.14200 20.43800
H  41.04300 46.78800 20.76800
H  40.31500 47.30100 19.22200
H  37.93800 43.48200 25.35000
H  39.32500 44.24000 24.50300
H  37.73500 44.10600 23.69500
H  38.31600 46.84800 29.75900
H  35.48800 45.36500 32.62200
H  34.86900 44.87800 30.95300
H  34.63800 46.53900 31.52600

