158

Mg 48.26400 35.32300 28.45300
C  46.18900 33.94100 30.77400
C  48.47300 38.08300 30.42400
C  49.46600 37.07700 25.82300
C  47.69200 32.64700 26.34600
N  47.52100 35.81600 30.31400
C  46.84000 35.07000 31.13500
C  47.20600 35.46000 32.53300
C  47.45300 36.97700 32.37600
C  47.88500 36.96000 30.90100
C  46.22500 37.85600 32.67800
C  48.45100 34.68100 33.12000
C  48.67000 34.71900 34.64500
H  47.64200 35.54400 35.42000
N  48.87700 37.27500 28.17600
C  48.88000 38.30200 29.14300
C  49.39200 39.49800 28.64300
C  49.77900 39.21100 27.26300
C  49.42400 37.80400 27.01100
C  49.58800 40.80800 29.53700
C  50.40800 40.24700 26.25600
O  50.70700 39.95900 25.06500
C  50.75500 41.67900 26.67400
N  48.40900 34.87800 26.35100
C  49.11900 35.72300 25.55600
C  49.41000 35.14300 24.18500
C  49.09600 33.62800 24.46100
C  48.46100 33.68800 25.86000
C  48.53600 35.84900 23.17100
C  50.33000 32.72100 24.33300
C  50.82900 32.43300 22.90400
N  47.18700 33.53700 28.53900
C  47.05300 32.50500 27.61300
C  46.30700 31.45900 28.15600
C  45.86500 31.94800 29.40200
C  46.48000 33.26200 29.60100
C  45.96500 30.13100 27.61700
C  45.07300 31.69500 30.60600
O  44.36600 30.72700 30.93200
C  45.13700 33.04800 31.41900
C  45.43800 32.62300 32.84000
O  46.43600 32.00700 33.23700
O  44.42700 32.99900 33.63300
C  44.30800 32.43300 35.04900
H  48.42000 38.89900 31.14900
H  49.91400 37.70100 25.04600
H  47.51000 31.85000 25.62200
H  46.30800 35.31200 33.13300
H  48.20100 37.34400 33.07800
H  46.10800 38.09800 33.73500
H  45.40400 37.34500 32.17600
H  46.42200 38.85000 32.27500
H  49.31400 35.10700 32.60700
H  48.35600 33.65500 32.76500
H  49.70900 34.95000 34.88200
H  48.46000 33.70400 34.98100
H  50.41800 41.42800 29.20000
H  49.82200 40.63300 30.58700
H  48.67000 41.39400 29.47900
H  49.80300 42.03700 27.06700
H  51.14100 42.15600 25.77300
H  51.66200 41.63800 27.27600
H  50.43800 35.38600 23.91600
H  48.35100 33.29100 23.74000
H  49.15800 36.51800 22.57700
H  47.65900 36.29900 23.63600
H  48.21500 35.05400 22.49900
H  49.94900 31.75100 24.65200
H  51.06200 33.07200 25.06000
H  50.44000 33.14000 22.17100
H  50.49600 31.48400 22.48500
H  51.91000 32.29400 22.93900
H  44.89700 30.01800 27.42900
H  46.36000 29.31500 28.22300
H  46.51800 29.97700 26.69100
H  44.13000 33.46400 31.43400
H  43.28800 32.09200 35.22700
H  44.63900 33.14400 35.80600
H  44.93300 31.58300 35.32600
Mg 17.88600 51.49700 26.27300
C  19.55200 49.97600 28.71400
C  15.38800 52.45100 28.50000
C  15.92300 52.43200 23.72200
C  20.10100 50.10400 23.89700
N  17.52200 51.17300 28.38400
C  18.38800 50.61800 29.24400
C  18.00100 50.79300 30.70100
C  16.50400 51.37100 30.51900
C  16.47300 51.68700 29.04700
C  15.32400 50.34000 30.88500
C  18.94600 51.81800 31.52000
C  18.32600 52.48800 32.81900
H  17.48300 51.61300 33.68200
N  16.04400 52.42800 26.10600
C  15.24100 52.80400 27.17600
C  14.05500 53.51000 26.70700
C  14.15100 53.44500 25.29100
C  15.38200 52.82200 24.98300
C  13.26600 54.41000 27.62100
C  13.12200 53.97300 24.25600
O  13.39700 54.26900 23.07900
C  11.79400 54.47200 24.74000
N  18.02000 51.38500 23.98400
C  17.01000 51.72000 23.23700
C  17.25800 51.31500 21.76900
C  18.71000 50.83700 21.79200
C  19.02300 50.86800 23.28700
C  16.24500 50.33700 21.14300
C  19.78100 51.72100 21.01700
C  19.77500 53.25100 21.29600
N  19.46100 50.24500 26.27000
C  20.34800 49.87200 25.27300
C  21.50000 49.15600 25.79500
C  21.30000 49.18500 27.22400
C  20.03400 49.82500 27.42300
C  22.58800 48.59300 24.90400
C  21.75600 48.76800 28.59100
O  22.68100 48.07100 29.02800
C  20.65500 49.40500 29.55500
C  20.17700 48.27300 30.41200
O  19.80100 47.16200 30.03600
O  20.12900 48.70500 31.71600
C  19.57100 47.73200 32.66600
H  14.57900 52.66200 29.20200
H  15.28200 52.72400 22.88800
H  20.78600 49.64200 23.18300
H  17.99900 49.82200 31.19600
H  16.35900 52.27500 31.11000
H  15.01500 50.50300 31.91700
H  15.70400 49.31900 30.93300
H  14.47700 50.31700 30.19900
H  19.30100 52.58700 30.83400
H  19.81500 51.27700 31.89600
H  17.74300 53.31100 32.40500
H  19.15300 52.86700 33.42000
H  13.83400 54.66700 28.51500
H  12.27500 54.00500 27.82500
H  13.06000 55.32700 27.07000
H  11.56500 54.00900 25.69900
H  11.08000 54.02700 24.04600
H  11.85200 55.55700 24.65400
H  17.11700 52.24100 21.21200
H  18.82300 49.85100 21.34000
H  15.59600 50.16200 22.00100
H  16.61400 49.34000 20.90000
H  15.79300 50.88600 20.31700
H  19.57600 51.66100 19.94800
H  20.71700 51.22600 21.27400
H  20.75200 53.65900 21.55800
H  19.08700 53.26300 22.14100
H  19.45000 53.81800 20.42400
H  23.31100 48.20900 25.62400
H  22.98200 49.37100 24.25000
H  22.24100 47.72700 24.34100
H  21.16000 50.12400 30.20000
H  19.87100 46.70800 32.44500
H  18.49800 47.92000 32.62700
H  20.00600 47.95600 33.64000

