158

Mg -0.48900 7.68200 26.21600
C  0.78500 9.61600 28.97900
C  -0.53300 4.96400 28.35300
C  -1.06600 5.78700 23.60600
C  0.19400 10.39300 24.15600
N  0.08000 7.36400 28.48100
C  0.46700 8.28800 29.41600
C  0.64700 7.64900 30.77000
C  0.35800 6.05500 30.55400
C  -0.00100 6.10300 29.01000
C  1.52900 5.10400 30.87000
C  -0.06300 8.25700 31.94600
C  0.64800 8.13400 33.33400
H  1.88600 7.22100 33.57500
N  -0.88700 5.64700 25.96400
C  -0.94500 4.72100 26.96000
C  -1.41900 3.43300 26.34900
C  -1.38100 3.56000 24.93400
C  -1.13100 5.00600 24.72800
C  -1.64200 2.20700 27.25100
C  -1.64100 2.65800 23.72600
O  -1.68500 3.10900 22.57200
C  -1.79100 1.16200 23.87700
N  -0.25900 7.98800 24.12200
C  -0.67400 7.09000 23.27200
C  -0.82800 7.61100 21.85300
C  -0.62600 9.16800 22.08200
C  -0.23500 9.17100 23.55800
C  0.16500 6.98700 20.84900
C  -1.82300 10.07400 21.77100
C  -2.86800 10.34900 23.00200
N  0.28900 9.61800 26.49400
C  0.53100 10.56900 25.52600
C  1.05100 11.77700 26.11100
C  1.11400 11.44500 27.48000
C  0.69900 10.10300 27.65100
C  1.36800 13.11500 25.38400
C  1.57100 11.96500 28.74900
O  2.03500 12.98800 29.01900
C  1.33300 10.77800 29.76900
C  2.54900 10.49700 30.70500
O  3.43100 9.68000 30.56700
O  2.43700 11.35700 31.82300
C  3.28500 11.07300 32.96600
H  -0.62400 4.15200 29.07700
H  -1.41000 5.22400 22.73700
H  0.36500 11.30100 23.57400
H  1.70500 7.60400 31.02700
H  -0.49100 5.73400 31.15700
H  1.19700 4.59700 31.77600
H  2.50600 5.57100 30.99400
H  1.52100 4.20300 30.25800
H  -1.04000 7.85500 32.21600
H  -0.10500 9.30700 31.65700
H  -0.15000 7.81700 34.00400
H  0.80300 9.15400 33.68400
H  -0.72900 1.63500 27.41600
H  -2.50700 1.57900 27.04200
H  -1.87900 2.54300 28.26100
H  -2.52600 0.91100 24.64100
H  -0.81400 0.79100 24.18700
H  -2.21200 0.87500 22.91300
H  -1.86900 7.44500 21.57500
H  0.30600 9.38600 21.56100
H  1.15000 7.12800 21.29400
H  0.11400 7.65600 19.99000
H  -0.13600 6.03000 20.42300
H  -2.41600 9.56400 21.01200
H  -1.54700 11.06200 21.40300
H  -2.86900 11.39300 23.31600
H  -2.48200 9.80100 23.86200
H  -3.85700 9.93400 22.81300
H  0.61800 13.27900 24.61000
H  2.29100 12.86400 24.86100
H  1.61200 13.95500 26.03400
H  0.59200 11.15500 30.47500
H  2.91000 10.09100 33.25400
H  3.08500 11.83900 33.71600
H  4.30200 10.99700 32.58200
Mg 47.23700 16.84200 27.51600
C  45.55800 16.45000 30.55800
C  49.69000 18.70400 29.36600
C  48.57900 17.77000 24.69400
C  44.47700 15.43900 25.83500
N  47.50900 17.59500 29.67400
C  46.73700 17.15600 30.77400
C  47.42500 17.57800 32.12000
C  48.69000 18.38300 31.67800
C  48.63300 18.21600 30.11900
C  48.68300 19.84100 32.19700
C  47.79800 16.23400 32.97800
C  47.66000 16.39200 34.54700
H  47.56200 17.83400 35.07600
N  48.91000 18.02100 27.07800
C  49.78800 18.66600 27.96600
C  50.93100 19.06300 27.15500
C  50.65700 18.81600 25.78700
C  49.35800 18.16900 25.77700
C  52.19700 19.61600 27.69200
C  51.37000 19.14800 24.46200
O  50.92900 18.94800 23.31900
C  52.89300 19.71500 24.52800
N  46.51800 16.84300 25.61300
C  47.35000 17.21300 24.60500
C  46.75700 16.99700 23.18700
C  45.47300 16.18500 23.52800
C  45.45400 16.11000 25.09500
C  46.44500 18.33400 22.40000
C  45.38400 14.77200 22.84200
C  43.97700 14.51900 22.33300
N  45.34700 16.02500 28.05100
C  44.41400 15.40500 27.26700
C  43.33000 14.94500 28.03100
C  43.71600 15.27700 29.38900
C  44.99000 15.94700 29.33300
C  42.08700 14.20700 27.53400
C  43.33200 15.20900 30.74800
O  42.35100 14.78200 31.30000
C  44.42900 15.94100 31.58100
C  43.72600 16.99600 32.32300
O  42.92200 17.80500 31.85000
O  44.14200 16.96700 33.69700
C  43.57100 17.88800 34.61600
H  50.50300 19.16700 29.92900
H  48.91700 17.91500 23.66500
H  43.63800 15.00500 25.28600
H  46.73900 18.20300 32.69100
H  49.62200 17.87300 31.92500
H  48.73200 20.62900 31.44600
H  49.52300 19.98900 32.87600
H  47.77100 20.11000 32.72900
H  48.79200 15.87800 32.70400
H  47.17800 15.40000 32.65200
H  48.59500 15.98200 34.92900
H  46.80900 15.78500 34.85700
H  52.35500 20.54900 27.15000
H  53.06000 19.00200 27.43600
H  52.14400 19.84500 28.75700
H  52.99200 20.61900 25.12800
H  53.32300 19.92000 23.54800
H  53.58900 18.97600 24.92400
H  47.41800 16.33000 22.63400
H  44.61100 16.78500 23.23700
H  45.38800 18.60000 22.37500
H  46.80800 18.22300 21.37900
H  46.94200 19.08000 23.02000
H  45.70200 14.06500 23.60800
H  46.05500 14.55900 22.01000
H  44.05300 14.01200 21.37100
H  43.39300 15.42700 22.18800
H  43.42900 13.82300 22.96900
H  42.24700 13.14100 27.70000
H  41.82100 14.41700 26.49800
H  41.18100 14.37500 28.11500
H  44.85700 15.13900 32.18200
H  43.94100 17.54200 35.58100
H  42.49400 17.97100 34.47000
H  43.99000 18.87300 34.40900

