158

Mg 41.00400 40.93900 26.13400
C  40.43700 43.27600 28.87300
C  42.39000 38.89000 28.40200
C  41.75700 38.93000 23.60400
C  40.30800 43.60400 23.94200
N  41.42300 41.19100 28.35300
C  40.94400 42.08200 29.27600
C  41.06300 41.58600 30.67500
C  41.63600 40.17100 30.47700
C  41.80000 40.04700 28.97400
C  42.86200 39.90200 31.38000
C  39.69700 41.59900 31.45000
C  39.65100 42.32900 32.84200
H  38.83500 41.75300 34.03500
N  41.90600 39.12800 26.05000
C  42.36000 38.37800 27.06500
C  42.86800 37.07500 26.62200
C  42.55700 37.06900 25.21200
C  41.98600 38.41500 24.85600
C  43.51300 36.06700 27.57800
C  42.77700 35.89800 24.27300
O  42.38600 35.81900 23.12600
C  43.49400 34.71700 24.78600
N  41.17700 41.27500 24.07400
C  41.35300 40.22900 23.20000
C  41.00900 40.58200 21.75900
C  40.37900 42.00200 21.97400
C  40.67800 42.37800 23.42000
C  42.28300 40.53000 20.81400
C  38.84900 42.26300 21.61900
C  37.81500 41.81700 22.63000
N  40.55600 43.00800 26.26200
C  40.26200 43.94700 25.32800
C  39.86300 45.27100 25.93600
C  39.85300 44.99200 27.29500
C  40.38200 43.66000 27.50300
C  39.59900 46.56100 25.21500
C  39.64500 45.65800 28.59200
O  39.29400 46.78400 28.94000
C  40.08200 44.48100 29.71300
C  41.18800 44.99800 30.56200
O  42.34900 45.24500 30.17700
O  40.80000 45.06800 31.88100
C  41.79500 45.40700 32.89800
H  42.58700 38.11700 29.14700
H  41.94000 38.19100 22.82100
H  39.81900 44.27800 23.23600
H  41.81200 42.20800 31.16500
H  40.86900 39.50600 30.87300
H  42.78800 38.84400 31.63300
H  42.87500 40.44900 32.32200
H  43.76100 40.06000 30.78400
H  39.32100 40.58900 31.61200
H  39.03200 42.11000 30.75500
H  39.31300 43.35500 32.69300
H  40.67900 42.35200 33.20300
H  42.69400 35.36500 27.73000
H  43.86300 36.59300 28.46700
H  44.44400 35.68500 27.15900
H  43.48500 33.85700 24.11600
H  43.10000 34.32000 25.72100
H  44.52700 35.04700 24.89700
H  40.21600 40.01600 21.26900
H  41.10500 42.72100 21.59600
H  43.23700 40.39100 21.32400
H  42.38600 41.49800 20.32300
H  42.15100 39.79300 20.02200
H  38.62300 41.64500 20.75100
H  38.69400 43.30600 21.34400
H  37.00400 42.52100 22.81200
H  38.30900 41.59900 23.57700
H  37.43600 40.86500 22.25700
H  39.97400 46.61500 24.19300
H  40.12200 47.33600 25.77600
H  38.53900 46.78200 25.08700
H  39.17900 44.26600 30.28300
H  42.78800 45.71100 32.56600
H  42.01100 44.57200 33.56500
H  41.47600 46.19300 33.58200
Mg -1.64100 34.97700 26.92700
C  -3.56100 33.14200 29.28200
C  -0.77200 36.97200 29.51700
C  -0.27100 36.87300 24.75500
C  -2.83200 32.76700 24.36300
N  -1.97200 34.93400 29.24800
C  -2.81600 34.11800 29.93200
C  -2.85600 34.44800 31.43500
C  -2.20800 35.93100 31.40100
C  -1.53600 35.93800 30.01300
C  -3.25800 37.06400 31.51500
C  -2.15000 33.48400 32.42600
C  -2.83700 33.20000 33.81500
H  -2.93200 34.41000 34.83300
N  -0.67600 36.65200 27.11900
C  -0.40100 37.36000 28.25800
C  0.38600 38.51800 27.90100
C  0.61400 38.51400 26.51200
C  -0.07000 37.32600 26.07900
C  0.83900 39.63500 28.91100
C  1.28700 39.47800 25.62700
O  1.40800 39.34200 24.44000
C  1.85800 40.63700 26.28600
N  -1.51500 34.86500 24.83800
C  -0.96400 35.80100 24.13600
C  -0.70400 35.33400 22.69300
C  -1.34100 33.91800 22.60200
C  -1.92700 33.83000 24.00200
C  -1.15500 36.40900 21.62900
C  -0.35600 32.81800 22.27500
C  0.14700 31.86200 23.30900
N  -2.90600 33.34100 26.82400
C  -3.31600 32.55000 25.69800
C  -4.21200 31.48100 26.14400
C  -4.31900 31.66900 27.53400
C  -3.55600 32.82800 27.90600
C  -4.81600 30.36700 25.32700
C  -4.90900 31.13600 28.73900
O  -5.65400 30.20000 28.95300
C  -4.38200 32.05800 29.96200
C  -5.52700 32.54500 30.64300
O  -6.25700 33.45500 30.30000
O  -5.88400 31.67500 31.64600
C  -6.85300 32.20300 32.62500
H  -0.37200 37.58000 30.33100
H  0.27300 37.55600 24.10000
H  -3.13000 32.17100 23.49800
H  -3.92400 34.49300 31.65000
H  -1.44000 35.98900 32.17200
H  -4.25300 36.70500 31.25100
H  -3.07300 37.85100 30.78300
H  -3.30400 37.59300 32.46700
H  -1.15200 33.87000 32.63200
H  -2.17300 32.52200 31.91400
H  -2.27100 32.38700 34.27100
H  -3.86800 32.85300 33.87800
H  1.92800 39.60800 28.87600
H  0.57700 39.38900 29.94000
H  0.40200 40.61700 28.72800
H  1.12100 41.30200 26.73600
H  2.29800 41.18100 25.45100
H  2.63400 40.26300 26.95500
H  0.37700 35.19400 22.71300
H  -2.19900 33.96300 21.93100
H  -1.69100 37.23300 22.10000
H  -1.88700 36.03100 20.91600
H  -0.25200 36.70100 21.09300
H  0.43700 33.28900 21.69400
H  -0.78000 32.07000 21.60500
H  0.25000 32.33200 24.28700
H  1.11800 31.50300 22.96800
H  -0.54500 31.02000 23.32000
H  -4.57400 30.42200 24.26600
H  -5.86700 30.51500 25.57600
H  -4.41200 29.41200 25.66200
H  -3.70000 31.41100 30.51300
H  -7.81500 32.47500 32.19100
H  -6.51000 33.14700 33.04800
H  -6.93400 31.49000 33.44600

