158

Mg 47.03000 26.04700 28.93900
C  48.26800 27.95300 31.67000
C  45.93000 23.71900 31.38300
C  46.55700 23.83200 26.46600
C  48.49400 28.30400 26.68000
N  47.03100 25.93000 31.24500
C  47.54800 26.84400 32.07200
C  47.18500 26.48400 33.49400
C  46.75900 25.02300 33.45000
C  46.62900 24.78000 31.91600
C  47.74600 24.00100 34.07600
C  45.97300 27.39500 34.04700
C  45.92100 27.92300 35.48500
H  46.51100 27.09900 36.63000
N  46.30100 24.15900 28.92700
C  45.80500 23.45600 29.98000
C  45.18600 22.26000 29.48900
C  45.36700 22.22200 28.07100
C  46.13000 23.47000 27.74400
C  44.56400 21.19800 30.38000
C  44.83300 21.18700 27.06900
O  45.06800 21.28900 25.86900
C  44.13800 19.89100 27.53600
N  47.67800 26.06500 26.85000
C  47.15100 25.07500 26.06900
C  47.43700 25.43500 24.57000
C  47.89100 26.91500 24.61400
C  48.01900 27.13000 26.12300
C  48.45400 24.47400 23.80000
C  47.12700 27.94800 23.76300
C  47.33700 27.74000 22.28600
N  47.91400 27.93600 29.10900
C  48.50600 28.71300 28.10200
C  49.10600 29.89700 28.67400
C  48.89300 29.68600 30.10200
C  48.27700 28.43200 30.28400
C  49.89200 30.99100 28.00200
C  49.16200 30.23500 31.44000
O  49.68600 31.31300 31.74000
C  48.75000 29.13700 32.47000
C  49.86900 28.70900 33.31800
O  50.92500 28.30300 32.94400
O  49.54100 29.03700 34.62200
C  50.58200 28.76400 35.70300
H  45.68700 22.99500 32.16300
H  46.58500 23.09700 25.65800
H  48.88800 28.93500 25.88100
H  47.99000 26.76400 34.17300
H  45.75000 24.97100 33.86000
H  48.22700 24.50000 34.91700
H  48.42300 23.66600 33.29000
H  47.18500 23.11800 34.38200
H  45.04500 26.85300 33.86500
H  45.89400 28.26500 33.39500
H  44.88700 28.02100 35.81800
H  46.50400 28.83000 35.64500
H  44.43800 21.60300 31.38400
H  45.25200 20.36200 30.51200
H  43.65400 20.81800 29.91500
H  44.57700 19.51800 28.46200
H  44.39300 19.01900 26.93300
H  43.06100 20.05600 27.51500
H  46.39800 25.35600 24.25200
H  48.91600 27.00400 24.25400
H  49.16600 23.99900 24.47400
H  48.85800 25.03200 22.95500
H  47.74000 23.68500 23.56400
H  47.51300 28.94300 23.98400
H  46.09200 27.81200 24.07800
H  46.38200 27.45700 21.84300
H  47.94800 26.86000 22.08900
H  47.71200 28.56600 21.68000
H  49.94300 30.67500 26.96000
H  50.87600 31.01800 28.46900
H  49.41700 31.95300 28.19400
H  47.96900 29.52300 33.12400
H  50.00600 28.59200 36.61200
H  51.14200 29.69800 35.75100
H  51.06500 27.87600 35.29600
Mg 26.80700 49.94400 26.43600
C  24.51000 50.95200 28.81200
C  28.92300 48.96100 28.96500
C  29.12700 49.34800 24.14700
C  24.48600 50.81000 23.99800
N  26.70100 49.99900 28.57100
C  25.65800 50.41000 29.36800
C  25.94400 50.24700 30.91000
C  27.36600 49.69100 30.92500
C  27.74400 49.58700 29.39900
C  28.24800 50.64200 31.70000
C  24.88300 49.24300 31.57300
C  23.96600 49.89400 32.66600
H  23.82800 49.04200 33.96400
N  28.80600 49.22600 26.57000
C  29.47800 48.84700 27.66000
C  30.82000 48.41400 27.31700
C  30.91400 48.58700 25.84100
C  29.62200 49.11500 25.47300
C  31.86200 48.08100 28.36900
C  32.09000 48.36200 25.01700
O  32.14700 48.62300 23.82900
C  33.37800 47.92800 25.63100
N  26.82600 50.26000 24.37100
C  27.87900 49.81600 23.63500
C  27.44200 49.76900 22.11300
C  25.94800 50.17100 22.05300
C  25.74200 50.37000 23.59600
C  28.44000 50.43400 21.23400
C  25.00900 49.21700 21.29500
C  24.23100 49.76600 20.07900
N  24.95600 50.81400 26.36500
C  24.18300 51.17900 25.30100
C  22.98600 51.81700 25.78100
C  23.06400 51.80400 27.19100
C  24.25800 51.11900 27.46900
C  21.89500 52.39300 24.93600
C  22.39100 52.18000 28.36600
O  21.30500 52.70500 28.60800
C  23.28400 51.58000 29.48900
C  23.46700 52.65700 30.49000
O  24.35900 53.49200 30.37700
O  22.63400 52.50200 31.60200
C  22.96400 53.37400 32.78300
H  29.48300 48.39500 29.71300
H  29.76700 49.09000 23.30100
H  23.83500 51.06100 23.15900
H  25.80700 51.26400 31.27800
H  27.47200 48.72200 31.41400
H  29.26100 50.56700 31.30400
H  28.27600 50.34800 32.75000
H  27.95900 51.68900 31.62200
H  25.36000 48.46400 32.16600
H  24.18700 48.88400 30.81500
H  22.97200 49.91900 32.21800
H  24.45000 50.83500 32.92800
H  32.58800 48.87600 28.54500
H  32.28800 47.12000 28.08400
H  31.41700 47.86600 29.34100
H  34.09000 47.66100 24.85000
H  33.20300 46.95700 26.09400
H  33.84800 48.61300 26.33600
H  27.48100 48.75800 21.70800
H  25.79700 51.09600 21.49700
H  29.28900 50.79000 21.81700
H  27.99300 51.32200 20.78600
H  28.75400 49.76300 20.43400
H  24.28400 48.68000 21.90700
H  25.65900 48.43200 20.90800
H  24.51400 49.13700 19.23400
H  24.48600 50.80500 19.87100
H  23.16200 49.68000 20.27500
H  21.03700 51.76100 25.16500
H  22.05000 52.24200 23.86800
H  21.69000 53.46000 25.03000
H  22.73800 50.77900 29.98800
H  23.74400 53.01100 33.45300
H  21.96900 53.42900 33.22400
H  23.16800 54.40700 32.50200

