158

Mg 27.07200 49.47100 26.00100
C  25.23900 50.91600 28.79200
C  29.64500 48.89400 28.25200
C  28.89500 48.71900 23.28900
C  24.54000 50.74400 23.94300
N  27.38500 49.91000 28.32500
C  26.43000 50.33300 29.22000
C  26.90800 50.04100 30.68200
C  28.43300 49.64700 30.50800
C  28.53200 49.46000 28.92500
C  29.52800 50.61100 31.01000
C  26.00500 49.04600 31.52000
C  25.57700 49.63100 32.83400
H  26.57800 49.98200 33.91900
N  28.96400 48.83400 25.82700
C  29.85800 48.49100 26.85500
C  31.15100 48.13000 26.21100
C  31.00500 48.18700 24.78300
C  29.56800 48.59000 24.57200
C  32.37000 47.74600 26.99700
C  32.09700 48.00200 23.76000
O  31.84000 48.02400 22.57400
C  33.50000 47.72600 24.09000
N  26.72200 49.67400 23.84100
C  27.65200 49.19800 22.93500
C  27.01700 49.41600 21.51300
C  25.52000 49.89600 21.82900
C  25.53500 49.98700 23.32400
C  27.74600 50.38600 20.55600
C  24.46000 48.98800 21.16500
C  24.01700 47.64000 22.01600
N  25.25600 50.53000 26.25000
C  24.30100 50.94600 25.30900
C  23.16200 51.62900 25.95900
C  23.54300 51.60700 27.31700
C  24.81800 50.97000 27.47400
C  22.00800 52.21700 25.20400
C  23.06500 51.87400 28.69400
O  22.03000 52.42700 29.06200
C  24.12600 51.43100 29.63400
C  24.34200 52.49600 30.62100
O  25.29900 53.27100 30.60800
O  23.40300 52.45300 31.58700
C  23.65600 53.32600 32.76000
H  30.54800 48.67700 28.82500
H  29.53400 48.51300 22.42800
H  23.74100 51.04200 23.26200
H  26.90800 50.99900 31.20300
H  28.54900 48.67300 30.98500
H  30.16100 50.90300 30.17100
H  30.17100 50.32500 31.84200
H  29.06700 51.51700 31.40300
H  26.48700 48.07100 31.59500
H  25.06200 48.86800 31.00400
H  24.78300 48.97600 33.19200
H  25.10900 50.60900 32.72200
H  32.14700 47.89500 28.05300
H  33.21900 48.40200 26.80400
H  32.58800 46.74200 26.63300
H  34.05700 47.57600 23.16400
H  33.70300 46.83400 24.68200
H  33.78000 48.65000 24.59700
H  27.01100 48.44200 21.02400
H  25.38000 50.89600 21.42100
H  28.75600 50.46700 20.95700
H  27.14900 51.29700 20.54600
H  27.69900 50.06500 19.51500
H  24.84600 48.57800 20.23200
H  23.58400 49.60900 20.97700
H  24.27400 46.76800 21.41400
H  22.94700 47.64200 22.22300
H  24.51000 47.50800 22.97900
H  21.79200 51.54600 24.37300
H  22.16400 53.18400 24.72600
H  21.15900 52.29700 25.88300
H  23.86700 50.52400 30.17900
H  23.59600 54.36500 32.43900
H  24.65000 53.10000 33.14700
H  22.99200 53.13300 33.60200
Mg -5.93900 25.49300 26.23300
C  -4.04100 26.95500 28.82000
C  -7.23200 23.33300 28.51000
C  -7.15700 23.80500 23.59900
C  -4.21000 27.71500 24.06700
N  -5.58700 25.18100 28.41000
C  -5.06000 26.10500 29.27800
C  -5.52600 25.87500 30.72100
C  -6.29900 24.54700 30.55500
C  -6.42300 24.29600 29.07600
C  -5.89800 23.27900 31.31900
C  -6.26800 27.08200 31.35600
C  -6.82300 26.83800 32.72300
H  -6.14800 25.82200 33.62700
N  -7.13500 23.84900 26.05100
C  -7.56900 23.09600 27.12100
C  -8.36900 22.00800 26.60200
C  -8.40900 22.17300 25.18700
C  -7.53700 23.27600 24.84200
C  -9.06500 21.11500 27.53700
C  -9.25500 21.44600 24.15400
O  -9.36900 21.82700 22.97900
C  -10.18500 20.36600 24.61500
N  -5.67500 25.62300 24.13500
C  -6.22900 24.79900 23.23800
C  -5.98800 25.25300 21.77600
C  -5.21700 26.56600 21.91700
C  -5.00800 26.70900 23.50100
C  -5.39100 24.14800 20.86300
C  -5.77300 27.84400 21.24200
C  -5.05600 28.47800 20.06200
N  -4.42100 27.00600 26.36800
C  -3.80100 27.79100 25.38600
C  -2.81700 28.66500 25.94700
C  -2.84000 28.28400 27.32800
C  -3.79600 27.28500 27.49000
C  -1.98200 29.70300 25.23700
C  -2.30900 28.56100 28.63500
O  -1.45300 29.42200 28.92400
C  -3.06900 27.69700 29.65600
C  -2.15000 27.09800 30.72100
O  -1.47100 26.10800 30.55500
O  -2.27400 27.82800 31.88900
C  -1.87600 27.21600 33.11500
H  -7.68000 22.67200 29.25600
H  -7.31700 23.21100 22.69600
H  -3.75000 28.43500 23.38700
H  -4.68700 25.69400 31.39400
H  -7.31200 24.79800 30.87000
H  -5.04300 23.38700 31.98600
H  -5.57200 22.44600 30.69600
H  -6.73900 23.02600 31.96500
H  -7.10700 27.19200 30.67000
H  -5.60500 27.94800 31.37900
H  -7.86900 26.57700 32.56400
H  -6.76500 27.74400 33.32700
H  -10.07900 21.51400 27.56500
H  -8.64300 21.21700 28.53600
H  -9.09600 20.05800 27.27400
H  -10.74300 20.00800 23.75000
H  -10.98800 20.72400 25.25800
H  -9.54800 19.61600 25.08300
H  -6.95600 25.52700 21.35700
H  -4.17600 26.49500 21.60200
H  -5.53200 23.13300 21.23600
H  -4.31200 24.29800 20.84200
H  -5.86700 24.17400 19.88300
H  -5.84900 28.58200 22.04000
H  -6.77000 27.64600 20.84900
H  -4.44600 29.31700 20.39800
H  -5.82400 28.92600 19.43100
H  -4.48900 27.75700 19.47300
H  -2.03800 29.73400 24.14900
H  -0.94000 29.70300 25.55900
H  -2.33100 30.64000 25.67100
H  -3.69100 28.50300 30.04500
H  -1.27100 28.00200 33.56700
H  -1.35500 26.26300 33.03000
H  -2.74600 27.17900 33.77100

