158

Mg 23.90800 -4.46900 46.21600
C  26.25600 -2.24900 44.65200
C  21.62500 -3.38400 43.97900
C  22.17900 -7.17800 46.84500
C  26.60800 -5.84500 48.01400
N  24.06000 -3.11700 44.38400
C  24.99700 -2.23800 44.03600
C  24.58800 -1.21000 43.05800
C  23.00600 -1.40900 42.98100
C  22.84800 -2.69400 43.91300
C  22.11500 -0.18100 43.39300
C  25.18500 -1.40000 41.56600
C  25.64900 -0.12900 40.80800
H  25.10200 0.08600 39.38300
N  22.12900 -5.17200 45.50100
C  21.30500 -4.57400 44.60300
C  20.07800 -5.33800 44.37900
C  20.20100 -6.41500 45.29700
C  21.55500 -6.34200 45.88100
C  19.01700 -4.97800 43.42800
C  19.05300 -7.38900 45.54100
O  17.93200 -7.21300 45.07900
C  19.26000 -8.63200 46.37500
N  24.30000 -6.31600 47.27200
C  23.45300 -7.23600 47.41100
C  23.86400 -8.29700 48.41300
C  25.27100 -7.84300 48.81500
C  25.43400 -6.56700 48.02100
C  22.84300 -8.54000 49.58700
C  26.45000 -8.93400 48.83900
C  27.07000 -9.38800 50.14200
N  25.95000 -4.08000 46.44200
C  26.84700 -4.71100 47.23100
C  28.09800 -3.94000 47.11700
C  27.93200 -2.94800 46.11500
C  26.64100 -3.19600 45.68500
C  29.33900 -4.22500 47.82600
C  28.60400 -1.87600 45.43800
O  29.77400 -1.50000 45.60900
C  27.57000 -1.42000 44.38300
C  27.47000 0.04100 44.46500
O  26.80000 0.68500 45.21700
O  28.16100 0.61400 43.41900
C  28.08000 2.11300 43.30600
H  20.80300 -2.91200 43.43600
H  21.52100 -7.96600 47.21700
H  27.37100 -6.19000 48.71400
H  24.84900 -0.22700 43.45000
H  22.67600 -1.74600 41.99800
H  21.26800 -0.24100 42.70900
H  22.70800 0.72000 43.24100
H  21.85300 -0.27700 44.44700
H  24.51700 -1.84300 40.82700
H  25.96300 -2.16400 41.57300
H  26.73600 -0.09600 40.87000
H  25.31300 0.68800 41.44700
H  18.45900 -5.84100 43.06500
H  19.47100 -4.49800 42.56100
H  18.39400 -4.25300 43.95200
H  18.96500 -8.44600 47.40800
H  20.23100 -9.12500 46.32000
H  18.57000 -9.40300 46.03300
H  23.88200 -9.26600 47.91400
H  25.11500 -7.46400 49.82500
H  22.35400 -9.50600 49.46200
H  22.14800 -7.71900 49.41500
H  23.28400 -8.38300 50.57200
H  27.29500 -8.50600 48.29800
H  26.03300 -9.82100 48.36200
H  27.44300 -10.40200 49.99500
H  26.44200 -9.16900 51.00600
H  28.00900 -8.91000 50.41900
H  29.34900 -5.30300 47.98700
H  29.40500 -3.62500 48.73300
H  30.27600 -4.03400 47.30100
H  28.02100 -1.76200 43.45100
H  27.03500 2.36800 43.13400
H  28.70300 2.51300 42.50600
H  28.31200 2.59400 44.25600
Mg 28.35600 57.85300 41.43600
C  25.58600 55.83100 40.48900
C  30.44800 55.60100 39.92900
C  30.89300 60.07700 41.64900
C  25.98100 60.34600 42.39800
N  27.96900 55.86200 40.41900
C  26.80800 55.23100 40.05700
C  27.10100 53.90700 39.30400
C  28.68200 53.94700 39.06400
C  29.07400 55.18900 39.92500
C  29.37000 52.59900 39.54500
C  26.28200 53.82700 37.91500
C  26.52800 55.02000 36.92700
H  26.91200 54.66900 35.47600
N  30.41500 57.76100 40.99200
C  31.08300 56.78800 40.40400
C  32.56000 57.09900 40.35800
C  32.72100 58.36700 40.94700
C  31.31800 58.79300 41.19600
C  33.48300 56.13100 39.95900
C  34.05200 59.03400 41.19500
O  35.08800 58.53000 40.76300
C  34.19900 60.27800 42.02900
N  28.43200 60.02200 41.91400
C  29.61800 60.68300 42.00100
C  29.37500 62.12800 42.34500
C  27.90200 62.12900 42.83300
C  27.40000 60.77900 42.35000
C  30.40500 62.92200 43.25500
C  27.05200 63.36900 42.54500
C  26.37000 64.14400 43.68000
N  26.18200 58.07000 41.60400
C  25.41100 59.12900 42.02700
C  23.98600 58.74700 42.06400
C  24.03100 57.39000 41.54900
C  25.33500 57.07000 41.13800
C  22.89700 59.54900 42.73000
C  23.16400 56.29000 41.20200
O  21.98000 56.07100 41.46900
C  24.07000 55.26100 40.43000
C  23.90900 53.91900 40.97900
O  23.46300 52.97300 40.37700
O  24.30100 53.91500 42.25800
C  24.36000 52.61900 42.90800
H  31.02500 54.88600 39.33900
H  31.71800 60.78700 41.73800
H  25.19600 60.96900 42.83100
H  26.75100 53.00900 39.81400
H  29.05200 54.16700 38.06300
H  29.76400 52.04100 38.69600
H  28.75200 51.93500 40.14900
H  30.21200 52.87300 40.18000
H  25.20200 53.91900 38.03200
H  26.43900 52.88600 37.38700
H  27.30300 55.65600 37.35500
H  25.59400 55.56300 36.77800
H  34.36900 56.04400 40.58700
H  33.80500 56.43800 38.96400
H  33.04700 55.14800 39.77900
H  33.67700 60.11500 42.97200
H  33.79800 61.16600 41.54000
H  35.25100 60.41100 42.28200
H  29.50800 62.68200 41.41500
H  27.87700 61.93700 43.90500
H  31.19400 62.20200 43.47200
H  30.04100 63.29400 44.21300
H  30.83700 63.75000 42.69300
H  26.25800 63.15100 41.83000
H  27.67300 64.12800 42.07000
H  26.45300 63.65200 44.64900
H  25.31600 64.19600 43.40600
H  26.79400 65.13400 43.84800
H  23.17400 59.64400 43.78000
H  21.97800 59.02500 42.46600
H  22.72800 60.55000 42.33100
H  23.67300 55.27400 39.41500
H  24.68900 51.88900 42.16800
H  23.37500 52.36700 43.30100
H  25.01000 52.66600 43.78200

