158

Mg 35.30700 3.13500 30.31000
C  32.82200 4.04700 32.68100
C  37.69700 3.28600 32.78200
C  37.75300 2.61500 27.92100
C  32.97700 3.51900 27.77700
N  35.18900 3.52600 32.46800
C  34.09900 3.90200 33.24500
C  34.48400 3.91800 34.74100
C  36.06200 4.00700 34.67300
C  36.36500 3.60700 33.23700
C  36.57400 5.41000 34.98200
C  34.04900 2.61100 35.54000
C  33.73900 2.81600 37.07800
H  34.58100 3.86500 37.91300
N  37.45500 2.88400 30.35500
C  38.21000 2.96100 31.50400
C  39.56500 2.67000 31.16500
C  39.64800 2.47700 29.73700
C  38.25600 2.65600 29.27000
C  40.71100 2.66400 32.15900
C  40.82000 2.05700 28.82100
O  40.69000 1.84200 27.63000
C  42.15600 1.83100 29.36300
N  35.35000 3.13900 28.20200
C  36.48700 2.82800 27.40800
C  36.16000 2.69100 25.93700
C  34.66100 2.84400 25.95100
C  34.24300 3.14100 27.43500
C  36.96400 3.64100 24.99700
C  33.82200 1.71500 25.16500
C  33.98400 1.55800 23.65100
N  33.29900 3.56200 30.20100
C  32.49300 3.76600 29.07200
C  31.08600 4.07500 29.50600
C  31.15200 4.16100 30.95100
C  32.53800 3.94000 31.25900
C  29.91700 4.30500 28.65300
C  30.47400 4.41100 32.14400
O  29.29800 4.75500 32.40100
C  31.48900 4.17800 33.29700
C  31.46000 5.26000 34.22900
O  31.88800 6.36200 34.00300
O  31.00700 4.79100 35.47500
C  31.02800 5.97000 36.39800
H  38.53800 3.25000 33.47800
H  38.48200 2.40500 27.13500
H  32.24900 3.67100 26.97700
H  34.05400 4.83500 35.14300
H  36.61400 3.28000 35.26900
H  35.82400 6.02200 35.48300
H  36.97600 5.94300 34.12100
H  37.35500 5.19700 35.71200
H  34.74000 1.79900 35.31600
H  33.09600 2.26200 35.14200
H  33.95100 1.84500 37.52600
H  32.67500 3.02700 37.19100
H  41.62300 3.02000 31.67800
H  40.75200 1.79200 32.81200
H  40.52100 3.36600 32.97000
H  42.74600 1.35900 28.57800
H  42.25700 1.31800 30.32000
H  42.65000 2.80100 29.41500
H  36.36700 1.65200 25.67800
H  34.39000 3.81000 25.52400
H  37.20600 4.47300 25.65800
H  36.32400 3.98600 24.18500
H  37.87200 3.25500 24.53400
H  32.78500 1.89700 25.44500
H  34.01100 0.71200 25.54800
H  34.49000 0.60200 23.51200
H  34.37600 2.36400 23.03100
H  33.01000 1.35100 23.20600
H  29.68400 5.26800 28.20000
H  29.00900 3.92900 29.12400
H  29.94500 3.67900 27.76100
H  31.23200 3.26000 33.82600
H  30.79300 5.65000 37.41300
H  30.29200 6.71000 36.08300
H  32.05300 6.34000 36.37900
Mg -12.35700 38.19200 43.64000
C  -10.34100 35.66200 42.05800
C  -10.33400 40.50400 42.18700
C  -14.58200 40.43100 44.54100
C  -14.70700 35.56900 44.28000
N  -10.56100 38.05200 42.24000
C  -9.82200 36.96700 41.74400
C  -8.57000 37.36400 41.09700
C  -8.52300 38.92100 41.31000
C  -9.85200 39.19300 41.98300
C  -7.27900 39.47500 42.03600
C  -8.41600 36.94000 39.58000
C  -6.89500 36.78000 39.13900
H  -6.38800 35.64400 38.22300
N  -12.48900 40.19600 43.36300
C  -11.55200 40.93700 42.80700
C  -11.88400 42.35500 42.91500
C  -13.06800 42.38800 43.65600
C  -13.43200 40.97400 43.90100
C  -11.05000 43.49100 42.34600
C  -13.85700 43.63800 43.98800
O  -13.36500 44.75900 43.80800
C  -15.28300 43.43400 44.32100
N  -14.34400 38.04100 44.36800
C  -15.05900 39.14000 44.69500
C  -16.31900 38.77000 45.53000
C  -16.48700 37.23900 45.20000
C  -15.10800 36.95500 44.59400
C  -16.16700 38.98000 47.10000
C  -17.55500 36.81300 44.21600
C  -18.94400 36.90300 44.75800
N  -12.51200 36.02300 43.37300
C  -13.49900 35.13600 43.67800
C  -13.12900 33.83800 43.36800
C  -11.85100 33.91600 42.68700
C  -11.56300 35.36500 42.72200
C  -13.81200 32.57900 43.69500
C  -10.84000 33.20200 42.03000
O  -10.57300 32.05000 41.92200
C  -9.79100 34.33600 41.60100
C  -8.47700 33.97800 42.34900
O  -8.32100 33.93400 43.55600
O  -7.58800 33.57700 41.41300
C  -6.35200 32.97500 41.94900
H  -9.60600 41.16500 41.71300
H  -15.25400 41.18600 44.95300
H  -15.45500 34.82600 44.56300
H  -7.76800 36.94200 41.70200
H  -8.63900 39.60200 40.46600
H  -7.52400 39.86300 43.02500
H  -6.86200 40.30300 41.46300
H  -6.59500 38.66400 42.28600
H  -8.86300 37.75300 39.00700
H  -8.87800 35.96700 39.41300
H  -6.20200 36.66000 39.97200
H  -6.62300 37.70200 38.62500
H  -10.91400 44.24700 43.11900
H  -11.59500 43.91800 41.50500
H  -10.06100 43.30000 41.92900
H  -15.83800 42.65300 43.80100
H  -15.72300 44.38000 44.00700
H  -15.42700 43.43300 45.40100
H  -17.21200 39.27400 45.16000
H  -16.51600 36.70100 46.14700
H  -17.06800 39.42200 47.52500
H  -15.45000 39.80100 47.11200
H  -15.69100 38.19400 47.68700
H  -17.41700 35.75600 43.99000
H  -17.50700 37.40700 43.30300
H  -19.42700 35.98200 45.08600
H  -19.50800 37.52700 44.06500
H  -19.00100 37.41200 45.72100
H  -14.01600 32.56000 44.76600
H  -13.08600 31.77300 43.59100
H  -14.76200 32.31600 43.23100
H  -9.51900 34.25600 40.54800
H  -6.43100 31.88900 41.99800
H  -6.02300 33.42400 42.88600
H  -5.64600 33.28000 41.17700

