158

Mg 9.03900 48.86400 25.96400
C  6.97900 48.98000 28.71300
C  11.69200 49.83900 27.81200
C  10.90000 48.67600 23.16900
C  6.11600 48.15800 23.97700
N  9.24300 49.33000 27.98600
C  8.31000 49.32400 28.96400
C  8.95500 49.60600 30.34700
C  10.25600 50.35900 29.95300
C  10.44600 49.86500 28.47100
C  10.00600 51.95900 29.94800
C  9.33600 48.27500 31.14200
C  9.63800 48.48300 32.70200
H  9.20500 47.30800 33.58900
N  10.96600 49.18500 25.54900
C  11.96100 49.50300 26.46200
C  13.30300 49.38100 25.81500
C  13.02200 49.14200 24.43700
C  11.57000 49.02100 24.35100
C  14.54100 49.56800 26.52700
C  14.00200 49.16300 23.20000
O  13.61100 49.30200 22.07200
C  15.47900 49.18200 23.41100
N  8.55600 48.60300 23.84800
C  9.54400 48.54700 22.94700
C  9.06200 48.03000 21.57600
C  7.53300 47.84800 21.79100
C  7.36900 48.16900 23.29700
C  9.33200 49.05100 20.48300
C  7.00000 46.43300 21.41300
C  5.81800 46.44900 20.48200
N  6.98000 48.70300 26.20700
C  5.93000 48.34400 25.35100
C  4.69900 48.31400 26.09700
C  5.04900 48.51400 27.45500
C  6.44400 48.73200 27.42000
C  3.34000 48.02900 25.47400
C  4.53700 48.67600 28.77700
O  3.40900 48.59400 29.26300
C  5.82500 48.89700 29.62800
C  5.94600 47.80500 30.54700
O  6.11900 46.70800 30.21200
O  5.64200 48.29000 31.81400
C  5.52600 47.29200 32.86400
H  12.45400 50.18200 28.51500
H  11.59300 48.47900 22.34900
H  5.22600 47.90800 23.39500
H  8.31500 50.23200 30.96800
H  11.16300 50.04400 30.46900
H  9.99000 52.24700 28.89700
H  10.88300 52.54400 30.22300
H  9.10600 52.11100 30.54300
H  10.21600 47.90000 30.62000
H  8.54100 47.54300 30.99700
H  9.28300 49.47400 32.98300
H  10.72500 48.41600 32.73800
H  14.28000 49.62800 27.58400
H  15.02800 50.53400 26.39600
H  15.24300 48.75300 26.35400
H  15.82400 48.18500 23.68600
H  15.71100 49.92800 24.17000
H  15.89000 49.58500 22.48500
H  9.52500 47.05300 21.43300
H  6.82900 48.58500 21.40400
H  9.72600 50.02200 20.78300
H  8.48700 49.14300 19.80000
H  10.09400 48.58700 19.85800
H  6.65900 45.96500 22.33600
H  7.80800 45.95900 20.85600
H  5.47700 47.45100 20.22000
H  4.95100 45.95000 20.91400
H  6.08100 46.00300 19.52300
H  3.23900 46.96100 25.28000
H  3.15100 48.62800 24.58400
H  2.57000 48.18700 26.22900
H  5.77200 49.88000 30.09600
H  6.27700 46.50900 32.76700
H  4.55900 46.80500 32.74100
H  5.67600 47.60200 33.89900
Mg -1.62200 34.95100 26.90600
C  -3.65000 33.06700 29.04400
C  -0.71500 36.99300 29.50200
C  -0.16300 37.05100 24.63000
C  -3.05100 33.29200 24.16200
N  -2.20300 35.10700 28.97700
C  -2.97800 34.12800 29.67600
C  -2.85300 34.42200 31.19800
C  -2.13700 35.86100 31.20000
C  -1.74600 36.06400 29.78500
C  -2.90700 37.06300 31.86000
C  -2.22400 33.30100 32.07600
C  -3.03300 32.48800 33.10000
H  -2.45400 32.42600 34.56000
N  -0.45500 36.75100 27.08900
C  -0.15800 37.32300 28.27300
C  0.71700 38.42600 27.99800
C  0.87000 38.49800 26.56100
C  0.07300 37.41600 25.99100
C  1.35500 39.27000 29.03900
C  1.73500 39.46800 25.74100
O  1.82500 39.45800 24.53400
C  2.39900 40.58800 26.48200
N  -1.49800 35.05500 24.66000
C  -0.89300 36.10800 23.96400
C  -1.20900 36.09800 22.49400
C  -2.01500 34.78100 22.35100
C  -2.18000 34.32300 23.82600
C  -1.94900 37.39400 22.08200
C  -1.41900 33.69000 21.42100
C  -0.48800 32.64200 21.97000
N  -2.91200 33.45400 26.60000
C  -3.50000 32.90800 25.43200
C  -4.43600 31.82400 25.77100
C  -4.53000 31.87000 27.21900
C  -3.58900 32.86800 27.66100
C  -5.09900 30.86100 24.82900
C  -5.20700 31.31800 28.36200
O  -6.16100 30.51600 28.36800
C  -4.51100 31.89800 29.55800
C  -5.67700 32.32200 30.44700
O  -6.20800 33.44500 30.50500
O  -5.97100 31.18700 31.19100
C  -6.97700 31.36200 32.21500
H  -0.31200 37.52800 30.36500
H  0.24300 37.77800 23.92400
H  -3.59800 32.66800 23.45200
H  -3.84500 34.59600 31.61300
H  -1.14600 35.74200 31.63800
H  -2.22300 37.66700 32.45700
H  -3.76700 36.74300 32.44900
H  -3.29600 37.70900 31.07200
H  -1.29300 33.60900 32.55100
H  -1.85200 32.58900 31.33900
H  -3.19400 31.45000 32.80900
H  -3.98200 33.02400 33.07800
H  1.36500 38.68300 29.95700
H  1.00200 40.30000 29.09200
H  2.41400 39.37000 28.80300
H  1.78900 41.16100 27.18100
H  2.74400 41.27000 25.70500
H  3.31700 40.19100 26.91500
H  -0.32000 36.19800 21.87100
H  -3.03100 34.84900 21.96000
H  -1.69400 38.21600 22.75100
H  -3.02700 37.41700 22.24000
H  -1.77500 37.71600 21.05500
H  -1.10100 34.13200 20.47700
H  -2.28200 33.14500 21.03900
H  -1.00800 31.70000 22.14300
H  -0.15200 32.96500 22.95600
H  0.40500 32.42300 21.38500
H  -5.40800 29.97500 25.38500
H  -4.37500 30.61400 24.05300
H  -5.95700 31.32100 24.33900
H  -4.03600 31.06900 30.08300
H  -6.66800 31.89000 33.11600
H  -7.42400 30.45500 32.62400
H  -7.77800 32.01700 31.87300

