158

Mg 26.46900 1.33400 29.48100
C  28.26000 1.07100 32.40500
C  23.54800 1.61100 31.35800
C  24.70400 1.56000 26.64800
C  29.39000 0.65900 27.67100
N  25.99900 1.39300 31.63900
C  26.85900 1.31100 32.65500
C  26.19300 1.56800 34.00000
C  24.66400 1.73900 33.63600
C  24.70300 1.55200 32.14700
C  23.65700 0.83000 34.46900
C  26.98600 2.65400 34.92900
C  26.13700 3.22700 36.09300
H  26.48300 2.73100 37.47700
N  24.42500 1.50000 29.03700
C  23.38800 1.62900 29.94500
C  22.08700 1.89400 29.23700
C  22.37300 1.84900 27.84100
C  23.91000 1.64300 27.80300
C  20.77200 2.08600 29.97800
C  21.46900 1.86400 26.61000
O  21.86800 1.57800 25.43900
C  19.99300 2.16000 26.78600
N  26.97200 1.06000 27.47300
C  26.06700 1.27800 26.47000
C  26.69000 1.16400 25.06100
C  28.22600 0.87000 25.37900
C  28.20900 0.81300 26.90300
C  25.98700 0.26300 24.06200
C  29.18400 1.95900 24.78400
C  29.36300 1.98000 23.25700
N  28.44500 0.86600 29.87400
C  29.55000 0.63600 29.04900
C  30.72300 0.45100 29.83400
C  30.25100 0.63200 31.14500
C  28.90100 0.92200 31.09900
C  31.95900 -0.13800 29.29000
C  30.63800 0.66300 32.50900
O  31.78600 0.63800 32.97500
C  29.42600 0.95100 33.36900
C  29.34000 -0.07500 34.38800
O  28.73200 -1.12300 34.23200
O  30.00000 0.33600 35.55300
C  29.54900 -0.50400 36.71300
H  22.63500 1.66200 31.95600
H  24.28300 1.85300 25.68400
H  30.29600 0.62500 27.06400
H  26.22800 0.62300 34.54200
H  24.37000 2.76500 33.85700
H  24.07900 0.28700 35.31500
H  23.19500 0.16100 33.74300
H  22.88800 1.54700 34.75500
H  27.46800 3.52300 34.48100
H  27.76000 2.08000 35.43900
H  25.07500 3.07900 35.89800
H  26.27600 4.30800 36.10500
H  20.16500 2.91600 29.61900
H  20.92000 2.02400 31.05700
H  20.23800 1.24900 29.52900
H  20.00700 3.22100 27.03800
H  19.54400 1.48300 27.51300
H  19.45600 1.99000 25.85300
H  26.63300 2.17700 24.66400
H  28.41600 -0.16500 25.09700
H  25.14800 -0.19900 24.58300
H  26.55400 -0.59800 23.70700
H  25.61600 0.90000 23.25900
H  30.17000 1.86400 25.23800
H  28.90800 2.98100 25.04200
H  28.94600 1.11500 22.74100
H  30.44300 1.98800 23.11700
H  28.92400 2.88200 22.83000
H  32.50400 -0.57600 30.12600
H  32.69000 0.58000 28.91800
H  31.77800 -0.90700 28.53800
H  29.66700 1.92200 33.80200
H  30.50200 -0.76900 37.17200
H  29.29600 -1.55100 36.54900
H  28.78300 0.00400 37.29800
Mg 35.39600 47.86500 24.88200
C  35.58900 46.15000 27.95600
C  33.74600 50.54000 26.52100
C  34.77000 49.38800 21.85400
C  36.64400 45.09800 23.36800
N  34.68900 48.22800 26.98800
C  35.00200 47.42300 28.10300
C  34.70100 48.24300 29.36400
C  33.94600 49.48300 28.86500
C  34.15200 49.47900 27.35500
C  32.48000 49.61700 29.38600
C  36.01400 48.50600 30.11900
C  36.10300 47.89200 31.50700
H  35.79700 48.80300 32.76400
N  34.52000 49.82400 24.28500
C  33.94700 50.75800 25.12600
C  33.50700 51.91600 24.33300
C  33.83700 51.62100 22.92300
C  34.40300 50.22700 22.93700
C  32.83600 53.15800 24.95500
C  33.56200 52.42200 21.61200
O  33.80100 52.06800 20.44200
C  33.00200 53.79900 21.72000
N  35.55700 47.24400 22.85800
C  35.31300 48.05900 21.83100
C  35.66800 47.37700 20.52500
C  36.36000 46.06000 21.02700
C  36.16600 46.08900 22.49600
C  34.41600 47.15800 19.66800
C  37.86800 45.95000 20.67600
C  38.80000 46.95400 21.28000
N  36.13000 46.01600 25.49600
C  36.61900 45.03200 24.74300
C  37.19100 43.94600 25.60600
C  36.75500 44.33300 26.87200
C  36.05800 45.56800 26.75500
C  37.80400 42.57600 25.08600
C  36.66600 43.88900 28.25300
O  37.15100 43.00000 28.93400
C  36.06000 45.20700 29.06000
C  34.95900 44.61300 29.79400
O  33.85100 44.31100 29.41300
O  35.37400 44.36200 31.05700
C  34.52200 43.48400 31.86200
H  33.16300 51.33500 26.99000
H  34.57800 49.90000 20.90800
H  37.28600 44.33800 22.91900
H  34.03400 47.59500 29.93100
H  34.38300 50.40100 29.25900
H  31.77200 49.26400 28.63600
H  32.26700 50.66400 29.60500
H  32.32300 49.10900 30.33800
H  36.02900 49.59500 30.12700
H  36.94500 48.16800 29.66500
H  37.00500 47.30300 31.67300
H  35.39100 47.06600 31.50500
H  31.82200 53.25000 24.56500
H  33.35600 54.11300 24.88700
H  32.81700 53.17400 26.04500
H  32.95000 54.31900 20.76400
H  33.69100 54.43000 22.28100
H  32.08900 53.78500 22.31500
H  36.30600 48.02200 19.92100
H  35.88400 45.14500 20.67500
H  34.49000 46.15200 19.25400
H  34.43400 47.80700 18.79300
H  33.49100 47.31800 20.22000
H  37.91300 46.11300 19.59900
H  38.27500 44.96000 20.87700
H  39.67800 47.15700 20.66700
H  39.15300 46.44100 22.17500
H  38.29400 47.89100 21.51000
H  38.70300 42.35400 25.66200
H  37.86900 42.56500 23.99800
H  36.94900 41.96000 25.36400
H  36.83600 45.59800 29.71700
H  33.80600 44.04400 32.46200
H  35.09400 43.02000 32.66500
H  34.05500 42.68800 31.28200

