158

Mg 36.20900 3.01500 30.18800
C  33.78900 3.90600 32.61500
C  38.46000 2.48400 32.66500
C  38.49500 2.62000 27.82900
C  33.75300 3.41200 27.71200
N  36.04000 3.15300 32.39900
C  35.05500 3.61000 33.19400
C  35.51200 3.53400 34.65000
C  37.01700 3.41500 34.57600
C  37.19500 2.94900 33.11600
C  37.77500 4.82800 34.83700
C  34.77000 2.29400 35.24200
C  34.11800 2.47900 36.58200
H  34.95500 3.31100 37.51400
N  38.25100 2.50700 30.24500
C  38.98100 2.32100 31.37100
C  40.33400 2.05000 31.00300
C  40.34100 2.07700 29.58000
C  38.94600 2.39600 29.14700
C  41.39100 1.72100 32.07500
C  41.45800 1.80500 28.63700
O  41.31700 1.76000 27.41800
C  42.70600 1.26600 29.27600
N  36.17200 3.06400 28.07900
C  37.19700 2.80900 27.36300
C  36.92300 2.89600 25.87100
C  35.35200 2.86000 25.84100
C  35.01900 3.12600 27.32000
C  37.53000 4.14500 25.23300
C  34.69200 1.45800 25.40500
C  33.47300 1.65100 24.43900
N  34.18700 3.65600 30.12200
C  33.30600 3.71400 29.08100
C  31.97900 4.09400 29.58700
C  32.14500 4.20800 30.97400
C  33.46000 3.89000 31.23400
C  30.67200 4.13400 28.81300
C  31.42700 4.42400 32.20000
O  30.22600 4.64500 32.37900
C  32.44600 4.18000 33.34100
C  32.54000 5.35800 34.28800
O  33.24400 6.36500 34.18000
O  31.79700 5.16500 35.42800
C  31.79100 6.24700 36.43100
H  39.22500 2.60200 33.43600
H  39.22400 2.56100 27.01700
H  33.05600 3.39900 26.87100
H  35.33700 4.46600 35.18600
H  37.35000 2.67000 35.29900
H  37.06600 5.63300 34.64400
H  38.53900 4.96500 34.07200
H  38.22700 4.93200 35.82300
H  35.51400 1.50400 35.34500
H  33.95800 1.96600 34.59200
H  33.94600 1.53200 37.09400
H  33.16400 2.97100 36.39700
H  41.77800 2.64200 32.51000
H  42.31300 1.25400 31.72800
H  40.98800 0.98500 32.77000
H  43.36700 1.04700 28.43800
H  42.33000 0.35600 29.74500
H  43.07400 2.06900 29.91500
H  37.37400 1.97700 25.49600
H  34.91800 3.68800 25.28100
H  38.04600 4.90300 25.82300
H  36.76400 4.70100 24.69100
H  38.31700 3.88200 24.52600
H  34.31500 0.87300 26.24400
H  35.49500 0.91200 24.90900
H  33.39600 2.58800 23.88800
H  32.59700 1.56600 25.08100
H  33.34700 0.94600 23.61800
H  29.78100 4.44300 29.36000
H  30.51800 3.17900 28.31200
H  30.76800 4.72600 27.90200
H  32.31300 3.30900 33.98300
H  32.61600 6.07400 37.12200
H  30.81300 6.15400 36.90300
H  31.79500 7.26000 36.02800
Mg -10.83300 17.24200 41.08800
C  -7.25500 17.13800 40.89500
C  -10.60400 20.50000 40.30900
C  -13.94100 17.03400 40.01100
C  -10.72000 13.73500 41.18300
N  -9.09500 18.55300 40.38600
C  -7.75900 18.37700 40.60300
C  -6.96900 19.56900 40.14900
C  -8.02600 20.68300 40.42500
C  -9.34700 19.86700 40.37600
C  -7.82200 21.56100 41.75600
C  -6.54400 19.40000 38.60400
C  -5.08000 19.08400 38.43200
H  -4.76500 17.93500 37.49300
N  -12.13600 18.61100 40.20800
C  -11.89400 19.93800 40.15100
C  -13.05100 20.65400 39.81200
C  -14.08700 19.66200 39.77900
C  -13.44000 18.33300 40.04500
C  -12.99300 22.13700 39.47000
C  -15.59700 19.92500 39.28300
O  -15.95300 21.08100 38.94300
C  -16.59200 18.76600 39.16600
N  -12.14300 15.48400 40.48400
C  -13.38800 15.72700 40.20200
C  -14.24300 14.46100 40.25800
C  -13.21900 13.35400 40.70500
C  -12.00300 14.22900 40.86500
C  -15.57200 14.52900 41.02500
C  -12.95700 12.03800 39.93900
C  -13.60100 10.82600 40.58500
N  -9.42400 15.67600 41.40500
C  -9.50200 14.33000 41.48800
C  -8.15300 13.80400 41.74300
C  -7.31300 14.86900 41.51900
C  -8.08700 16.01300 41.27300
C  -7.74100 12.38700 41.94400
C  -5.83700 15.20000 41.50200
O  -4.84500 14.46600 41.59000
C  -5.76300 16.76200 41.17200
C  -5.15200 17.53400 42.36200
O  -3.96100 17.72100 42.41400
O  -6.12100 17.95600 43.27100
C  -5.53800 18.72900 44.38100
H  -10.62100 21.58400 40.17700
H  -15.02800 17.10200 40.08900
H  -10.68400 12.67600 41.44400
H  -6.05800 19.61500 40.74500
H  -8.03600 21.35600 39.56700
H  -6.87300 21.33600 42.24300
H  -8.59600 21.34000 42.49100
H  -7.88600 22.63200 41.56600
H  -6.70700 20.32300 38.04900
H  -7.08800 18.58800 38.12200
H  -4.66300 19.08000 39.43900
H  -4.57000 19.93800 37.98700
H  -13.01400 22.65500 40.42900
H  -13.86700 22.53700 38.95600
H  -12.10000 22.40400 38.90500
H  -16.26000 17.98400 38.48200
H  -17.49200 19.08200 38.64000
H  -16.95700 18.47600 40.15100
H  -14.51400 14.26900 39.22000
H  -13.50100 13.05900 41.71600
H  -16.32800 14.25200 40.29000
H  -15.85900 15.46500 41.50400
H  -15.56300 13.71700 41.75200
H  -11.88500 11.88600 39.81100
H  -13.40200 12.24600 38.96600
H  -14.40800 10.41300 39.98000
H  -13.86100 11.01300 41.62700
H  -12.76900 10.12300 40.62200
H  -8.62100 11.75800 41.81000
H  -7.45300 12.29700 42.99200
H  -6.93100 11.93900 41.36800
H  -5.05700 16.87800 40.35000
H  -6.33800 18.83800 45.11300
H  -5.15500 19.69900 44.06200
H  -4.68100 18.23200 44.83600

