158

Mg 40.90000 8.37700 29.25700
C  42.43900 9.78300 32.09900
C  38.49100 7.01000 31.28400
C  39.68400 6.97200 26.50400
C  43.85600 9.30200 27.54500
N  40.53900 8.33500 31.51700
C  41.23600 9.10500 32.44500
C  40.47800 9.11900 33.81700
C  39.33700 8.12500 33.52500
C  39.43900 7.79400 31.98600
C  39.45900 6.68800 34.21600
C  40.07300 10.50300 34.32700
C  39.97900 10.57700 35.83600
H  40.95100 11.49300 36.61800
N  39.20200 7.17600 28.93300
C  38.33400 6.70600 29.90900
C  37.26100 6.02400 29.22400
C  37.56000 6.03400 27.87000
C  38.86300 6.69400 27.70500
C  36.08400 5.38400 29.92800
C  36.68100 5.53300 26.73100
O  36.97700 5.61000 25.55100
C  35.22200 5.06900 27.01500
N  41.67100 8.20500 27.34800
C  40.92400 7.61700 26.35200
C  41.65200 7.58000 25.03900
C  42.89000 8.62900 25.23200
C  42.81800 8.68400 26.84700
C  42.16200 6.20700 24.53100
C  42.92700 9.92900 24.44800
C  42.15800 11.08700 25.01500
N  42.78700 9.32800 29.70000
C  43.76000 9.71700 28.86700
C  44.70600 10.62200 29.59300
C  44.26600 10.63700 30.92400
C  43.05100 9.85000 30.90100
C  45.87300 11.30700 29.04900
C  44.53900 11.14900 32.25400
O  45.44600 11.75200 32.73500
C  43.35000 10.50800 33.07300
C  44.05300 9.61400 34.04600
O  44.79100 8.71100 33.69700
O  43.56200 9.84200 35.31400
C  43.95900 8.84000 36.31700
H  37.60900 6.80500 31.89300
H  39.29900 6.57800 25.56100
H  44.55400 9.88600 26.94100
H  41.08300 8.60900 34.56600
H  38.33100 8.42000 33.82400
H  39.92100 5.93100 33.58200
H  38.47500 6.26200 34.41200
H  40.02600 6.64000 35.14600
H  39.11500 10.75300 33.87100
H  40.72200 11.20200 33.79800
H  40.00600 9.58200 36.28100
H  38.96000 10.92400 36.00500
H  35.09900 5.75700 29.64600
H  36.19000 5.46700 31.00900
H  36.12500 4.33100 29.64700
H  35.20000 4.09100 27.49600
H  34.72700 5.03800 26.04400
H  34.81300 5.88600 27.61000
H  41.11200 8.03300 24.20800
H  43.75100 8.03700 24.92100
H  41.84600 6.09900 23.49400
H  41.70600 5.35300 25.03100
H  43.24500 6.08500 24.56100
H  42.40500 9.61300 23.54500
H  43.94900 10.15100 24.13800
H  41.66200 11.55700 24.16600
H  42.91500 11.70200 25.50300
H  41.46800 10.77600 25.80000
H  45.87800 11.36900 27.96100
H  46.71700 10.65400 29.27100
H  46.00400 12.27400 29.53500
H  42.93800 11.39400 33.55600
H  43.75700 9.12800 37.34800
H  45.02900 8.63500 36.28100
H  43.32100 7.97000 36.16600
Mg 40.86700 41.22700 27.20500
C  40.24100 43.55600 29.80200
C  41.39000 38.92500 29.67900
C  42.17300 39.21000 24.92900
C  40.68300 43.81000 24.92100
N  40.79000 41.29800 29.44700
C  40.33400 42.25000 30.26500
C  40.26000 41.84600 31.76000
C  40.69200 40.35800 31.67500
C  41.01300 40.16000 30.17900
C  41.98900 39.93700 32.53500
C  38.91100 42.18500 32.50200
C  38.40900 41.21000 33.52400
H  37.87500 41.86000 34.68900
N  41.61400 39.30400 27.29400
C  41.68800 38.48000 28.35900
C  42.33000 37.21800 28.04900
C  42.63300 37.32300 26.69700
C  42.19700 38.68000 26.25500
C  42.59100 36.07600 29.03900
C  43.25200 36.22400 25.78500
O  43.66800 36.35000 24.62900
C  43.39500 34.90800 26.32800
N  41.43500 41.48900 25.19500
C  41.86800 40.46100 24.38800
C  42.01100 40.92000 22.89500
C  41.39100 42.37700 22.98900
C  41.14900 42.57900 24.44300
C  43.36900 40.88000 22.30400
C  40.17700 42.53700 22.10300
C  38.84600 41.83400 22.63700
N  40.40900 43.22400 27.26900
C  40.47100 44.17200 26.28700
C  40.15700 45.46200 26.82800
C  40.06600 45.28600 28.23300
C  40.23000 43.89400 28.40600
C  40.02000 46.75300 26.08900
C  39.80900 45.86100 29.45700
O  39.60300 47.01100 29.81700
C  39.90300 44.77300 30.58800
C  41.01400 45.14000 31.48800
O  42.19500 45.32100 31.25500
O  40.50500 45.27300 32.76400
C  41.42700 45.69500 33.82100
H  41.53200 38.20400 30.48700
H  42.67300 38.50900 24.25700
H  40.73200 44.50300 24.07800
H  41.09500 42.29600 32.29800
H  39.86400 39.69200 31.91700
H  41.68900 39.02200 33.04600
H  42.26900 40.70700 33.25500
H  42.85800 39.75900 31.90200
H  38.07300 42.24800 31.80900
H  39.02600 43.16900 32.95600
H  39.25600 40.62000 33.87300
H  37.71500 40.51100 33.05700
H  42.54000 36.39800 30.08000
H  43.50600 35.49400 28.92700
H  41.88000 35.26500 28.88200
H  42.52700 34.54900 26.88100
H  44.18000 35.06100 27.06900
H  43.61600 34.11200 25.61700
H  41.40400 40.30600 22.23000
H  42.18100 43.06700 22.69400
H  43.39200 41.75900 21.66100
H  43.37800 40.02000 21.63300
H  44.15800 40.83400 23.05500
H  40.40700 41.94900 21.21500
H  40.01000 43.59000 21.87900
H  38.57800 41.09700 21.88000
H  38.05900 42.53000 22.92500
H  39.05300 41.32500 23.57800
H  39.70900 46.55900 25.06300
H  41.01700 47.19300 26.10800
H  39.35400 47.51800 26.48900
H  39.00600 44.70200 31.20400
H  41.98200 46.57300 33.49000
H  42.20100 44.93000 33.88800
H  40.96800 45.92900 34.78100

