158

Mg 24.51800 -4.77500 46.55600
C  26.43500 -2.49600 44.87900
C  22.19100 -4.42900 44.06400
C  22.84900 -7.48800 47.88300
C  27.49500 -5.85500 48.42400
N  24.24800 -3.49100 44.75900
C  25.16000 -2.53600 44.32500
C  24.69600 -1.86600 43.00600
C  23.17600 -2.36100 42.94900
C  23.17200 -3.49700 43.96200
C  22.12000 -1.25400 43.36300
C  25.54600 -2.32600 41.76200
C  26.24600 -1.17300 41.03100
H  25.74900 -1.07400 39.58000
N  22.73500 -5.71700 46.16300
C  21.92100 -5.44800 45.05500
C  20.81700 -6.31500 45.01200
C  20.87400 -7.01100 46.25900
C  22.20700 -6.75800 46.88300
C  19.68500 -6.16700 43.99100
C  19.71800 -7.92300 46.75700
O  18.69300 -8.02000 46.11500
C  19.79700 -8.62000 47.99700
N  25.04800 -6.44400 47.96900
C  24.14500 -7.35000 48.40300
C  24.87500 -8.33700 49.32200
C  26.40100 -7.96800 49.37200
C  26.30400 -6.65900 48.62400
C  24.26400 -8.49800 50.77500
C  27.39700 -9.02800 48.75700
C  28.51600 -9.44700 49.77200
N  26.53100 -4.15200 46.88300
C  27.61200 -4.72400 47.58100
C  28.79000 -3.98200 47.21100
C  28.40100 -3.12000 46.17400
C  27.04600 -3.33000 45.95500
C  30.10900 -4.14000 47.79400
C  28.86800 -2.10000 45.27600
O  29.91100 -1.40800 45.19900
C  27.66000 -1.64400 44.35200
C  27.49200 -0.15800 44.63600
O  26.86400 0.29800 45.58300
O  28.20100 0.54000 43.76000
C  28.06100 1.97600 43.84900
H  21.43500 -4.23200 43.30100
H  22.30800 -8.35900 48.25700
H  28.38400 -6.25100 48.92100
H  24.65600 -0.78300 43.11400
H  22.81200 -2.77200 42.00700
H  22.60000 -0.41600 43.86700
H  21.41800 -1.55500 44.14100
H  21.47300 -0.98300 42.52800
H  24.97300 -2.89100 41.02700
H  26.39100 -2.89500 42.15100
H  27.31300 -1.39500 41.03100
H  26.04600 -0.19300 41.46600
H  19.99200 -5.78500 43.01800
H  18.81000 -5.70400 44.44800
H  19.34400 -7.14300 43.64500
H  20.17000 -7.91100 48.73500
H  20.29900 -9.58400 47.90900
H  18.79300 -8.78300 48.39000
H  24.84400 -9.33500 48.88300
H  26.50300 -7.83100 50.44900
H  24.77000 -7.91300 51.54400
H  24.29000 -9.56100 51.01300
H  23.21500 -8.27300 50.58600
H  27.91500 -8.62700 47.88600
H  26.96000 -9.91800 48.30400
H  29.46300 -9.84600 49.41000
H  27.99400 -9.96600 50.57500
H  28.76800 -8.48400 50.21600
H  30.01300 -4.28400 48.87000
H  30.75100 -3.26700 47.67800
H  30.61500 -5.01800 47.39200
H  27.82000 -1.82900 43.29000
H  28.23700 2.33900 42.83600
H  28.84800 2.39400 44.47700
H  27.07200 2.30800 44.16700
Mg 41.36400 41.60100 26.48700
C  40.76300 43.74200 29.18300
C  42.90200 39.39600 28.75400
C  42.04500 39.48900 23.98900
C  40.67600 44.05200 24.24400
N  41.70700 41.54500 28.72000
C  41.31600 42.48400 29.55500
C  41.48800 42.03600 31.03600
C  42.57300 40.76700 30.89700
C  42.43500 40.53900 29.39000
C  43.99000 41.03500 31.40800
C  40.18500 41.88200 31.90100
C  40.07200 42.72000 33.18900
H  39.83800 41.90700 34.48300
N  42.31500 39.70400 26.41500
C  42.86000 38.98800 27.41000
C  43.37200 37.75200 26.94600
C  43.17800 37.71200 25.54800
C  42.47700 39.02400 25.25400
C  44.08500 36.62800 27.79400
C  43.57200 36.62500 24.52100
O  43.45500 36.80700 23.34200
C  44.13000 35.34000 25.03400
N  41.41400 41.76100 24.39400
C  41.71200 40.70000 23.51900
C  41.31700 41.05100 22.04800
C  41.00600 42.63200 22.18200
C  40.97800 42.83600 23.64700
C  42.33900 40.66700 21.03200
C  39.66900 43.06100 21.49900
C  39.85300 44.29000 20.60200
N  40.80000 43.50400 26.62000
C  40.60700 44.39100 25.58500
C  40.22000 45.61600 26.15100
C  40.23800 45.44500 27.56600
C  40.60600 44.12900 27.81600
C  39.95300 46.82200 25.37000
C  39.96700 46.04800 28.90500
O  39.53200 47.19100 29.19800
C  40.29400 44.99900 29.90300
C  41.41300 45.51800 30.78000
O  42.55500 45.14900 30.74100
O  40.92100 46.41200 31.72900
C  41.81900 46.80600 32.78900
H  43.29900 38.72600 29.52000
H  42.22500 38.80900 23.15300
H  40.32200 44.80000 23.53200
H  42.10400 42.82600 31.46700
H  42.16000 39.90600 31.42100
H  44.18800 42.09700 31.26100
H  44.66800 40.32200 30.93800
H  44.00500 40.88600 32.48800
H  40.09400 40.83100 32.17700
H  39.36800 42.11400 31.21800
H  39.26100 43.43700 33.05700
H  41.00300 43.26600 33.34100
H  45.08200 36.56800 27.35600
H  43.48400 35.71900 27.79500
H  44.08700 36.97900 28.82600
H  43.43700 34.80100 25.68000
H  45.06900 35.51400 25.56000
H  44.47700 34.69000 24.23100
H  40.38100 40.58600 21.73900
H  41.85000 43.21600 21.81400
H  42.81200 41.53600 20.57600
H  41.79600 40.15300 20.23800
H  43.05000 40.14200 21.67000
H  38.93300 43.26700 22.27600
H  39.19900 42.26900 20.91600
H  40.15500 45.12800 21.23000
H  38.94800 44.61500 20.08800
H  40.54800 44.12500 19.77800
H  40.81500 46.82400 24.70300
H  39.99800 47.76700 25.91100
H  39.03600 46.67200 24.80000
H  39.45400 44.73700 30.54700
H  42.24500 47.80000 32.65100
H  42.60400 46.10200 33.06500
H  41.11600 46.99900 33.60000

