158

Mg -2.87000 17.82000 27.32100
C  -2.90000 15.61600 29.93900
C  -3.17200 20.42900 29.34900
C  -3.06100 19.72400 24.46600
C  -2.69300 14.84100 25.13000
N  -3.06700 17.95700 29.39400
C  -2.89000 16.99500 30.31800
C  -3.15500 17.53900 31.74900
C  -3.26600 19.06800 31.53700
C  -3.18800 19.16800 29.98500
C  -4.55900 19.71800 32.07700
C  -2.06100 17.09500 32.77800
C  -1.80500 17.91000 34.03400
H  -1.87400 17.20400 35.40000
N  -2.92200 19.81100 26.96100
C  -3.02600 20.73900 27.92800
C  -3.19800 22.09100 27.33100
C  -2.93000 21.85700 25.91200
C  -3.01900 20.38400 25.70600
C  -3.41200 23.41400 28.13200
C  -2.53400 22.86400 24.81900
O  -2.43800 22.53500 23.65700
C  -2.22300 24.31900 25.19100
N  -3.04000 17.31600 25.10500
C  -3.14700 18.31800 24.16000
C  -3.25500 17.67500 22.69700
C  -3.03800 16.17300 22.95200
C  -2.93300 16.07600 24.47000
C  -4.43000 18.08000 21.87700
C  -1.73300 15.52900 22.32000
C  -0.45300 15.92100 22.85600
N  -2.89700 15.63900 27.44800
C  -2.63600 14.61700 26.49800
C  -2.67800 13.33800 27.17600
C  -2.87900 13.68800 28.52400
C  -2.85500 15.07000 28.64200
C  -2.62200 11.99800 26.52100
C  -3.12800 13.14100 29.79900
O  -3.17300 11.91900 30.16800
C  -2.99200 14.39200 30.77600
C  -1.80100 14.25200 31.58900
O  -0.67800 14.66600 31.27200
O  -2.13900 13.29300 32.55400
C  -1.06600 12.93500 33.48700
H  -2.96200 21.30400 29.96800
H  -3.00800 20.25900 23.51600
H  -2.45100 13.91300 24.60800
H  -4.08100 17.08100 32.09600
H  -2.45300 19.62600 32.00000
H  -5.25800 20.02200 31.29800
H  -4.26200 20.47900 32.79800
H  -5.10700 19.03100 32.72100
H  -1.13600 17.05600 32.20200
H  -2.39100 16.11200 33.11300
H  -2.59500 18.66000 34.00200
H  -0.84700 18.35800 33.77100
H  -3.94800 24.10700 27.48300
H  -2.52600 24.01200 28.34500
H  -3.94600 23.23400 29.06500
H  -3.11300 24.86200 25.51000
H  -2.06700 24.70900 24.18500
H  -1.34800 24.58000 25.78700
H  -2.36900 18.18000 22.31100
H  -3.88100 15.67800 22.47000
H  -4.93500 17.19700 21.48600
H  -4.30000 18.58700 20.92100
H  -5.13300 18.68400 22.45000
H  -1.65000 15.70100 21.24700
H  -1.82200 14.45800 22.50100
H  -0.13000 14.94500 23.21700
H  -0.52400 16.68200 23.63300
H  0.24800 16.23100 22.08100
H  -3.46600 11.94100 25.83400
H  -2.71300 11.10500 27.13900
H  -1.66200 11.87700 26.01800
H  -3.96300 14.35600 31.26900
H  -0.09300 13.13400 33.03700
H  -1.15800 11.91900 33.87000
H  -1.14200 13.61300 34.33800
Mg 49.81600 45.83200 41.56300
C  46.58400 46.00800 40.34300
C  49.97400 42.54300 40.73100
C  53.10700 45.80500 42.44400
C  49.66200 49.22700 42.11200
N  48.44200 44.48300 40.45100
C  47.13600 44.73800 40.16700
C  46.44900 43.38300 39.75700
C  47.40800 42.29800 40.34000
C  48.70000 43.16400 40.51800
C  47.03900 41.75900 41.72500
C  46.28800 43.24900 38.16800
C  44.83800 43.07500 37.66600
H  44.43400 43.88500 36.41800
N  51.41400 44.35100 41.56100
C  51.27600 43.07600 41.12100
C  52.55600 42.37600 41.14600
C  53.47600 43.35700 41.58700
C  52.65300 44.55400 41.90700
C  52.79500 40.88600 40.65900
C  54.96500 43.15300 41.68100
O  55.46300 42.12400 41.20600
C  55.88700 44.05800 42.33200
N  51.20300 47.31000 42.25700
C  52.52800 47.09300 42.61200
C  53.22600 48.35700 43.06300
C  52.05800 49.46600 42.89500
C  50.90600 48.57800 42.42000
C  53.72200 48.21800 44.55000
C  52.40400 50.61600 41.90000
C  52.02200 52.04500 42.43300
N  48.45000 47.37900 41.34700
C  48.50400 48.71100 41.60400
C  47.19600 49.34700 41.36800
C  46.38600 48.32700 40.86800
C  47.22100 47.18700 40.83300
C  46.73100 50.80400 41.66500
C  45.04600 47.96900 40.38700
O  43.99900 48.62600 40.31100
C  45.12400 46.37600 39.97800
C  44.03300 45.72200 40.75900
O  44.10200 45.14400 41.82800
O  42.84200 45.84700 40.08900
C  41.72100 45.14600 40.71600
H  49.94400 41.45400 40.66300
H  54.15400 45.80100 42.75400
H  49.65700 50.31600 42.19000
H  45.46100 43.40000 40.21700
H  47.51600 41.40700 39.72100
H  46.50600 40.82000 41.57400
H  46.54800 42.55300 42.28800
H  47.94300 41.53200 42.29000
H  46.85500 42.39600 37.79400
H  46.61900 44.16800 37.68400
H  44.08400 43.21800 38.44000
H  44.64600 42.03200 37.41500
H  53.43200 40.92300 39.77500
H  51.79500 40.51900 40.42900
H  53.25500 40.34200 41.48400
H  55.63900 44.23900 43.37800
H  55.78800 45.00300 41.79700
H  56.88200 43.61600 42.36600
H  54.04600 48.47100 42.35400
H  51.81800 49.95100 43.84100
H  54.29200 47.29100 44.62700
H  52.87500 48.15200 45.23200
H  54.38300 49.00800 44.90700
H  52.01900 50.51400 40.88500
H  53.48200 50.66100 41.74600
H  51.89500 52.77900 41.63700
H  52.82600 52.41100 43.07200
H  51.12900 51.97300 43.05300
H  46.13400 50.82100 42.57700
H  46.10000 51.25000 40.89500
H  47.62800 51.41800 41.58900
H  45.04000 46.31500 38.89300
H  41.63300 45.27700 41.79500
H  41.76100 44.08200 40.48400
H  40.79200 45.48200 40.25500

