158

Mg 47.11500 25.59600 28.13300
C  48.10800 27.67100 30.68200
C  46.05000 23.37700 30.37800
C  46.60700 23.38200 25.58100
C  49.13900 27.45400 25.95700
N  46.97300 25.59700 30.29900
C  47.40300 26.60100 31.16700
C  47.08500 26.24700 32.64100
C  46.46900 24.85300 32.54400
C  46.48300 24.55400 30.94800
C  47.21500 23.78300 33.44000
C  46.11000 27.23200 33.29600
C  46.41000 27.83500 34.61900
H  45.41400 27.74100 35.77600
N  46.17300 23.76200 28.00600
C  45.82900 22.96400 29.08200
C  45.30900 21.66400 28.57800
C  45.39300 21.73900 27.11900
C  46.09900 22.99000 26.84400
C  44.73500 20.56000 29.50700
C  44.82100 20.83900 26.11600
O  44.88300 20.96100 24.87400
C  44.06700 19.68700 26.58800
N  47.77600 25.45400 26.06600
C  47.35200 24.52600 25.18700
C  47.93700 24.71300 23.76400
C  48.60000 26.12100 23.91600
C  48.52400 26.37900 25.41500
C  48.86400 23.53400 23.39300
C  47.92800 27.29600 23.13300
C  48.77900 28.02600 22.08300
N  48.29800 27.22200 28.25900
C  49.12300 27.83000 27.31400
C  49.72500 29.06200 27.90100
C  49.37700 28.94700 29.23000
C  48.49800 27.84700 29.40600
C  50.65000 29.97000 27.21000
C  49.64500 29.55000 30.49300
O  50.40100 30.47300 30.75300
C  48.83800 28.73200 31.52400
C  49.80700 28.18200 32.49100
O  50.58800 27.22800 32.33600
O  49.70100 28.82700 33.71300
C  50.32100 28.15900 34.91800
H  45.82600 22.58700 31.09800
H  46.51700 22.61800 24.80600
H  49.64000 28.14100 25.27200
H  48.07000 26.36400 33.09400
H  45.40200 24.82000 32.76200
H  47.60700 24.36800 34.27100
H  48.07300 23.43400 32.86400
H  46.57800 22.99500 33.84200
H  45.10500 26.81300 33.33900
H  45.98200 28.09000 32.63600
H  46.70600 28.88300 34.57400
H  47.30900 27.38800 35.04300
H  43.64600 20.57500 29.49300
H  45.08800 20.64100 30.53500
H  45.00400 19.56600 29.15000
H  44.94800 19.10900 26.86700
H  43.52400 19.18500 25.78800
H  43.37200 19.86800 27.40800
H  47.06500 24.69700 23.11000
H  49.63300 26.12700 23.56800
H  49.15500 23.09500 24.34700
H  49.76700 23.78300 22.83400
H  48.38200 22.76600 22.78800
H  47.52300 28.00300 23.85800
H  47.10100 26.91800 22.53200
H  48.32600 27.90000 21.09900
H  49.80700 27.66400 22.07400
H  48.82600 29.10400 22.24000
H  50.06400 30.45200 26.42700
H  51.47100 29.46600 26.70100
H  51.02900 30.54500 28.05500
H  48.11800 29.41300 31.97700
H  50.67500 27.16000 34.66200
H  49.51400 28.08300 35.64800
H  50.99600 28.80500 35.47800
Mg 1.61300 41.91100 26.13900
C  3.22200 42.10900 29.33200
C  -1.20800 40.91400 27.75400
C  0.55300 40.94100 23.27200
C  4.89400 42.35500 24.65900
N  1.06600 41.60500 28.33900
C  1.80800 41.98200 29.46400
C  0.96100 41.91000 30.71500
C  -0.48400 41.64300 30.12600
C  -0.21900 41.34200 28.62300
C  -1.41600 40.65500 30.92700
C  1.22900 43.14600 31.62000
C  0.16800 43.68000 32.64700
H  -0.31000 42.62200 33.70700
N  -0.13200 41.02500 25.59400
C  -1.19900 40.74500 26.37500
C  -2.27700 40.25600 25.48600
C  -1.85300 40.27700 24.13400
C  -0.40100 40.78000 24.27100
C  -3.57500 39.81200 26.04800
C  -2.55300 40.00800 22.86600
O  -1.93700 40.10000 21.78600
C  -4.02300 39.56800 22.92400
N  2.59600 41.65300 24.20700
C  1.79900 41.41400 23.23200
C  2.67900 41.23100 21.89000
C  3.94900 42.08500 22.25800
C  3.79100 42.06000 23.82700
C  2.98200 39.79000 21.56600
C  3.91900 43.46100 21.59500
C  2.65000 44.32100 21.94600
N  3.59600 42.24600 26.77400
C  4.81700 42.30400 26.09500
C  5.92700 42.39000 27.07000
C  5.33000 42.21300 28.34700
C  3.94400 42.18300 28.08500
C  7.38800 42.71600 26.78400
C  5.56200 42.15000 29.75000
O  6.66000 42.02900 30.35400
C  4.16400 42.19300 30.48500
C  4.07300 41.02600 31.45700
O  4.01300 39.84500 31.03600
O  4.07600 41.41700 32.73900
C  4.35200 40.35000 33.68800
H  -2.14700 40.70400 28.27000
H  0.29900 40.41800 22.34700
H  5.79900 42.73400 24.18100
H  1.19700 40.96800 31.21000
H  -0.96800 42.61800 30.17000
H  -0.96100 40.28900 31.84700
H  -1.65400 39.78800 30.31100
H  -2.33700 41.18000 31.18000
H  1.50100 44.01300 31.01800
H  2.07300 42.88300 32.25800
H  -0.74800 44.18000 32.33000
H  0.72800 44.35600 33.29300
H  -3.73000 38.77900 25.73700
H  -4.47300 40.31500 25.68900
H  -3.56000 39.81700 27.13800
H  -4.25800 39.48700 21.86200
H  -4.69300 40.32200 23.33400
H  -4.23800 38.64700 23.46500
H  2.08500 41.67600 21.09100
H  4.82700 41.56700 21.87400
H  3.96900 39.56400 21.16300
H  2.27100 39.53800 20.77900
H  2.71500 39.19600 22.44100
H  3.89000 43.25100 20.52600
H  4.80600 43.98600 21.94800
H  1.75700 43.71200 22.08300
H  2.44600 44.93200 21.06600
H  2.91800 44.94600 22.79800
H  7.61500 43.68300 27.23100
H  7.57700 42.74500 25.71000
H  8.12100 42.01200 27.17700
H  4.12300 43.13200 31.03700
H  5.37400 39.99000 33.80500
H  3.63400 39.57500 33.41800
H  4.08900 40.63600 34.70700

