158

Mg 2.04700 -1.56800 45.14300
C  5.43100 -0.40300 44.69700
C  0.99100 1.20600 43.44300
C  -0.86100 -3.14400 44.55900
C  3.47200 -4.46000 46.56500
N  3.09600 0.11000 44.07300
C  4.49700 0.44700 44.06600
C  4.73500 1.79600 43.35100
C  3.24300 2.52400 43.41800
C  2.38800 1.24600 43.70000
C  3.03500 3.57200 44.55400
C  5.38700 1.50600 42.00500
C  4.59200 1.85000 40.72500
H  5.36300 1.46100 39.43200
N  0.33700 -0.99500 44.12400
C  0.10100 0.15200 43.44700
C  -1.26800 0.15300 42.92300
C  -1.76700 -1.15700 43.25300
C  -0.70800 -1.84300 43.95500
C  -2.00900 1.25900 42.26300
C  -3.22100 -1.58400 43.09800
O  -4.03600 -0.89800 42.45800
C  -3.86400 -2.82400 43.58900
N  1.45100 -3.51900 45.44900
C  0.14000 -3.85500 45.28500
C  -0.08900 -5.28900 45.89800
C  1.27700 -5.75900 46.40200
C  2.10200 -4.47100 46.21600
C  -1.17200 -5.44700 47.02700
C  1.93400 -6.77200 45.44800
C  1.56400 -8.28600 45.56900
N  4.06900 -2.28500 45.69000
C  4.45400 -3.48000 46.17800
C  5.86600 -3.51600 46.40700
C  6.30800 -2.29800 45.86000
C  5.18200 -1.59700 45.37400
C  6.68900 -4.62200 46.99700
C  7.43400 -1.48300 45.56300
O  8.62100 -1.62700 45.86300
C  6.93600 -0.24000 44.80400
C  7.18400 0.92100 45.72600
O  7.18300 0.93400 46.95600
O  7.84300 1.87100 45.05600
C  8.56300 2.92300 45.75300
H  0.70000 2.20500 43.11200
H  -1.75300 -3.77000 44.49200
H  4.00900 -5.35500 46.88600
H  5.50100 2.42800 43.80100
H  2.85900 2.96500 42.49900
H  3.85900 3.67100 45.26100
H  2.08600 3.52500 45.08900
H  3.05800 4.52400 44.02300
H  5.50400 0.44000 41.81400
H  6.38200 1.93900 41.90100
H  4.36900 2.91500 40.66200
H  3.69100 1.23900 40.78400
H  -2.82800 1.55000 42.92000
H  -2.44300 0.97400 41.30400
H  -1.31700 2.09400 42.14900
H  -3.41600 -3.72000 43.16000
H  -4.88900 -3.00700 43.26600
H  -3.90800 -2.91600 44.67400
H  -0.47300 -5.80200 45.01700
H  1.33500 -5.95100 47.47300
H  -0.73600 -5.99500 47.86300
H  -2.06200 -5.97600 46.68700
H  -1.41400 -4.45500 47.40800
H  3.01900 -6.70500 45.36400
H  1.53500 -6.46600 44.48100
H  1.08800 -8.69400 44.67800
H  0.87600 -8.35200 46.41100
H  2.48400 -8.86300 45.66000
H  7.75400 -4.48000 46.81100
H  6.29300 -5.57500 46.64700
H  6.54000 -4.69300 48.07500
H  7.38300 -0.19400 43.81100
H  8.58800 3.79300 45.09700
H  9.60500 2.61900 45.85800
H  8.10200 3.26600 46.67900
Mg 17.18700 50.42900 26.24800
C  19.07500 49.05100 28.85500
C  14.90100 51.47500 28.46900
C  15.64000 51.65800 23.64000
C  19.65200 48.96600 23.94200
N  17.08700 50.31500 28.40000
C  17.94900 49.80300 29.28900
C  17.55300 50.11500 30.77300
C  15.96700 50.26600 30.60800
C  15.89200 50.70000 29.11700
C  15.11600 49.13000 31.13300
C  18.15800 51.44900 31.26400
C  18.43300 51.37800 32.72900
H  17.49400 50.76600 33.63900
N  15.56800 51.52200 26.05200
C  14.75400 51.90500 27.08100
C  13.67600 52.78900 26.54300
C  13.95700 52.97900 25.15500
C  15.12200 52.01100 24.89100
C  12.63600 53.47900 27.48100
C  13.24200 53.86300 24.10600
O  13.58800 53.91500 22.92900
C  12.20800 54.90400 24.52200
N  17.55200 50.24300 24.12800
C  16.68800 50.82900 23.26500
C  16.93700 50.41900 21.78600
C  18.39800 49.92400 21.89600
C  18.50900 49.67300 23.40700
C  15.87300 49.40500 21.37800
C  19.41200 50.90600 21.29800
C  20.45000 50.23300 20.36500
N  18.99300 49.18900 26.29300
C  19.85900 48.71700 25.34200
C  20.91400 47.96100 25.99200
C  20.63400 48.06400 27.35000
C  19.50700 48.84400 27.49400
C  22.03300 47.21700 25.26600
C  21.07600 47.68000 28.67100
O  22.05700 46.96300 28.99200
C  20.05700 48.40700 29.76200
C  19.44000 47.35100 30.57100
O  18.40800 46.77400 30.25600
O  19.86000 47.35000 31.87700
C  19.14200 46.53000 32.90600
H  14.11600 51.89700 29.10000
H  14.90700 51.91100 22.87100
H  20.43300 48.60700 23.26900
H  17.82400 49.25800 31.38900
H  15.60300 51.17200 31.09200
H  14.21900 49.51700 31.61500
H  15.69800 48.55500 31.85400
H  14.82700 48.39300 30.38400
H  17.44800 52.25300 31.06900
H  19.10800 51.67100 30.77900
H  18.82800 52.36100 32.98700
H  19.41500 50.92200 32.84900
H  12.41900 54.51000 27.20400
H  12.88900 53.54300 28.54000
H  11.64500 53.04100 27.36800
H  11.86300 55.36500 23.59700
H  12.64200 55.58100 25.25700
H  11.37400 54.30500 24.88800
H  16.75200 51.25400 21.10900
H  18.43800 48.95400 21.39900
H  15.03800 49.93500 20.92000
H  15.51600 48.87400 22.26100
H  16.26400 48.54900 20.82800
H  19.85800 51.47200 22.11600
H  18.85500 51.59100 20.65900
H  21.40800 50.72200 20.53900
H  20.19300 50.69500 19.41100
H  20.51000 49.15300 20.23500
H  22.34900 47.62800 24.30700
H  21.73800 46.25800 24.84200
H  22.91500 47.03000 25.87900
H  20.69900 49.11600 30.28400
H  19.72700 45.70000 33.30000
H  18.15500 46.18000 32.60400
H  19.13100 47.13600 33.81200

