158

Mg -2.23200 17.87400 27.34500
C  -2.61500 15.56900 30.17200
C  -2.33300 20.25300 29.61300
C  -2.24600 19.78800 24.80200
C  -2.96100 15.01300 25.26700
N  -2.62000 17.88500 29.62600
C  -2.52900 16.90700 30.59100
C  -2.52500 17.48900 32.03300
C  -2.83800 18.96500 31.71100
C  -2.63600 19.04600 30.17000
C  -4.19800 19.53300 32.03700
C  -1.20800 17.19900 32.83100
C  -0.87300 18.11300 34.02600
H  -0.60300 17.43700 35.35200
N  -2.09500 19.78100 27.26200
C  -2.07500 20.64300 28.27300
C  -1.84000 21.93200 27.68700
C  -1.62300 21.78500 26.26200
C  -2.01700 20.39100 26.08000
C  -1.95300 23.21000 28.51500
C  -1.31900 22.80100 25.20700
O  -1.22200 22.55900 24.01900
C  -0.99800 24.23300 25.66600
N  -2.46900 17.40100 25.36500
C  -2.50600 18.46100 24.48300
C  -2.83100 17.94800 23.02800
C  -2.98900 16.48200 23.24600
C  -2.78000 16.29900 24.71700
C  -3.92400 18.69800 22.41100
C  -2.12300 15.59100 22.32700
C  -0.65000 15.43200 22.67200
N  -2.67300 15.68900 27.56600
C  -2.94100 14.70900 26.65700
C  -2.90700 13.43200 27.28600
C  -2.91600 13.72300 28.64400
C  -2.77000 15.12000 28.83600
C  -2.80800 12.11400 26.65400
C  -2.90000 13.15800 29.98800
O  -2.89700 11.92200 30.25900
C  -2.81100 14.38900 30.99500
C  -1.70000 14.07100 31.91800
O  -0.51400 14.18400 31.72700
O  -2.29800 13.45700 33.07800
C  -1.34600 13.32600 34.19000
H  -2.11100 21.11500 30.24600
H  -2.24800 20.56300 24.03300
H  -3.21900 14.14400 24.65800
H  -3.32900 16.94700 32.53000
H  -2.30100 19.75500 32.23600
H  -4.91800 19.61100 31.22200
H  -4.24600 20.40600 32.68800
H  -4.63900 18.74100 32.64200
H  -0.37700 17.21600 32.12600
H  -1.47400 16.23900 33.27400
H  -1.74600 18.75600 34.14200
H  -0.01000 18.73700 33.79300
H  -2.29300 23.05000 29.53800
H  -2.57100 23.93400 27.98400
H  -1.02200 23.77500 28.46800
H  -0.34100 24.19500 26.53500
H  -1.95200 24.74600 25.78900
H  -0.57200 24.74500 24.80300
H  -1.94900 18.12600 22.41300
H  -4.03100 16.16600 23.19200
H  -3.71000 19.76700 22.41200
H  -4.97000 18.56000 22.68400
H  -3.92500 18.59600 21.32600
H  -2.13300 15.99200 21.31300
H  -2.69000 14.66200 22.27400
H  -0.42000 15.83300 23.65900
H  -0.06800 15.95000 21.91000
H  -0.27000 14.41200 22.71900
H  -2.20500 11.50300 27.32600
H  -2.37600 12.15500 25.65400
H  -3.82000 11.73800 26.50200
H  -3.81700 14.51900 31.39500
H  -1.89800 13.37300 35.12800
H  -0.63900 14.15600 34.18000
H  -0.89100 12.34700 34.03900
Mg 47.14600 16.58000 28.47000
C  45.16300 16.32700 31.40700
C  49.37800 18.37400 30.12700
C  48.52000 17.10600 25.54400
C  44.40900 15.11300 26.77700
N  47.18600 17.24300 30.62100
C  46.38400 16.98200 31.63400
C  46.98500 17.50000 32.97500
C  48.18600 18.34800 32.42900
C  48.32100 17.91400 30.99000
C  47.76700 19.83800 32.50000
C  47.43700 16.37400 33.92400
C  46.85400 16.45800 35.33000
H  46.96000 17.84700 36.00200
N  48.77500 17.50200 27.95500
C  49.65400 18.12100 28.81400
C  50.83400 18.39800 28.09700
C  50.56300 18.20300 26.70400
C  49.21400 17.57700 26.67700
C  52.07900 18.68200 28.95600
C  51.34300 18.47600 25.45900
O  50.95600 18.17900 24.32500
C  52.69600 19.19300 25.59100
N  46.56700 16.12000 26.43900
C  47.26500 16.50600 25.41400
C  46.70300 16.07800 24.09600
C  45.46500 15.22400 24.52000
C  45.46900 15.53400 25.99600
C  46.39000 17.30200 23.08300
C  45.68900 13.71500 24.19400
C  45.08300 13.40500 22.80000
N  45.19300 15.95700 28.85200
C  44.21300 15.41000 28.09000
C  43.02700 15.07900 28.89600
C  43.42700 15.44200 30.20300
C  44.70200 15.97300 30.11100
C  41.72000 14.48200 28.37100
C  42.98100 15.45900 31.56300
O  41.89700 15.09800 32.04000
C  44.20200 15.91800 32.40400
C  43.71500 16.98400 33.37400
O  43.58200 18.19100 33.19100
O  43.32400 16.37000 34.55300
C  42.57400 17.25000 35.45900
H  50.10400 18.99700 30.65300
H  49.06500 17.03100 24.60100
H  43.47200 14.67900 26.42400
H  46.09100 17.95300 33.40300
H  49.16700 18.20500 32.88100
H  47.23000 20.08700 31.58500
H  48.71600 20.34600 32.67100
H  47.07300 19.97400 33.33000
H  48.50400 16.23900 34.10200
H  47.13800 15.42700 33.47500
H  47.29100 15.70400 35.98500
H  45.78900 16.24900 35.22800
H  52.96500 18.36600 28.40600
H  52.02400 18.01100 29.81300
H  52.16400 19.72200 29.27200
H  53.25200 19.29900 24.66000
H  53.26600 18.44500 26.14200
H  52.42100 20.16100 26.00900
H  47.32900 15.37000 23.55200
H  44.54000 15.63100 24.11400
H  47.09500 17.29000 22.25200
H  46.40900 18.23100 23.65200
H  45.39000 17.20000 22.66200
H  45.13800 13.13300 24.93300
H  46.74600 13.46700 24.28500
H  45.14300 14.25000 22.11400
H  44.03700 13.10100 22.82200
H  45.69700 12.56300 22.47900
H  41.42600 14.75900 27.35900
H  40.87500 14.75000 29.00500
H  41.91200 13.41200 28.45300
H  44.53800 14.97100 32.82800
H  41.53000 17.27600 35.14700
H  42.96400 18.23900 35.69900
H  42.52300 16.76000 36.43200

