158

Mg -2.50700 17.25800 27.70700
C  -2.64600 15.37100 30.59400
C  -3.05300 20.09700 29.62900
C  -2.36100 19.18800 24.84300
C  -2.19300 14.37800 25.69200
N  -2.81500 17.67100 29.87400
C  -2.76300 16.77000 30.92900
C  -2.63500 17.45300 32.29900
C  -2.95100 18.93800 31.95700
C  -2.96300 18.91400 30.41000
C  -4.24200 19.59100 32.62300
C  -1.29700 17.18800 33.13200
C  -0.95800 18.03200 34.41200
H  -0.77300 17.40700 35.82800
N  -2.69800 19.31000 27.22600
C  -2.86200 20.29200 28.21300
C  -2.65700 21.60900 27.54100
C  -2.57000 21.40200 26.17800
C  -2.60000 19.86900 26.00900
C  -2.49300 22.92600 28.27100
C  -2.28600 22.41600 25.01000
O  -2.13200 22.13600 23.82500
C  -2.08500 23.76500 25.34800
N  -2.23500 16.80900 25.59700
C  -2.24700 17.80300 24.63100
C  -2.09900 17.16900 23.30200
C  -1.56400 15.73700 23.61400
C  -2.12400 15.59600 25.01800
C  -3.42500 17.21900 22.40800
C  -0.04300 15.40500 23.52200
C  0.97800 16.39100 24.10400
N  -2.51300 15.29700 28.05200
C  -2.37100 14.20400 27.14900
C  -2.43700 12.98500 27.94400
C  -2.40800 13.36100 29.23400
C  -2.49100 14.78900 29.26300
C  -2.38800 11.60600 27.43800
C  -2.44300 12.85800 30.60700
O  -2.68400 11.71300 30.97200
C  -2.50900 14.10200 31.54400
C  -1.24700 13.94600 32.34300
O  -0.10800 14.07400 31.92400
O  -1.58600 13.60700 33.66300
C  -0.45300 13.16700 34.41200
H  -3.19200 20.97400 30.26500
H  -2.30900 19.80100 23.94100
H  -2.11800 13.51000 25.03400
H  -3.38500 17.06200 32.98700
H  -2.15400 19.58600 32.32200
H  -4.61600 18.86100 33.34100
H  -5.05600 19.80800 31.93200
H  -4.00900 20.44100 33.26500
H  -0.53600 17.33600 32.36600
H  -1.08200 16.15800 33.42000
H  -1.77400 18.75500 34.42200
H  -0.07500 18.58900 34.10100
H  -3.26800 23.59100 27.89100
H  -1.56000 23.44500 28.05100
H  -2.55000 22.71700 29.33900
H  -1.86600 24.45900 24.53700
H  -1.23900 23.71000 26.03200
H  -2.99700 24.11500 25.83000
H  -1.35800 17.65600 22.66700
H  -2.13900 15.02600 23.02200
H  -4.09400 17.91300 22.91700
H  -3.93700 16.25800 22.46000
H  -3.19800 17.56200 21.39900
H  0.21300 15.43800 22.46300
H  0.17100 14.39100 23.85900
H  0.47500 17.20500 24.62600
H  1.54600 16.85000 23.29500
H  1.69800 15.85200 24.71900
H  -1.91900 11.62700 26.45400
H  -3.40600 11.24800 27.27900
H  -1.97800 11.02900 28.26600
H  -3.41900 13.93500 32.11900
H  -0.69500 12.54100 35.27100
H  -0.10100 14.11900 34.80900
H  0.37300 12.73400 33.84800
Mg 53.69000 24.32500 43.75700
C  50.91200 26.64400 43.17000
C  51.54100 21.81900 42.91100
C  56.37700 22.48200 43.28900
C  55.66500 27.07800 44.26400
N  51.58200 24.31300 42.88300
C  50.59900 25.27300 42.90100
C  49.19900 24.75700 42.69000
C  49.37000 23.26700 42.91300
C  50.94100 23.13200 43.05200
C  48.64000 22.82700 44.23100
C  48.62000 25.06900 41.27800
C  49.61200 24.83300 40.07000
H  48.95500 24.33000 38.77000
N  53.95900 22.40100 43.24800
C  52.94900 21.55300 42.90000
C  53.52800 20.23300 42.72500
C  54.97800 20.40100 42.81500
C  55.21200 21.80100 43.10400
C  52.63400 19.04100 42.46200
C  55.96100 19.38900 42.46400
O  55.60000 18.23200 42.19800
C  57.44700 19.63000 42.47700
N  55.70400 24.82400 43.54400
C  56.68100 23.85500 43.59400
C  58.14700 24.34900 43.86000
C  57.91900 25.82600 44.24100
C  56.32500 25.95700 43.94000
C  58.97900 23.48200 44.85300
C  58.70600 26.88300 43.41400
C  60.04600 27.19800 43.95500
N  53.42200 26.46800 43.85300
C  54.29900 27.39100 44.18700
C  53.63700 28.65500 44.44200
C  52.29200 28.40400 44.07600
C  52.22700 27.09200 43.66100
C  54.24600 29.94700 45.07100
C  50.91200 28.95800 44.00300
O  50.48600 30.07200 44.43900
C  50.04300 27.86600 43.33800
C  49.51200 28.40400 42.04900
O  50.13300 28.76600 41.07800
O  48.13100 28.38500 42.14600
C  47.44200 28.60200 40.88300
H  50.84100 20.98600 42.81400
H  57.29800 21.89900 43.34600
H  56.23500 27.90100 44.69900
H  48.66900 25.27000 43.49200
H  48.91500 22.67200 42.12100
H  49.29700 23.10100 45.05600
H  48.57000 21.75500 44.04700
H  47.69800 23.34300 44.42000
H  48.32500 26.11200 41.39300
H  47.62100 24.69900 41.04900
H  50.29200 24.01700 40.31500
H  50.15300 25.77200 39.95000
H  51.87300 19.26100 41.71400
H  52.15900 18.69100 43.37900
H  53.19200 18.19400 42.06400
H  57.88800 18.66400 42.23000
H  57.76000 19.80700 43.50600
H  57.70800 20.38200 41.73300
H  58.69600 24.33700 42.91800
H  58.01800 26.04200 45.30500
H  58.29400 22.83000 45.39500
H  59.65600 24.05100 45.48900
H  59.57000 22.80600 44.23500
H  58.18400 27.83200 43.29500
H  58.68100 26.44400 42.41600
H  60.28400 26.48900 44.74800
H  60.16000 28.25600 44.18900
H  60.74300 26.91400 43.16700
H  53.97900 29.94900 46.12800
H  53.74500 30.75200 44.53200
H  55.31100 30.15500 44.96900
H  49.14900 27.66000 43.92600
H  47.68500 29.61400 40.56000
H  46.36200 28.45500 40.90500
H  47.74600 27.93700 40.07400

