158

Mg 47.88200 45.12000 43.37800
C  44.46900 45.46200 42.65400
C  47.76900 41.98900 41.98000
C  51.25500 45.33700 43.14200
C  47.76100 48.42700 44.62800
N  46.34300 43.94300 42.40500
C  45.01800 44.26900 42.24600
C  44.31000 43.11700 41.48400
C  45.24500 41.91400 41.74300
C  46.50900 42.63300 42.06300
C  44.80900 41.01400 42.94600
C  44.16500 43.51100 39.97100
C  42.88100 43.01500 39.25600
H  42.81000 43.33500 37.80900
N  49.34200 43.82900 42.73400
C  49.07400 42.57600 42.18700
C  50.34700 41.87000 42.04900
C  51.42700 42.77100 42.34700
C  50.67500 44.05500 42.68700
C  50.49000 40.37000 41.69700
C  52.88500 42.39400 42.26700
O  53.27600 41.27400 41.91100
C  53.94500 43.35000 42.67300
N  49.28100 46.72800 43.51900
C  50.65900 46.51200 43.58000
C  51.39800 47.80700 44.11900
C  50.19900 48.76600 44.29100
C  48.98000 47.87600 44.23800
C  52.18800 47.58900 45.33800
C  50.19700 49.79200 43.10200
C  49.83800 51.25700 43.54500
N  46.43500 46.66000 43.65800
C  46.50100 47.90100 44.16900
C  45.25300 48.64200 44.15500
C  44.42200 47.71700 43.51400
C  45.18700 46.54900 43.22500
C  44.95800 49.94300 44.77400
C  43.11800 47.54600 43.05100
O  42.18900 48.32900 43.08300
C  43.07200 46.03300 42.43000
C  41.99400 45.26800 43.09900
O  41.30900 44.42700 42.52300
O  41.84700 45.56300 44.46100
C  40.94600 44.66400 45.23600
H  47.72700 40.94000 41.68100
H  52.34300 45.29900 43.05300
H  47.73700 49.42600 45.06800
H  43.33000 42.84100 41.87200
H  45.47300 41.33100 40.85000
H  44.69900 39.99400 42.57900
H  43.82000 41.12400 43.39200
H  45.63500 40.91400 43.65000
H  45.02700 43.31100 39.33500
H  44.05100 44.57100 39.74400
H  42.11200 43.55800 39.80600
H  42.68800 41.94800 39.36300
H  50.80800 40.37800 40.65500
H  49.69300 39.64000 41.83600
H  51.33400 40.02600 42.29400
H  53.91200 44.24400 42.04900
H  54.88700 42.83100 42.49100
H  53.79600 43.44200 43.74800
H  52.14600 48.11600 43.38800
H  50.15800 49.29600 45.24300
H  52.46700 46.53500 45.36300
H  51.58300 47.82200 46.21400
H  53.05700 48.24700 45.32900
H  49.49300 49.52100 42.31500
H  51.15300 49.82500 42.57900
H  50.76100 51.82700 43.65100
H  49.37000 51.26200 44.52900
H  49.20300 51.64500 42.74800
H  45.20700 50.77800 44.11900
H  45.69600 50.04400 45.57000
H  43.97300 49.95200 45.23900
H  42.88300 46.07800 41.35800
H  41.10800 44.96300 46.27200
H  41.22400 43.62100 45.08700
H  39.96100 44.92500 44.85000
Mg 41.68500 40.89400 26.74700
C  41.04300 43.11500 29.47700
C  42.41500 38.41200 28.96300
C  42.50000 38.92700 24.02100
C  40.93800 43.52900 24.57100
N  41.63000 40.82600 28.93600
C  41.33400 41.77200 29.86100
C  41.29600 41.24400 31.36300
C  41.92400 39.77900 31.12500
C  41.95700 39.64300 29.60300
C  43.21100 39.44800 31.93100
C  39.91100 41.35600 32.05300
C  39.93300 42.03000 33.43500
H  39.21700 41.41900 34.68300
N  42.40300 38.96100 26.53900
C  42.70000 38.10000 27.57800
C  43.13200 36.85300 26.99800
C  43.16000 37.00500 25.54000
C  42.64700 38.37100 25.30000
C  43.29000 35.58500 27.80700
C  43.53000 36.03100 24.44900
O  43.63800 36.33800 23.22600
C  43.90900 34.58900 24.91000
N  41.82000 41.14400 24.62300
C  42.10200 40.24100 23.66600
C  41.80600 40.68600 22.22500
C  40.95500 42.02500 22.48900
C  41.23400 42.27200 24.02100
C  43.10400 41.03400 21.38500
C  39.43000 41.82300 22.10500
C  38.66400 40.63900 22.82000
N  41.19400 42.97000 26.92300
C  40.96400 43.90300 25.92300
C  40.64600 45.24900 26.55900
C  40.69400 44.94700 27.98100
C  41.02600 43.60100 28.10500
C  40.33300 46.59900 25.90300
C  40.51100 45.56300 29.23600
O  40.32800 46.73600 29.54800
C  40.72200 44.38100 30.27700
C  41.70800 44.82600 31.25500
O  42.84800 45.22000 31.05000
O  41.12600 44.87500 32.47000
C  42.05300 45.32900 33.59400
H  42.76700 37.66800 29.68000
H  42.49100 38.30700 23.12200
H  40.52300 44.30500 23.92500
H  42.06600 41.72400 31.96700
H  41.25400 38.98000 31.44200
H  43.12200 38.56600 32.56500
H  43.49400 40.32000 32.52100
H  44.08000 39.41200 31.27400
H  39.44500 40.37100 32.05600
H  39.25200 41.95000 31.41900
H  39.49700 43.02900 33.44000
H  40.96300 42.20400 33.74800
H  42.73800 34.69200 27.51400
H  42.82000 35.82900 28.76000
H  44.35800 35.51000 28.01200
H  43.11400 33.98900 25.35300
H  44.73200 34.77000 25.60100
H  44.34300 34.07900 24.05000
H  41.18100 39.85000 21.91200
H  41.33100 42.80500 21.82600
H  43.90900 40.39300 21.74400
H  43.47500 42.05700 21.45000
H  42.92100 40.73800 20.35200
H  39.41300 41.58000 21.04200
H  38.89500 42.76700 22.20800
H  38.24700 41.09700 23.71700
H  39.34200 39.81900 23.05500
H  37.85700 40.13400 22.28800
H  41.24900 46.98000 25.45300
H  39.95200 47.25300 26.68700
H  39.61000 46.47700 25.09600
H  39.75900 44.26100 30.77300
H  43.13900 45.33900 33.49600
H  41.77700 44.70200 34.44200
H  41.85500 46.37900 33.80500

