158

Mg 30.57900 59.42200 39.72000
C  27.59700 57.73700 38.66300
C  32.32400 56.69400 38.60400
C  33.27400 61.17700 40.07000
C  28.52400 62.31200 39.86100
N  30.05800 57.48700 38.69800
C  28.79200 57.00600 38.30200
C  28.85100 55.65800 37.51300
C  30.31200 55.19100 37.82700
C  30.98000 56.50600 38.49900
C  30.42400 53.90500 38.71600
C  28.41800 55.71700 36.01300
C  27.30500 54.72600 35.51600
H  26.07200 55.22300 34.86900
N  32.54700 58.96500 39.54800
C  33.07700 57.75300 39.12200
C  34.54500 57.84100 39.29000
C  34.85600 59.16700 39.80200
C  33.49100 59.82600 39.84600
C  35.43700 56.78200 39.07200
C  36.25500 59.72400 40.25600
O  37.30200 59.05400 40.22700
C  36.33200 60.93600 41.12500
N  30.88100 61.51000 39.93200
C  32.08600 61.98000 40.18800
C  32.04100 63.42900 40.40200
C  30.54200 63.76600 40.15600
C  29.91300 62.44100 39.93300
C  32.63600 63.95600 41.73900
C  30.25800 64.74700 38.95000
C  29.14500 65.80200 39.23800
N  28.53000 59.93100 39.49300
C  27.86600 61.14800 39.62200
C  26.41700 60.99500 39.50000
C  26.28400 59.64200 39.13500
C  27.58100 59.02200 39.15900
C  25.28500 62.02300 39.78700
C  25.29500 58.62100 38.77500
O  24.07300 58.65800 38.69600
C  26.10500 57.34500 38.36400
C  25.50100 56.13600 39.07800
O  25.64000 55.85300 40.26700
O  24.76500 55.34100 38.22100
C  24.13300 54.13200 38.81400
H  32.89600 55.80600 38.32600
H  34.16200 61.79600 40.21700
H  27.85300 63.13400 40.11700
H  28.14100 55.06900 38.09400
H  30.82800 55.04300 36.87900
H  30.56400 53.02800 38.08400
H  29.56200 53.63900 39.32800
H  31.21500 53.96300 39.46400
H  29.28100 55.35000 35.45600
H  28.32400 56.72900 35.61900
H  26.86800 54.10200 36.29600
H  27.68100 54.00200 34.79300
H  36.26100 56.68600 39.78000
H  35.97200 56.89300 38.12800
H  34.88700 55.84300 39.13100
H  37.15700 60.75400 41.81400
H  35.36300 60.96600 41.62400
H  36.43900 61.83500 40.51800
H  32.59800 63.98200 39.64600
H  30.01800 63.96700 41.09000
H  32.86700 63.29500 42.57500
H  31.98400 64.76500 42.06600
H  33.55000 64.44900 41.40600
H  29.88700 64.07000 38.18100
H  31.14300 65.35300 38.75700
H  29.16500 65.97100 40.31500
H  28.12800 65.52800 38.95800
H  29.35600 66.76700 38.77600
H  24.31100 61.70000 39.42100
H  25.50800 62.95000 39.25900
H  25.23600 62.19900 40.86200
H  26.05800 57.22300 37.28200
H  23.27400 54.36900 39.44100
H  24.75700 53.54800 39.49100
H  23.63100 53.51200 38.07200
Mg -5.18700 25.15500 25.92300
C  -3.38300 26.31900 28.63500
C  -6.21200 22.51200 28.11900
C  -6.87300 23.64300 23.41400
C  -3.65500 27.31500 23.88400
N  -4.87000 24.51900 28.18500
C  -4.16500 25.30800 29.04300
C  -4.55000 24.95900 30.45500
C  -4.95600 23.51900 30.25300
C  -5.34900 23.45100 28.78800
C  -3.81200 22.55100 30.56100
C  -5.79700 25.82700 30.90900
C  -6.15700 25.91900 32.43500
H  -5.69400 24.83500 33.35300
N  -6.44100 23.44100 25.74700
C  -6.73000 22.45800 26.76100
C  -7.64900 21.54400 26.27900
C  -7.89200 21.84300 24.88200
C  -7.10700 23.07500 24.65300
C  -8.13000 20.38000 27.18800
C  -8.78900 21.09300 23.92400
O  -9.01900 21.51400 22.81500
C  -9.43000 19.77300 24.26100
N  -5.12700 25.28000 23.87400
C  -5.88200 24.57100 22.98100
C  -5.64900 25.11400 21.54300
C  -4.82100 26.48100 21.83700
C  -4.55500 26.33100 23.32800
C  -4.88600 24.15600 20.60200
C  -5.59600 27.80700 21.61000
C  -6.32900 28.00100 20.29700
N  -3.69400 26.46200 26.08200
C  -3.07300 27.34200 25.12300
C  -2.17000 28.19000 25.85000
C  -2.19000 27.83800 27.20000
C  -3.15000 26.75300 27.27800
C  -1.39400 29.42800 25.28600
C  -1.76800 28.19600 28.51100
O  -0.86800 28.94800 28.86500
C  -2.57000 27.30100 29.47200
C  -1.60000 26.63000 30.32200
O  -0.95600 25.65800 29.97200
O  -1.65100 27.23100 31.60900
C  -0.70200 26.74500 32.57800
H  -6.51900 21.64200 28.70300
H  -7.42200 23.27400 22.54500
H  -3.42300 28.18500 23.26700
H  -3.76000 25.15300 31.18000
H  -5.79900 23.27800 30.89900
H  -2.91600 22.88200 30.03500
H  -3.96800 21.54100 30.18300
H  -3.51100 22.45700 31.60400
H  -6.65200 25.47600 30.33100
H  -5.62700 26.82000 30.49300
H  -7.21900 26.11100 32.58300
H  -5.75500 26.91000 32.64500
H  -7.61700 19.43900 26.99000
H  -9.10300 19.95200 26.94500
H  -8.13000 20.65000 28.24400
H  -8.64300 19.11600 24.63100
H  -9.87400 19.38100 23.34600
H  -10.08800 19.99600 25.10100
H  -6.62000 25.35200 21.10700
H  -3.92200 26.56100 21.22600
H  -5.29100 23.15800 20.76900
H  -3.81900 24.17200 20.82500
H  -4.98700 24.58000 19.60300
H  -4.93400 28.65800 21.77100
H  -6.41700 27.67600 22.31500
H  -6.10400 29.04000 20.05300
H  -7.40500 28.00400 20.46900
H  -6.02000 27.27300 19.54700
H  -0.57000 29.59700 25.97800
H  -1.91000 30.36800 25.09300
H  -0.78800 29.22500 24.40300
H  -3.11900 27.79600 30.27400
H  -0.55400 27.50700 33.34300
H  0.29700 26.62500 32.15700
H  -0.96200 25.83700 33.12200

