158

Mg 44.17300 4.62300 46.09200
C  42.35200 7.49500 46.36200
C  41.24000 2.87500 45.54100
C  46.00000 1.85100 45.44800
C  47.06900 6.45400 46.42600
N  42.07900 5.09300 45.95200
C  41.56300 6.38000 46.14400
C  40.05900 6.34600 46.31500
C  39.73900 4.82200 46.02000
C  41.10800 4.19200 45.89900
C  38.74500 4.16100 47.07500
C  39.20900 7.31700 45.41300
C  39.76800 7.90500 44.12300
H  39.15700 7.35900 42.86500
N  43.67600 2.67600 45.54700
C  42.42900 2.14800 45.36600
C  42.54900 0.75500 45.05500
C  43.96000 0.42800 45.05400
C  44.61700 1.69400 45.36400
C  41.38800 -0.16100 44.63300
C  44.60200 -0.97200 44.81400
O  43.84400 -1.90500 44.55200
C  46.01700 -1.24900 44.78700
N  46.34100 4.23000 45.71400
C  46.83000 2.95600 45.70200
C  48.33600 2.98800 45.85500
C  48.59700 4.46200 46.26400
C  47.28100 5.12500 46.08300
C  49.05100 1.97300 46.74700
C  49.69900 5.32700 45.56800
C  50.68800 6.08300 46.54300
N  44.65500 6.55300 46.40000
C  45.85700 7.12300 46.59000
C  45.65100 8.48900 46.94300
C  44.24700 8.70900 46.89700
C  43.75100 7.49700 46.49100
C  46.67300 9.55100 47.14100
C  43.15400 9.64600 47.10000
O  43.18400 10.85300 47.47100
C  41.88300 8.89900 46.74900
C  41.04800 9.02100 47.94700
O  40.98600 8.15400 48.82400
O  40.19100 10.10500 47.81900
C  39.24100 10.36500 48.89300
H  40.23200 2.47400 45.42100
H  46.66500 1.01300 45.23100
H  47.93600 6.94300 46.87500
H  39.83600 6.50100 47.37100
H  39.21500 4.71200 45.07100
H  39.39600 3.43000 47.55600
H  37.93700 3.79500 46.44200
H  38.42100 4.90700 47.80100
H  38.80700 8.09000 46.06800
H  38.26000 6.85600 45.13800
H  40.79800 7.57900 43.97600
H  39.58000 8.97800 44.07400
H  41.54400 -0.22600 43.55600
H  40.43100 0.26900 44.92900
H  41.51300 -1.12500 45.12500
H  46.11900 -2.31300 44.57500
H  46.51100 -1.11900 45.75000
H  46.47600 -0.64800 44.00200
H  48.77700 2.77300 44.88200
H  48.88900 4.41300 47.31300
H  49.73200 1.32800 46.19200
H  48.32000 1.39800 47.31500
H  49.59400 2.38500 47.59700
H  49.30900 5.98300 44.79000
H  50.23300 4.53300 45.04600
H  50.44100 7.13300 46.38900
H  51.72200 5.83300 46.30300
H  50.58600 5.86400 47.60600
H  46.59100 10.28700 46.34100
H  47.61800 9.04000 46.96000
H  46.64400 10.03900 48.11500
H  41.58700 9.47900 45.87500
H  39.41100 9.80800 49.81400
H  38.24000 10.14700 48.52200
H  39.24700 11.43000 49.12600
Mg 2.21300 42.04400 25.23800
C  3.66100 42.04000 28.40700
C  -0.64000 40.62300 26.58900
C  0.95500 41.59400 22.11400
C  5.34000 42.81400 23.92700
N  1.57900 41.37300 27.26200
C  2.35100 41.58600 28.40400
C  1.53700 41.13800 29.66700
C  0.14800 40.57400 29.03400
C  0.39200 40.74400 27.52100
C  -0.20800 39.05600 29.42400
C  1.20600 42.31300 30.64200
C  1.76300 42.25700 32.11300
H  0.79800 42.52000 33.23800
N  0.32900 41.45400 24.48200
C  -0.67600 40.89300 25.19700
C  -1.79100 40.60300 24.30800
C  -1.37200 41.06100 22.98100
C  -0.00700 41.43200 23.14400
C  -3.09000 40.00800 24.80100
C  -2.16200 41.14500 21.74000
O  -1.73700 41.55700 20.67800
C  -3.63500 40.80300 21.68500
N  3.06000 42.24100 23.37500
C  2.33100 41.88700 22.27900
C  3.16700 42.18600 20.98100
C  4.49200 42.69900 21.63500
C  4.30000 42.52800 23.06600
C  3.35600 41.01700 20.03300
C  4.85300 44.15600 21.32400
C  5.03400 44.53700 19.87600
N  4.14000 42.42000 25.93700
C  5.26500 42.85000 25.32700
C  6.25700 43.15100 26.27800
C  5.71200 42.82700 27.50200
C  4.41900 42.36100 27.27900
C  7.56800 43.69800 26.08300
C  5.90200 42.90600 28.91700
O  6.85300 43.36300 29.48300
C  4.67100 42.29400 29.59100
C  4.99000 41.18300 30.47300
O  5.25300 40.01500 30.13400
O  5.07500 41.61900 31.74700
C  5.20900 40.63000 32.82800
H  -1.57900 40.24000 26.99400
H  0.61300 41.58900 21.07700
H  6.23600 43.16500 23.41100
H  2.01000 40.27200 30.12900
H  -0.77000 41.08200 29.33000
H  -0.00000 38.31800 28.65000
H  -1.21600 38.89200 29.80700
H  0.39800 38.76100 30.28100
H  0.12300 42.39500 30.73600
H  1.57500 43.25800 30.24400
H  2.55600 43.00500 32.11400
H  2.25600 41.33300 32.41400
H  -3.88600 40.75200 24.80800
H  -2.96400 39.51700 25.76600
H  -3.26800 39.17700 24.11800
H  -3.62200 39.79000 21.28100
H  -4.31200 41.41100 21.08600
H  -3.99800 40.75600 22.71100
H  2.64300 43.00900 20.49700
H  5.36600 42.08600 21.41600
H  3.05400 40.04200 20.41700
H  4.39200 40.83500 19.74600
H  2.90900 41.15500 19.04900
H  5.86900 44.25400 21.70700
H  4.22400 44.80100 21.93800
H  4.62400 43.75500 19.23700
H  6.10300 44.62800 19.68100
H  4.53500 45.49100 19.70800
H  8.29500 42.88900 26.01300
H  7.68000 44.39300 26.91500
H  7.72100 44.26900 25.16700
H  4.20100 43.04500 30.22700
H  6.14100 40.07500 32.72100
H  4.42000 39.87700 32.81100
H  4.97700 41.11800 33.77500

