158

Mg 27.00600 50.43900 25.71800
C  25.13000 51.76600 28.33400
C  29.35100 49.51400 28.15400
C  29.17200 49.73400 23.25200
C  24.89000 51.97500 23.40400
N  27.25200 50.67300 27.99300
C  26.33100 51.20300 28.83400
C  26.60200 50.87300 30.36000
C  28.15000 50.50700 30.30400
C  28.27100 50.20100 28.74600
C  29.16000 51.49700 30.87300
C  25.68700 49.74700 30.83500
C  24.62500 50.17800 31.90900
H  24.68300 49.52300 33.30700
N  28.87400 49.59000 25.76300
C  29.67700 49.26500 26.84400
C  30.93600 48.72800 26.37200
C  30.88700 48.82500 24.93900
C  29.58400 49.35400 24.60300
C  32.01100 48.18000 27.26000
C  31.96100 48.51800 23.96700
O  31.85100 48.55600 22.73800
C  33.29300 48.17700 24.36900
N  27.06500 50.81700 23.56900
C  28.04800 50.43800 22.77600
C  27.69500 50.57900 21.31400
C  26.27200 51.29000 21.34200
C  26.08800 51.46400 22.87400
C  28.85400 51.33700 20.58900
C  25.10100 50.45800 20.60900
C  24.58000 49.07000 21.15700
N  25.33600 51.58800 25.76600
C  24.51400 52.06600 24.71900
C  23.35300 52.72200 25.30800
C  23.65000 52.66200 26.68400
C  24.83800 51.97700 26.98400
C  22.26800 53.31000 24.55300
C  23.06000 53.04200 27.96100
O  21.96800 53.56200 28.20600
C  23.98900 52.42100 29.17200
C  24.40600 53.58600 30.11700
O  25.37900 54.28700 29.96100
O  23.49300 53.73600 31.14000
C  23.84900 54.68800 32.17500
H  30.02600 48.93400 28.78600
H  29.78500 49.50200 22.37900
H  24.21500 52.31600 22.61600
H  26.45500 51.84500 30.83200
H  28.23500 49.53300 30.78500
H  28.59600 52.29500 31.35600
H  29.74200 51.84100 30.01800
H  29.68700 51.00500 31.69000
H  26.29900 48.98400 31.31600
H  25.08700 49.27900 30.05500
H  23.62100 49.99200 31.52800
H  24.83500 51.23600 32.06900
H  32.81700 48.86600 27.00000
H  32.30700 47.15700 27.02600
H  31.90100 48.15600 28.34400
H  34.00500 47.92100 23.58500
H  33.30500 47.35000 25.07900
H  33.65700 49.13300 24.74800
H  27.52800 49.55900 20.96800
H  26.39700 52.25300 20.84700
H  29.66900 51.62400 21.25400
H  28.44300 52.21200 20.08600
H  29.31000 50.63600 19.89100
H  25.54500 50.26300 19.63300
H  24.33500 51.21000 20.41700
H  24.81500 49.05200 22.22100
H  24.94000 48.21700 20.58100
H  23.49800 49.13200 21.04100
H  21.34200 52.86000 24.91100
H  22.34700 53.25200 23.46700
H  22.23000 54.37500 24.78100
H  23.36700 51.69700 29.69800
H  22.98600 54.93800 32.79200
H  24.27100 55.63900 31.85000
H  24.60300 54.14800 32.74800
Mg 7.81200 53.56400 40.38000
C  7.07000 50.14400 39.96000
C  11.02800 52.99400 39.68800
C  8.06200 56.89100 39.93700
C  4.36900 54.09300 41.07700
N  8.86900 51.72800 39.86000
C  8.43500 50.46300 39.70700
C  9.63000 49.52100 39.41300
C  10.89100 50.45100 39.87100
C  10.24300 51.82800 39.78200
C  11.25000 50.08800 41.35900
C  9.87300 48.92000 38.01400
C  9.79600 50.03100 36.87000
H  8.42300 50.21100 36.15500
N  9.30900 54.74700 39.86000
C  10.65200 54.35400 39.72500
C  11.48000 55.52700 39.58300
C  10.58900 56.68700 39.69600
C  9.23300 56.16000 39.85300
C  13.02300 55.37700 39.37700
C  10.99800 58.11500 39.61400
O  12.19600 58.32700 39.42800
C  10.08500 59.32900 39.74100
N  6.33300 55.28800 40.32600
C  6.70200 56.57600 40.13400
C  5.53000 57.54100 40.34800
C  4.39200 56.54700 40.80200
C  5.08200 55.24700 40.73300
C  5.82300 58.72800 41.35400
C  3.09800 56.61500 39.86400
C  1.85100 57.33400 40.37300
N  6.11100 52.41000 40.60200
C  4.82800 52.78000 40.86400
C  4.04000 51.66000 40.90800
C  4.85500 50.54100 40.55000
C  6.14300 51.09700 40.38900
C  2.59400 51.61800 41.14900
C  4.84700 49.09300 40.30100
O  3.95100 48.26800 40.37600
C  6.40500 48.84700 39.90400
C  6.34500 48.15800 38.60400
O  5.78800 48.45700 37.56600
O  6.85400 46.86100 38.82100
C  6.94400 45.97600 37.68400
H  12.09100 52.81800 39.51200
H  8.18800 57.97100 39.83500
H  3.33800 54.34800 41.33000
H  9.57900 48.64500 40.05900
H  11.70400 50.35700 39.15200
H  10.90500 50.87100 42.03400
H  12.33600 50.17700 41.33200
H  10.91300 49.10200 41.67700
H  8.98400 48.29000 37.96200
H  10.87800 48.50100 37.96900
H  10.44000 49.59300 36.10800
H  10.15700 51.02800 37.12400
H  13.54900 56.28600 39.66900
H  13.20700 55.19700 38.31800
H  13.41300 54.61000 40.04600
H  9.39800 59.33000 38.89400
H  10.71700 60.20900 39.62700
H  9.61100 59.37800 40.72200
H  5.26800 57.88400 39.34700
H  4.26300 56.77500 41.86000
H  6.80800 58.64000 41.81200
H  5.11200 58.85800 42.17000
H  5.99500 59.66500 40.82500
H  2.77200 55.59500 39.66300
H  3.40400 56.91100 38.86000
H  1.53000 57.10000 41.38800
H  1.03800 57.17900 39.66300
H  2.11000 58.39300 40.40700
H  2.19900 52.34400 41.86000
H  2.30000 50.68900 41.63700
H  2.10200 51.73800 40.18400
H  6.77900 48.09700 40.60100
H  7.59900 45.14000 37.93000
H  7.39100 46.58900 36.90200
H  5.93000 45.64900 37.45300

