158

Mg 43.15000 41.94500 26.19600
C  42.22100 44.30000 28.74000
C  44.40000 39.93400 28.71100
C  44.20400 39.94000 23.87400
C  42.41300 44.42400 23.82500
N  43.28400 42.13100 28.53100
C  42.78500 43.12900 29.33300
C  42.74700 42.79300 30.84300
C  43.68500 41.54600 30.75100
C  43.87400 41.17800 29.25100
C  45.04000 41.70500 31.49800
C  41.31100 42.58000 31.52700
C  40.94200 43.41900 32.80000
H  41.87500 43.62000 33.92600
N  44.00800 40.10400 26.27900
C  44.53300 39.44500 27.39800
C  45.11800 38.14300 26.95100
C  44.83900 38.06600 25.55000
C  44.31400 39.33900 25.18000
C  45.82100 37.29200 27.96000
C  44.92700 36.93400 24.64300
O  44.68900 36.97300 23.45500
C  45.33100 35.59900 25.20500
N  43.46000 42.29700 24.18400
C  43.71700 41.21100 23.43100
C  43.41500 41.37100 21.92500
C  42.90600 42.81400 21.92400
C  43.02900 43.27900 23.37100
C  44.68800 41.28500 20.97600
C  41.52100 42.95000 21.37100
C  40.51700 42.13500 22.07300
N  42.46800 44.00000 26.18500
C  42.25200 44.84400 25.14600
C  41.73500 46.11800 25.70300
C  41.60500 45.94500 27.10700
C  42.15700 44.64000 27.38000
C  41.49900 47.42900 24.82900
C  41.21500 46.56400 28.36100
O  40.73500 47.67200 28.56000
C  41.66600 45.53100 29.49400
C  42.63300 46.15400 30.42100
O  43.82300 46.21800 30.21800
O  42.02100 46.76100 31.45100
C  42.82100 47.57700 32.42800
H  44.65700 39.18700 29.46400
H  44.57700 39.25700 23.10800
H  42.38300 45.25900 23.12300
H  43.40900 43.48400 31.36500
H  43.26700 40.63100 31.16900
H  44.74200 41.97800 32.51100
H  45.64800 42.48500 31.04100
H  45.70800 40.84600 31.44000
H  41.25600 41.52400 31.79000
H  40.61100 42.72800 30.70400
H  40.01200 42.93300 33.09900
H  40.72400 44.42400 32.43800
H  45.09800 36.63600 28.44500
H  46.33200 37.82300 28.76400
H  46.59000 36.65300 27.52700
H  46.39200 35.58300 25.45500
H  45.14700 34.80600 24.48000
H  44.69100 35.36000 26.05500
H  42.74200 40.57200 21.61600
H  43.66100 43.41200 21.41400
H  44.61600 41.72300 19.98100
H  44.92900 40.22600 20.88200
H  45.61700 41.71500 21.35100
H  41.55200 42.55100 20.35700
H  41.14600 43.96700 21.25400
H  40.93500 41.69200 22.97700
H  40.26800 41.33600 21.37500
H  39.62300 42.69600 22.34300
H  41.37700 47.10500 23.79600
H  42.37600 48.07600 24.84800
H  40.58000 47.91600 25.15600
H  40.76400 45.26000 30.04200
H  43.16200 47.00500 33.29100
H  42.19200 48.30900 32.93600
H  43.66700 48.07900 31.96100
Mg -1.94100 34.28600 25.78000
C  -3.65000 32.58700 28.30100
C  -0.70200 36.36800 28.11300
C  -0.36400 35.62300 23.33700
C  -3.52700 32.01300 23.41700
N  -2.29600 34.56400 28.00200
C  -2.90000 33.64100 28.84600
C  -2.83700 34.04800 30.24000
C  -2.00900 35.36100 30.09900
C  -1.53200 35.41400 28.67500
C  -2.77700 36.68900 30.46400
C  -2.26400 32.91600 31.18300
C  -1.49300 33.26500 32.48700
H  -1.79900 32.37500 33.67800
N  -0.72000 35.85400 25.71300
C  -0.25800 36.58900 26.76400
C  0.68000 37.61400 26.24400
C  0.81600 37.35700 24.86300
C  -0.16400 36.28000 24.59400
C  1.38500 38.63900 27.08700
C  1.75000 37.99900 23.75000
O  1.77200 37.72700 22.56100
C  2.65200 39.06700 24.06400
N  -2.04900 33.89400 23.62500
C  -1.20400 34.59700 22.81000
C  -0.98300 33.90200 21.43300
C  -1.86600 32.69500 21.59500
C  -2.51900 32.89800 22.95200
C  -1.24100 34.81600 20.23300
C  -1.16600 31.29600 21.39900
C  0.06700 31.14000 22.30100
N  -3.38200 32.79600 25.75200
C  -3.90600 31.91900 24.72800
C  -4.84500 30.97400 25.35800
C  -4.76800 31.24900 26.73100
C  -3.84600 32.34900 26.92200
C  -5.66400 29.96200 24.71100
C  -5.35800 30.77900 27.97100
O  -6.17100 29.89200 28.18700
C  -4.62500 31.65900 29.05300
C  -5.60600 32.36700 29.86700
O  -6.34000 33.17000 29.44400
O  -5.63200 31.84600 31.11400
C  -6.29500 32.56700 32.18300
H  -0.17400 37.08700 28.74200
H  0.38100 35.93300 22.60100
H  -3.88000 31.14500 22.85700
H  -3.80900 34.36300 30.61900
H  -1.21400 35.33900 30.84500
H  -2.47900 37.01700 31.46000
H  -3.84200 36.47300 30.54200
H  -2.71900 37.41500 29.65300
H  -1.42800 32.40000 30.71100
H  -3.11700 32.29000 31.44500
H  -1.82700 34.27700 32.71600
H  -0.40900 33.18600 32.40800
H  1.26000 39.59600 26.57800
H  2.41000 38.29300 27.21600
H  1.01100 38.64100 28.11000
H  2.17700 39.81200 24.70300
H  3.09100 39.37400 23.11500
H  3.31200 38.50200 24.72200
H  0.04600 33.56400 21.30700
H  -2.64200 32.76000 20.83200
H  -0.31600 35.04500 19.70500
H  -1.63900 35.73900 20.65400
H  -1.95100 34.47700 19.47900
H  -0.80500 31.08700 20.39200
H  -1.92800 30.54800 21.61800
H  -0.07900 31.74200 23.19800
H  1.03400 31.37600 21.85600
H  0.12000 30.10900 22.65100
H  -5.34600 28.97300 25.03900
H  -5.55600 30.09700 23.63500
H  -6.68700 30.22300 24.98000
H  -4.20700 30.83800 29.63500
H  -5.68400 33.44000 32.41200
H  -6.25500 32.00000 33.11300
H  -7.34400 32.78600 31.98000

