158

Mg 47.00000 34.15200 27.51800
C  45.48700 32.41600 30.02400
C  47.39700 36.91500 29.74200
C  48.01300 35.93300 24.99800
C  46.48200 31.46500 25.33700
N  46.53900 34.58900 29.64000
C  46.00900 33.66100 30.50500
C  46.11100 34.23700 31.96900
C  46.35700 35.79900 31.70300
C  46.79500 35.77700 30.22100
C  45.21000 36.70500 32.00400
C  47.26700 33.58100 32.69800
C  47.37500 33.76300 34.29900
H  46.38600 34.80600 34.92300
N  47.60400 36.16800 27.44700
C  47.71100 37.12100 28.41400
C  48.26200 38.29900 27.79000
C  48.41400 38.08800 26.39500
C  48.01200 36.70300 26.23900
C  48.61200 39.46100 28.60900
C  48.93800 39.07200 25.35700
O  48.98100 38.81200 24.14200
C  49.25300 40.54300 25.73800
N  47.19900 33.65500 25.45600
C  47.61700 34.65800 24.67600
C  47.89900 34.15900 23.18300
C  47.54800 32.73400 23.26900
C  47.05500 32.57500 24.78300
C  46.98000 34.91300 22.10000
C  48.66400 31.64500 22.91700
C  48.16100 30.24000 22.58200
N  46.14900 32.32800 27.65300
C  46.01700 31.30700 26.71700
C  45.38500 30.15500 27.28800
C  45.12700 30.57500 28.62300
C  45.60100 31.89300 28.73900
C  45.19700 28.79200 26.71100
C  44.62600 30.11100 29.90000
O  44.28100 29.01200 30.33900
C  44.56000 31.47800 30.71800
C  44.77700 31.16700 32.24500
O  45.80500 30.72600 32.79300
O  43.64400 31.53500 32.82900
C  43.53200 31.34900 34.22000
H  47.57200 37.68300 30.49900
H  48.42600 36.42100 24.11300
H  46.34300 30.55900 24.74300
H  45.18700 33.97600 32.48400
H  47.16800 36.07800 32.37600
H  45.35200 37.11900 33.00200
H  44.26100 36.19800 31.82900
H  45.22000 37.57300 31.34400
H  48.08000 34.15100 32.24900
H  47.35300 32.51600 32.48300
H  48.40600 34.04600 34.51200
H  47.05900 32.85900 34.82000
H  48.29600 40.43300 28.23100
H  49.69600 39.49800 28.71600
H  48.15900 39.51500 29.59900
H  48.34900 40.91500 26.22000
H  49.33600 41.06400 24.78400
H  50.17200 40.73200 26.29300
H  48.92100 34.40700 22.89600
H  46.73600 32.43700 22.60500
H  47.59000 35.42700 21.35800
H  46.40700 35.73800 22.52400
H  46.32900 34.23700 21.54500
H  49.28200 31.52400 23.80600
H  49.35500 32.15400 22.24500
H  48.71700 29.49500 23.15100
H  48.40800 29.97600 21.55400
H  47.08000 30.13300 22.66900
H  46.06700 28.16700 26.91300
H  45.09900 28.88800 25.62900
H  44.22600 28.34800 26.93200
H  43.55100 31.87600 30.62100
H  42.60400 30.80200 34.38400
H  43.47000 32.31500 34.72200
H  44.32400 30.73800 34.65300
Mg 26.21000 50.24200 26.19600
C  24.13100 51.51100 28.47900
C  28.65800 49.65400 28.57900
C  28.38300 49.52300 23.70700
C  23.93600 51.50800 23.57600
N  26.35100 50.39400 28.29400
C  25.37700 51.05000 29.06600
C  25.75500 50.95400 30.55800
C  27.31300 50.68700 30.52500
C  27.46200 50.13200 29.07500
C  28.22700 51.87200 30.97600
C  24.92500 49.81500 31.30900
C  24.17400 50.22400 32.61100
H  24.41500 49.36600 33.81700
N  28.13900 49.49500 26.19700
C  28.94000 49.30400 27.26400
C  30.18600 48.72400 26.76500
C  30.22200 48.76900 25.37500
C  28.90600 49.29900 25.07600
C  31.26400 48.19500 27.72100
C  31.33400 48.36200 24.40500
O  31.32900 48.65700 23.21200
C  32.57600 47.53800 24.71000
N  26.20300 50.62700 23.97400
C  27.22800 50.14100 23.24600
C  27.05800 50.41000 21.71900
C  25.53400 50.77700 21.70100
C  25.17700 51.04400 23.14300
C  27.93700 51.59100 21.25400
C  24.52500 49.72900 21.11500
C  23.35100 50.24000 20.17800
N  24.41500 51.29100 26.00600
C  23.55800 51.77100 24.94200
C  22.27400 52.10800 25.49300
C  22.48900 51.99400 26.87400
C  23.77400 51.55100 27.09600
C  21.18400 52.53100 24.60300
C  21.85300 52.36800 28.11000
O  20.72500 52.85800 28.25500
C  22.88100 51.91800 29.22100
C  23.00700 53.05800 30.21600
O  23.57000 54.15000 30.01100
O  22.34700 52.67900 31.28600
C  22.42800 53.57400 32.48500
H  29.36900 49.41300 29.37200
H  29.15700 49.36100 22.95400
H  23.25100 51.81400 22.78300
H  25.56800 51.93000 31.00500
H  27.56600 49.89000 31.22400
H  28.71200 52.27200 30.08500
H  28.98200 51.60700 31.71500
H  27.68600 52.69800 31.43700
H  25.60600 48.98600 31.50300
H  24.12700 49.36100 30.72200
H  23.10300 50.32100 32.43500
H  24.44500 51.25100 32.85600
H  32.19800 48.70000 27.47400
H  31.49500 47.15000 27.51200
H  31.06300 48.50600 28.74600
H  33.27100 48.11700 25.31700
H  33.02900 47.33000 23.74000
H  32.35600 46.65300 25.30700
H  27.27300 49.57500 21.05300
H  25.41800 51.72300 21.17200
H  27.29100 52.41100 20.93900
H  28.49600 51.31100 20.36100
H  28.56900 51.91400 22.08200
H  24.16800 49.07800 21.91300
H  25.17200 49.15700 20.45000
H  23.25500 49.63500 19.27700
H  23.54100 51.27000 19.87400
H  22.37500 50.22200 20.66300
H  20.31200 52.22900 25.18300
H  21.09900 52.16700 23.57900
H  21.22400 53.61900 24.55500
H  22.39200 51.10900 29.76400
H  23.15500 54.37500 32.35200
H  22.78000 52.95400 33.30900
H  21.40200 53.86500 32.71000

