158

Mg 16.62000 51.08800 26.75100
C  18.60500 49.60200 29.40100
C  14.43500 52.25700 29.13100
C  14.62900 52.07800 24.36300
C  18.88900 49.66000 24.44100
N  16.59100 51.07200 29.04900
C  17.44700 50.35200 29.88000
C  17.11700 50.68800 31.35200
C  15.71600 51.35500 31.23700
C  15.54000 51.60100 29.73100
C  14.51100 50.54500 31.76900
C  18.23200 51.52800 32.04600
C  18.32900 51.44900 33.60300
H  17.30500 50.67500 34.42400
N  14.75200 52.05600 26.78500
C  14.05700 52.54400 27.84800
C  12.89200 53.32900 27.36700
C  12.91400 53.27600 25.93700
C  14.09100 52.42600 25.63700
C  11.92500 54.04800 28.28900
C  12.01100 54.10200 24.94700
O  12.20600 54.08700 23.79300
C  10.97600 54.93200 25.49200
N  16.76400 50.90300 24.74200
C  15.78000 51.41800 23.97300
C  16.02300 51.12100 22.42800
C  17.50900 50.57300 22.51100
C  17.72600 50.29100 23.96000
C  14.89600 50.15900 21.98800
C  18.54200 51.68000 21.88600
C  19.40900 52.66400 22.83800
N  18.32600 49.83000 26.86500
C  19.15400 49.39500 25.78700
C  20.32200 48.65400 26.39300
C  20.10700 48.75500 27.80200
C  18.92100 49.46000 28.04000
C  21.36500 47.88200 25.61900
C  20.55800 48.21000 29.03400
O  21.45700 47.43800 29.33000
C  19.71100 48.95800 30.21800
C  19.22800 48.01000 31.21000
O  18.23500 47.32000 31.10800
O  20.05200 47.99700 32.35500
C  19.58700 47.01800 33.35500
H  13.70400 52.60100 29.86600
H  14.08900 52.34700 23.45300
H  19.56500 49.35900 23.63700
H  17.25500 49.67000 31.71700
H  15.76200 52.33100 31.72000
H  14.67500 49.50500 32.05000
H  13.70300 50.48900 31.04000
H  14.09900 51.16000 32.56900
H  17.88500 52.52700 31.78100
H  19.19100 51.23800 31.61700
H  18.45800 52.39900 34.12200
H  19.26500 50.91700 33.76800
H  11.88300 55.13300 28.20200
H  12.18300 53.89800 29.33800
H  10.90200 53.68000 28.21000
H  10.13600 54.37900 25.91200
H  10.53700 55.43800 24.63200
H  11.43300 55.66900 26.15300
H  16.00600 52.03500 21.83300
H  17.62000 49.68000 21.89600
H  14.05700 50.14900 22.68300
H  15.40000 49.19400 21.93300
H  14.48300 50.57900 21.07100
H  18.13600 52.35300 21.13000
H  19.27200 51.02900 21.40400
H  18.91700 52.90200 23.78100
H  19.63000 53.57500 22.28100
H  20.33300 52.09100 22.90900
H  22.07700 47.63200 26.40500
H  21.82500 48.53500 24.87600
H  20.95200 46.96300 25.20400
H  20.42400 49.57900 30.76100
H  19.75100 45.98900 33.03700
H  18.57600 47.09200 33.75700
H  20.11500 47.23000 34.28500
Mg -2.04100 34.13600 26.83200
C  -3.81300 32.37500 29.46700
C  -0.52200 36.06200 29.39700
C  -1.27500 36.43400 24.53500
C  -3.85700 32.28800 24.61100
N  -2.29400 34.29900 29.18900
C  -2.97500 33.42400 30.04200
C  -2.71900 33.75100 31.46300
C  -1.78500 35.01300 31.38100
C  -1.48600 35.12800 29.93600
C  -2.49900 36.36500 31.85800
C  -2.08700 32.44400 32.11200
C  -2.79200 31.80200 33.24100
H  -2.01900 31.72700 34.58400
N  -0.85700 35.86800 26.90700
C  -0.26100 36.41800 28.01800
C  0.57600 37.54600 27.53600
C  0.35200 37.61900 26.17200
C  -0.62000 36.64200 25.81200
C  1.50500 38.37100 28.46400
C  1.04800 38.50700 25.21100
O  0.99800 38.39900 23.96800
C  1.95500 39.60100 25.75400
N  -2.39900 34.31600 24.86600
C  -2.07900 35.43300 24.06300
C  -2.66500 35.22200 22.64000
C  -2.97600 33.68700 22.66200
C  -3.06900 33.36700 24.14000
C  -3.79100 36.17600 22.11600
C  -1.98700 32.74000 21.93300
C  -2.48500 32.08300 20.60500
N  -3.40500 32.51100 26.96700
C  -4.09600 31.87700 25.93600
C  -4.86200 30.74600 26.44800
C  -4.79000 30.93000 27.83700
C  -3.91400 32.01000 28.14700
C  -5.67100 29.73300 25.66100
C  -5.31700 30.41600 29.03300
O  -6.07900 29.46900 29.23600
C  -4.65900 31.29000 30.15800
C  -5.80500 31.89000 30.95100
O  -6.39600 32.95800 30.74300
O  -6.15600 31.07600 31.97000
C  -7.22400 31.41800 32.95800
H  0.03000 36.58600 30.18000
H  -1.16500 37.31200 23.89600
H  -4.37400 31.71000 23.84200
H  -3.64800 33.94100 32.00000
H  -0.89800 34.78300 31.97200
H  -3.51200 36.05700 32.11600
H  -2.48300 37.01300 30.98200
H  -2.07600 36.86800 32.72700
H  -1.13400 32.69900 32.57500
H  -1.81900 31.85400 31.23500
H  -3.01700 30.76900 32.97800
H  -3.76800 32.27400 33.35600
H  2.52600 38.28700 28.09100
H  1.36000 37.94400 29.45600
H  1.26600 39.43100 28.54200
H  1.39400 40.15800 26.50400
H  2.31800 40.18500 24.90800
H  2.86900 39.22300 26.21200
H  -1.81000 35.36600 21.98000
H  -4.01300 33.55900 22.35200
H  -4.28900 36.47200 23.03900
H  -4.49100 35.69100 21.43600
H  -3.31000 37.00700 21.60100
H  -1.75900 31.98100 22.68100
H  -1.04100 33.22000 21.68400
H  -1.66300 32.20300 19.90000
H  -3.45700 32.50200 20.34200
H  -2.66000 31.00800 20.63500
H  -5.77700 28.80000 26.21500
H  -5.33700 29.57200 24.63600
H  -6.67700 30.15400 25.64800
H  -4.09500 30.63100 30.81700
H  -6.78500 31.64000 33.93100
H  -7.77300 30.48400 33.08100
H  -7.83700 32.19300 32.49800

