158

Mg 35.29800 1.60700 29.19900
C  33.25200 2.64300 31.78200
C  37.94800 2.11400 31.27700
C  37.25900 0.82600 26.64500
C  32.56300 1.85800 27.08200
N  35.50700 2.20100 31.28900
C  34.55300 2.45500 32.19600
C  35.02900 2.44500 33.64500
C  36.49700 2.38200 33.41200
C  36.71100 2.29900 31.90500
C  37.32600 3.61100 33.99900
C  34.44000 1.36000 34.53500
C  34.02200 1.78300 35.96100
H  34.75500 2.95900 36.61200
N  37.35100 1.39200 29.03900
C  38.22900 1.76000 29.94500
C  39.57400 1.61800 29.41900
C  39.42400 1.09700 28.03700
C  37.98100 1.04700 27.85100
C  40.78400 1.89500 30.31300
C  40.48200 0.71800 27.03800
O  40.12300 0.43000 25.90900
C  41.89300 0.69500 27.43100
N  34.87800 1.28800 27.25200
C  35.81800 0.92000 26.35700
C  35.27300 0.56900 24.96700
C  33.74000 0.77300 25.15700
C  33.76700 1.39900 26.53000
C  35.80900 1.42400 23.81600
C  32.92600 -0.53400 24.95800
C  33.08000 -1.24400 23.51700
N  33.32600 2.13100 29.31100
C  32.35500 2.25000 28.40100
C  31.11200 2.78300 28.93900
C  31.43300 2.93000 30.26300
C  32.78000 2.50200 30.43900
C  29.83300 2.96500 28.25400
C  30.87300 3.30800 31.58000
O  29.78900 3.64200 31.92300
C  32.02000 3.00000 32.58900
C  32.19100 4.27500 33.38200
O  32.76900 5.33100 33.01500
O  31.50000 4.19800 34.55700
C  31.31100 5.48600 35.18800
H  38.83000 2.20500 31.91300
H  37.82500 0.53600 25.75700
H  31.79300 1.98100 26.31700
H  34.89600 3.46100 34.01700
H  36.96300 1.49600 33.84400
H  36.69200 4.28300 34.57800
H  37.75000 4.27900 33.24900
H  38.14700 3.31100 34.65000
H  35.04600 0.46200 34.65700
H  33.46500 1.04400 34.16400
H  34.13700 0.97000 36.67900
H  32.96400 2.04400 35.93300
H  41.78000 1.64100 29.95000
H  40.71100 1.38400 31.27300
H  40.77500 2.98000 30.41600
H  42.29500 1.69200 27.61100
H  42.43700 0.43200 26.52300
H  42.08800 0.06300 28.29700
H  35.49000 -0.46100 24.68500
H  33.37900 1.57300 24.51100
H  35.06200 1.94000 23.21300
H  36.43800 0.77700 23.20500
H  36.48500 2.18300 24.20800
H  31.87100 -0.27500 25.04600
H  33.36300 -1.21600 25.68800
H  32.34200 -1.03700 22.74100
H  33.13400 -2.28700 23.82900
H  34.07400 -1.07500 23.10400
H  29.04700 3.06800 29.00200
H  29.70700 2.15600 27.53400
H  29.83500 3.83400 27.59500
H  31.67600 2.17300 33.20900
H  32.30200 5.91900 35.32500
H  30.87800 5.34400 36.17800
H  30.71100 6.21400 34.64200
Mg 6.76900 53.81200 41.06300
C  6.15500 50.33500 41.19200
C  10.00400 53.09800 40.37700
C  7.14000 57.09100 40.29100
C  3.32400 54.32000 41.38100
N  7.87900 51.89600 40.69500
C  7.46600 50.60900 40.87600
C  8.64500 49.71100 40.70300
C  9.87900 50.59600 40.63100
C  9.24200 52.00200 40.59500
C  10.77600 50.43900 41.85600
C  8.69300 48.65100 39.58900
C  8.70400 49.11300 38.12200
H  7.53300 48.69000 37.17600
N  8.37000 54.91900 40.39000
C  9.62100 54.47200 40.14500
C  10.43800 55.52800 39.60200
C  9.68300 56.77400 39.61700
C  8.33300 56.33700 40.16500
C  11.79000 55.21800 39.09600
C  10.17400 58.11600 39.17700
O  11.24000 58.30600 38.60500
C  9.36000 59.44700 39.38800
N  5.32400 55.47100 40.51400
C  5.79900 56.74800 40.51700
C  4.61800 57.70600 40.66100
C  3.35900 56.80300 40.59600
C  4.04900 55.46100 40.83700
C  4.74600 58.42900 42.06900
C  2.56600 56.92500 39.27500
C  1.11300 57.38600 39.39000
N  5.07200 52.67900 41.53700
C  3.75500 52.99600 41.66000
C  2.96500 51.73900 41.89800
C  3.96400 50.70800 41.81200
C  5.18500 51.30100 41.48400
C  1.56600 51.68100 42.03400
C  4.04900 49.29100 41.84900
O  3.20600 48.49300 42.17700
C  5.44900 48.95000 41.32000
C  5.30200 48.14900 40.15200
O  4.79100 48.59500 39.11000
O  5.64300 46.82700 40.55000
C  5.64100 45.89300 39.42300
H  11.07100 52.92200 40.22300
H  7.15600 58.18300 40.28900
H  2.24000 54.44700 41.40600
H  8.60500 49.17600 41.65200
H  10.48900 50.49500 39.73300
H  10.53200 51.20500 42.59300
H  11.80200 50.71700 41.61600
H  10.80200 49.41900 42.23900
H  7.93700 47.88800 39.77600
H  9.62600 48.10000 39.70300
H  9.66400 48.96600 37.62700
H  8.52200 50.18500 38.20200
H  11.71300 54.84200 38.07600
H  12.20000 54.43200 39.73100
H  12.44100 56.08100 39.23100
H  8.52800 59.53800 38.69000
H  9.99500 60.32900 39.30600
H  9.02500 59.54500 40.42100
H  4.68200 58.44400 39.86200
H  2.73300 57.06800 41.44800
H  5.78600 58.42400 42.39300
H  4.12300 58.13900 42.91500
H  4.50700 59.48900 41.98000
H  2.64400 56.04700 38.63300
H  3.03200 57.72900 38.70400
H  0.49200 56.95000 38.60800
H  1.10200 58.47500 39.42000
H  0.72200 57.01800 40.33900
H  1.42500 51.29600 43.04400
H  1.13900 50.92900 41.37000
H  1.00900 52.61700 42.04900
H  5.98500 48.37600 42.07700
H  6.61900 45.64300 39.01100
H  4.98300 46.20600 38.61300
H  5.31000 44.91500 39.77200

