158

Mg 46.64200 25.52700 28.62000
C  47.90500 27.50900 31.18900
C  45.75000 23.09000 31.21700
C  45.84000 23.28700 26.29800
C  48.13400 27.54700 26.40000
N  46.76600 25.35300 30.90000
C  47.23800 26.38000 31.68700
C  47.01000 26.05500 33.15600
C  46.45400 24.58600 33.18300
C  46.30000 24.30600 31.67600
C  47.24900 23.46600 33.97200
C  46.04800 27.17600 33.79100
C  46.50000 27.84300 35.11800
H  45.42900 28.02900 36.19700
N  45.76100 23.49600 28.73900
C  45.54100 22.66100 29.85900
C  44.82100 21.55200 29.36300
C  44.62700 21.59600 27.93700
C  45.46600 22.79100 27.59900
C  44.29600 20.49300 30.42700
C  43.96400 20.72800 26.94500
O  43.94800 20.96100 25.76100
C  43.18700 19.53400 27.49400
N  46.92000 25.45100 26.57500
C  46.47300 24.43800 25.78000
C  46.75400 24.71900 24.31800
C  47.34900 26.14600 24.33000
C  47.55300 26.43100 25.84300
C  47.64200 23.67000 23.60900
C  46.38600 27.15500 23.68400
C  46.99700 28.33600 23.00400
N  47.83100 27.20800 28.74600
C  48.36000 27.93000 27.70200
C  48.93400 29.13700 28.17500
C  48.83600 29.08700 29.56700
C  48.10300 27.83900 29.88300
C  49.55400 30.18600 27.35700
C  49.12200 29.77800 30.88200
O  49.77200 30.80700 31.12400
C  48.51200 28.70200 31.92300
C  49.45100 28.28400 32.99200
O  50.28000 27.41800 32.81200
O  49.45700 29.05700 34.13900
C  50.48500 29.03700 35.23200
H  45.61300 22.33400 31.99300
H  45.61100 22.73600 25.38300
H  48.47600 28.15700 25.56200
H  48.02100 26.11500 33.55900
H  45.43000 24.58200 33.55700
H  47.81500 22.87500 33.25100
H  46.64600 22.75600 34.53700
H  48.01400 23.86400 34.63900
H  45.17200 26.59000 34.06600
H  45.64500 27.89800 33.08100
H  46.88900 28.83000 34.86500
H  47.28900 27.21700 35.53300
H  44.75200 20.52300 31.41700
H  44.25400 19.46700 30.06200
H  43.26200 20.71100 30.69400
H  42.33500 19.90700 28.06300
H  43.79300 18.84100 28.07800
H  42.80900 19.00300 26.62000
H  45.81600 24.75300 23.76400
H  48.32100 26.16500 23.83700
H  47.44600 22.72900 24.12300
H  48.70300 23.88900 23.72600
H  47.33200 23.63900 22.56500
H  45.84700 27.70200 24.45800
H  45.60400 26.69600 23.08000
H  46.39900 28.40900 22.09500
H  48.07200 28.34200 22.82600
H  46.93900 29.26900 23.56400
H  49.32700 31.13900 27.83500
H  49.22300 30.24600 26.32100
H  50.63600 30.05700 27.31400
H  47.70300 29.29500 32.35000
H  50.20000 28.42900 36.09100
H  50.53000 30.08800 35.51500
H  51.46500 28.76600 34.84000
Mg 29.76800 57.70100 40.71300
C  27.16100 55.46600 39.83800
C  31.98900 55.29100 39.48100
C  32.26200 60.02300 40.77800
C  27.48000 60.12500 41.43600
N  29.55300 55.63400 39.69000
C  28.44400 54.90100 39.59000
C  28.70600 53.46200 38.99600
C  30.29000 53.41200 39.06900
C  30.69700 54.87100 39.43800
C  30.89500 52.40400 40.06500
C  28.05400 53.06400 37.73000
C  27.66700 54.17100 36.67200
H  28.38300 54.11800 35.25000
N  31.85300 57.62800 40.22300
C  32.57400 56.53900 39.77500
C  33.90100 56.84400 39.59300
C  33.99000 58.26300 39.91900
C  32.66800 58.72900 40.36800
C  34.92200 55.86800 39.19400
C  35.30500 59.09600 39.85700
O  36.34000 58.69700 39.38100
C  35.32500 60.42200 40.44200
N  29.86700 59.80000 41.16300
C  30.97500 60.45500 41.14000
C  30.81400 61.95600 41.51000
C  29.31300 61.97000 42.06500
C  28.82400 60.59400 41.51300
C  31.73100 62.47500 42.61500
C  28.40600 63.22100 41.69600
C  28.20900 64.16400 42.83700
N  27.76200 57.84000 40.74900
C  26.95600 58.88900 41.11100
C  25.59500 58.50700 41.07800
C  25.63300 57.21300 40.64300
C  26.96500 56.82400 40.37600
C  24.35700 59.32800 41.32200
C  24.84000 55.99400 40.27500
O  23.65900 55.83000 40.24700
C  25.82500 54.84300 39.72400
C  25.78400 53.65900 40.57300
O  25.78300 53.68700 41.80600
O  25.70000 52.57900 39.77100
C  25.91600 51.27000 40.43500
H  32.66900 54.47100 39.24200
H  33.06300 60.76400 40.73100
H  26.75400 60.88100 41.74200
H  28.51900 52.70100 39.75500
H  30.79000 53.13400 38.14100
H  30.21200 51.58500 40.29100
H  30.93900 52.76200 41.09400
H  31.79000 51.90400 39.69700
H  27.10500 52.56600 37.93100
H  28.75000 52.41600 37.19800
H  27.82000 55.15100 37.12400
H  26.61600 53.95600 36.47800
H  35.89800 56.31300 39.00000
H  34.59500 55.26900 38.34500
H  35.17600 55.17500 39.99600
H  34.83400 61.15700 39.80400
H  36.37300 60.71400 40.37400
H  35.13500 60.62000 41.49700
H  30.94300 62.48300 40.56500
H  29.28400 61.90100 43.15300
H  32.63400 62.94300 42.22400
H  32.08900 61.61500 43.18100
H  31.18800 63.11400 43.31200
H  27.51900 62.99000 41.10700
H  29.11400 63.83200 41.13600
H  28.69900 65.12900 42.70300
H  28.52100 63.77500 43.80700
H  27.14700 64.36500 42.98100
H  24.43700 59.57500 42.38100
H  23.43800 58.75900 41.18200
H  24.23400 60.21900 40.70600
H  25.45300 54.62900 38.72200
H  26.02700 50.47300 39.70000
H  25.05400 50.92500 41.00700
H  26.76100 51.39000 41.11400

