158

Mg 40.78900 7.84200 29.75000
C  42.51500 9.13100 32.43900
C  38.35800 6.63500 31.80700
C  39.43600 6.38900 27.11300
C  43.71500 8.49900 27.78400
N  40.52100 7.89100 31.88500
C  41.28800 8.56700 32.80000
C  40.52300 8.62700 34.14200
C  39.28900 7.67200 33.97200
C  39.36100 7.43600 32.46500
C  39.43600 6.38600 34.76000
C  40.23200 10.00200 34.78100
C  39.25400 10.09700 35.99500
H  39.80800 10.85500 37.14500
N  39.05600 6.75700 29.43300
C  38.17700 6.33000 30.38500
C  37.06600 5.62800 29.75200
C  37.32300 5.69100 28.33400
C  38.67200 6.32000 28.25000
C  36.05600 4.82000 30.52300
C  36.41200 5.18300 27.18500
O  36.69700 5.22600 26.00000
C  34.91800 4.96300 27.62100
N  41.51900 7.35100 27.85100
C  40.72400 6.88700 26.88100
C  41.43700 6.56700 25.55800
C  42.66100 7.57000 25.69500
C  42.69500 7.79800 27.21500
C  41.78600 5.10400 25.32000
C  42.55600 8.86100 24.91300
C  41.99500 10.17100 25.63400
N  42.70800 8.57600 29.99100
C  43.73300 8.87800 29.12300
C  44.77700 9.63800 29.82900
C  44.29900 9.73600 31.06600
C  43.11600 9.00900 31.17700
C  46.09300 10.18700 29.25100
C  44.64100 10.16100 32.33500
O  45.59500 10.82500 32.69600
C  43.44000 9.92100 33.32900
C  43.98000 9.17900 34.50100
O  44.41400 8.06400 34.61100
O  43.78400 10.00800 35.62800
C  44.13100 9.25000 36.95600
H  37.62900 6.22600 32.51000
H  39.08400 5.90700 26.19900
H  44.39000 8.74900 26.96300
H  41.17600 8.16800 34.88500
H  38.34700 8.20100 34.11800
H  38.75400 6.42200 35.61000
H  40.47500 6.31700 35.08000
H  39.23900 5.57800 34.05500
H  39.84700 10.58000 33.94100
H  41.24400 10.26700 35.08500
H  39.14800 9.07800 36.36800
H  38.27900 10.51100 35.73600
H  35.10300 5.34100 30.61100
H  36.37900 4.61900 31.54400
H  35.90800 3.81700 30.12300
H  34.76500 4.12000 28.29500
H  34.40600 4.72000 26.69000
H  34.53500 5.91400 27.99100
H  40.78000 6.92400 24.76500
H  43.61900 7.12300 25.42800
H  41.69600 4.62400 26.29500
H  42.83500 5.01200 25.03900
H  41.12700 4.62000 24.59900
H  42.01300 8.70800 23.98100
H  43.55700 9.14800 24.59000
H  41.56200 9.95400 26.61100
H  41.29800 10.65700 24.95200
H  42.81400 10.85200 25.86300
H  45.79900 10.75500 28.36800
H  46.87300 9.45500 29.04200
H  46.51300 10.92300 29.93600
H  42.95800 10.87800 33.53200
H  43.54600 9.65800 37.78000
H  45.20000 9.38300 37.11900
H  43.90800 8.18300 36.94100
Mg -10.60100 16.17600 42.94100
C  -7.16000 16.89100 43.10700
C  -11.20500 19.38500 42.22000
C  -13.78500 15.30700 42.61500
C  -9.69100 12.77200 43.16100
N  -9.21900 17.95300 42.41700
C  -7.89000 18.03100 42.69800
C  -7.38400 19.46500 42.75000
C  -8.75800 20.26500 42.42300
C  -9.82000 19.17100 42.38400
C  -9.06500 21.48100 43.39600
C  -6.11100 19.68200 41.77400
C  -5.81300 21.09300 41.31200
H  -6.01100 21.50300 39.86800
N  -12.24600 17.15400 42.22300
C  -12.30700 18.50500 42.04100
C  -13.64000 18.84200 41.66600
C  -14.42500 17.67700 41.57900
C  -13.50400 16.66000 42.20800
C  -14.06300 20.33900 41.48100
C  -15.86200 17.53200 41.04900
O  -16.46800 18.40700 40.47300
C  -16.47000 16.14900 41.09400
N  -11.61800 14.22900 42.73800
C  -12.98100 14.17900 42.93500
C  -13.47400 12.79400 43.36800
C  -12.17500 12.01800 43.46600
C  -11.06500 13.05400 43.13200
C  -14.35200 12.75900 44.64600
C  -12.12400 10.72600 42.58000
C  -12.59500 9.50200 43.28800
N  -8.81900 15.03400 43.17000
C  -8.63800 13.68300 43.19500
C  -7.28200 13.33600 43.41600
C  -6.67400 14.56700 43.41200
C  -7.63200 15.58400 43.22400
C  -6.72400 12.00800 43.68900
C  -5.34500 15.22000 43.70800
O  -4.30500 14.70300 43.94400
C  -5.67500 16.76800 43.57000
C  -5.34700 17.37900 44.88200
O  -5.82100 17.11800 45.90800
O  -4.42500 18.44200 44.68100
C  -3.91600 19.10200 45.88900
H  -11.28700 20.45600 42.01900
H  -14.84900 15.07700 42.53200
H  -9.34200 11.76300 43.39100
H  -7.11600 19.73700 43.77100
H  -8.60500 20.65500 41.41600
H  -8.14400 21.83500 43.86000
H  -9.74100 21.21400 44.20800
H  -9.61000 22.23100 42.82300
H  -6.46400 19.09600 40.92600
H  -5.17100 19.33500 42.20300
H  -4.81100 21.45900 41.53800
H  -6.46400 21.82700 41.78500
H  -13.87500 20.78100 40.50300
H  -13.54600 21.02500 42.15100
H  -15.09200 20.45300 41.82400
H  -15.93300 15.33400 40.60900
H  -17.31500 16.32400 40.42800
H  -16.99300 15.91600 42.02200
H  -14.11200 12.47700 42.54300
H  -12.03100 11.77000 44.51700
H  -13.90100 12.12600 45.41100
H  -15.37000 12.53600 44.32900
H  -14.25100 13.80100 44.94800
H  -11.15300 10.48000 42.15000
H  -12.77300 10.90800 41.72400
H  -12.83900 9.76600 44.31800
H  -11.87900 8.68100 43.28900
H  -13.53500 9.17900 42.84200
H  -7.05500 11.32000 42.91100
H  -6.97900 11.63900 44.68200
H  -5.63900 11.97100 43.59600
H  -4.94900 17.18600 42.87400
H  -2.83700 19.24500 45.82100
H  -4.13200 18.57800 46.82000
H  -4.28000 20.12800 45.93200

