158

Mg 44.44200 4.73900 47.19900
C  42.33800 7.45800 46.91100
C  41.67200 2.66600 46.64000
C  46.51800 2.16800 46.79200
C  47.21500 6.91500 46.89300
N  42.18400 5.02700 46.83700
C  41.55300 6.29400 46.68100
C  39.97000 6.15200 46.61800
C  39.84700 4.57900 46.55100
C  41.31000 4.07900 46.71700
C  38.89100 3.98400 47.67700
C  39.34400 6.82700 45.37600
C  39.82600 6.21800 44.04900
H  40.46800 7.26400 43.14300
N  44.16700 2.65200 46.79100
C  42.95400 2.01000 46.69700
C  43.23300 0.59000 46.62200
C  44.61500 0.36300 46.59100
C  45.19800 1.74500 46.71100
C  42.05600 -0.42400 46.57300
C  45.30100 -1.00300 46.59200
O  44.59400 -2.03300 46.65300
C  46.77600 -1.05200 46.58400
N  46.53500 4.60000 46.74600
C  47.15600 3.43500 46.83000
C  48.63500 3.56700 47.07900
C  48.82700 5.06800 46.78600
C  47.38800 5.58200 46.71000
C  49.10300 3.17300 48.48700
C  49.64900 5.40900 45.50600
C  51.21100 5.35100 45.73700
N  44.78500 6.77000 47.07800
C  45.93400 7.47900 46.99600
C  45.58300 8.91100 46.92200
C  44.16300 8.91900 46.93200
C  43.73800 7.57700 47.04400
C  46.56000 10.02800 46.73000
C  42.98500 9.75100 46.93200
O  42.78400 10.99200 46.94100
C  41.73900 8.78200 47.08000
C  41.01800 8.99900 48.43000
O  41.09500 8.29500 49.40700
O  40.33500 10.20100 48.39400
C  39.70800 10.54800 49.69100
H  40.72900 2.12000 46.56900
H  47.27700 1.40900 46.59100
H  48.01000 7.66200 46.94500
H  39.58700 6.61700 47.52600
H  39.47100 4.12700 45.63300
H  38.09300 4.68700 47.91900
H  39.51300 3.72500 48.53300
H  38.42800 3.06800 47.31000
H  39.46100 7.90900 45.32200
H  38.26100 6.69800 45.36500
H  38.94700 5.85700 43.51500
H  40.54300 5.43500 44.29900
H  42.03400 -0.83300 47.58300
H  42.15000 -1.32100 45.96000
H  41.11700 -0.00300 46.21400
H  47.16800 -2.05000 46.38500
H  47.05300 -0.64900 47.55900
H  47.11700 -0.44600 45.74600
H  49.21800 2.92000 46.42400
H  49.29500 5.61300 47.60500
H  48.24600 2.73900 49.00100
H  49.36100 4.10500 48.99000
H  49.94500 2.48900 48.38300
H  49.44500 6.41900 45.15100
H  49.34600 4.72600 44.71200
H  51.68100 4.98800 44.82300
H  51.47200 4.80700 46.64500
H  51.56000 6.37200 45.88700
H  47.17500 9.79900 45.85900
H  47.24000 10.00900 47.58200
H  46.09500 11.00200 46.57900
H  41.07100 8.99700 46.24700
H  40.31100 11.23900 50.28000
H  39.31000 9.69400 50.23900
H  38.79900 11.00800 49.30500
Mg 47.26900 25.21100 28.60900
C  48.34200 27.23600 31.07800
C  46.39100 22.83900 31.04500
C  46.42500 23.07900 26.14800
C  48.34600 27.49600 26.25000
N  47.30300 25.07400 30.74600
C  47.68800 26.08300 31.63200
C  47.38100 25.82600 33.08600
C  46.85500 24.36100 33.06900
C  46.88200 24.00500 31.56800
C  47.65700 23.28900 33.87600
C  46.36200 26.83200 33.67100
C  46.72000 27.61500 34.97800
H  45.95100 27.46300 36.26800
N  46.58300 23.24100 28.54400
C  46.31300 22.42100 29.66600
C  45.95100 21.11900 29.24800
C  45.82000 21.17000 27.77900
C  46.30900 22.53300 27.45300
C  45.64900 19.96300 30.15300
C  45.31200 20.07400 26.77900
O  45.40100 20.16500 25.54300
C  44.69000 18.79800 27.27300
N  47.39000 25.21300 26.45000
C  47.00900 24.24200 25.68900
C  47.05700 24.68400 24.22700
C  47.88500 25.96700 24.27800
C  47.84000 26.30800 25.72300
C  47.73000 23.65200 23.25900
C  47.29100 27.08200 23.33300
C  48.34000 27.69100 22.41200
N  48.09900 27.03400 28.61000
C  48.54100 27.88000 27.60000
C  49.20800 29.03100 28.17400
C  49.15700 28.90400 29.58100
C  48.51200 27.64800 29.77600
C  49.90400 30.03500 27.29200
C  49.41900 29.47100 30.87700
O  50.05700 30.48700 31.16500
C  48.99200 28.35000 31.90600
C  50.05300 27.98400 32.87600
O  50.76300 26.96500 32.79300
O  50.02800 28.94100 33.89600
C  50.92500 28.61600 34.99800
H  46.15400 22.12200 31.83300
H  46.16500 22.54200 25.23300
H  48.67100 28.23100 25.51100
H  48.34300 25.91900 33.58900
H  45.82900 24.28800 33.43000
H  47.97200 22.42200 33.29500
H  47.21500 22.88800 34.78800
H  48.63600 23.74100 34.03100
H  45.43400 26.28600 33.83900
H  46.04300 27.54900 32.91400
H  46.64700 28.67600 34.73800
H  47.74300 27.28000 35.15100
H  44.57400 19.78100 30.15700
H  46.07000 20.08700 31.15000
H  46.16900 19.13400 29.67200
H  44.18600 18.92900 28.23100
H  45.59400 18.20000 27.39000
H  44.11900 18.20100 26.56100
H  46.03800 24.82500 23.86900
H  48.93700 25.84100 24.02100
H  48.31200 22.92100 23.82100
H  48.34700 24.24600 22.58600
H  47.05400 23.29600 22.48200
H  46.73900 27.82700 23.90700
H  46.62800 26.64400 22.58800
H  48.46500 27.38900 21.37200
H  49.33700 27.36600 22.70900
H  48.26000 28.75900 22.61500
H  49.62900 29.88900 26.24800
H  50.98900 29.92600 27.28100
H  49.65900 31.05300 27.59700
H  48.14400 28.76400 32.45200
H  50.96800 27.55900 35.25700
H  50.75500 29.21600 35.89200
H  51.93200 28.89300 34.68600

