158

Mg 25.32200 2.23200 29.54300
C  27.49900 1.75400 32.25600
C  22.83900 2.68200 31.66600
C  23.39000 2.47900 26.84500
C  28.10400 1.52800 27.35900
N  25.17400 1.96200 31.74900
C  26.20700 2.07000 32.63100
C  25.64700 2.35800 34.01500
C  24.13000 2.56900 33.91800
C  24.03500 2.44300 32.33800
C  23.18400 1.60900 34.62500
C  26.41300 3.44600 34.86100
C  26.94700 3.01300 36.28000
H  26.59800 4.03500 37.45200
N  23.33100 2.42000 29.31300
C  22.46400 2.63900 30.36000
C  21.12100 2.73900 29.79900
C  21.28100 2.52100 28.36300
C  22.72800 2.49500 28.09200
C  19.91500 2.88700 30.63700
C  20.35300 2.26300 27.29300
O  20.58800 2.12600 26.10300
C  18.90900 2.14300 27.75900
N  25.70500 2.03200 27.39300
C  24.67700 2.19600 26.50100
C  25.12200 2.06300 25.08600
C  26.72000 1.93100 25.22500
C  26.88600 1.89500 26.76700
C  24.33100 0.96900 24.37400
C  27.58400 3.00700 24.51900
C  27.14600 4.43500 24.71800
N  27.36000 1.73100 29.75900
C  28.37600 1.48100 28.78000
C  29.59500 1.10600 29.42400
C  29.28800 1.19900 30.75900
C  27.95400 1.52400 30.89700
C  30.90100 0.71600 28.81000
C  29.84900 1.14400 32.11700
O  31.02600 0.96500 32.46300
C  28.70900 1.58000 33.17900
C  28.66000 0.48500 34.19800
O  28.02000 -0.53200 34.17100
O  29.34500 0.91500 35.17400
C  29.07700 0.39300 36.48900
H  22.01300 3.01900 32.29600
H  22.75900 2.79600 26.01200
H  28.86000 1.20300 26.64200
H  25.94000 1.41800 34.48300
H  23.92300 3.62200 34.10800
H  23.00100 0.81600 33.90000
H  22.30500 2.19500 34.89200
H  23.61300 1.06400 35.46600
H  25.65000 4.18400 35.11200
H  27.15500 3.93700 34.23200
H  28.03500 2.96300 36.24000
H  26.53500 2.02600 36.49200
H  20.08200 3.16900 31.67700
H  19.46000 1.89600 30.66000
H  19.14600 3.56200 30.26300
H  19.10200 1.40600 28.53900
H  18.32300 1.65900 26.97800
H  18.44900 3.06200 28.12300
H  24.82900 3.01600 24.64500
H  27.02600 0.94700 24.86900
H  23.42300 0.63000 24.87300
H  24.96800 0.09100 24.26800
H  24.01800 1.35600 23.40400
H  27.54700 2.73300 23.46400
H  28.62900 2.91500 24.81500
H  26.76600 4.72800 23.74000
H  27.93200 5.15300 24.94800
H  26.31100 4.70300 25.36700
H  30.75400 -0.16100 28.17800
H  31.58700 0.46200 29.61700
H  31.29800 1.49900 28.16400
H  29.02000 2.49900 33.67500
H  28.00900 0.52700 36.65900
H  29.60800 1.10600 37.11900
H  29.39500 -0.64900 36.45300
Mg 49.68100 45.82300 41.31500
C  46.38300 45.90300 40.19800
C  49.89600 42.57600 40.32400
C  53.05200 46.04100 41.48000
C  49.47500 49.30200 41.87200
N  48.32800 44.50800 40.06500
C  47.04800 44.71700 39.87100
C  46.33700 43.48000 39.23800
C  47.42200 42.32200 39.62700
C  48.64500 43.15500 40.06900
C  46.98400 41.22800 40.67500
C  46.04600 43.70400 37.72200
C  44.64600 43.34100 37.23000
H  44.20200 43.92000 35.86300
N  51.21800 44.41000 41.26000
C  51.13600 43.08200 40.83500
C  52.40200 42.49900 40.83800
C  53.31700 43.58000 41.06200
C  52.52100 44.76400 41.28200
C  52.50400 40.96000 40.66000
C  54.86800 43.30900 41.11200
O  55.36600 42.23200 40.83100
C  55.82400 44.40700 41.48100
N  51.03800 47.43400 41.79800
C  52.37000 47.26200 41.79000
C  53.10700 48.56600 42.15300
C  51.93400 49.51900 42.57700
C  50.75300 48.73900 42.01700
C  54.29000 48.40500 43.07100
C  51.99500 50.95100 41.95400
C  52.54700 52.10300 42.83600
N  48.20500 47.32500 41.13900
C  48.31300 48.63600 41.41600
C  47.03500 49.24300 41.02000
C  46.19300 48.24000 40.63800
C  47.00400 47.08400 40.63800
C  46.68300 50.72700 41.30500
C  44.94000 47.92600 40.03800
O  44.01900 48.60400 39.72900
C  44.94500 46.35500 39.87400
C  43.99200 45.84600 40.84700
O  44.37800 45.40000 41.94000
O  42.66400 46.03200 40.47200
C  41.66200 45.45100 41.35900
H  49.84400 41.51900 40.05200
H  54.13500 46.17600 41.52500
H  49.34500 50.36600 42.08400
H  45.37400 43.31300 39.72200
H  47.60100 41.74800 38.71800
H  47.71200 40.95100 41.43800
H  46.72200 40.34600 40.09200
H  46.07800 41.49200 41.22000
H  46.71800 43.00700 37.22200
H  46.29100 44.71300 37.39000
H  43.93700 43.64900 37.99900
H  44.56000 42.25500 37.19800
H  53.29200 40.54200 41.28600
H  52.77000 40.72800 39.62900
H  51.63700 40.41600 41.03500
H  56.03200 45.12600 40.68900
H  56.77000 43.86900 41.54100
H  55.43100 44.83100 42.40500
H  53.55700 48.92400 41.22700
H  51.91800 49.45200 43.66500
H  54.17600 49.05600 43.93800
H  55.25000 48.67500 42.63100
H  54.39500 47.37900 43.42200
H  51.04400 51.24400 41.51000
H  52.71100 50.82500 41.14200
H  52.79400 51.62800 43.78500
H  51.86300 52.94400 42.95900
H  53.36400 52.55100 42.27100
H  46.88600 50.83900 42.36900
H  45.67900 50.98800 40.97000
H  47.42000 51.33900 40.78500
H  44.71800 46.06200 38.84900
H  41.00700 44.84000 40.73700
H  41.22100 46.32700 41.83500
H  42.05000 44.83700 42.17200

