158

Mg 35.42400 2.49000 29.84600
C  33.35500 3.41000 32.50400
C  38.19200 2.75300 32.01500
C  37.43700 1.73200 27.36100
C  32.67000 2.74700 27.72600
N  35.69800 2.98800 31.96300
C  34.69300 3.15800 32.91100
C  35.24700 3.21000 34.32700
C  36.79100 3.23900 34.14400
C  36.91300 2.90000 32.65000
C  37.46100 4.54100 34.67300
C  34.67300 1.99800 35.14300
C  34.17700 2.24100 36.63700
H  34.80500 3.49100 37.26000
N  37.60900 2.24300 29.63800
C  38.55200 2.41900 30.65900
C  39.86300 2.09900 30.12200
C  39.67300 1.79500 28.77100
C  38.19200 1.95200 28.49900
C  41.18900 2.29500 30.88200
C  40.70100 1.51000 27.66500
O  40.35600 1.08600 26.56600
C  42.24000 1.46700 27.90000
N  35.15000 2.36900 27.90200
C  36.13800 1.99300 26.98100
C  35.60900 1.89500 25.53300
C  34.04900 1.80900 25.77600
C  33.91700 2.39800 27.26800
C  35.98700 3.02000 24.61900
C  33.38500 0.45000 25.52700
C  32.57900 0.29100 24.29500
N  33.37600 3.01200 30.03000
C  32.40800 3.16400 29.05500
C  31.20600 3.69300 29.70500
C  31.45300 3.73200 31.06300
C  32.81900 3.33600 31.17400
C  29.97100 4.01100 28.83500
C  30.88200 4.04700 32.35400
O  29.78600 4.49600 32.58100
C  32.14800 3.71100 33.38100
C  32.15700 4.77400 34.40900
O  32.94800 5.75100 34.31100
O  31.17400 4.57700 35.34800
C  31.07100 5.72200 36.33500
H  39.06000 2.86100 32.66900
H  38.07900 1.71900 26.47800
H  31.78300 2.83600 27.09600
H  34.92600 4.10400 34.86200
H  37.33500 2.47700 34.70000
H  38.50800 4.41000 34.94600
H  36.86900 4.95800 35.48900
H  37.49900 5.35800 33.95300
H  35.48200 1.26800 35.18800
H  33.89800 1.57000 34.50700
H  34.31100 1.34600 37.24400
H  33.09700 2.37900 36.69100
H  41.87100 1.45500 30.74400
H  41.09300 2.22700 31.96500
H  41.74100 3.20500 30.64500
H  42.40900 0.69300 28.64800
H  42.46700 2.48000 28.23200
H  42.63900 1.21600 26.91800
H  35.94900 1.01500 24.98800
H  33.48000 2.50400 25.15900
H  36.33600 2.67700 23.64500
H  36.77700 3.65600 25.01600
H  35.13200 3.68500 24.49200
H  32.83000 0.27200 26.44800
H  34.19200 -0.28300 25.54000
H  32.79400 1.05000 23.54200
H  31.52000 0.27600 24.55300
H  32.74600 -0.67800 23.82700
H  30.13700 4.24100 27.78200
H  29.32900 4.75500 29.30700
H  29.31500 3.14200 28.79700
H  31.88300 2.79500 33.90900
H  30.69900 6.53600 35.71300
H  32.04500 5.96500 36.75900
H  30.28400 5.44800 37.03800
Mg -11.37700 16.00100 41.29700
C  -8.17500 14.59800 41.08600
C  -10.14300 18.81600 39.73000
C  -14.52400 17.24200 41.04000
C  -12.47800 12.93000 42.34500
N  -9.42200 16.60900 40.51800
C  -8.28600 15.91100 40.52200
C  -7.11300 16.65100 39.74500
C  -7.77500 18.10700 39.51000
C  -9.22600 17.76400 39.84000
C  -7.15900 19.05800 40.52400
C  -6.74000 15.97300 38.44400
C  -5.26400 15.85700 38.00500
H  -4.87300 16.72700 36.87900
N  -12.23400 17.71500 40.38000
C  -11.52300 18.79800 39.88100
C  -12.41100 19.88700 39.52900
C  -13.73900 19.54400 39.94200
C  -13.57900 18.10500 40.46700
C  -12.00600 21.23200 39.06900
C  -15.04400 20.39100 39.90600
O  -14.95600 21.54400 39.56500
C  -16.35200 19.92400 40.40800
N  -13.29600 15.12000 41.50600
C  -14.39900 15.94100 41.57400
C  -15.64100 15.16100 42.08700
C  -14.97000 13.83300 42.65100
C  -13.52300 13.92900 42.07000
C  -16.48500 16.06900 43.11000
C  -15.69900 12.54700 42.35100
C  -16.56300 11.89200 43.46200
N  -10.52800 14.11400 41.65900
C  -11.12600 12.95900 42.12100
C  -10.12800 11.94100 42.31300
C  -8.99900 12.53000 41.87900
C  -9.26500 13.85100 41.51000
C  -10.32100 10.61600 42.83600
C  -7.56400 12.32600 41.73600
O  -6.94400 11.33100 41.88400
C  -6.91100 13.72700 41.24300
C  -5.95200 14.34600 42.18600
O  -6.21100 15.03700 43.16500
O  -4.72500 13.79600 41.90900
C  -3.63400 14.28600 42.67500
H  -9.79600 19.67300 39.14900
H  -15.55600 17.57900 41.16000
H  -12.78500 12.01600 42.85800
H  -6.18600 16.68300 40.31600
H  -7.71300 18.43100 38.47100
H  -7.98300 19.44700 41.12200
H  -6.63600 19.89400 40.05900
H  -6.54900 18.52500 41.25300
H  -7.24800 16.44200 37.60100
H  -7.07900 14.93800 38.48200
H  -4.93900 14.82400 37.88200
H  -4.63500 16.35100 38.74500
H  -11.85100 21.94500 39.87900
H  -12.70800 21.78200 38.44200
H  -11.08300 21.12700 38.50000
H  -17.11300 20.67600 40.19900
H  -16.20700 19.70400 41.46600
H  -16.65600 18.98100 39.95400
H  -16.33500 14.88800 41.29100
H  -14.81700 13.96300 43.72200
H  -17.50000 16.24000 42.75300
H  -16.10900 17.09200 43.12900
H  -16.44000 15.51200 44.04700
H  -14.93500 11.85700 41.99400
H  -16.28300 12.80500 41.46700
H  -16.22900 10.87000 43.64000
H  -17.56900 11.78000 43.05800
H  -16.47200 12.33400 44.45400
H  -11.35400 10.29300 42.70300
H  -10.23900 10.70400 43.91900
H  -9.58600 9.89200 42.48400
H  -6.39200 13.58700 40.29500
H  -3.22700 15.14200 42.13700
H  -2.93800 13.47500 42.89100
H  -3.92200 14.58700 43.68300

