158

Mg 47.57100 15.37200 28.44000
C  45.22800 15.03800 31.22300
C  49.37000 17.49900 30.45600
C  49.34700 16.18100 25.67200
C  45.03800 13.88400 26.49500
N  47.15400 16.28700 30.53100
C  46.33700 15.86800 31.48800
C  46.84800 16.30100 32.81500
C  47.85100 17.44300 32.54300
C  48.15300 17.06400 31.12100
C  47.29400 18.89500 32.40900
C  47.50100 15.20000 33.66800
C  47.43400 15.36100 35.18700
H  48.73400 15.47600 35.96300
N  49.27000 16.43100 28.19900
C  49.86700 17.27300 29.12300
C  51.00900 17.88400 28.60200
C  51.03300 17.57500 27.24800
C  49.84000 16.70100 26.95200
C  51.93600 18.87900 29.36800
C  52.03300 18.05300 26.17900
O  51.92300 17.65000 25.03100
C  53.18900 18.98600 26.40900
N  47.23100 15.03600 26.38300
C  48.20200 15.44900 25.45000
C  47.85400 14.82000 24.12700
C  46.50000 14.08700 24.40500
C  46.25500 14.24400 25.87600
C  47.89900 15.82900 23.00500
C  46.26100 12.67100 23.85600
C  47.14600 11.54300 24.33600
N  45.61700 14.57300 28.75100
C  44.73400 13.95500 27.86400
C  43.54400 13.37300 28.55600
C  43.80200 13.70700 29.89300
C  44.99100 14.49500 29.96400
C  42.46500 12.56400 27.88600
C  43.27800 13.51000 31.18400
O  42.24400 12.98200 31.53700
C  44.26200 14.41100 32.19300
C  43.36300 15.38900 32.78700
O  42.46100 15.96600 32.20500
O  43.65200 15.43000 34.12900
C  42.69300 16.24100 34.95400
H  49.90900 18.04000 31.23700
H  49.91400 16.43100 24.77300
H  44.31600 13.33600 25.88700
H  46.06100 16.76500 33.40900
H  48.83400 17.43600 33.01500
H  47.48300 19.38400 31.45300
H  47.80000 19.46200 33.19100
H  46.22000 18.90600 32.59200
H  48.55000 15.18400 33.37500
H  47.06200 14.21800 33.48700
H  46.79300 14.53400 35.49400
H  46.91200 16.30600 35.33700
H  51.83700 19.86400 28.91300
H  52.91100 18.44000 29.15800
H  51.73700 18.93800 30.43800
H  53.84000 18.95800 25.53500
H  53.70900 18.56600 27.27100
H  52.86600 20.00300 26.62900
H  48.66600 14.10800 23.97700
H  45.65700 14.60600 23.94800
H  47.00900 15.69900 22.39000
H  48.73400 15.60800 22.34000
H  47.96000 16.83200 23.42700
H  46.50100 12.73000 22.79500
H  45.24800 12.30000 24.01500
H  46.46200 10.82000 24.78000
H  47.87700 11.89500 25.06500
H  47.61900 11.08000 23.47000
H  42.66300 12.03300 26.95500
H  41.69400 13.29600 27.64600
H  42.31800 11.83900 28.68600
H  44.71200 13.81400 32.98700
H  42.20700 17.07600 34.44900
H  43.40500 16.61300 35.69100
H  41.92000 15.62900 35.41800
Mg 29.39900 58.78400 41.17200
C  26.45200 57.13900 40.30100
C  31.22700 56.23700 39.87700
C  32.05400 60.95000 40.90600
C  27.45600 61.65900 41.98100
N  28.84300 57.01600 40.15500
C  27.57700 56.43600 39.99300
C  27.69300 55.15300 39.20500
C  29.18900 54.73200 39.47300
C  29.83200 56.08700 39.87000
C  29.33800 53.54100 40.49800
C  27.32300 55.38000 37.66900
C  26.35700 54.42600 36.94900
H  25.62700 55.01100 35.69900
N  31.40400 58.52200 40.75200
C  31.96500 57.35100 40.26500
C  33.38800 57.60800 40.21200
C  33.66300 58.94300 40.53300
C  32.36200 59.54400 40.75500
C  34.39900 56.51000 39.68900
C  35.08000 59.50800 40.72500
O  36.00800 58.75200 40.66200
C  35.26200 60.86100 41.27300
N  29.72900 61.07000 41.52500
C  30.96300 61.58200 41.41700
C  30.98100 63.07900 41.73700
C  29.45200 63.35700 42.02400
C  28.80600 61.99100 41.93800
C  31.94400 63.40200 42.98000
C  28.77300 64.33800 41.05600
C  27.99700 65.48800 41.83600
N  27.38900 59.29900 41.22900
C  26.73200 60.48500 41.59800
C  25.25900 60.25600 41.47100
C  25.08200 59.00900 40.99800
C  26.44600 58.45000 40.86100
C  24.24700 61.35900 41.79000
C  24.12400 57.98700 40.58100
O  22.91500 58.01000 40.62700
C  24.97000 56.85300 40.13400
C  24.57900 55.67600 41.09200
O  24.51300 55.77400 42.33200
O  24.16300 54.52700 40.37800
C  23.86000 53.32800 41.11800
H  31.62700 55.28900 39.51200
H  32.88700 61.56400 40.55800
H  26.90100 62.53300 42.32700
H  26.96800 54.40100 39.51600
H  29.58700 54.38100 38.52000
H  29.57400 53.86200 41.51300
H  30.15700 52.88800 40.19600
H  28.41300 52.96500 40.50700
H  28.22900 55.35700 37.06300
H  26.98600 56.40500 37.51000
H  25.58300 54.11400 37.65100
H  26.88900 53.51700 36.67100
H  35.00400 56.97800 38.91200
H  33.89300 55.62600 39.30100
H  35.08700 56.09600 40.42700
H  35.16400 61.59800 40.47600
H  36.29900 60.92500 41.60500
H  34.59900 61.04200 42.12000
H  31.20200 63.59500 40.80300
H  29.38200 63.79000 43.02200
H  31.38300 63.91900 43.75900
H  32.72400 64.09000 42.65300
H  32.41200 62.49800 43.36900
H  28.10800 63.83100 40.35700
H  29.45900 64.76200 40.32300
H  26.91900 65.47300 41.67700
H  28.27900 66.50300 41.55400
H  28.26600 65.51000 42.89200
H  24.53100 62.27400 41.27100
H  24.45400 61.49400 42.85100
H  23.22000 61.04800 41.59500
H  24.70500 56.58100 39.11300
H  23.27300 52.76500 40.39300
H  23.36400 53.54500 42.06400
H  24.69200 52.64900 41.30300

