158

Mg -1.71300 17.90200 27.42400
C  -1.94900 15.50900 29.92800
C  -2.20300 20.32100 29.78600
C  -1.41700 20.11900 25.01600
C  -1.11100 15.20900 25.02900
N  -1.93000 17.86700 29.67100
C  -1.98400 16.78600 30.47300
C  -1.87400 17.24300 31.98700
C  -2.30400 18.79400 31.87900
C  -2.12200 19.05000 30.33600
C  -3.76100 19.14300 32.37600
C  -0.46400 16.93000 32.56100
C  0.02700 17.75100 33.81200
H  0.06400 17.13600 35.16400
N  -1.86500 19.96300 27.36300
C  -2.03500 20.81100 28.40100
C  -2.15100 22.19400 27.96400
C  -2.04800 22.06100 26.55900
C  -1.72700 20.68500 26.23600
C  -2.20800 23.40800 28.90300
C  -2.17600 23.20500 25.59400
O  -1.84000 23.10000 24.43300
C  -2.72500 24.56000 26.03500
N  -1.50700 17.61700 25.31500
C  -1.27600 18.77900 24.58900
C  -1.00400 18.47300 23.11200
C  -0.68900 16.98100 23.14000
C  -1.14000 16.54600 24.59400
C  -2.28400 18.85700 22.26800
C  0.71900 16.61000 22.73200
C  1.83500 17.40600 23.37800
N  -1.60400 15.79100 27.41100
C  -1.40000 14.86300 26.40400
C  -1.53800 13.55800 26.94800
C  -1.78600 13.77200 28.36300
C  -1.79100 15.14200 28.53400
C  -1.31700 12.19600 26.17400
C  -2.05400 13.07900 29.56900
O  -2.11300 11.89900 29.88800
C  -2.21000 14.17200 30.62500
C  -1.22400 13.75900 31.62200
O  -0.00400 13.97700 31.61700
O  -1.95600 13.16800 32.64900
C  -1.24500 12.79200 33.83300
H  -2.42200 21.14900 30.46400
H  -1.34400 20.85200 24.21000
H  -0.95300 14.39700 24.31600
H  -2.67300 16.69900 32.49000
H  -1.70400 19.54500 32.39300
H  -4.33000 19.81900 31.73900
H  -3.73800 19.64700 33.34200
H  -4.36200 18.23900 32.47300
H  0.38800 16.97600 31.88300
H  -0.50900 15.93000 32.99300
H  -0.68000 18.56500 33.97300
H  1.03500 18.08800 33.56800
H  -1.82600 23.13200 29.88600
H  -3.21500 23.82200 28.96000
H  -1.49200 24.16300 28.58000
H  -2.78600 25.23000 25.17800
H  -2.11400 25.06200 26.78500
H  -3.68900 24.40700 26.52100
H  -0.22900 19.17700 22.80700
H  -1.25600 16.44600 22.37800
H  -2.71200 18.04400 21.68200
H  -2.01100 19.70700 21.64200
H  -3.07000 19.18500 22.94800
H  0.65200 16.73800 21.65100
H  0.82700 15.53200 22.84900
H  2.50600 16.70000 23.86600
H  1.54700 18.20800 24.05700
H  2.40700 17.83400 22.55400
H  -0.98600 11.36000 26.79100
H  -0.85200 12.27700 25.19100
H  -2.34000 11.93900 25.90100
H  -3.23600 14.06400 30.97800
H  -0.59000 11.98200 33.51200
H  -1.91700 12.30800 34.54200
H  -0.56600 13.55800 34.20800
Mg 17.83600 -1.70500 28.51100
C  16.57000 0.15100 31.16300
C  19.62700 -3.62100 30.66500
C  19.40100 -3.05400 25.85500
C  15.89300 0.23000 26.35800
N  18.04500 -1.73700 30.67900
C  17.45000 -0.83600 31.55100
C  17.95300 -1.06700 32.97100
C  19.03700 -2.17400 32.76100
C  18.94500 -2.54000 31.29600
C  20.50500 -1.80900 33.21200
C  16.75600 -1.53600 33.91400
C  16.60300 -0.74600 35.29200
H  17.84000 -0.55200 36.15800
N  19.06900 -3.39400 28.30500
C  19.71300 -4.05000 29.29400
C  20.59600 -5.01100 28.72800
C  20.64900 -4.85500 27.29900
C  19.69000 -3.70400 27.07900
C  21.25100 -6.03700 29.63800
C  21.43900 -5.59500 26.28500
O  21.17400 -5.40300 25.10600
C  22.48400 -6.64600 26.61300
N  17.62800 -1.47100 26.37000
C  18.37400 -2.10400 25.50100
C  18.15900 -1.57600 24.04800
C  16.90100 -0.73800 24.27000
C  16.80500 -0.62300 25.73700
C  19.41300 -0.83800 23.41600
C  15.68400 -1.49300 23.59900
C  14.54800 -0.69400 22.87600
N  16.52400 -0.03000 28.64400
C  15.81400 0.63900 27.70800
C  14.96600 1.61800 28.33800
C  15.30500 1.48500 29.70900
C  16.21000 0.47300 29.81900
C  14.05200 2.60700 27.63200
C  15.10500 2.11600 31.03900
O  14.47200 3.14700 31.35700
C  15.86500 1.17100 32.04400
C  16.75400 2.12100 32.88900
O  17.89100 2.49800 32.62000
O  16.01100 2.67200 33.81800
C  16.73300 3.72000 34.57700
H  20.22400 -4.33800 31.23100
H  20.03100 -3.30800 25.00000
H  15.36100 0.76300 25.56700
H  18.39900 -0.13700 33.32500
H  18.69800 -3.08400 33.25600
H  20.57700 -0.78600 33.58300
H  21.04100 -1.87100 32.26500
H  20.90200 -2.48300 33.97100
H  16.97700 -2.57200 34.17000
H  15.81100 -1.45900 33.37700
H  15.89000 -1.22600 35.96100
H  16.22800 0.26400 35.12100
H  20.74000 -6.22900 30.58100
H  22.23700 -5.64800 29.89400
H  21.35000 -7.00300 29.14400
H  23.01300 -6.99600 25.72600
H  22.05000 -7.47700 27.16900
H  23.34100 -6.26500 27.16700
H  18.00000 -2.53200 23.54900
H  16.90400 0.26100 23.83400
H  20.10000 -0.73400 24.25500
H  19.11600 0.12500 23.00100
H  19.84000 -1.50200 22.66400
H  15.23000 -2.14000 24.34900
H  16.03500 -2.22900 22.87500
H  14.83700 0.34500 22.71800
H  13.64100 -0.80500 23.47100
H  14.25300 -1.09200 21.90500
H  14.00700 3.56800 28.14300
H  13.01900 2.28300 27.50100
H  14.32400 2.84700 26.60500
H  15.10500 0.81300 32.73800
H  15.90100 4.01000 35.21800
H  16.99800 4.50900 33.87400
H  17.53800 3.22800 35.12300

