158

Mg 35.99900 49.57800 25.12200
C  36.47400 47.99300 28.24600
C  35.33700 52.45700 26.84200
C  35.70300 51.11400 22.19800
C  37.22300 46.86000 23.59600
N  35.88200 50.09900 27.20800
C  36.13000 49.37200 28.35200
C  35.75000 50.08800 29.64500
C  35.23400 51.49300 29.14700
C  35.49400 51.35200 27.62900
C  33.68900 51.73900 29.56000
C  36.95900 50.19500 30.64000
C  36.70200 49.57100 32.01500
H  35.28500 49.74400 32.68900
N  35.57700 51.52200 24.53500
C  35.36900 52.59100 25.46000
C  35.18600 53.74100 24.63600
C  35.24800 53.35000 23.30300
C  35.50000 51.96100 23.28600
C  34.73800 55.13400 25.22600
C  34.89700 54.20000 21.97000
O  34.86100 53.78000 20.81900
C  34.68400 55.67000 22.08200
N  36.31000 49.05700 23.25000
C  36.14900 49.87800 22.16200
C  36.41800 49.12200 20.89000
C  37.25800 47.88700 21.33700
C  36.73400 47.84200 22.79500
C  35.07300 48.77900 20.15300
C  38.79800 47.96100 21.24800
C  39.36400 46.84200 20.32000
N  36.43000 47.68400 25.70100
C  36.96900 46.67400 24.95100
C  37.26500 45.56000 25.78500
C  37.11400 46.07700 27.07400
C  36.60400 47.31200 26.98900
C  37.84200 44.24600 25.31500
C  37.26000 45.77500 28.48900
O  37.53500 44.70200 29.05100
C  36.75800 46.95800 29.25500
C  35.58700 46.46000 30.03800
O  34.47800 46.28400 29.55300
O  36.01300 46.11600 31.30200
C  34.92100 45.50200 32.12900
H  34.92100 53.35000 27.31500
H  35.72800 51.58000 21.21100
H  37.72800 46.07300 23.03200
H  34.89900 49.56200 30.07600
H  35.82500 52.26700 29.63800
H  32.95300 51.34800 28.85800
H  33.38600 52.77800 29.68600
H  33.63900 51.21600 30.51500
H  37.36400 51.18800 30.83700
H  37.77700 49.61000 30.21900
H  37.44400 50.00700 32.68300
H  36.97200 48.51900 31.92000
H  35.43600 55.79100 24.70600
H  34.72500 55.09100 26.31500
H  33.73700 55.35900 24.85900
H  33.69200 55.99700 22.39600
H  34.74700 56.09100 21.07900
H  35.47000 56.23400 22.58400
H  36.93900 49.73400 20.15400
H  36.90200 47.04100 20.74900
H  34.24800 49.26000 20.67700
H  34.86400 47.70900 20.17700
H  35.19700 49.14000 19.13200
H  39.22100 47.67300 22.21100
H  39.11400 48.95600 20.93700
H  39.75600 47.16400 19.35500
H  38.71800 45.96900 20.22800
H  40.14200 46.37300 20.92200
H  37.33500 43.50300 25.93100
H  38.90600 44.18400 25.54400
H  37.57200 44.11900 24.26700
H  37.58700 47.30600 29.87200
H  33.92200 45.80000 31.81400
H  34.96900 45.92400 33.13300
H  35.02400 44.41700 32.13200
Mg -0.76500 34.06600 26.86900
C  -2.58100 32.35700 29.30500
C  0.78500 35.80600 29.25400
C  0.60100 35.86800 24.35600
C  -2.55100 32.22400 24.35000
N  -1.04800 34.23600 29.09200
C  -1.72100 33.31600 29.88800
C  -1.41600 33.63200 31.41500
C  -0.48800 34.83800 31.34300
C  -0.18200 34.99000 29.83600
C  -1.16900 36.10200 31.96300
C  -0.68400 32.38300 32.03400
C  -1.52200 31.65500 33.09600
H  -0.94200 31.42300 34.51900
N  0.49100 35.55100 26.79700
C  1.12500 36.07800 27.87800
C  2.00100 37.12100 27.48200
C  1.88900 37.24000 26.05000
C  0.93400 36.19600 25.66600
C  2.91500 37.85600 28.45900
C  2.68400 38.16100 25.09900
O  2.72900 38.15500 23.82700
C  3.62600 39.14500 25.73400
N  -1.06100 34.18700 24.55900
C  -0.32400 35.03300 23.80800
C  -0.74200 34.84400 22.29800
C  -1.65900 33.58600 22.39900
C  -1.78900 33.28500 23.86700
C  -1.43800 36.03400 21.69200
C  -0.97300 32.38200 21.67300
C  -0.11200 31.29500 22.36500
N  -2.15900 32.56300 26.76000
C  -2.78000 31.92300 25.65700
C  -3.69500 30.96800 26.18000
C  -3.64300 31.09400 27.58900
C  -2.69100 32.06800 27.89500
C  -4.46000 29.95000 25.44600
C  -4.13600 30.52000 28.78400
O  -4.88500 29.56900 28.93700
C  -3.43700 31.30000 30.00800
C  -4.55100 31.81100 30.86000
O  -5.43300 32.58200 30.51100
O  -4.61500 31.12000 32.04200
C  -5.61700 31.42800 33.02200
H  1.40400 36.21900 30.05300
H  1.04400 36.50300 23.58600
H  -2.98600 31.50300 23.65500
H  -2.44400 33.71100 31.76700
H  0.40100 34.74000 31.96600
H  -2.02300 35.70700 32.51400
H  -1.51300 36.79300 31.19400
H  -0.54500 36.62900 32.68400
H  0.31700 32.59700 32.40900
H  -0.54100 31.63300 31.25600
H  -1.63800 30.67900 32.62300
H  -2.50800 32.11400 33.17200
H  3.93200 37.64400 28.12900
H  2.92900 37.56800 29.51000
H  2.65600 38.91200 28.37700
H  2.98100 39.59900 26.48600
H  3.92600 39.83900 24.94900
H  4.58000 38.74400 26.07600
H  0.15100 34.79900 21.67600
H  -2.67000 33.81100 22.05900
H  -1.24600 35.95600 20.62100
H  -1.10600 37.01500 22.03200
H  -2.51200 35.95700 21.85900
H  -0.33700 32.78700 20.88600
H  -1.77800 31.76100 21.28000
H  0.15500 31.45600 23.40900
H  0.89600 31.43100 21.97300
H  -0.51200 30.29000 22.23000
H  -3.81900 29.59700 24.63800
H  -5.39300 30.39800 25.10500
H  -4.76300 29.10300 26.06100
H  -2.87700 30.52900 30.53900
H  -5.08800 31.59000 33.96100
H  -6.25400 30.54700 33.10600
H  -6.26500 32.28300 32.82900

