158

Mg 24.85800 49.89500 27.18900
C  22.95100 51.22100 29.89400
C  27.36700 49.38500 29.42700
C  26.95100 49.30700 24.62900
C  22.42400 51.10100 24.97700
N  25.07600 50.25300 29.34500
C  24.12400 50.63900 30.34000
C  24.64100 50.61900 31.77400
C  26.14200 50.04800 31.51500
C  26.23100 49.98400 29.97700
C  27.37300 50.78000 32.16200
C  23.82300 49.84800 32.85500
C  24.47300 49.62500 34.24000
H  23.88200 50.22300 35.61600
N  26.90300 49.34500 27.09900
C  27.64600 48.97800 28.14000
C  28.84700 48.34700 27.56400
C  28.80200 48.33200 26.14800
C  27.51200 49.04600 25.87000
C  29.90300 47.82700 28.47700
C  29.78600 47.93400 25.13500
O  29.71900 48.22500 23.98000
C  30.95500 47.09100 25.57400
N  24.68900 50.16100 25.11300
C  25.68800 49.87400 24.26700
C  25.46400 50.44200 22.89700
C  23.95200 50.85800 22.91800
C  23.63700 50.80000 24.40800
C  26.46500 51.63800 22.68700
C  23.04100 49.99900 21.96700
C  22.46700 48.63100 22.57600
N  23.01900 50.94500 27.34600
C  22.15200 51.34200 26.36200
C  21.04400 52.03900 26.97600
C  21.27200 51.96100 28.33300
C  22.48400 51.32500 28.54000
C  19.91400 52.66100 26.21200
C  20.77900 52.34400 29.59800
O  19.69700 52.89300 29.89000
C  21.89200 51.98900 30.61600
C  22.26000 53.30300 31.12900
O  22.64700 54.24300 30.53000
O  22.02500 53.30700 32.53500
C  22.18300 54.62300 33.25300
H  28.14900 49.05800 30.11600
H  27.47500 48.96200 23.73600
H  21.71500 51.44800 24.22200
H  24.80200 51.63400 32.13700
H  26.11300 49.03700 31.92300
H  27.99200 49.94900 32.50100
H  26.95200 51.35600 32.98700
H  27.92800 51.34600 31.41400
H  23.46600 48.93300 32.38200
H  22.90000 50.41500 32.98100
H  25.48200 50.02900 34.16100
H  24.39900 48.54100 34.33000
H  30.03900 46.81000 28.11000
H  29.66900 47.87100 29.54100
H  30.92600 48.17800 28.33900
H  30.64400 46.11700 25.95200
H  31.52600 47.69600 26.27900
H  31.64800 46.90500 24.75400
H  25.57400 49.60500 22.20800
H  23.86600 51.87800 22.54300
H  27.50800 51.38900 22.88000
H  26.06900 52.53200 23.16800
H  26.35500 51.77100 21.61000
H  23.69500 49.81500 21.11400
H  22.18600 50.63600 21.73900
H  22.93500 48.37700 23.52600
H  22.56200 47.84000 21.83200
H  21.39800 48.75700 22.75200
H  19.81900 52.41500 25.15500
H  20.05000 53.73900 26.30000
H  18.93800 52.44800 26.64800
H  21.44500 51.37300 31.39600
H  22.92200 55.17600 32.67400
H  22.58600 54.49100 34.25700
H  21.29900 55.25700 33.30700
Mg 8.23300 47.70300 26.11800
C  5.93300 47.61000 28.79200
C  10.68200 48.44200 28.37500
C  10.37200 48.45900 23.56800
C  5.51600 47.85100 23.92600
N  8.25800 48.11600 28.39300
C  7.22900 47.96900 29.28700
C  7.77600 48.11600 30.71900
C  9.29800 48.69900 30.53500
C  9.45400 48.47500 29.02500
C  9.52900 50.23600 31.00500
C  7.56300 46.93300 31.74300
C  8.69600 46.66100 32.82300
H  8.18700 45.95200 34.10800
N  10.28900 48.08100 25.98300
C  11.08300 48.29900 27.03100
C  12.50200 48.32500 26.51100
C  12.41300 48.22500 25.05400
C  10.97500 48.29700 24.82000
C  13.71400 48.61500 27.35300
C  13.47100 48.13000 23.98500
O  13.33500 48.20300 22.71400
C  14.89200 48.02400 24.46100
N  7.98300 48.25700 24.07600
C  9.04200 48.46100 23.28400
C  8.59400 48.53200 21.88400
C  7.03900 48.30200 21.93700
C  6.79800 48.04300 23.39000
C  9.08700 49.78200 21.18000
C  6.50900 47.25700 20.93500
C  6.53100 47.64200 19.49600
N  6.07500 47.77200 26.30100
C  5.16700 47.71200 25.29200
C  3.88900 47.51400 25.91200
C  4.14000 47.47200 27.31100
C  5.49900 47.63600 27.47100
C  2.62500 47.45200 25.18500
C  3.48600 47.25700 28.56400
O  2.28900 46.99300 28.91900
C  4.65500 47.47900 29.66700
C  4.69100 46.26900 30.43800
O  5.09100 45.15800 30.12700
O  4.25600 46.66700 31.66200
C  4.22100 45.54100 32.68900
H  11.44100 48.76900 29.08800
H  11.04500 48.79900 22.77800
H  4.72600 47.91100 23.17500
H  7.11300 48.91100 31.05800
H  10.15400 48.11500 30.87300
H  8.64900 50.61400 31.52500
H  9.77200 50.75800 30.07900
H  10.45100 50.23900 31.58600
H  7.38000 46.00000 31.20900
H  6.63900 47.05600 32.30800
H  9.34600 47.52600 32.95400
H  9.30800 45.86400 32.40000
H  14.24400 49.51800 27.05100
H  14.40300 47.77100 27.31500
H  13.53100 48.76300 28.41700
H  15.52100 47.80200 23.59900
H  14.96900 47.21700 25.18900
H  15.18700 49.00800 24.82400
H  9.03500 47.65400 21.41400
H  6.60300 49.25800 21.64600
H  8.24600 50.22800 20.64900
H  9.85600 49.48800 20.46600
H  9.63000 50.47500 21.82400
H  5.54100 46.88300 21.27100
H  7.21100 46.44200 21.11200
H  7.39000 47.21700 18.97700
H  6.62700 48.72300 19.39600
H  5.58900 47.38100 19.01400
H  2.23400 48.46600 25.27100
H  2.01800 46.66500 25.63100
H  2.72000 47.32600 24.10600
H  4.41500 48.38400 30.22300
H  4.76400 45.95700 33.53800
H  4.67500 44.60500 32.36400
H  3.18500 45.31400 32.94100

