158

Mg 46.45400 15.63100 27.46300
C  44.53100 15.47600 30.43900
C  48.64300 17.66800 29.05800
C  48.22200 16.03800 24.52900
C  43.93700 14.00300 25.73600
N  46.56200 16.46600 29.50300
C  45.69100 16.31500 30.59600
C  46.24000 16.95600 31.83300
C  47.48400 17.82300 31.30600
C  47.58000 17.28800 29.89300
C  47.29200 19.31700 31.25400
C  46.56200 15.91900 32.97200
C  46.04200 16.27400 34.37000
H  46.97900 15.96900 35.53300
N  48.32200 16.48900 26.94700
C  49.01000 17.40600 27.73800
C  50.17200 17.80900 27.04300
C  50.11500 17.31500 25.76100
C  48.88600 16.49800 25.71000
C  51.29500 18.68500 27.67000
C  51.04000 17.42400 24.47200
O  50.90000 16.72600 23.51200
C  52.26800 18.26400 24.50200
N  46.14100 15.09600 25.37100
C  46.98900 15.32000 24.32400
C  46.45900 14.71900 23.01500
C  45.24200 13.84900 23.51800
C  45.12900 14.24000 24.96700
C  46.18000 15.70900 21.95300
C  45.40100 12.31300 23.29500
C  46.56100 11.68700 24.11300
N  44.60600 14.97300 27.92600
C  43.70300 14.28000 27.11100
C  42.53400 13.86300 27.92100
C  42.88500 14.37400 29.20700
C  44.11900 15.01000 29.15900
C  41.27600 13.28500 27.45900
C  42.29600 14.58100 30.49600
O  41.17000 14.33900 30.85100
C  43.36000 15.22900 31.40700
C  42.85700 16.51700 32.03500
O  42.89500 17.62400 31.46900
O  42.35000 16.37200 33.32700
C  42.36200 17.57700 34.11600
H  49.27900 18.46200 29.45500
H  48.69500 16.49600 23.65800
H  43.17500 13.32700 25.34300
H  45.51200 17.60800 32.31600
H  48.35200 17.64600 31.94100
H  46.39100 19.57300 31.81200
H  47.20200 19.68900 30.23300
H  48.22600 19.70900 31.65600
H  47.64100 15.77100 33.00500
H  46.05300 14.98400 32.73700
H  45.13100 15.75700 34.66900
H  45.77100 17.32100 34.50900
H  51.03400 19.68400 28.01800
H  52.16700 18.65900 27.01700
H  51.60400 18.12600 28.55400
H  52.82800 18.25700 23.56700
H  52.81900 17.72200 25.27000
H  52.00900 19.27600 24.81400
H  47.27400 14.06200 22.70900
H  44.37400 14.16100 22.93800
H  45.98800 16.67700 22.41500
H  45.31100 15.45000 21.35000
H  46.99700 15.76300 21.23300
H  45.53400 12.20900 22.21800
H  44.50800 11.75200 23.57000
H  47.35100 11.38500 23.42600
H  46.14800 10.95700 24.80900
H  46.99000 12.48700 24.71600
H  41.27100 13.53800 26.39900
H  40.55300 13.87400 28.02500
H  41.11700 12.23000 27.68000
H  43.59800 14.60300 32.26700
H  41.71400 18.34800 33.69800
H  43.36900 17.98700 34.18600
H  41.94600 17.28700 35.08100
Mg 46.10700 25.06600 28.11800
C  46.78200 27.23400 30.88000
C  45.15600 22.71500 30.38800
C  46.02100 22.84600 25.57800
C  47.82500 27.20900 26.09000
N  45.90300 25.08800 30.33800
C  46.11700 26.09300 31.27700
C  45.66700 25.74500 32.75300
C  45.37200 24.21300 32.55000
C  45.51500 23.97700 31.00200
C  46.31200 23.35200 33.32800
C  44.47400 26.57000 33.32400
C  44.63300 27.26700 34.68200
H  43.61600 27.13600 35.84500
N  45.55700 23.05300 27.99300
C  45.06600 22.25800 28.99900
C  44.67700 20.88100 28.52700
C  45.11200 20.86700 27.09200
C  45.62600 22.28500 26.83600
C  44.18500 19.80800 29.32600
C  45.09700 19.70900 26.15200
O  45.53800 19.77300 25.01500
C  44.67800 18.35300 26.63500
N  46.78800 25.04000 26.16200
C  46.47800 24.09100 25.23800
C  46.87600 24.57800 23.82900
C  47.14400 26.09900 24.02300
C  47.18300 26.18200 25.49600
C  48.09300 23.83500 23.20300
C  45.96500 27.02700 23.50500
C  46.32300 28.00200 22.33700
N  47.25900 26.77500 28.34800
C  47.87700 27.58600 27.39300
C  48.38300 28.82700 28.01900
C  47.94800 28.69100 29.37900
C  47.27000 27.51000 29.56900
C  49.04900 29.92400 27.30600
C  47.93700 29.30600 30.66200
O  48.48800 30.38900 30.94100
C  47.23700 28.36200 31.77400
C  48.19800 27.83500 32.85200
O  49.01100 26.98600 32.58400
O  48.11900 28.54300 34.05700
C  48.85800 28.06800 35.24900
H  44.76800 22.07900 31.18600
H  46.00600 22.07100 24.80900
H  48.22100 27.91000 25.35300
H  46.56800 25.91000 33.34300
H  44.36800 23.89100 32.82700
H  47.05400 22.87000 32.69200
H  45.75100 22.58700 33.86500
H  46.89900 23.87600 34.08200
H  43.58100 25.95000 33.40200
H  44.21200 27.29300 32.55200
H  44.77400 28.31100 34.40200
H  45.62900 26.96800 35.00900
H  43.36700 19.33600 28.78200
H  44.07200 20.19600 30.33800
H  44.97800 19.08300 29.50600
H  45.45000 18.03200 27.33500
H  44.53000 17.77500 25.72300
H  43.69900 18.38600 27.11200
H  46.09100 24.56000 23.07200
H  48.09900 26.48200 23.66200
H  48.32100 22.92900 23.76400
H  49.01200 24.41400 23.10800
H  47.77800 23.47200 22.22500
H  45.70200 27.64600 24.36300
H  45.03200 26.50100 23.30100
H  46.31300 28.99600 22.78300
H  45.47000 27.94800 21.66000
H  47.26200 27.76900 21.83400
H  48.38600 30.74100 27.02300
H  49.56900 29.52700 26.43400
H  49.86500 30.30300 27.92100
H  46.36100 28.83900 32.21200
H  48.49200 27.04600 35.35000
H  48.71400 28.58000 36.20000
H  49.91700 28.09200 34.99300

