158

Mg 36.30100 49.63400 24.47800
C  36.35900 47.99400 27.57300
C  34.88900 52.32500 26.01500
C  35.84200 50.93000 21.39600
C  37.41300 46.65000 22.96600
N  35.54300 49.97000 26.57900
C  35.82200 49.22900 27.68800
C  35.15400 49.93700 28.89400
C  34.71100 51.38600 28.37100
C  35.13200 51.21200 26.88700
C  33.24500 52.01100 28.71200
C  36.05100 49.89500 30.20100
C  35.39000 49.11300 31.25400
H  35.10300 49.83800 32.59800
N  35.55400 51.44200 23.80700
C  35.06500 52.44100 24.65300
C  34.76000 53.58200 23.76500
C  34.96300 53.21800 22.40200
C  35.44900 51.79800 22.47800
C  34.11200 54.85300 24.29900
C  34.84400 54.08300 21.13900
O  35.11300 53.73100 19.98400
C  34.63000 55.55100 21.34500
N  36.66300 48.86100 22.45200
C  36.34800 49.60500 21.37000
C  36.51500 48.76000 20.12900
C  37.18400 47.44800 20.64300
C  37.09200 47.62000 22.10400
C  35.15900 48.54700 19.39200
C  38.61500 47.20300 20.18800
C  38.63100 46.33900 18.91000
N  36.78500 47.66100 25.05300
C  37.23400 46.64400 24.37500
C  37.59300 45.52600 25.27300
C  37.35500 46.11100 26.55300
C  36.77900 47.39300 26.33500
C  38.29100 44.21300 24.87300
C  37.44500 45.79600 27.96300
O  37.72500 44.74800 28.50700
C  36.56400 46.88000 28.61100
C  35.31400 46.30100 29.05000
O  34.41900 45.99500 28.27000
O  35.41700 45.94700 30.35600
C  34.33400 45.14000 30.90700
H  34.47500 53.15200 26.59500
H  35.69700 51.38000 20.41200
H  37.81800 45.75500 22.48800
H  34.26600 49.32600 29.05600
H  35.39700 52.18300 28.65600
H  33.45200 52.84000 29.38900
H  32.76800 51.23500 29.31000
H  32.55800 52.21000 27.88900
H  36.28800 50.86200 30.64400
H  36.99700 49.49700 29.83400
H  36.13000 48.34100 31.46400
H  34.52000 48.54200 30.93000
H  34.10000 54.89000 25.38800
H  33.14100 54.90400 23.80700
H  34.71200 55.71900 24.01800
H  33.61400 55.73100 21.69800
H  34.77000 56.05300 20.38700
H  35.40300 55.92600 22.01500
H  37.25000 49.19700 19.45300
H  36.55400 46.57300 20.48800
H  34.45300 49.33500 19.65200
H  34.65700 47.58000 19.43300
H  35.29000 48.76100 18.33100
H  39.08300 46.57100 20.94200
H  39.22100 48.06200 19.89800
H  37.71800 46.26700 18.32000
H  38.74100 45.35600 19.36800
H  39.56900 46.43800 18.36300
H  39.21300 44.29400 24.29600
H  37.62600 43.48900 24.40300
H  38.74500 43.94300 25.82700
H  37.04100 47.39200 29.44700
H  34.35500 44.13600 30.48200
H  33.31800 45.53100 30.85800
H  34.54800 45.08700 31.97500
Mg -11.18800 38.53300 41.45800
C  -9.46400 35.54100 40.76000
C  -8.67400 40.24600 39.71300
C  -13.23200 41.21000 41.15400
C  -13.83500 36.63300 42.66700
N  -9.43300 37.92900 40.21400
C  -8.87300 36.63200 40.14600
C  -7.45000 36.65200 39.62000
C  -7.22500 38.19000 39.29500
C  -8.54100 38.88300 39.80100
C  -5.88300 38.63900 39.87300
C  -7.28300 35.74400 38.39500
C  -6.06500 34.71100 38.56300
H  -4.87700 34.76400 37.51100
N  -10.92900 40.49200 40.74700
C  -9.81200 40.97700 40.03100
C  -10.03100 42.39400 39.69200
C  -11.29600 42.77200 40.18900
C  -11.87500 41.49300 40.73500
C  -9.02400 43.25400 39.00200
C  -11.92200 44.19700 40.06200
O  -11.17900 45.08300 39.64400
C  -13.30200 44.52200 40.51600
N  -13.28800 38.81300 41.56600
C  -13.90700 39.99800 41.49400
C  -15.39400 39.95400 41.77500
C  -15.54300 38.55900 42.39800
C  -14.11200 37.97600 42.29300
C  -16.03300 41.09100 42.63000
C  -16.62600 37.62100 41.67200
C  -17.33700 36.72400 42.68200
N  -11.60300 36.44800 41.75100
C  -12.69900 35.88500 42.32500
C  -12.41700 34.47300 42.46600
C  -11.18700 34.29800 41.82600
C  -10.70300 35.54800 41.40900
C  -13.41000 33.44900 42.98900
C  -10.22500 33.33100 41.43800
O  -10.25400 32.11400 41.50400
C  -9.01000 34.10800 40.88600
C  -7.85500 33.82900 41.80000
O  -7.09000 32.83100 41.70800
O  -7.53000 34.82000 42.77500
C  -6.55900 34.56200 43.85700
H  -7.76100 40.72800 39.35800
H  -13.85300 42.10100 41.04700
H  -14.67800 36.10100 43.11300
H  -6.64000 36.39600 40.30300
H  -7.01400 38.33900 38.23600
H  -5.09700 37.90400 39.69900
H  -6.03400 38.54400 40.94800
H  -5.73300 39.69500 39.64700
H  -7.29500 36.37000 37.50400
H  -8.23200 35.20800 38.36700
H  -6.49700 33.71300 38.63600
H  -5.52600 34.89200 39.49300
H  -8.92100 44.22700 39.48300
H  -8.99500 43.41600 37.92400
H  -8.05900 42.76400 39.13500
H  -13.50900 44.09900 41.49900
H  -14.00100 44.06500 39.81600
H  -13.50200 45.59300 40.47400
H  -15.72800 39.88100 40.74000
H  -15.68500 38.70400 43.46800
H  -16.57100 41.64200 41.85800
H  -15.39000 41.85000 43.07600
H  -16.72500 40.64900 43.34700
H  -16.09500 36.96600 40.98200
H  -17.27200 38.28900 41.10100
H  -18.34000 36.49400 42.32400
H  -17.54100 37.19400 43.64400
H  -16.88000 35.73500 42.69300
H  -13.78800 33.60400 43.99900
H  -13.09100 32.41000 42.90600
H  -14.24800 33.50500 42.29400
H  -8.72000 33.60200 39.96500
H  -6.85800 33.67800 44.42100
H  -6.57700 35.36900 44.58900
H  -5.58300 34.52400 43.37500

