158

Mg 41.61500 40.97200 27.03900
C  40.76500 43.22000 29.46100
C  42.12200 38.53000 29.34600
C  42.24100 38.72200 24.54000
C  41.19200 43.37400 24.61700
N  41.48800 40.89900 29.09000
C  41.09200 41.96100 29.90300
C  41.13000 41.57900 31.39100
C  41.58300 40.08900 31.35500
C  41.75700 39.82500 29.82000
C  42.97900 39.70800 32.11900
C  39.75300 41.84200 32.08800
C  39.63900 42.88700 33.27300
H  39.06800 42.40900 34.63100
N  42.15800 38.94500 26.95300
C  42.37400 38.08500 28.00200
C  42.74400 36.73600 27.56100
C  42.71500 36.75800 26.17800
C  42.31900 38.17900 25.79500
C  43.19800 35.60100 28.53000
C  43.06600 35.70800 25.18200
O  42.93500 35.88400 23.96400
C  43.61200 34.37500 25.65900
N  41.84400 41.08500 24.89600
C  42.07100 40.07500 24.11500
C  42.17700 40.48700 22.59100
C  41.75600 41.97300 22.70600
C  41.55200 42.13300 24.16700
C  43.59700 40.36100 21.90700
C  40.44200 42.21600 21.88900
C  39.01700 41.94900 22.54200
N  41.06800 42.98200 26.99700
C  40.96000 43.85700 25.92700
C  40.58800 45.16200 26.38400
C  40.44700 44.96700 27.79900
C  40.78800 43.64600 28.08700
C  40.44000 46.36100 25.60700
C  40.18400 45.57000 29.05700
O  39.88300 46.78200 29.29900
C  40.40800 44.50500 30.15400
C  41.38400 44.96800 31.10700
O  42.57100 44.65100 31.10100
O  40.72500 45.84400 31.98000
C  41.49500 46.26200 33.13800
H  42.21400 37.70800 30.05800
H  42.24600 38.06500 23.66800
H  41.10000 44.16600 23.87000
H  41.94800 42.13000 31.85400
H  40.76300 39.45800 31.69800
H  42.72900 38.82300 32.70400
H  43.27000 40.50200 32.80600
H  43.82200 39.34400 31.53300
H  39.32700 40.91500 32.47400
H  38.95100 42.03100 31.37500
H  39.09800 43.70300 32.79300
H  40.65500 43.27600 33.34900
H  44.28500 35.66300 28.57900
H  42.80600 34.64000 28.19700
H  42.71000 35.62600 29.50400
H  42.80700 33.72100 25.99300
H  44.41300 34.46200 26.39300
H  43.99500 33.85900 24.77800
H  41.44500 39.86200 22.08000
H  42.50100 42.67500 22.33300
H  44.36100 39.89900 22.53200
H  43.96900 41.33900 21.60200
H  43.46400 39.70400 21.04700
H  40.55200 41.59700 20.99900
H  40.40100 43.27500 21.63400
H  38.33600 41.51700 21.80800
H  38.64600 42.89100 22.94600
H  39.22600 41.14500 23.24800
H  39.43200 46.77000 25.68200
H  40.90400 46.32400 24.62200
H  41.15100 47.06800 26.03500
H  39.46400 44.41300 30.69100
H  42.46900 46.69300 32.90400
H  41.54100 45.40900 33.81600
H  40.94400 47.05200 33.64700
Mg -1.61500 34.99400 26.17600
C  -3.48000 33.38500 28.76600
C  -0.55900 37.15400 28.59600
C  -0.00100 36.68500 23.82500
C  -3.39200 33.14100 23.97200
N  -1.93600 35.13300 28.46800
C  -2.77900 34.44200 29.30000
C  -2.77600 34.91800 30.71700
C  -2.01700 36.29700 30.57200
C  -1.43300 36.19900 29.13400
C  -2.90300 37.53200 30.82100
C  -2.14900 33.95400 31.77800
C  -2.96300 33.85600 33.13500
H  -2.30500 33.12600 34.33200
N  -0.38700 36.59700 26.20800
C  -0.06400 37.35200 27.29700
C  0.85500 38.39200 26.87700
C  1.13200 38.20300 25.55500
C  0.26600 37.08300 25.13100
C  1.32200 39.44400 27.86900
C  1.90400 39.03800 24.56900
O  2.30100 38.55600 23.49300
C  2.38700 40.40700 24.97500
N  -1.81500 35.07200 24.12900
C  -0.95900 35.75500 23.32800
C  -1.14800 35.43600 21.86700
C  -2.15800 34.24300 21.95800
C  -2.52100 34.14100 23.43800
C  -1.61300 36.70300 21.02500
C  -1.65300 32.90000 21.31400
C  -0.46400 32.20200 22.01800
N  -3.01400 33.40700 26.22800
C  -3.66500 32.74000 25.24000
C  -4.52500 31.69600 25.77100
C  -4.49700 31.96300 27.17600
C  -3.55500 32.92400 27.40900
C  -5.36500 30.72000 25.08400
C  -5.05800 31.50600 28.39600
O  -5.81000 30.61000 28.70000
C  -4.30700 32.36600 29.51500
C  -5.38300 32.99400 30.24600
O  -5.97200 34.07200 30.01900
O  -5.75000 32.16000 31.30200
C  -6.73700 32.63800 32.25900
H  -0.27700 37.83400 29.40200
H  0.54400 37.04900 22.95100
H  -3.86600 32.46400 23.25700
H  -3.82100 35.10200 30.96500
H  -1.14100 36.41200 31.20900
H  -2.92200 38.16400 29.93300
H  -2.44400 38.20200 31.54800
H  -3.94100 37.33500 31.08900
H  -1.17000 34.31500 32.09600
H  -2.05300 32.97900 31.30100
H  -3.94000 33.43100 32.90200
H  -3.06000 34.88300 33.48600
H  1.27200 39.08600 28.89800
H  0.65400 40.30500 27.85900
H  2.38500 39.68200 27.89100
H  1.61600 40.93600 25.53500
H  2.66100 40.92200 24.05500
H  3.27100 40.14600 25.55800
H  -0.21800 35.02200 21.47900
H  -3.08700 34.58300 21.50000
H  -2.69900 36.76100 21.10900
H  -1.33600 36.61700 19.97500
H  -1.18800 37.61700 21.44000
H  -1.46900 33.17700 20.27600
H  -2.43600 32.14300 21.27200
H  -0.86700 31.30800 22.49400
H  0.04400 32.73700 22.82100
H  0.30200 31.85500 21.32500
H  -5.21500 29.70200 25.44400
H  -5.20500 30.91100 24.02300
H  -6.41100 30.91100 25.32300
H  -3.71600 31.62600 30.05500
H  -6.42700 33.26700 33.09400
H  -7.27800 31.79500 32.69000
H  -7.44300 33.36100 31.85000

