158

Mg -0.26900 7.50000 26.71100
C  0.85100 9.73400 29.05300
C  -0.63200 5.11600 29.28100
C  -1.03200 5.18200 24.43200
C  0.38300 9.78600 24.25400
N  0.12500 7.45400 28.81600
C  0.52500 8.50400 29.59000
C  0.42300 8.20700 31.05300
C  0.46000 6.64000 31.07100
C  -0.00300 6.37400 29.58600
C  1.83600 5.98200 31.41100
C  -0.86100 8.86900 31.78900
C  -0.88900 8.80000 33.33800
H  0.32300 8.36600 34.15300
N  -0.84200 5.40000 26.87700
C  -0.93500 4.63300 27.99100
C  -1.36200 3.21200 27.59300
C  -1.47800 3.25700 26.18600
C  -1.09200 4.59200 25.73500
C  -1.46000 2.00000 28.52600
C  -1.74900 2.03700 25.18900
O  -1.54900 2.12000 23.98600
C  -2.19900 0.71400 25.80600
N  -0.37600 7.52800 24.66100
C  -0.75000 6.44600 23.89900
C  -0.97000 6.81100 22.42100
C  -0.75700 8.39700 22.43100
C  -0.19000 8.59500 23.89300
C  -0.04900 6.11300 21.40800
C  -2.08200 9.22000 22.18700
C  -2.17800 10.08600 20.91300
N  0.52200 9.38700 26.63700
C  0.71700 10.19900 25.57500
C  1.27400 11.46800 25.95400
C  1.31400 11.41000 27.38500
C  0.90400 10.11300 27.68000
C  1.58600 12.55800 24.93600
C  1.64900 12.13200 28.62500
O  2.09100 13.22300 28.86100
C  1.32300 11.03700 29.74900
C  2.56000 10.80200 30.59300
O  3.50200 10.14800 30.20800
O  2.34100 11.37200 31.83800
C  3.43300 10.99300 32.71800
H  -0.62500 4.29400 30.00000
H  -1.36100 4.44700 23.69400
H  0.53900 10.57500 23.51500
H  1.24700 8.70700 31.56300
H  -0.38100 6.14600 31.55700
H  2.44800 5.64900 30.57300
H  1.63500 5.13700 32.07000
H  2.49300 6.67500 31.93700
H  -1.72300 8.30800 31.42800
H  -0.82300 9.89100 31.41100
H  -1.66400 8.06400 33.55400
H  -1.18300 9.76200 33.75700
H  -0.94400 1.06900 28.28800
H  -2.53700 1.83100 28.51800
H  -1.36800 2.20400 29.59300
H  -2.54300 0.13900 24.94600
H  -3.06800 0.77500 26.46100
H  -1.40400 0.22700 26.37000
H  -1.98500 6.58100 22.09900
H  -0.04800 8.81800 21.71800
H  0.91900 5.87500 21.84800
H  0.13100 6.90500 20.68200
H  -0.56800 5.22100 21.05800
H  -2.24800 9.92700 23.00000
H  -2.92700 8.55200 22.35400
H  -1.38400 9.89600 20.19000
H  -2.00500 11.12300 21.20000
H  -3.19100 10.05500 20.51100
H  0.89500 12.54900 24.09300
H  2.52900 12.22700 24.50100
H  1.53700 13.55000 25.38400
H  0.50300 11.40300 30.36600
H  3.47500 9.93900 32.99200
H  3.27400 11.60400 33.60700
H  4.43600 11.30000 32.41900
Mg 35.67800 48.28300 26.76100
C  36.23900 46.25200 29.60200
C  34.65200 50.80100 28.86000
C  35.03100 50.13100 24.09000
C  36.89700 45.71600 24.72600
N  35.29900 48.36800 28.97900
C  35.75500 47.49100 29.91000
C  35.63700 48.05700 31.33100
C  34.86200 49.42900 31.03900
C  34.96100 49.58900 29.56200
C  33.51200 49.48600 31.75800
C  37.03000 48.34100 32.02600
C  37.13800 48.04600 33.51900
H  35.94400 48.43300 34.45700
N  35.01300 50.22600 26.52800
C  34.69400 51.14900 27.50000
C  34.34100 52.42400 26.95900
C  34.26400 52.20900 25.53200
C  34.80900 50.83600 25.30600
C  34.01900 53.60500 27.75000
C  33.79400 53.14600 24.36800
O  33.81900 52.77200 23.20700
C  33.18700 54.50300 24.66900
N  36.03000 48.02900 24.69700
C  35.65300 48.90900 23.81800
C  35.72300 48.30500 22.42800
C  36.58400 47.07300 22.67000
C  36.50000 46.92100 24.13400
C  34.38400 47.97700 21.71100
C  38.06900 47.16300 22.29400
C  38.85600 45.96100 21.80500
N  36.22700 46.32300 27.02300
C  36.69100 45.38000 26.06000
C  37.08400 44.11000 26.68400
C  36.88500 44.46000 28.12200
C  36.42600 45.76700 28.21700
C  37.50700 42.84300 26.05400
C  37.02700 43.93200 29.44500
O  37.36600 42.83700 29.86500
C  36.72200 45.08300 30.41300
C  35.54800 44.55500 31.34600
O  34.42700 44.15700 31.03500
O  35.95600 44.63400 32.68400
C  34.98300 44.32100 33.77200
H  34.37600 51.56000 29.59500
H  34.84900 50.53100 23.09000
H  37.25900 45.08400 23.91300
H  35.03500 47.36900 31.92400
H  35.43300 50.21200 31.53800
H  32.87900 50.07000 31.09000
H  33.63300 50.02600 32.69700
H  33.22600 48.45900 31.98700
H  37.28400 49.39900 31.95900
H  37.75200 47.81500 31.40100
H  37.97100 48.57500 33.98200
H  37.31500 46.97800 33.64400
H  34.96600 54.13900 27.82700
H  33.70100 53.24800 28.73000
H  33.18100 54.24200 27.46800
H  33.49800 55.01800 25.57800
H  32.10700 54.36000 24.64600
H  33.43400 55.13700 23.81800
H  36.12500 49.05400 21.74500
H  36.24500 46.13300 22.23500
H  34.00400 47.00300 22.02000
H  34.58700 47.96300 20.64000
H  33.66400 48.76600 21.93000
H  38.55700 47.55000 23.18800
H  38.14900 47.99100 21.59100
H  39.27800 46.15200 20.81800
H  38.25400 45.05700 21.88900
H  39.65300 45.83600 22.53900
H  38.25200 42.39200 26.71000
H  38.04100 43.05000 25.12700
H  36.68000 42.16400 25.84700
H  37.58200 45.28100 31.05300
H  35.17200 44.98900 34.61200
H  35.19900 43.30900 34.11300
H  33.94400 44.48900 33.48800

