158

Mg 25.43900 1.99300 29.99800
C  27.41500 1.55700 32.82500
C  22.55100 1.78800 32.03200
C  23.52200 1.92500 27.22100
C  28.29500 1.30300 27.90900
N  25.02500 1.78800 32.21200
C  26.05500 1.67400 33.11100
C  25.43400 1.68200 34.52900
C  23.86000 1.53000 34.31300
C  23.77700 1.70500 32.75500
C  23.23400 0.18100 34.80200
C  25.71500 2.99100 35.24700
C  26.37900 2.96300 36.65200
H  25.76700 3.79300 37.75600
N  23.33300 1.93500 29.67300
C  22.33600 1.91700 30.64700
C  21.07200 1.87600 29.93100
C  21.34400 1.76300 28.55100
C  22.76700 1.85300 28.43200
C  19.77500 1.68100 30.67400
C  20.37300 1.38500 27.41900
O  20.73900 1.21600 26.26300
C  18.94700 1.17400 27.66100
N  25.81700 1.74700 27.92000
C  24.87300 1.87800 26.99400
C  25.45600 2.10000 25.56900
C  26.92400 1.73700 25.75600
C  27.06100 1.62900 27.25900
C  24.75800 1.46100 24.31200
C  28.03700 2.68500 25.10700
C  27.88500 4.16100 25.51600
N  27.54200 1.68600 30.26200
C  28.49700 1.31600 29.36700
C  29.57200 0.86100 30.11100
C  29.26800 0.98500 31.43100
C  27.98300 1.53100 31.51700
C  30.87400 0.49000 29.59200
C  29.78800 0.80000 32.78700
O  30.89500 0.36800 33.21100
C  28.61500 1.29900 33.78600
C  28.34100 0.18400 34.78700
O  27.74600 -0.79600 34.43900
O  28.80000 0.63900 35.98800
C  28.78700 -0.40000 37.03100
H  21.64300 1.78300 32.63800
H  22.83900 2.10400 26.38900
H  29.06000 1.10100 27.15600
H  25.79100 0.78800 35.04000
H  23.24900 2.35800 34.67200
H  23.64500 -0.67000 34.26100
H  22.18600 0.17900 34.50300
H  23.26400 -0.08900 35.85800
H  24.76900 3.52600 35.33300
H  26.35800 3.67600 34.69500
H  27.39100 3.36900 36.66100
H  26.48800 1.95800 37.06000
H  19.22400 0.76500 30.46300
H  19.16200 2.52900 30.36900
H  19.90300 1.91400 31.73200
H  18.42900 1.98800 28.16900
H  18.91400 0.29200 28.30100
H  18.39200 0.92000 26.75800
H  25.39800 3.16800 25.35900
H  27.14100 0.82600 25.19900
H  23.70400 1.30600 24.54200
H  25.18800 0.48400 24.08900
H  24.74700 2.15600 23.47200
H  27.82700 2.62500 24.03900
H  29.06300 2.34500 25.25200
H  28.77500 4.67900 25.87300
H  27.05700 4.26800 26.21700
H  27.59300 4.64600 24.58400
H  31.22700 1.34700 29.01900
H  30.69200 -0.41000 29.00300
H  31.52500 0.25900 30.43500
H  28.84700 2.13600 34.44400
H  27.76500 -0.44700 37.40900
H  29.47900 -0.13100 37.82900
H  29.15400 -1.35100 36.64500
Mg 48.43200 35.35700 27.54200
C  46.43000 33.60100 29.90500
C  48.36300 38.03400 29.49400
C  49.94800 37.02600 25.01900
C  47.97700 32.57400 25.42800
N  47.66300 35.65700 29.59500
C  46.93600 34.83100 30.36800
C  46.90600 35.41700 31.78100
C  47.00500 36.93400 31.49000
C  47.70800 36.89700 30.10500
C  45.67900 37.73900 31.47400
C  48.00100 34.68700 32.69800
C  49.07200 35.52500 33.30300
H  48.82000 36.18400 34.71000
N  49.05400 37.29200 27.29000
C  49.01000 38.27900 28.22300
C  49.71500 39.41400 27.78000
C  50.20800 39.12000 26.45900
C  49.65500 37.78300 26.15300
C  49.92600 40.62800 28.70200
C  51.05500 39.89700 25.52000
O  51.22000 39.59500 24.32300
C  51.57400 41.24000 25.84200
N  48.72500 34.94000 25.54800
C  49.35100 35.82300 24.68700
C  49.54800 35.27200 23.33200
C  48.92800 33.83400 23.39800
C  48.59900 33.73200 24.87600
C  48.82500 36.14300 22.26500
C  49.91800 32.61700 22.99300
C  49.41100 31.67500 21.90700
N  47.50000 33.43700 27.57600
C  47.44100 32.42000 26.66700
C  46.66700 31.28600 27.19100
C  46.14100 31.79900 28.45300
C  46.77500 33.07600 28.61200
C  46.30300 29.96700 26.51400
C  45.38400 31.42700 29.58400
O  44.73000 30.42400 29.77200
C  45.37500 32.67400 30.45800
C  45.52400 32.27500 31.86600
O  46.57400 31.81300 32.39600
O  44.47700 32.79600 32.54500
C  44.59800 32.82700 34.01700
H  48.40800 38.86800 30.19700
H  50.51700 37.48600 24.20800
H  47.86000 31.69600 24.78900
H  45.99900 35.03400 32.25000
H  47.65300 37.40900 32.22700
H  45.78100 38.36300 30.58600
H  45.61600 38.50400 32.24800
H  44.75800 37.15600 31.45400
H  48.53400 33.91100 32.14700
H  47.48200 34.27300 33.56200
H  49.42300 36.34600 32.67700
H  49.95700 34.89200 33.23800
H  49.23800 41.41300 28.39000
H  50.91200 41.03300 28.47300
H  49.90400 40.47000 29.78000
H  52.09900 41.32000 26.79400
H  50.84700 42.04300 25.72200
H  52.31300 41.54200 25.10000
H  50.61400 35.12300 23.16300
H  47.96900 33.80100 22.88200
H  48.18400 36.93700 22.64700
H  48.11000 35.60800 21.64000
H  49.64900 36.56500 21.68900
H  50.19100 32.00200 23.85100
H  50.83000 33.02500 22.55700
H  49.90000 31.85900 20.95000
H  48.33000 31.77000 21.80500
H  49.62900 30.65200 22.21600
H  46.87800 29.17500 26.99200
H  46.54300 29.94400 25.45100
H  45.25500 29.85100 26.79000
H  44.43100 33.17600 30.24700
H  43.67300 32.50800 34.49800
H  44.90900 33.81900 34.34400
H  45.28300 32.12500 34.49300

