158

Mg -11.72900 38.74900 42.87600
C  -9.50100 36.42500 41.56100
C  -9.79400 41.27800 41.15200
C  -14.01400 41.10600 43.82700
C  -13.75400 36.19000 43.94700
N  -10.03200 38.84400 41.37100
C  -9.19700 37.73200 41.10100
C  -8.01700 38.10400 40.18200
C  -8.04700 39.66100 40.26600
C  -9.35400 39.95300 40.89900
C  -6.77900 40.23500 40.87300
C  -8.23600 37.35500 38.78900
C  -7.09300 36.51600 38.38000
H  -6.15500 37.23900 37.40000
N  -11.89300 40.94200 42.54100
C  -11.00000 41.75600 41.86500
C  -11.45000 43.08800 41.96700
C  -12.62000 43.08900 42.79100
C  -12.91300 41.67500 43.11600
C  -10.78300 44.24300 41.23400
C  -13.48700 44.32200 43.21500
O  -13.24500 45.41900 42.71500
C  -14.61400 44.27800 44.13600
N  -13.80300 38.63300 43.46600
C  -14.34000 39.74900 44.02700
C  -15.58900 39.19400 44.66400
C  -15.50000 37.69200 44.91900
C  -14.29600 37.48000 44.00800
C  -16.25700 39.96500 45.84900
C  -16.78000 36.90500 44.51900
C  -17.14600 35.67300 45.25000
N  -11.63400 36.68700 42.91800
C  -12.46700 35.79100 43.47400
C  -11.92300 34.41900 43.31000
C  -10.70400 34.61400 42.69300
C  -10.60500 36.01000 42.36000
C  -12.47200 33.08800 43.73700
C  -9.50900 34.01700 42.17100
O  -9.09300 32.86800 42.25800
C  -8.74300 35.13400 41.36900
C  -7.36700 35.05400 42.02100
O  -7.06900 35.50200 43.10800
O  -6.63100 34.25300 41.21700
C  -5.27700 34.07500 41.74200
H  -9.24600 42.06200 40.62400
H  -14.76800 41.80400 44.19800
H  -14.18100 35.35700 44.50900
H  -7.08700 37.77000 40.64300
H  -8.05700 40.10900 39.27200
H  -6.99700 40.96900 41.64900
H  -6.30100 40.79600 40.07000
H  -6.00900 39.54800 41.22300
H  -8.43900 38.06400 37.98600
H  -9.17900 36.80800 38.81100
H  -7.56000 35.66400 37.88600
H  -6.50000 36.14300 39.21500
H  -10.51800 43.82000 40.26500
H  -9.87600 44.52800 41.76700
H  -11.37300 45.14800 41.08700
H  -15.52100 44.00000 43.60000
H  -14.70300 45.25800 44.60600
H  -14.40700 43.66000 45.00900
H  -16.25200 39.20900 43.80000
H  -15.24600 37.51900 45.96500
H  -15.73100 40.79100 46.32700
H  -16.38700 39.29100 46.69500
H  -17.21900 40.31000 45.47100
H  -16.65700 36.53600 43.50100
H  -17.69000 37.50000 44.58700
H  -18.00400 35.92700 45.87200
H  -16.39100 35.33100 45.95800
H  -17.40400 34.91100 44.51400
H  -12.49000 32.36100 42.92500
H  -13.44000 33.18600 44.22900
H  -11.81500 32.55400 44.42300
H  -8.71600 34.79900 40.33200
H  -4.92200 35.08000 41.97100
H  -4.78400 33.70200 40.84400
H  -5.21400 33.29000 42.49600
Mg -2.23500 34.99100 26.71500
C  -3.88400 33.40100 29.36600
C  -0.89300 37.19400 28.94300
C  -1.17600 36.80600 24.14800
C  -4.27600 33.02700 24.48100
N  -2.34200 35.21000 28.89300
C  -3.07700 34.39200 29.77700
C  -2.83500 34.85800 31.22700
C  -1.97900 36.18300 31.04300
C  -1.73900 36.27300 29.56200
C  -2.67600 37.46700 31.65000
C  -2.07300 33.84400 32.15900
C  -2.78900 33.32200 33.39200
H  -2.03800 33.32000 34.75600
N  -1.06000 36.64700 26.52300
C  -0.60000 37.41700 27.52300
C  0.25300 38.44200 27.02700
C  0.33300 38.24900 25.69500
C  -0.65700 37.22400 25.41900
C  0.96200 39.38700 27.91100
C  1.33200 38.76400 24.59500
O  1.36400 38.25600 23.47300
C  2.31400 39.86600 25.00500
N  -2.70000 34.97700 24.61400
C  -2.08100 35.81500 23.78400
C  -2.66800 35.72300 22.39400
C  -3.41500 34.36300 22.44100
C  -3.50900 34.09400 23.91100
C  -3.60400 36.95800 22.07300
C  -2.87500 33.18300 21.58000
C  -1.74500 32.21300 22.21300
N  -3.66700 33.52900 26.84000
C  -4.29200 32.71300 25.82900
C  -5.14300 31.75500 26.47800
C  -5.06800 32.00200 27.87600
C  -4.11000 33.02100 28.04400
C  -5.99400 30.74800 25.77200
C  -5.55200 31.68800 29.12500
O  -6.40500 30.88500 29.46500
C  -4.79100 32.54300 30.19900
C  -5.90100 33.29100 30.98200
O  -6.80300 33.90500 30.45600
O  -5.76500 32.89200 32.27000
C  -7.02600 33.15700 33.00700
H  -0.41900 37.77700 29.73500
H  -0.70400 37.28200 23.28600
H  -4.85000 32.33500 23.86200
H  -3.80300 35.03200 31.69800
H  -1.01200 36.00100 31.51200
H  -1.92600 37.97500 32.25600
H  -3.52000 37.17900 32.27700
H  -2.95300 38.22800 30.92000
H  -1.07900 34.18800 32.44300
H  -2.00800 32.98000 31.49700
H  -2.95000 32.25300 33.25300
H  -3.78600 33.76100 33.41100
H  1.04100 40.27400 27.28400
H  2.00100 39.11900 28.10500
H  0.50400 39.62100 28.87200
H  3.05900 39.98300 24.21800
H  2.92100 39.57700 25.86300
H  1.69400 40.74100 25.20000
H  -1.87600 35.81700 21.65100
H  -4.46500 34.49100 22.18100
H  -4.65600 36.72900 21.90200
H  -3.09700 37.46500 21.25200
H  -3.71800 37.64500 22.91100
H  -2.56800 33.62000 20.63000
H  -3.75000 32.54600 21.44600
H  -1.23200 32.75800 23.00600
H  -1.15500 31.91100 21.34800
H  -2.14900 31.27600 22.59500
H  -6.98500 31.08900 25.47200
H  -5.98900 29.89400 26.45000
H  -5.58000 30.39500 24.82800
H  -4.23900 31.92300 30.90600
H  -7.88700 32.65600 32.56600
H  -7.15300 34.23500 32.90800
H  -6.82400 32.78700 34.01200

