158

Mg 47.06400 24.96500 28.31800
C  48.29800 27.05600 30.74200
C  46.23100 22.73300 30.81300
C  46.41400 22.67700 25.95100
C  48.06400 27.16300 25.89300
N  47.18800 24.91500 30.55100
C  47.76800 25.90700 31.33600
C  47.62200 25.62900 32.87000
C  47.07500 24.11500 32.85000
C  46.84200 23.86800 31.30500
C  48.04900 23.15700 33.50000
C  46.60600 26.67000 33.53700
C  47.21100 27.36900 34.75100
H  46.36300 27.48700 35.94700
N  46.46100 22.93500 28.37500
C  46.12800 22.22900 29.52100
C  45.66100 20.86900 29.15400
C  45.79200 20.84700 27.72700
C  46.27300 22.18700 27.29400
C  45.29600 19.74300 30.20800
C  45.62200 19.67600 26.73800
O  45.74200 19.78100 25.50600
C  45.42100 18.27400 27.23500
N  47.33400 24.89000 26.22200
C  46.87900 23.95200 25.48400
C  46.71500 24.29600 24.00200
C  47.07700 25.83000 24.05500
C  47.49700 25.99500 25.45200
C  47.80200 23.56900 23.09900
C  45.85900 26.75400 23.74900
C  46.00400 27.68600 22.50400
N  48.00600 26.79600 28.26800
C  48.35000 27.56700 27.23700
C  49.12400 28.71600 27.71100
C  48.96500 28.64800 29.08500
C  48.44100 27.39500 29.36200
C  49.63800 29.80600 26.85900
C  49.22300 29.32900 30.34700
O  49.66900 30.45000 30.59300
C  48.86800 28.26700 31.48100
C  50.00900 27.94000 32.35700
O  50.84400 27.02800 32.13800
O  50.05400 28.71600 33.42400
C  51.13100 28.46700 34.42000
H  45.99100 21.93700 31.52100
H  45.98900 22.04600 25.16800
H  48.31700 27.80900 25.05000
H  48.62900 25.70000 33.27900
H  46.07600 24.11100 33.28500
H  48.47600 22.45800 32.78100
H  47.45400 22.47000 34.10200
H  48.82000 23.64700 34.09600
H  45.71300 26.21600 33.96600
H  46.39600 27.51200 32.87800
H  47.33800 28.42700 34.52100
H  48.21300 26.96200 34.88500
H  45.30800 20.13100 31.22600
H  46.11400 19.02700 30.12100
H  44.26600 19.58200 29.89000
H  46.39600 17.96800 27.61400
H  45.07300 17.57900 26.47000
H  44.67500 18.26500 28.03000
H  45.69700 24.02300 23.72200
H  47.94800 26.06700 23.44400
H  47.44700 22.54200 23.02000
H  48.72700 23.75400 23.64600
H  47.75500 24.02000 22.10800
H  45.27200 27.15900 24.57300
H  45.15500 26.05900 23.29100
H  45.44000 28.59700 22.70300
H  45.48900 27.15100 21.70600
H  47.01700 27.92800 22.18200
H  49.79500 29.63400 25.79400
H  50.64400 30.12600 27.13100
H  48.94800 30.63400 27.02200
H  48.18900 28.74700 32.18500
H  51.98400 28.00300 33.92600
H  50.85800 27.73200 35.17700
H  51.54700 29.33400 34.93500
Mg 5.83600 54.44700 39.88300
C  5.49300 50.96900 40.47700
C  8.90300 53.84900 38.54400
C  5.81600 57.66400 38.89700
C  2.53100 54.84400 41.20200
N  7.06600 52.54900 39.42500
C  6.66800 51.25700 39.72400
C  7.82900 50.32500 39.36300
C  9.03400 51.34100 39.29100
C  8.32400 52.66400 39.01600
C  9.94200 51.39400 40.54300
C  7.58200 49.54000 38.02100
C  6.47300 49.97000 37.08100
H  6.81200 50.47500 35.60900
N  7.14400 55.58800 38.87000
C  8.45900 55.16300 38.46500
C  9.20000 56.35700 38.04500
C  8.23300 57.44900 38.04000
C  6.98600 56.93300 38.61800
C  10.68300 56.29000 37.68000
C  8.52700 58.85800 37.69700
O  9.64100 59.14000 37.29100
C  7.49200 60.01300 37.82600
N  4.20400 55.99000 39.62200
C  4.56400 57.25000 39.45700
C  3.46400 58.20400 39.86000
C  2.62400 57.36800 40.85000
C  3.10800 55.95900 40.48300
C  3.89500 59.50700 40.52700
C  1.10100 57.40000 40.54500
C  0.13900 57.28000 41.79400
N  4.31800 53.19800 40.66800
C  3.04000 53.51500 41.21700
C  2.46200 52.28200 41.78900
C  3.40800 51.29100 41.53100
C  4.46100 51.83000 40.73500
C  1.23000 52.24500 42.59300
C  3.65800 49.88100 41.75300
O  2.99400 49.11300 42.39600
C  4.98500 49.54600 40.94700
C  4.60600 48.66100 39.78400
O  4.11600 49.03500 38.76900
O  4.93000 47.34100 40.06200
C  4.78400 46.37200 38.96500
H  9.90300 53.73700 38.12100
H  5.75100 58.70500 38.57500
H  1.72300 55.14900 41.87000
H  7.91300 49.57500 40.15000
H  9.72500 51.15600 38.46900
H  9.66800 50.74800 41.37600
H  10.09400 52.39100 40.95700
H  10.95300 51.09400 40.26800
H  7.52800 48.47900 38.26600
H  8.48500 49.55500 37.41000
H  5.93500 50.84500 37.44500
H  5.83400 49.09000 37.01700
H  11.31700 55.65300 38.29700
H  11.28600 57.18000 37.85700
H  10.65200 55.94300 36.64800
H  6.58200 59.93100 37.23200
H  7.89200 61.00200 37.59900
H  7.35000 60.12600 38.90100
H  2.82400 58.36000 38.99200
H  2.79600 57.58200 41.90500
H  4.84000 59.32100 41.03900
H  3.17800 59.92800 41.23200
H  4.16300 60.21100 39.73900
H  0.90300 56.51100 39.94700
H  0.82100 58.20600 39.86500
H  -0.44100 58.20200 41.84700
H  0.61000 57.20700 42.77400
H  -0.51400 56.45500 41.51000
H  0.51800 51.66200 42.00900
H  0.84600 53.16600 43.03200
H  1.52300 51.47800 43.30900
H  5.64700 48.91200 41.53600
H  5.09100 46.63300 37.95200
H  3.74000 46.06400 38.89600
H  5.40500 45.53700 39.28900

