158

Mg 47.10700 35.86500 28.96900
C  45.55000 33.57500 31.19800
C  47.19200 38.07000 31.65100
C  48.04800 38.16900 26.91900
C  46.49600 33.64100 26.23500
N  46.54700 35.81900 31.13800
C  45.97900 34.72300 31.89400
C  46.12600 34.89500 33.37800
C  46.20000 36.40500 33.45400
C  46.69000 36.81000 31.98800
C  44.84100 37.10400 33.82200
C  47.41400 34.06300 33.86700
C  47.38300 33.65500 35.34000
H  46.51900 34.45400 36.32400
N  47.82900 37.75800 29.26600
C  47.68900 38.46700 30.41100
C  48.41600 39.82200 30.16600
C  48.76600 39.78400 28.80300
C  48.17800 38.55900 28.20600
C  48.58900 40.88000 31.19000
C  49.62700 40.73200 27.91900
O  49.85100 40.56500 26.75400
C  50.00500 42.05300 28.50600
N  47.20000 35.91000 26.87300
C  47.67200 36.99400 26.27200
C  47.75100 36.91300 24.77100
C  47.26600 35.45400 24.53100
C  47.02700 34.92500 25.98100
C  46.81300 37.96700 23.97800
C  48.13700 34.57900 23.59700
C  47.68900 34.43500 22.09100
N  46.25300 34.05100 28.73100
C  46.08600 33.27900 27.51000
C  45.34900 32.08100 27.87300
C  45.12200 32.20500 29.30100
C  45.68800 33.42000 29.80200
C  45.13800 30.83200 26.96900
C  44.59300 31.44100 30.43700
O  44.12200 30.27500 30.54700
C  44.66300 32.40000 31.60800
C  45.00600 31.75000 32.92000
O  46.06500 31.30200 33.27900
O  43.87100 31.75300 33.72900
C  44.04800 31.15600 35.07600
H  47.18300 38.89500 32.36600
H  48.19700 38.96500 26.18600
H  46.19900 33.05100 25.36600
H  45.28000 34.59400 33.99600
H  46.84900 36.66700 34.28900
H  43.97900 36.44400 33.72500
H  44.67000 37.83200 33.02800
H  44.80200 37.63900 34.77000
H  48.22300 34.79300 33.84600
H  47.55900 33.24000 33.16700
H  48.40100 33.72300 35.72200
H  47.05100 32.64700 35.59100
H  48.07300 41.79600 30.90400
H  49.67000 40.90500 31.32400
H  48.20500 40.58700 32.16700
H  50.57100 42.61100 27.76100
H  50.68200 41.78400 29.31700
H  49.12200 42.57300 28.87700
H  48.80900 36.96700 24.51700
H  46.27000 35.70800 24.16800
H  46.08200 37.46200 23.34800
H  47.43400 38.61900 23.36200
H  46.29700 38.64500 24.65800
H  48.13500 33.61200 24.10000
H  49.13200 35.01900 23.52400
H  46.61400 34.55400 21.95400
H  47.94900 33.40700 21.83900
H  48.21000 35.07700 21.38200
H  46.08700 30.45400 26.59000
H  44.53900 31.17600 26.12500
H  44.64700 29.97300 27.42500
H  43.63600 32.76500 31.60100
H  44.62100 31.78900 35.75400
H  44.44700 30.14200 35.10300
H  43.05500 31.11200 35.52400
Mg -4.75900 24.58800 26.47400
C  -2.82500 26.35400 28.70700
C  -5.79600 22.62200 29.09500
C  -6.17400 22.54000 24.11600
C  -3.11600 26.34800 23.94100
N  -4.43200 24.57700 28.64700
C  -3.56700 25.40800 29.33800
C  -3.81300 25.23200 30.78000
C  -4.40600 23.79400 30.98900
C  -4.94600 23.63100 29.50900
C  -3.35600 22.68100 31.35700
C  -4.64800 26.38600 31.40500
C  -4.34200 26.77300 32.86500
H  -5.34000 26.41200 33.91300
N  -5.72700 22.78500 26.61700
C  -6.05300 22.19100 27.75800
C  -6.79300 21.01500 27.35400
C  -7.08500 20.97800 25.95900
C  -6.34000 22.21400 25.51700
C  -7.17900 19.98700 28.45900
C  -7.88800 20.06100 25.13100
O  -8.17200 20.36900 23.97300
C  -8.40200 18.76100 25.78200
N  -4.71800 24.49400 24.36900
C  -5.37400 23.56800 23.60200
C  -5.23500 23.86900 22.05700
C  -4.27100 25.10900 22.06400
C  -3.93800 25.27200 23.57600
C  -4.77300 22.67900 21.23900
C  -4.88000 26.40100 21.43200
C  -4.09900 27.11200 20.35000
N  -3.44800 26.10900 26.32000
C  -2.85100 26.70900 25.19500
C  -1.91900 27.76300 25.59100
C  -1.87000 27.65600 26.96600
C  -2.79800 26.60600 27.32900
C  -1.11300 28.67900 24.61800
C  -1.25500 28.15400 28.20300
O  -0.41300 29.05000 28.34100
C  -1.85300 27.34100 29.37600
C  -0.74000 26.64100 30.17900
O  0.02900 25.86200 29.66200
O  -0.75000 27.05900 31.46300
C  0.27200 26.36400 32.28900
H  -6.14100 22.08100 29.97900
H  -6.82000 22.13600 23.33300
H  -2.75000 26.89900 23.07200
H  -2.81100 25.19700 31.20600
H  -5.29400 23.84300 31.61900
H  -3.38100 21.75500 30.78400
H  -3.24000 22.56300 32.43400
H  -2.37500 23.08000 31.09700
H  -5.67400 26.02300 31.34600
H  -4.64800 27.29000 30.79600
H  -4.28300 27.85300 32.73700
H  -3.31300 26.41600 32.92600
H  -7.34100 20.33400 29.48000
H  -6.41000 19.23400 28.28400
H  -8.17700 19.60500 28.24400
H  -8.75600 18.02600 25.06000
H  -9.16100 19.04800 26.50900
H  -7.58300 18.25600 26.29600
H  -6.25000 24.10500 21.73700
H  -3.31100 24.76900 21.67700
H  -4.36900 21.79100 21.72300
H  -4.08200 22.93300 20.43400
H  -5.66900 22.45600 20.65900
H  -5.05700 27.06600 22.27600
H  -5.88900 26.12000 21.13200
H  -3.10000 26.71400 20.17000
H  -3.90200 28.14700 20.63000
H  -4.64800 27.07300 19.41000
H  -0.63300 29.52900 25.10400
H  -1.88700 29.11100 23.98500
H  -0.36900 27.97700 24.24200
H  -2.39200 28.00700 30.04900
H  1.16000 26.97800 32.14100
H  0.35600 25.30900 32.02600
H  0.00800 26.53800 33.33200

