158

Mg -1.82900 16.92900 26.56800
C  -2.55000 14.75000 29.27100
C  -2.36000 19.54300 28.77800
C  -1.70900 18.97400 23.96100
C  -2.16000 14.26400 24.34600
N  -2.59200 17.06900 28.88600
C  -2.57300 16.09400 29.81100
C  -2.65800 16.73700 31.17300
C  -2.79700 18.24100 30.93500
C  -2.67700 18.30400 29.42000
C  -4.10900 18.77800 31.48300
C  -1.40200 16.32900 31.97100
C  -1.02700 17.08700 33.21200
H  -0.64200 16.25700 34.42300
N  -1.94700 19.00500 26.39700
C  -2.12000 19.89400 27.39600
C  -1.96400 21.23500 26.87600
C  -1.65300 21.06200 25.49600
C  -1.73000 19.63200 25.20800
C  -1.92200 22.48100 27.75000
C  -1.39800 22.11400 24.37200
O  -1.11200 21.77600 23.21500
C  -1.47200 23.57200 24.62600
N  -1.89100 16.66900 24.38500
C  -1.84200 17.64200 23.53600
C  -2.05900 17.12500 22.10300
C  -1.89300 15.60900 22.25700
C  -1.95200 15.46300 23.73900
C  -3.38500 17.49300 21.47500
C  -0.59500 14.99600 21.73800
C  -0.69100 13.91500 20.66300
N  -2.18500 14.87600 26.71700
C  -2.27600 13.96300 25.70300
C  -2.42000 12.62800 26.31600
C  -2.56000 12.93100 27.66500
C  -2.46700 14.29700 27.89200
C  -2.45600 11.36400 25.56600
C  -2.68700 12.32900 28.99900
O  -2.80500 11.17900 29.36300
C  -2.64600 13.47200 30.02600
C  -1.66000 13.23100 31.01300
O  -0.46100 13.49000 30.87900
O  -2.24400 12.61900 32.09000
C  -1.40000 12.35500 33.24800
H  -2.34900 20.32000 29.54500
H  -1.68800 19.53300 23.02300
H  -2.01800 13.41500 23.67300
H  -3.52700 16.29000 31.65800
H  -2.05000 18.89500 31.38400
H  -4.95400 18.09500 31.39600
H  -4.30300 19.63300 30.83600
H  -3.90500 19.14100 32.49000
H  -0.56800 16.32400 31.26800
H  -1.50600 15.27400 32.22300
H  -1.93100 17.66100 33.41600
H  -0.11800 17.60000 32.89800
H  -1.02200 23.04900 27.51100
H  -1.80900 22.28200 28.81600
H  -2.78000 23.13300 27.58700
H  -0.61000 23.99300 25.14200
H  -2.43100 23.72100 25.12300
H  -1.70500 24.12800 23.71800
H  -1.33700 17.58900 21.43100
H  -2.77600 15.11100 21.85500
H  -3.34600 17.53400 20.38600
H  -3.65800 18.46500 21.88500
H  -4.21800 16.80000 21.59900
H  0.01600 14.59000 22.54400
H  0.09800 15.73400 21.33300
H  -0.45900 14.33600 19.68500
H  -1.63500 13.37100 20.68500
H  0.02700 13.10500 20.79500
H  -1.68100 11.32200 24.80100
H  -3.46600 11.23300 25.17800
H  -2.18300 10.55200 26.24000
H  -3.64000 13.53900 30.46800
H  -1.36400 13.06100 34.07800
H  -0.38500 12.10300 32.94000
H  -1.78800 11.43500 33.68400
Mg 24.54700 -4.37400 46.36900
C  26.56200 -2.14900 44.52400
C  21.86500 -3.59700 44.20800
C  23.10600 -7.43400 46.94800
C  27.51400 -5.54200 47.95700
N  24.21000 -2.90800 44.69800
C  25.16900 -2.10400 44.17900
C  24.62300 -1.15300 43.02400
C  23.08600 -1.36800 43.25500
C  23.00700 -2.68500 44.13900
C  22.32600 -0.25300 43.88500
C  25.12500 -1.70600 41.66800
C  25.88700 -0.65900 40.71200
H  25.40300 -0.80500 39.26500
N  22.75100 -5.24200 45.92000
C  21.80000 -4.72300 45.00200
C  20.67500 -5.71100 44.86300
C  20.95000 -6.75200 45.86300
C  22.33000 -6.49700 46.26700
C  19.54500 -5.53700 43.90500
C  19.96700 -7.84100 46.26500
O  18.81000 -7.87600 45.76200
C  20.24200 -8.93700 47.31600
N  25.29400 -6.22300 47.19000
C  24.44200 -7.28100 47.35000
C  25.14700 -8.37700 48.12500
C  26.39900 -7.66700 48.62500
C  26.45900 -6.40900 47.84200
C  24.25400 -8.94300 49.28600
C  27.74800 -8.47300 48.61400
C  28.50800 -8.39700 49.95300
N  26.56400 -3.79100 46.48200
C  27.69400 -4.35800 47.19600
C  28.81100 -3.52800 46.91600
C  28.46500 -2.74900 45.80100
C  27.08400 -2.96300 45.59900
C  30.15200 -3.61500 47.60900
C  29.00400 -1.75500 44.90900
O  30.07400 -1.17700 44.75200
C  27.78400 -1.43300 43.95000
C  27.74800 0.05800 43.91700
O  27.33400 0.79800 44.84900
O  28.24000 0.48300 42.73300
C  28.75000 1.86600 42.70600
H  21.08100 -3.48600 43.45500
H  22.71900 -8.43700 47.13900
H  28.44500 -5.90000 48.40000
H  24.99600 -0.13300 43.11700
H  22.60500 -1.57200 42.29800
H  21.56400 -0.72800 44.50300
H  21.83600 0.23600 43.04300
H  23.00500 0.34500 44.49200
H  24.28700 -2.06300 41.07000
H  25.76200 -2.56300 41.88800
H  26.93000 -0.93000 40.87500
H  25.85800 0.38700 41.01900
H  19.09700 -6.52100 43.76600
H  19.80000 -5.09800 42.94000
H  18.88600 -4.76800 44.30700
H  19.29100 -9.33700 47.66700
H  20.74200 -8.36800 48.10000
H  20.83700 -9.66200 46.76100
H  25.23800 -9.12200 47.33400
H  26.24800 -7.29000 49.63700
H  23.40700 -8.32000 49.57100
H  24.82000 -9.24700 50.16700
H  23.71900 -9.85900 49.03300
H  28.39300 -8.25300 47.76300
H  27.48600 -9.50300 48.37400
H  29.51100 -7.97600 49.88600
H  28.56000 -9.42300 50.31800
H  28.00900 -7.85200 50.75400
H  30.13700 -4.19000 48.53500
H  30.48700 -2.59700 47.80600
H  30.75000 -4.24900 46.95500
H  27.85200 -1.71200 42.89900
H  28.10600 2.59200 43.20200
H  28.66800 2.21300 41.67600
H  29.79300 1.95300 43.00900

