158

Mg 2.20000 -1.01500 43.79900
C  5.41200 -0.38300 42.88500
C  0.99400 1.68700 42.01800
C  -1.09300 -2.06800 44.37900
C  3.17400 -4.20100 45.13700
N  3.08600 0.25500 42.27700
C  4.48200 0.45100 42.19100
C  4.77100 1.74200 41.35700
C  3.35000 2.31800 41.05900
C  2.40000 1.44200 41.95900
C  3.18400 3.74900 41.40900
C  5.74500 1.55000 40.17400
C  6.91800 2.59600 39.98400
H  6.92700 3.37100 38.62600
N  0.27900 -0.16000 43.38900
C  0.02200 0.99100 42.68100
C  -1.42700 1.21000 42.62500
C  -2.04900 0.17100 43.37200
C  -0.97700 -0.73000 43.77200
C  -2.07300 2.27200 41.83000
C  -3.55900 0.11000 43.61600
O  -4.25500 0.97800 43.06100
C  -4.19900 -0.89600 44.55700
N  1.27200 -2.86000 44.73300
C  -0.10100 -2.97400 44.81000
C  -0.45900 -4.27600 45.63700
C  0.84500 -5.12300 45.60100
C  1.84000 -4.03100 45.10200
C  -1.06100 -3.98000 46.99200
C  0.94000 -6.49900 44.86800
C  -0.05300 -7.61600 45.24400
N  3.94300 -2.10100 44.12800
C  4.16100 -3.33500 44.61600
C  5.56900 -3.59500 44.62100
C  6.16500 -2.40400 44.07400
C  5.06500 -1.56100 43.69300
C  6.29100 -4.94000 45.06000
C  7.42200 -1.68000 43.74000
O  8.64100 -2.02800 43.79500
C  6.90000 -0.25200 43.04600
C  7.27300 1.00300 43.77600
O  6.59800 1.49500 44.69900
O  8.49800 1.53400 43.33100
C  8.85000 2.74800 44.06400
H  0.56400 2.59000 41.58100
H  -2.09500 -2.45800 44.57000
H  3.52900 -5.16900 45.49700
H  5.29000 2.40700 42.04800
H  3.10300 2.14500 40.01100
H  4.10200 4.33400 41.35300
H  3.02100 3.91500 42.47400
H  2.44600 4.14900 40.71400
H  5.01400 1.63800 39.37000
H  6.12900 0.54200 40.32300
H  7.90600 2.14400 40.07900
H  6.84400 3.33900 40.77900
H  -2.98000 1.94300 41.32400
H  -1.48000 2.68800 41.01500
H  -2.41600 3.07500 42.48300
H  -5.16400 -0.56200 44.93500
H  -3.58300 -0.94100 45.45600
H  -4.33200 -1.83400 44.01800
H  -1.27100 -4.78900 45.12000
H  0.96600 -5.30400 46.66900
H  -1.39200 -2.94200 46.96100
H  -0.32800 -4.18100 47.77300
H  -1.90100 -4.62900 47.23800
H  1.97100 -6.83100 44.99400
H  0.79600 -6.39900 43.79200
H  -0.45000 -7.98900 44.29900
H  -0.69900 -7.43900 46.10400
H  0.56600 -8.40900 45.66200
H  5.94800 -5.23800 46.05100
H  7.34700 -4.72300 45.21900
H  6.16600 -5.58200 44.18800
H  7.26700 -0.13600 42.02600
H  9.69100 3.26400 43.60100
H  9.04100 2.48900 45.10600
H  8.07700 3.51300 44.13800
Mg -5.92100 25.41900 25.84300
C  -4.09300 26.94200 28.44300
C  -7.02800 23.13300 28.12800
C  -7.07900 23.71100 23.30000
C  -3.97100 27.53900 23.62200
N  -5.51500 25.08400 28.04200
C  -4.89900 25.90800 28.86900
C  -5.18500 25.58800 30.33800
C  -5.84100 24.16500 30.13700
C  -6.21500 24.11300 28.68400
C  -4.99000 22.93600 30.69800
C  -6.14000 26.54400 30.99500
C  -6.12900 26.74800 32.57900
H  -5.73900 25.48200 33.45600
N  -6.99900 23.69300 25.74900
C  -7.49000 22.94800 26.77900
C  -8.44200 21.96500 26.25100
C  -8.49300 22.19300 24.85800
C  -7.48700 23.22300 24.57700
C  -9.19400 20.98700 27.17400
C  -9.26500 21.34400 23.87500
O  -9.10000 21.51900 22.65100
C  -10.16300 20.20600 24.26000
N  -5.56700 25.59100 23.84400
C  -6.21500 24.76300 23.01600
C  -5.70900 24.96100 21.53900
C  -4.86200 26.25000 21.62500
C  -4.75400 26.45800 23.11900
C  -5.00500 23.71500 20.94200
C  -5.54600 27.47500 20.88000
C  -5.71500 27.27600 19.32000
N  -4.33900 26.94400 25.93600
C  -3.74100 27.70000 25.02600
C  -2.95400 28.68700 25.61000
C  -3.03600 28.43900 27.01200
C  -3.87900 27.35700 27.07800
C  -2.16600 29.85900 24.99700
C  -2.57100 28.91300 28.26900
O  -1.87500 29.90200 28.63200
C  -3.31700 27.93400 29.29800
C  -2.35000 27.30300 30.19200
O  -1.34200 26.75000 29.82400
O  -2.71700 27.44700 31.51600
C  -1.75600 26.90700 32.47800
H  -7.44100 22.47900 28.90000
H  -7.49500 23.32700 22.36600
H  -3.59700 28.33700 22.97700
H  -4.22500 25.46100 30.83700
H  -6.75000 24.12900 30.73700
H  -5.37900 22.61900 31.66500
H  -4.00600 23.37200 30.86700
H  -4.98000 22.13600 29.95800
H  -7.17100 26.29300 30.74400
H  -5.88500 27.54700 30.65200
H  -7.10100 27.13800 32.88100
H  -5.38900 27.52600 32.76700
H  -8.84800 20.00400 26.85400
H  -10.26500 21.05300 26.97900
H  -8.94900 21.27900 28.19500
H  -10.99500 20.55400 24.87200
H  -9.66700 19.48800 24.91300
H  -10.51900 19.74700 23.33700
H  -6.66400 25.12200 21.03900
H  -3.86300 26.07300 21.22600
H  -5.66600 23.19700 20.24800
H  -4.64900 23.04600 21.72500
H  -4.08000 23.94100 20.41100
H  -5.00100 28.37300 21.17100
H  -6.56100 27.65500 21.23300
H  -5.47900 28.15800 18.72400
H  -6.71600 27.11000 18.92100
H  -5.13200 26.42900 18.96000
H  -2.33200 29.96400 23.92400
H  -1.07800 29.87600 25.06100
H  -2.47300 30.77200 25.50700
H  -3.93700 28.59000 29.90800
H  -0.76300 27.26200 32.20400
H  -1.99900 25.84400 32.49400
H  -1.92400 27.28900 33.48500

