158

Mg -1.24300 17.94700 27.35300
C  -2.21800 15.80400 30.08100
C  -1.53800 20.63200 29.31900
C  -0.95500 19.70500 24.56300
C  -1.46400 14.85000 25.34200
N  -1.85400 18.15300 29.41400
C  -2.05800 17.21200 30.40300
C  -2.37800 17.80600 31.76900
C  -2.31800 19.32900 31.39800
C  -1.82500 19.39700 29.99200
C  -3.68300 20.16100 31.74700
C  -1.27600 17.53700 32.87300
C  -1.71800 17.10000 34.20400
H  -0.61400 16.48100 35.14300
N  -1.16200 19.85800 27.01800
C  -1.27100 20.88000 27.96700
C  -1.04000 22.19600 27.31300
C  -0.91600 21.94300 25.93100
C  -0.97500 20.47600 25.76800
C  -1.20500 23.57700 27.98500
C  -0.82200 22.90000 24.68700
O  -0.87900 22.44500 23.52000
C  -0.67900 24.37800 24.89300
N  -1.53700 17.35100 25.23300
C  -1.17500 18.29500 24.33200
C  -0.90300 17.62300 22.91500
C  -0.88400 16.11600 23.27500
C  -1.33200 16.06500 24.74300
C  -1.80500 18.05700 21.75600
C  0.41800 15.34600 23.01100
C  1.68600 15.82900 23.77500
N  -1.79100 15.78200 27.59200
C  -1.68500 14.69800 26.73500
C  -2.00100 13.46000 27.40600
C  -2.26200 13.89100 28.73800
C  -2.15500 15.25300 28.80700
C  -2.07400 11.96800 26.81800
C  -2.70500 13.31600 30.03300
O  -3.00700 12.14900 30.34900
C  -2.67000 14.61600 30.91700
C  -1.66300 14.32700 32.01700
O  -0.46000 14.43700 31.82800
O  -2.22200 13.72000 33.10800
C  -1.27100 13.06000 34.08000
H  -1.71300 21.45100 30.02000
H  -0.82000 20.20700 23.60200
H  -1.63300 13.97400 24.71300
H  -3.33800 17.39100 32.07600
H  -1.64700 19.86400 32.07000
H  -3.90800 20.82000 30.90900
H  -3.44000 20.80500 32.59200
H  -4.48500 19.45100 31.95000
H  -0.78600 18.46200 33.17600
H  -0.42900 16.90900 32.59600
H  -2.40700 16.26800 34.05900
H  -2.29400 17.86100 34.73100
H  -1.86600 23.52400 28.85000
H  -1.72100 24.28200 27.33400
H  -0.25600 24.03100 28.27200
H  0.11800 24.38700 25.63600
H  -1.62200 24.77800 25.26500
H  -0.44300 24.84400 23.93600
H  0.07300 18.01000 22.62200
H  -1.64200 15.52400 22.76100
H  -2.86900 17.86400 21.88900
H  -1.61900 17.39100 20.91300
H  -1.57300 19.07900 21.45700
H  0.59600 15.43100 21.93900
H  0.22900 14.27900 23.12000
H  2.12300 14.84700 23.95800
H  1.44700 16.38900 24.67900
H  2.29800 16.35000 23.03800
H  -1.31200 11.35000 27.29300
H  -1.87500 11.99900 25.74700
H  -3.02600 11.53900 27.13000
H  -3.58300 14.77900 31.48900
H  -1.91300 13.07800 34.96100
H  -0.29200 13.49800 34.27600
H  -1.15100 12.02100 33.77500
Mg 49.65400 45.95200 42.73200
C  46.20500 46.68400 41.99100
C  49.24200 42.94700 41.31400
C  52.98900 45.56700 43.10300
C  49.77000 49.24000 44.04700
N  47.86400 44.99500 41.81400
C  46.65200 45.38200 41.54700
C  45.77600 44.34000 40.90200
C  46.70300 43.17200 40.61800
C  48.03800 43.75600 41.28200
C  46.37800 41.79900 41.20800
C  44.94100 44.77200 39.66100
C  43.81900 43.81100 39.10900
H  43.98000 43.03500 37.81000
N  50.94000 44.49500 42.18700
C  50.59500 43.22600 41.74000
C  51.76600 42.45100 41.78300
C  52.83700 43.16300 42.40000
C  52.28800 44.48900 42.54500
C  51.71600 40.93400 41.38200
C  54.23000 42.64800 42.73900
O  54.39400 41.47500 42.56600
C  55.42100 43.53800 43.08600
N  51.25600 47.25600 43.31200
C  52.56600 46.88900 43.39500
C  53.46900 48.10800 43.85400
C  52.39700 49.15300 44.33900
C  50.99900 48.52300 43.91000
C  54.61500 47.75500 44.86400
C  52.67900 50.65300 43.85700
C  52.72500 51.87000 44.85500
N  48.36400 47.63100 42.97800
C  48.55000 48.78700 43.64300
C  47.33700 49.51900 43.77000
C  46.35600 48.66300 43.16900
C  47.05800 47.54600 42.66900
C  47.01600 50.96700 44.25000
C  44.95900 48.59400 42.82400
O  44.03800 49.33800 42.92100
C  44.85700 47.27600 41.97900
C  43.76000 46.50400 42.64900
O  43.85300 45.87000 43.66600
O  42.63500 46.57900 41.81200
C  41.33600 46.21000 42.40600
H  49.10600 41.90700 41.00800
H  54.06000 45.54000 43.31400
H  49.71100 50.20700 44.55000
H  45.09800 43.99500 41.68300
H  47.01800 43.16000 39.57400
H  46.76700 41.67500 42.21800
H  46.97300 41.06400 40.66600
H  45.36500 41.40500 41.11700
H  45.61600 44.77500 38.80400
H  44.52000 45.76600 39.81400
H  42.96700 44.45100 38.87800
H  43.45000 43.13400 39.87900
H  52.60800 40.64800 40.82300
H  50.84600 40.97900 40.72700
H  51.51900 40.33000 42.26700
H  55.36700 43.91600 44.10700
H  55.60000 44.22100 42.25500
H  56.36300 42.99100 43.08600
H  53.84400 48.51100 42.91400
H  52.20900 49.15200 45.41300
H  55.48400 47.95900 44.23700
H  54.66400 46.73100 45.23300
H  54.70300 48.42400 45.72000
H  51.95600 50.86600 43.06900
H  53.67900 50.69500 43.42700
H  52.27100 52.75600 44.41000
H  53.75400 52.13100 45.10400
H  52.10500 51.57800 45.70200
H  47.68100 51.07400 45.10600
H  45.99600 51.26800 44.49000
H  47.41600 51.58500 43.44600
H  44.51100 47.67700 41.02600
H  41.25200 46.75100 43.34900
H  41.23900 45.14300 42.60600
H  40.53800 46.47700 41.71300

