158

Mg 26.13200 50.56800 26.36200
C  23.62300 51.22000 28.75800
C  28.09000 49.23700 28.77000
C  28.50900 50.07900 24.02200
C  24.04400 51.95300 23.98600
N  25.88300 50.32300 28.56400
C  24.82100 50.58800 29.35000
C  25.12500 50.27200 30.82900
C  26.60900 49.87900 30.76700
C  26.90200 49.80800 29.23900
C  27.57900 50.84300 31.42900
C  24.09400 49.26300 31.42600
C  23.39000 49.72200 32.70200
H  23.49600 48.90400 34.00400
N  28.04300 49.77600 26.40700
C  28.68000 49.26100 27.50200
C  29.97500 48.72700 27.11400
C  30.11300 49.08100 25.71600
C  28.84800 49.63500 25.29900
C  30.96700 48.03000 28.02000
C  31.32000 48.75600 24.82300
O  31.39200 49.06300 23.62600
C  32.46400 48.03000 25.37900
N  26.30400 50.99900 24.34600
C  27.36700 50.60800 23.53800
C  27.07600 51.05300 22.00800
C  25.61700 51.67600 22.03500
C  25.24400 51.40300 23.52400
C  28.14800 51.95600 21.40300
C  24.62300 51.33300 20.91000
C  23.38900 50.42500 21.21900
N  24.18600 51.34500 26.31900
C  23.53500 51.98500 25.25400
C  22.26500 52.51800 25.71000
C  22.31800 52.32700 27.10000
C  23.44700 51.56700 27.39900
C  21.33600 53.31700 24.83700
C  21.59500 52.60400 28.37000
O  20.61600 53.28700 28.52800
C  22.46800 51.88200 29.45700
C  23.00900 52.99900 30.31800
O  24.02400 53.65900 30.05200
O  22.12300 53.20800 31.34800
C  22.47700 54.11700 32.44200
H  28.68200 48.78200 29.56700
H  29.27000 49.95100 23.24900
H  23.33900 52.49700 23.35300
H  25.03600 51.25000 31.30200
H  26.72500 48.89900 31.23100
H  28.11100 51.35200 30.62500
H  28.29200 50.20700 31.95400
H  27.01700 51.58600 31.99500
H  24.62300 48.34600 31.68400
H  23.47200 48.94900 30.58800
H  22.33800 49.64300 32.42500
H  23.52600 50.79300 32.85600
H  31.13600 46.98600 27.75600
H  30.77700 47.95000 29.09000
H  31.88900 48.61200 28.01900
H  32.21700 47.07700 25.84600
H  32.76500 48.71800 26.16900
H  33.27400 47.79900 24.68700
H  27.02600 50.10600 21.47200
H  25.70500 52.76200 22.06000
H  27.81400 52.95000 21.10600
H  28.34600 51.45000 20.45800
H  29.09500 51.91300 21.94200
H  25.16500 50.90100 20.06800
H  24.34600 52.35300 20.64300
H  23.09900 49.85300 20.33700
H  22.52300 51.00400 21.54000
H  23.73200 49.72400 21.98000
H  20.82300 54.12800 25.35500
H  20.59200 52.68300 24.35400
H  21.80800 53.86400 24.02100
H  21.93900 51.26500 30.18300
H  23.29800 53.65100 32.98600
H  21.66900 54.19000 33.17100
H  22.77500 55.11200 32.11300
Mg -4.53400 25.82100 25.09800
C  -2.89500 27.10500 27.98200
C  -6.09900 23.60400 27.13500
C  -5.87500 24.58700 22.37900
C  -2.38800 27.86300 23.12100
N  -4.47900 25.41400 27.35300
C  -3.82300 26.14100 28.30200
C  -4.39700 25.80600 29.69400
C  -5.12300 24.40700 29.40400
C  -5.27000 24.46700 27.87500
C  -4.36700 23.10400 29.85500
C  -5.30600 26.95800 30.27900
C  -5.15900 27.33000 31.66700
H  -4.73900 26.15500 32.64500
N  -5.88400 24.42900 24.83500
C  -6.43500 23.51800 25.78300
C  -7.42000 22.68300 25.16400
C  -7.38300 22.96500 23.77700
C  -6.33400 24.00000 23.61500
C  -8.31900 21.68900 25.97600
C  -8.15800 22.39700 22.65900
O  -7.99600 22.68700 21.46500
C  -9.21900 21.40200 22.91800
N  -4.08800 26.12900 23.06300
C  -4.90400 25.54600 22.12000
C  -4.45000 25.97000 20.73700
C  -3.50100 27.12100 20.97300
C  -3.26700 27.03300 22.45000
C  -3.86900 24.80900 19.86700
C  -4.01000 28.57300 20.61300
C  -2.91600 29.48500 20.13200
N  -2.92500 27.09700 25.40500
C  -2.20700 27.96000 24.55000
C  -1.25400 28.78000 25.28600
C  -1.54000 28.43100 26.61800
C  -2.54600 27.45700 26.65500
C  -0.35700 29.81500 24.75000
C  -1.14800 28.75200 27.92100
O  -0.36300 29.52000 28.37100
C  -2.12200 27.95200 28.89100
C  -1.17700 27.34100 29.77200
O  -0.32700 26.53500 29.44100
O  -1.30900 27.69400 31.07500
C  -0.28400 27.23500 32.05100
H  -6.67800 22.96500 27.80400
H  -6.58600 24.42600 21.56600
H  -1.80400 28.46100 22.41800
H  -3.60900 25.60900 30.42100
H  -6.12400 24.46700 29.83100
H  -3.47100 23.25400 30.45600
H  -4.14400 22.43900 29.02000
H  -5.05900 22.63200 30.55300
H  -6.33900 26.62600 30.18300
H  -5.18500 27.87100 29.69600
H  -6.08500 27.72200 32.08800
H  -4.43700 28.14500 31.72400
H  -9.16800 22.28800 26.30500
H  -7.83900 21.45400 26.92600
H  -8.72900 20.83200 25.44000
H  -9.87100 21.34000 22.04600
H  -9.82500 21.80100 23.73200
H  -8.89000 20.37300 23.06200
H  -5.32900 26.40800 20.26500
H  -2.61900 26.85800 20.39000
H  -3.45000 23.96800 20.41800
H  -3.20600 25.06800 19.04200
H  -4.75100 24.42400 19.35500
H  -4.49900 29.05700 21.45800
H  -4.82600 28.57000 19.89000
H  -2.97400 30.39700 20.72600
H  -3.04700 29.65700 19.06300
H  -1.94500 28.99000 20.10600
H  0.61500 29.33900 24.61400
H  -0.24700 30.56600 25.53200
H  -0.82600 30.26500 23.87500
H  -2.72100 28.73800 29.35100
H  0.77300 27.27300 31.78600
H  -0.48700 26.28900 32.55500
H  -0.34200 27.98200 32.84300

