158

Mg 0.72700 7.75400 26.84600
C  1.54200 9.71100 29.66000
C  0.65100 5.05900 28.84500
C  0.46900 5.93100 24.09300
C  1.38300 10.58900 24.75700
N  1.04800 7.45700 29.01500
C  1.31700 8.35200 30.02800
C  1.22800 7.75200 31.44700
C  1.27600 6.18900 31.09400
C  0.99600 6.25300 29.50400
C  2.69500 5.51300 31.25300
C  -0.15600 8.27100 31.96400
C  -0.37200 8.60600 33.48000
H  0.67500 8.23300 34.51200
N  0.55000 5.86300 26.51300
C  0.51500 4.85800 27.46700
C  0.15200 3.55400 26.88000
C  0.22200 3.80600 25.49600
C  0.39600 5.21600 25.29100
C  -0.25600 2.32700 27.71000
C  -0.23100 2.84100 24.41700
O  -0.48100 3.11300 23.23700
C  -0.41300 1.34800 24.76500
N  0.77100 8.20900 24.74100
C  0.63900 7.27000 23.79400
C  0.76200 7.80600 22.37300
C  0.67600 9.36600 22.68200
C  0.98100 9.38200 24.16800
C  2.03900 7.36300 21.63000
C  -0.73000 9.95400 22.38100
C  -0.87100 11.44800 22.10800
N  1.32200 9.77500 27.12600
C  1.58000 10.80700 26.17700
C  1.94900 12.05300 26.85600
C  2.01600 11.65300 28.24200
C  1.54900 10.32400 28.34900
C  2.05100 13.48500 26.23000
C  2.18700 12.14400 29.66600
O  2.45200 13.26500 30.10100
C  1.84100 10.91900 30.54800
C  2.77200 10.84100 31.77100
O  3.86800 10.23400 31.75000
O  2.29200 11.48700 32.85800
C  3.26600 11.85300 33.92700
H  0.60800 4.21500 29.53600
H  0.62000 5.34100 23.18700
H  1.59400 11.39200 24.04600
H  2.11600 8.01200 32.02400
H  0.58100 5.57500 31.66700
H  2.73600 5.03300 32.23000
H  3.32800 6.39900 31.29200
H  3.00700 4.83700 30.45700
H  -0.83600 7.42600 31.86100
H  -0.52100 9.07600 31.32600
H  -1.32300 8.17600 33.79500
H  -0.34000 9.69500 33.49400
H  -0.96800 1.62500 27.27600
H  -0.79100 2.84200 28.50800
H  0.72300 1.92600 27.97400
H  0.40300 1.00600 25.40200
H  -0.36200 0.80000 23.82400
H  -1.39300 1.18500 25.21200
H  -0.08000 7.57900 21.71900
H  1.46100 9.87200 22.12100
H  2.47800 8.13500 20.99600
H  1.81700 6.52600 20.96800
H  2.75000 6.94100 22.34000
H  -1.39200 9.73400 23.21800
H  -1.08800 9.37900 21.52800
H  -0.88500 11.63800 21.03400
H  0.04300 11.79500 22.58900
H  -1.79500 11.90800 22.46000
H  1.94200 13.58800 25.15000
H  2.91900 14.00000 26.64100
H  1.16900 13.93700 26.68500
H  0.81100 11.12300 30.84200
H  4.32100 11.64000 33.75300
H  2.93400 11.48100 34.89600
H  3.26300 12.93800 34.02500
Mg 24.68200 -5.70000 46.31300
C  26.76700 -3.60000 44.28900
C  22.11800 -4.97400 44.22400
C  23.12500 -8.31700 47.63900
C  27.70000 -6.62100 48.01600
N  24.50300 -4.56300 44.42000
C  25.43200 -3.65100 43.96600
C  24.81000 -2.70800 42.93100
C  23.28100 -2.91600 43.17100
C  23.25100 -4.24400 43.94000
C  22.66700 -1.86000 44.10500
C  25.45400 -3.03600 41.48300
C  25.85600 -1.77300 40.60500
H  25.40500 -1.90500 39.16400
N  22.83500 -6.41600 46.02900
C  21.87900 -6.01700 45.13200
C  20.74000 -6.88100 45.14000
C  20.89900 -7.80900 46.16400
C  22.35000 -7.53700 46.69600
C  19.49100 -6.67400 44.14700
C  19.94800 -8.89300 46.57300
O  18.86700 -9.03600 45.98200
C  20.15600 -9.77900 47.76800
N  25.32900 -7.25900 47.62700
C  24.42400 -8.16200 48.14500
C  25.11700 -9.24300 48.99500
C  26.50900 -8.61700 49.21000
C  26.51500 -7.46400 48.21400
C  24.32700 -9.53200 50.30100
C  27.64700 -9.63400 48.79800
C  27.83100 -10.70900 49.81900
N  26.91500 -5.23700 46.27400
C  27.92600 -5.57800 47.06200
C  29.19600 -4.97700 46.55000
C  28.75600 -4.11600 45.53800
C  27.40900 -4.34000 45.38100
C  30.64100 -5.12800 47.12900
C  29.22600 -3.17100 44.50800
O  30.32800 -2.77400 44.12500
C  27.86900 -2.66700 43.80000
C  27.58900 -1.22800 44.25200
O  26.72300 -0.98100 45.07700
O  28.42800 -0.39500 43.60800
C  28.22900 0.99700 43.97700
H  21.31900 -4.77100 43.50800
H  22.72300 -9.27400 47.97700
H  28.43300 -6.92800 48.76500
H  25.05100 -1.67800 43.19200
H  22.66700 -3.05200 42.28100
H  22.71400 -0.90400 43.58400
H  23.12700 -1.85800 45.09300
H  21.58700 -1.96700 44.21000
H  24.67300 -3.60000 40.97500
H  26.25300 -3.77600 41.43200
H  26.94100 -1.80700 40.69900
H  25.50300 -0.84900 41.06500
H  18.65200 -7.35300 44.29400
H  19.86400 -6.81500 43.13300
H  19.25500 -5.61400 44.23400
H  21.04400 -10.34900 47.49700
H  19.32500 -10.42900 48.04200
H  20.41700 -9.19500 48.65100
H  25.05900 -10.11000 48.33700
H  26.55700 -8.21000 50.22000
H  24.86300 -9.27400 51.21500
H  24.28100 -10.61300 50.42900
H  23.30600 -9.15900 50.21600
H  28.61900 -9.14100 48.78000
H  27.50500 -10.14300 47.84500
H  27.30100 -11.62700 49.56600
H  27.55100 -10.43000 50.83500
H  28.88200 -10.99600 49.80900
H  31.12900 -4.16100 47.00500
H  31.16100 -5.80400 46.45000
H  30.72800 -5.50600 48.14800
H  27.99600 -2.70500 42.71800
H  29.11200 1.62900 43.88900
H  27.96500 1.01900 45.03400
H  27.45000 1.37700 43.31500

