158

Mg 0.46300 7.45300 25.50700
C  1.32800 9.57600 28.25100
C  0.81000 4.69800 27.63000
C  -0.32000 5.50900 22.96200
C  0.49200 10.25400 23.46000
N  1.03100 7.22400 27.60500
C  1.30700 8.14100 28.58100
C  1.41600 7.59400 29.95000
C  1.60700 6.10800 29.75800
C  1.11800 5.97900 28.24400
C  3.08500 5.53700 30.01100
C  0.23300 7.92600 30.91600
C  0.60000 8.24400 32.39600
H  1.77300 7.47000 33.15100
N  0.17300 5.37600 25.26400
C  0.36200 4.46400 26.26500
C  -0.03100 3.16700 25.71500
C  -0.25800 3.29600 24.32800
C  -0.17100 4.75300 24.12600
C  -0.00800 1.90600 26.58800
C  -0.39800 2.31800 23.24900
O  -0.58900 2.60900 22.08000
C  -0.22800 0.81600 23.48300
N  0.32000 7.74300 23.41000
C  -0.10900 6.80700 22.59200
C  -0.39800 7.35700 21.13700
C  -0.41500 8.89300 21.44300
C  0.26200 8.99500 22.79500
C  0.55600 7.00400 19.96900
C  -1.85800 9.49400 21.42400
C  -1.94200 10.88700 20.80100
N  0.94100 9.39300 25.70000
C  0.81100 10.49400 24.78900
C  0.98600 11.71500 25.46700
C  1.22400 11.42300 26.80900
C  1.14100 10.02300 26.89800
C  0.99500 13.07000 24.88300
C  1.49600 12.01100 28.18200
O  1.81800 13.10900 28.60000
C  1.54000 10.76500 29.11800
C  2.76700 10.82000 29.95300
O  3.90300 10.54300 29.66100
O  2.46500 11.40100 31.21500
C  3.50000 11.72800 32.22400
H  1.00000 3.83900 28.27700
H  -0.66500 4.92700 22.10500
H  0.36600 11.21600 22.95800
H  2.32100 8.06100 30.34000
H  0.96700 5.52100 30.41700
H  3.60100 5.53200 29.05100
H  2.98400 4.50500 30.34700
H  3.61200 6.15300 30.74000
H  -0.47500 7.09800 30.89600
H  -0.16600 8.88900 30.59700
H  -0.31600 8.06800 32.96100
H  0.80700 9.30600 32.52200
H  -0.71600 1.16800 26.21100
H  -0.32300 2.19700 27.59000
H  0.99700 1.48500 26.64100
H  -1.12900 0.45900 23.98200
H  0.67200 0.58000 24.05100
H  -0.22300 0.27700 22.53500
H  -1.36500 6.98700 20.79400
H  0.22600 9.37600 20.70600
H  1.44300 7.62700 20.07900
H  0.08100 7.22500 19.01300
H  0.96400 6.00100 20.09100
H  -2.27400 9.63400 22.42100
H  -2.56200 8.83200 20.91900
H  -2.77600 11.01500 20.11100
H  -1.09100 11.08400 20.14900
H  -1.87700 11.59400 21.62800
H  0.03100 13.05100 24.37400
H  1.82500 13.08300 24.17700
H  0.96600 13.97400 25.49100
H  0.69300 10.86400 29.79700
H  4.44900 11.86700 31.70500
H  3.66200 10.96800 32.98800
H  3.21500 12.68600 32.65800
Mg 24.75200 -6.47900 46.80200
C  27.42500 -4.39600 45.84400
C  22.77100 -4.79500 44.66000
C  22.45900 -9.00400 46.98200
C  27.09000 -8.57200 48.37700
N  25.07200 -4.88200 45.37800
C  26.24900 -4.13800 45.15800
C  26.05400 -3.02900 44.14500
C  24.46700 -2.89600 44.09800
C  24.07800 -4.29700 44.68800
C  23.75800 -1.84300 44.95500
C  26.75600 -3.35400 42.73900
C  27.68300 -2.28300 42.01700
H  27.18400 -2.10300 40.56200
N  22.79400 -6.78500 46.15300
C  22.16300 -5.91600 45.27200
C  20.81900 -6.42700 45.03600
C  20.75000 -7.67400 45.68600
C  21.98500 -7.83700 46.33500
C  19.88300 -5.70500 44.24900
C  19.44700 -8.54800 45.65400
O  18.46300 -8.18700 45.06900
C  19.32700 -9.99700 46.37400
N  24.74800 -8.52600 47.71500
C  23.67100 -9.29800 47.65000
C  23.99400 -10.66100 48.15800
C  25.42200 -10.44400 48.83700
C  25.80300 -9.14400 48.22700
C  23.00300 -11.42200 49.06100
C  26.42200 -11.55100 48.35600
C  27.43500 -12.10300 49.38500
N  26.84100 -6.38300 47.21600
C  27.63300 -7.27800 47.87700
C  29.02900 -6.80300 47.92100
C  28.96300 -5.63300 47.19900
C  27.68900 -5.41100 46.75400
C  30.19100 -7.54100 48.52800
C  29.77700 -4.49700 46.79400
O  30.91900 -4.19400 47.01200
C  28.83800 -3.72100 45.77100
C  28.77600 -2.26100 46.06900
O  28.34400 -1.81900 47.11100
O  29.46100 -1.64200 45.06200
C  29.48400 -0.15900 45.26500
H  22.21500 -4.18900 43.94200
H  21.71800 -9.80500 46.94800
H  27.73400 -9.27500 48.91000
H  26.48900 -2.11800 44.55600
H  24.19400 -2.88000 43.04300
H  24.52100 -1.19900 45.39100
H  23.16700 -2.32500 45.73400
H  23.16000 -1.13800 44.37800
H  26.12100 -3.91700 42.05500
H  27.54000 -4.07100 42.98200
H  28.71600 -2.61900 41.93900
H  27.57100 -1.29600 42.46700
H  19.34500 -6.28400 43.49900
H  20.40300 -4.95600 43.65200
H  19.06800 -5.25000 44.81100
H  18.27800 -10.28500 46.29600
H  19.57300 -9.84900 47.42500
H  19.90900 -10.72000 45.80300
H  24.08800 -11.11900 47.17300
H  25.51100 -10.39300 49.92200
H  22.08700 -10.83400 49.11600
H  23.32300 -11.69400 50.06700
H  22.78200 -12.36100 48.55300
H  27.08500 -11.15800 47.58600
H  25.91600 -12.37200 47.84700
H  27.64400 -13.17300 49.37800
H  27.12100 -11.75900 50.37000
H  28.40600 -11.67300 49.14100
H  30.43500 -7.02700 49.45800
H  31.02800 -7.63600 47.83600
H  29.90300 -8.49800 48.96300
H  29.21000 -3.82100 44.75100
H  30.22700 0.19200 44.54800
H  29.82100 0.15200 46.25400
H  28.47000 0.15200 45.01700

