158

Mg 26.43100 -1.55900 29.58300
C  28.49900 -1.41600 32.40300
C  23.68500 -1.27300 31.55400
C  24.37900 -1.73400 26.78200
C  29.20700 -2.34900 27.66900
N  26.11700 -1.50100 31.80900
C  27.10000 -1.26700 32.71400
C  26.55800 -0.83100 34.07000
C  24.98100 -0.82400 33.77200
C  24.90000 -1.30900 32.32500
C  24.12900 -1.72900 34.72400
C  27.00300 0.52600 34.66600
C  27.86200 0.40600 35.89100
H  27.66500 1.38800 37.02300
N  24.31900 -1.53300 29.20200
C  23.34900 -1.32700 30.21500
C  22.06200 -1.29600 29.60100
C  22.25200 -1.32000 28.20300
C  23.63400 -1.60800 28.00100
C  20.78000 -1.32000 30.39600
C  21.18600 -1.23400 27.03900
O  21.41500 -1.48500 25.84300
C  19.75500 -0.96700 27.39200
N  26.74100 -1.88500 27.60600
C  25.69500 -1.98000 26.62400
C  26.36000 -2.11500 25.18900
C  27.85200 -2.25400 25.50700
C  27.95200 -2.13300 27.02800
C  25.72600 -3.31700 24.35400
C  28.82300 -1.34300 24.67500
C  29.00200 0.14400 25.18100
N  28.44200 -1.82300 29.92500
C  29.46800 -2.13900 29.07400
C  30.73400 -2.17900 29.79500
C  30.33100 -1.82500 31.08500
C  28.98000 -1.66200 31.12800
C  32.03500 -2.46700 29.18500
C  30.89400 -1.75000 32.36600
O  32.02600 -1.88400 32.81500
C  29.68400 -1.44800 33.34900
C  29.66200 -2.42300 34.49000
O  29.11000 -3.51200 34.50200
O  30.22000 -1.88500 35.60600
C  30.21900 -2.78600 36.77100
H  22.79300 -1.04600 32.14200
H  23.78800 -1.88800 25.87700
H  30.02100 -2.54700 26.96900
H  26.82400 -1.67000 34.71300
H  24.66900 0.21900 33.72600
H  23.26600 -1.12300 34.99800
H  24.64800 -2.12400 35.59800
H  23.70800 -2.55200 34.14500
H  26.11000 1.14500 34.75600
H  27.69500 0.90800 33.91600
H  28.90700 0.53100 35.60600
H  27.72400 -0.57600 36.34300
H  20.37800 -0.30900 30.46100
H  20.98200 -1.56900 31.43700
H  20.16000 -2.05900 29.88900
H  19.23700 -1.89000 27.65200
H  19.17500 -0.59800 26.54600
H  19.77500 -0.20600 28.17200
H  26.13500 -1.14700 24.74100
H  28.21400 -3.27600 25.39900
H  26.39800 -4.17500 24.38200
H  25.67800 -3.14400 23.27900
H  24.72300 -3.64800 24.62400
H  28.42600 -1.20700 23.67000
H  29.82800 -1.72100 24.48700
H  30.06700 0.37300 25.19000
H  28.67400 0.22600 26.21700
H  28.51300 0.84000 24.49900
H  31.81800 -2.60600 28.12600
H  32.53900 -3.27000 29.72300
H  32.49200 -1.49700 29.38000
H  29.79300 -0.47900 33.83600
H  29.21400 -3.04700 37.10200
H  30.76400 -2.23800 37.53900
H  30.76200 -3.69400 36.50800
Mg -10.75500 17.70200 42.25900
C  -7.30600 18.17200 42.89400
C  -11.07600 21.21300 42.31500
C  -13.78100 17.31000 40.99500
C  -10.07200 14.30300 41.93000
N  -9.37800 19.43500 42.53800
C  -8.08200 19.38800 42.72700
C  -7.43500 20.82900 42.63100
C  -8.69300 21.74200 42.91400
C  -9.81100 20.79100 42.62800
C  -8.64900 22.35000 44.38200
C  -6.95800 21.00700 41.10000
C  -5.37200 21.00400 40.88100
H  -4.80900 20.18100 39.65700
N  -12.20800 19.07200 41.71000
C  -12.18600 20.47100 41.82400
C  -13.40100 21.01900 41.36400
C  -14.15400 19.92600 40.86400
C  -13.37900 18.66600 41.14000
C  -13.85700 22.51800 41.24000
C  -15.48100 19.99700 40.15900
O  -16.01500 21.06800 39.97700
C  -16.13300 18.79400 39.52600
N  -11.75300 16.07000 41.61300
C  -13.03500 16.17200 41.27200
C  -13.59800 14.82200 40.99200
C  -12.46300 13.80600 41.34800
C  -11.35500 14.75300 41.62100
C  -14.96600 14.51200 41.68500
C  -12.18000 12.74600 40.28300
C  -12.74100 11.27500 40.51700
N  -9.03100 16.41200 42.55600
C  -8.96100 15.04900 42.35200
C  -7.59500 14.61900 42.57000
C  -6.88200 15.82300 42.83200
C  -7.80400 16.87700 42.78900
C  -7.13100 13.20700 42.45900
C  -5.57700 16.38800 43.06300
O  -4.47000 15.83000 43.13200
C  -5.76700 17.99400 43.20000
C  -5.23800 18.53500 44.50000
O  -5.54700 18.13900 45.55700
O  -4.32500 19.51900 44.30800
C  -3.72300 20.19300 45.46300
H  -11.20600 22.28700 42.46000
H  -14.80300 17.08300 40.68300
H  -9.96000 13.21800 41.88100
H  -6.59500 21.09100 43.27500
H  -8.69600 22.59600 42.23700
H  -9.57200 22.09800 44.90600
H  -8.75200 23.42600 44.23800
H  -7.72700 22.09900 44.90600
H  -7.23100 22.00100 40.74700
H  -7.29600 20.17800 40.47800
H  -4.93700 20.50400 41.74700
H  -4.95300 22.00100 40.74500
H  -13.05300 23.16700 41.58800
H  -14.71200 22.84700 41.83200
H  -14.04300 22.82000 40.21000
H  -16.91900 19.16300 38.86800
H  -16.50400 18.20900 40.36700
H  -15.45000 18.30200 38.83300
H  -13.77800 14.76400 39.91800
H  -12.63600 13.37100 42.33200
H  -15.70500 14.24500 40.92900
H  -15.23000 15.39200 42.27000
H  -14.96100 13.73100 42.44600
H  -11.11700 12.52300 40.18500
H  -12.39500 13.15100 39.29400
H  -13.54100 11.29000 41.25800
H  -11.88800 10.66800 40.82200
H  -13.21900 10.93300 39.59900
H  -7.72500 12.69900 41.69900
H  -7.06700 12.68200 43.41200
H  -6.11700 13.27100 42.06700
H  -5.10000 18.36000 42.42000
H  -4.47100 20.40800 46.22600
H  -3.31700 21.13600 45.09800
H  -2.86600 19.71700 45.94000

