158

Mg -1.42800 7.92500 26.91400
C  -0.37100 9.59000 29.78100
C  -1.82200 5.05700 28.72500
C  -1.87400 6.26700 23.98200
C  -0.64000 10.93100 25.03900
N  -1.08800 7.40300 28.99900
C  -0.81600 8.23300 30.01000
C  -0.88400 7.58200 31.39400
C  -1.03000 6.03800 30.93700
C  -1.39300 6.18900 29.47300
C  0.31100 5.21800 31.02300
C  -2.03000 8.16900 32.21000
C  -2.07600 7.79400 33.72100
H  -0.77300 7.35500 34.41900
N  -1.94600 5.94800 26.45300
C  -2.13400 4.92900 27.37900
C  -2.70200 3.80000 26.65800
C  -2.53100 4.04700 25.23000
C  -2.12700 5.50200 25.16500
C  -3.42400 2.65400 27.41200
C  -2.65100 3.16000 24.04600
O  -2.52700 3.58900 22.91300
C  -3.07100 1.67800 24.26000
N  -1.10500 8.51100 24.83700
C  -1.34400 7.59200 23.85400
C  -1.37000 8.18800 22.47200
C  -1.26000 9.77800 22.86000
C  -1.00500 9.79500 24.29800
C  -0.13500 7.68400 21.67100
C  -2.61800 10.48200 22.55500
C  -2.96400 10.69200 21.04400
N  -0.57200 9.84500 27.25500
C  -0.37700 10.96900 26.41200
C  0.06800 12.06000 27.22500
C  0.13000 11.65000 28.55100
C  -0.31600 10.30500 28.54200
C  0.49800 13.44800 26.76600
C  0.40300 11.96600 29.93200
O  0.90500 12.95400 30.40000
C  0.01900 10.65500 30.76500
C  1.21600 10.31900 31.71500
O  2.18200 9.66500 31.41300
O  1.01900 10.89600 32.88500
C  2.03200 10.88400 33.89700
H  -2.10300 4.18200 29.31500
H  -1.97600 5.75100 23.02500
H  -0.51200 11.84800 24.46000
H  0.04100 7.82600 31.91500
H  -1.79500 5.46300 31.45900
H  1.05600 5.74100 31.62300
H  0.76500 5.04700 30.04700
H  0.15900 4.28200 31.56000
H  -2.94900 7.76700 31.78300
H  -2.07900 9.25200 32.10200
H  -2.91600 7.10500 33.81200
H  -2.28000 8.70200 34.28800
H  -4.41700 2.53700 26.97900
H  -3.61600 2.91900 28.45100
H  -2.86000 1.72800 27.30100
H  -2.38100 1.32500 25.02700
H  -3.11300 1.13800 23.31400
H  -4.10600 1.74500 24.59300
H  -2.35900 7.98300 22.06200
H  -0.43700 10.35900 22.44300
H  0.15200 6.74700 22.14800
H  0.67500 8.39300 21.84500
H  -0.38700 7.57100 20.61700
H  -2.55000 11.50700 22.92000
H  -3.47400 10.00000 23.02800
H  -2.17000 10.41000 20.35300
H  -3.09900 11.76400 20.90200
H  -3.85400 10.27500 20.57300
H  0.71200 13.30300 25.70700
H  1.32700 13.90800 27.30500
H  -0.36500 14.10000 26.90200
H  -0.74400 10.96400 31.48000
H  2.26000 11.87300 34.29600
H  2.96200 10.45500 33.52600
H  1.69400 10.27800 34.73700
Mg 31.60400 58.50100 40.73000
C  28.48500 57.44700 39.20100
C  32.98300 55.77800 39.05500
C  34.54300 59.92100 40.95700
C  30.04200 61.37000 41.66800
N  30.72400 56.84300 39.27700
C  29.47800 56.58600 38.84200
C  29.38900 55.28400 38.04700
C  30.73600 54.51600 38.44400
C  31.57200 55.74900 39.01200
C  30.63100 53.36300 39.51600
C  29.15200 55.47000 36.56400
C  27.93000 54.75100 35.93400
H  27.83800 54.85300 34.38600
N  33.55700 57.89200 40.22600
C  33.88200 56.79700 39.43400
C  35.26100 56.76300 39.15700
C  35.77100 57.98900 39.65000
C  34.61000 58.70500 40.32900
C  35.95700 55.70700 38.40800
C  37.19200 58.47900 39.60000
O  38.08400 57.84500 39.05800
C  37.52800 59.71600 40.22300
N  32.23500 60.41800 41.38500
C  33.53800 60.74900 41.47200
C  33.73900 62.09400 42.15700
C  32.18500 62.51300 42.36000
C  31.39500 61.40300 41.80500
C  34.52900 62.04700 43.44700
C  31.86300 63.90900 41.75200
C  31.26900 64.85700 42.69200
N  29.60100 59.24700 40.57400
C  29.17100 60.45000 41.04900
C  27.78900 60.56600 40.86800
C  27.37700 59.34800 40.20700
C  28.61400 58.65700 39.93000
C  27.02100 61.73600 41.13500
C  26.32300 58.55300 39.58300
O  25.06800 58.65000 39.53500
C  27.01000 57.33500 38.85600
C  26.33100 56.05300 39.26400
O  26.66700 55.35800 40.22900
O  25.58000 55.59500 38.25300
C  25.21900 54.18800 38.31400
H  33.44200 54.94600 38.51700
H  35.46200 60.48700 41.12600
H  29.54000 62.21900 42.13700
H  28.49400 54.73400 38.33900
H  31.14900 54.20200 37.48500
H  31.24600 52.46700 39.42800
H  29.61400 52.97100 39.48400
H  30.77800 53.67500 40.55000
H  30.01800 55.06800 36.03800
H  29.10700 56.52000 36.27600
H  26.99400 55.15500 36.31800
H  28.08300 53.69800 36.17000
H  35.24300 55.33100 37.67500
H  36.34300 54.90500 39.03700
H  36.66200 55.98600 37.62500
H  36.98300 60.54700 39.77500
H  38.54200 60.05800 40.01800
H  37.42200 59.64200 41.30500
H  34.02400 62.70200 41.29800
H  31.93100 62.41000 43.41500
H  34.92400 61.04200 43.59900
H  33.92700 62.30900 44.31700
H  35.34500 62.76900 43.42700
H  31.19100 63.81500 40.89800
H  32.83300 64.25600 41.39400
H  30.32200 65.17800 42.25800
H  31.93500 65.71700 42.76800
H  31.13200 64.30500 43.62100
H  26.69300 61.82400 42.17000
H  26.10400 61.72200 40.54600
H  27.55400 62.62600 40.79900
H  26.79900 57.45900 37.79300
H  25.93400 53.46400 37.92400
H  24.30400 54.06900 37.73400
H  24.96000 53.80600 39.30200

