158

Mg 0.63200 7.65800 26.68300
C  1.20700 9.62500 29.43000
C  0.67700 4.87100 28.69600
C  0.48600 5.68700 23.97400
C  0.89100 10.52300 24.62800
N  1.03800 7.34200 28.83500
C  1.06800 8.24200 29.81700
C  1.12600 7.54600 31.30200
C  1.21600 6.02500 30.94800
C  0.97200 6.08100 29.41300
C  2.56800 5.29400 31.33500
C  -0.07900 8.00800 32.16200
C  0.32600 8.62600 33.46500
H  -0.45600 8.05300 34.66500
N  0.39500 5.51100 26.37800
C  0.47900 4.55900 27.34100
C  0.07800 3.25700 26.71800
C  -0.04200 3.53400 25.31200
C  0.30400 4.96500 25.17700
C  -0.18800 2.05400 27.58700
C  -0.42800 2.55400 24.22100
O  -0.50500 2.96100 23.03700
C  -0.65300 1.17200 24.51300
N  0.88500 8.04700 24.54400
C  0.78500 7.02600 23.64200
C  0.97500 7.66900 22.22900
C  0.54800 9.16800 22.47900
C  0.77400 9.29400 23.97800
C  2.48200 7.51000 21.64400
C  -1.01000 9.40600 22.19400
C  -1.27200 10.26700 21.00600
N  1.06000 9.67500 26.90200
C  1.14700 10.79100 25.98400
C  1.30400 12.03200 26.72900
C  1.30300 11.62300 28.01100
C  1.18200 10.17200 28.08700
C  1.38700 13.42600 26.07700
C  1.46000 12.09700 29.39900
O  1.69600 13.19500 29.81500
C  1.38900 10.78900 30.38200
C  2.48700 10.78400 31.40000
O  3.63900 10.38300 31.20800
O  1.97300 11.46500 32.45000
C  2.89400 11.49600 33.59800
H  0.53600 4.07300 29.42800
H  0.29300 5.11300 23.06600
H  0.83000 11.36700 23.93800
H  2.01900 7.98100 31.75100
H  0.52500 5.51700 31.62100
H  3.05700 5.09900 30.38100
H  2.37600 4.39500 31.92000
H  3.27000 5.96200 31.83400
H  -0.74200 7.14900 32.26600
H  -0.72000 8.72700 31.65200
H  -0.06400 9.64300 33.48700
H  1.38800 8.72000 33.68800
H  -1.12200 1.84900 27.06300
H  -0.38500 2.27500 28.63500
H  0.48200 1.20400 27.45800
H  -0.69900 0.63900 23.56300
H  -1.57900 1.09600 25.08100
H  0.20900 0.79700 25.06500
H  0.26800 7.15500 21.57900
H  1.20700 9.85400 21.94900
H  3.05000 7.47500 22.57400
H  2.63200 8.29600 20.90400
H  2.74200 6.49100 21.35800
H  -1.51400 9.71200 23.11000
H  -1.35100 8.42200 21.87100
H  -0.90200 11.23800 21.33500
H  -2.36000 10.32400 20.98700
H  -0.87200 9.91300 20.05600
H  1.16700 14.10000 26.90500
H  0.68000 13.54600 25.25600
H  2.41800 13.56300 25.75300
H  0.50700 10.85100 31.02000
H  2.29800 11.32500 34.49400
H  3.26300 12.51500 33.71200
H  3.66000 10.72100 33.59500
Mg 42.63500 42.27500 25.84300
C  41.58100 44.34900 28.43300
C  44.01000 40.17400 28.11300
C  43.63300 40.20100 23.34700
C  41.76300 44.77700 23.63100
N  42.80000 42.26800 27.97300
C  42.13300 43.19300 28.82700
C  42.24200 42.74500 30.30300
C  43.02200 41.44200 30.15600
C  43.33300 41.24900 28.66300
C  44.40200 41.51100 30.93000
C  40.80500 42.46600 30.84400
C  40.76200 41.52700 32.08600
H  40.31200 42.10500 33.41900
N  43.62100 40.40900 25.75100
C  44.13000 39.71900 26.81000
C  44.79900 38.54000 26.35500
C  44.64000 38.49500 24.99000
C  43.88100 39.71500 24.62300
C  45.58300 37.65100 27.19100
C  45.20000 37.50100 23.89100
O  45.00800 37.60700 22.69200
C  45.95300 36.25100 24.29500
N  42.75400 42.42400 23.79100
C  43.18400 41.44600 22.97200
C  43.04500 41.94300 21.55300
C  42.32900 43.37800 21.60800
C  42.38900 43.56100 23.09600
C  44.38300 41.95100 20.73400
C  40.97200 43.44300 20.95400
C  41.03100 44.09200 19.55300
N  41.91300 44.23900 25.94800
C  41.66000 45.09300 24.98800
C  41.01100 46.28800 25.48500
C  41.00600 46.10100 26.86700
C  41.54600 44.84100 27.13100
C  40.47400 47.47600 24.62600
C  40.61200 46.57900 28.22900
O  40.02000 47.61000 28.61000
C  40.95500 45.45600 29.29200
C  41.85100 46.08500 30.30200
O  43.07300 46.25700 30.15500
O  41.17600 46.34300 31.45700
C  41.99600 47.04100 32.50200
H  44.55600 39.63900 28.89300
H  43.96300 39.60000 22.49700
H  41.56800 45.55300 22.88800
H  42.86000 43.38600 30.93200
H  42.54100 40.50700 30.44300
H  44.44500 40.50900 31.35800
H  44.59800 42.31800 31.63600
H  45.15300 41.51100 30.14000
H  40.12800 42.17900 30.03900
H  40.57200 43.45400 31.24200
H  41.66300 40.93300 32.23700
H  39.93100 40.87800 31.80900
H  45.18000 37.75600 28.19900
H  46.65700 37.71400 27.02100
H  45.29500 36.61000 27.04700
H  46.33400 35.73600 23.41300
H  45.41200 35.52600 24.90300
H  46.78800 36.60800 24.89800
H  42.37100 41.23600 21.07100
H  43.01700 44.14300 21.24700
H  45.18400 41.84400 21.46600
H  44.51000 42.83800 20.11400
H  44.44400 41.07000 20.09500
H  40.32700 44.02700 21.61100
H  40.63400 42.41400 20.83900
H  40.14300 44.70400 19.39100
H  41.06900 43.29400 18.81100
H  41.86600 44.78000 19.42700
H  41.08400 47.48900 23.72300
H  40.58400 48.42400 25.15200
H  39.45900 47.14900 24.39800
H  40.04300 45.15100 29.80400
H  42.54800 47.90600 32.13300
H  42.61700 46.26300 32.94500
H  41.27500 47.50300 33.17700

