158

Mg 45.34600 3.57700 47.66300
C  43.43100 6.42200 47.17300
C  42.33800 1.65600 47.54200
C  47.19300 0.82600 47.47500
C  48.18400 5.60100 47.64400
N  43.20900 4.02200 47.32300
C  42.63100 5.24600 47.11400
C  41.13800 5.08000 46.76000
C  40.71200 3.58500 47.03000
C  42.16900 3.05300 47.29200
C  39.69900 3.36100 48.14100
C  40.83500 5.65600 45.29300
C  39.67000 6.59700 45.22300
H  38.76300 6.56700 43.98700
N  44.86800 1.56100 47.50600
C  43.60300 0.93900 47.53400
C  43.79900 -0.50400 47.38000
C  45.21300 -0.70400 47.40100
C  45.80600 0.57200 47.45600
C  42.66800 -1.46600 47.16000
C  45.86000 -2.19800 47.23900
O  45.20700 -3.20100 47.14900
C  47.35700 -2.39200 47.27400
N  47.43100 3.23200 47.62000
C  47.98800 2.01200 47.63100
C  49.51700 1.98000 47.84400
C  49.81100 3.53700 47.84300
C  48.37600 4.21000 47.77200
C  49.93600 1.19500 49.00700
C  50.88300 4.03100 46.78900
C  52.17400 4.36200 47.33600
N  45.77800 5.62400 47.46400
C  46.97300 6.30300 47.51800
C  46.66800 7.68200 47.37600
C  45.31900 7.79700 47.21000
C  44.80200 6.47900 47.33700
C  47.72000 8.74200 47.12700
C  44.24700 8.69300 46.98700
O  44.31000 9.86100 46.83000
C  42.91500 7.86300 46.88900
C  41.92600 8.41500 47.85600
O  41.55000 7.85500 48.88200
O  41.35800 9.55600 47.36500
C  39.95900 9.88900 47.90300
H  41.42100 1.06300 47.52400
H  47.88900 -0.01400 47.52800
H  49.10500 6.17700 47.76100
H  40.58000 5.74300 47.42100
H  40.42400 3.06700 46.11500
H  39.78100 4.23400 48.78800
H  39.93100 2.47800 48.73700
H  38.66100 3.36900 47.81100
H  40.58900 4.80800 44.65300
H  41.73800 6.15700 44.94500
H  40.04700 7.61700 45.30300
H  39.01500 6.55000 46.09300
H  42.47700 -2.03300 48.07000
H  42.89700 -2.13400 46.32900
H  41.80300 -0.93600 46.76100
H  47.89100 -1.75700 46.56800
H  47.56300 -3.42500 46.99400
H  47.63600 -2.34700 48.32700
H  49.99200 1.49700 46.99000
H  50.27800 3.74200 48.80600
H  49.15000 1.09900 49.75500
H  50.84600 1.52600 49.50800
H  50.13100 0.21400 48.57400
H  50.43800 4.73500 46.08600
H  50.93500 3.18200 46.10700
H  52.51000 5.03100 46.54400
H  52.87600 3.54800 47.51800
H  52.04600 5.01800 48.19700
H  47.26300 9.59900 46.63500
H  48.51900 8.33800 46.50500
H  48.02500 8.93700 48.15500
H  42.73700 8.09000 45.83700
H  39.29400 9.13700 47.48100
H  39.63000 10.88300 47.59800
H  40.00600 9.74300 48.98200
Mg 29.45400 58.00500 39.41400
C  26.93600 55.77200 38.23500
C  31.72500 55.43500 38.34500
C  31.87400 60.15000 40.01900
C  27.10800 60.42800 39.67600
N  29.29300 55.88000 38.34200
C  28.17500 55.20300 38.05500
C  28.44900 53.69600 37.65200
C  29.96900 53.62600 37.82200
C  30.37100 55.13500 38.13100
C  30.65400 52.65800 38.90000
C  28.04900 53.31500 36.22600
C  28.42800 54.36000 35.02200
H  27.32100 54.80800 34.02800
N  31.49500 57.89500 39.24300
C  32.25300 56.66800 38.86200
C  33.67200 57.02600 38.97400
C  33.75200 58.33800 39.56200
C  32.33700 58.87000 39.60800
C  34.70100 56.12200 38.45100
C  35.07200 59.01100 39.91600
O  36.12500 58.50900 39.77700
C  35.06800 60.34300 40.42900
N  29.54700 60.19800 39.41900
C  30.59500 60.80700 40.01100
C  30.24400 62.25000 40.42900
C  28.73900 62.06600 40.61600
C  28.39200 60.82900 39.83500
C  31.01300 62.91400 41.63900
C  28.01800 63.28500 40.01900
C  27.00700 64.02100 40.99800
N  27.35400 58.08400 39.11600
C  26.58500 59.14800 39.29200
C  25.20400 58.83000 39.07900
C  25.29600 57.46700 38.65900
C  26.63600 57.05500 38.66800
C  24.00400 59.78700 39.15000
C  24.44800 56.36200 38.28900
O  23.21400 56.27400 38.19100
C  25.50000 55.16100 38.09500
C  25.17000 54.06300 39.10000
O  25.73700 53.82600 40.13000
O  23.95900 53.42100 38.75300
C  23.44500 52.34100 39.57800
H  32.45900 54.62800 38.39300
H  32.66600 60.84000 40.31600
H  26.33800 61.16300 39.92000
H  27.96300 53.03300 38.36700
H  30.49000 53.45700 36.88000
H  29.98300 51.80200 38.97500
H  30.81700 53.11400 39.87600
H  31.61400 52.25600 38.57700
H  27.00500 53.01000 36.30500
H  28.71000 52.49100 35.95800
H  29.26600 53.89400 34.50300
H  28.81500 55.30500 35.40400
H  35.42700 55.93800 39.24200
H  35.14800 56.57300 37.56500
H  34.33700 55.11400 38.25300
H  36.05700 60.77100 40.59100
H  34.68300 60.19500 41.43800
H  34.62600 61.08700 39.76600
H  30.63700 62.87100 39.62400
H  28.55800 61.86100 41.67200
H  30.29200 63.32100 42.34800
H  31.79800 63.57300 41.26900
H  31.54400 62.15400 42.21100
H  27.42100 63.03800 39.14100
H  28.71200 64.08400 39.75600
H  26.98300 65.05200 40.64700
H  27.21800 64.02200 42.06700
H  26.01300 63.64900 40.74800
H  24.30200 60.80100 38.88400
H  23.56200 59.67000 40.14000
H  23.31300 59.44500 38.37900
H  25.41100 54.95500 37.02800
H  24.08600 51.46000 39.61100
H  22.46500 51.99400 39.24900
H  23.25600 52.50600 40.63800

