158

Mg 44.78200 5.38600 46.19600
C  42.89100 8.38000 46.43100
C  41.90600 3.79000 45.21700
C  46.75000 2.61200 45.45600
C  47.70300 7.35700 46.19600
N  42.62400 6.08400 45.68200
C  42.10800 7.30100 45.99700
C  40.53900 7.28200 45.90300
C  40.28300 5.78300 45.45000
C  41.68900 5.15700 45.41000
C  39.26700 5.04000 46.35900
C  39.86900 8.36500 44.94500
C  40.62300 8.64800 43.63800
H  39.96800 8.37800 42.38300
N  44.39900 3.43000 45.46800
C  43.11300 2.98300 45.23200
C  43.28900 1.48400 45.06400
C  44.69500 1.18000 44.90800
C  45.34600 2.43100 45.26200
C  42.15000 0.58300 44.96300
C  45.22900 -0.15100 44.59500
O  44.49200 -1.13700 44.61900
C  46.63300 -0.46000 44.29000
N  46.93600 4.95000 46.05700
C  47.47300 3.71900 45.77400
C  49.00700 3.83800 45.59000
C  49.36800 5.34800 45.59200
C  47.90200 5.96400 45.94600
C  49.79800 3.00400 46.64400
C  49.97800 5.79300 44.21300
C  48.96500 6.02300 43.02200
N  45.25200 7.40000 46.53800
C  46.44500 8.03400 46.42900
C  46.20600 9.40200 46.85600
C  44.86300 9.62200 46.84700
C  44.28800 8.36500 46.60800
C  47.30200 10.38800 47.08100
C  43.81400 10.63400 46.96600
O  43.80900 11.79300 47.15500
C  42.47200 9.76500 46.78900
C  41.49700 9.89400 47.84300
O  41.46200 9.14500 48.84900
O  40.47100 10.80100 47.57100
C  39.49700 10.85700 48.64800
H  41.00800 3.16800 45.23000
H  47.43500 1.77500 45.30500
H  48.61200 7.96100 46.25400
H  40.17200 7.41900 46.92000
H  39.86500 5.72200 44.44500
H  38.41300 4.63600 45.81500
H  38.90900 5.81300 47.03900
H  39.71600 4.21200 46.90600
H  39.59900 9.20700 45.58200
H  38.87800 7.97700 44.70700
H  41.55600 8.08600 43.61300
H  40.94300 9.69000 43.65700
H  42.14100 0.12000 43.97700
H  41.22100 1.15300 44.93700
H  42.07400 -0.13100 45.78200
H  46.73200 -1.46000 43.86800
H  47.29000 -0.43800 45.16000
H  46.89200 0.21100 43.47100
H  49.29200 3.55500 44.57700
H  49.93100 5.63800 46.47900
H  50.47500 2.30300 46.15600
H  49.04800 2.51300 47.26300
H  50.34800 3.58400 47.38500
H  50.69300 5.09700 43.77400
H  50.49500 6.74500 44.33000
H  47.96000 6.20200 43.40500
H  48.82500 5.16200 42.36800
H  49.29800 6.78600 42.31800
H  48.28000 9.94200 47.25900
H  47.10400 11.06900 47.90800
H  47.35700 10.92000 46.13100
H  41.96700 10.13000 45.89500
H  38.95000 9.91500 48.69700
H  38.67600 11.50100 48.33500
H  39.88100 11.11000 49.63600
Mg 40.33000 9.57400 29.85500
C  42.33600 10.83400 32.39300
C  38.39700 8.26500 32.21200
C  38.47300 8.34100 27.37800
C  42.68500 10.76800 27.57200
N  40.44600 9.40300 32.02500
C  41.21400 10.10000 32.89500
C  40.90500 9.87400 34.40700
C  39.63400 8.91400 34.23000
C  39.46600 8.87400 32.70200
C  39.71800 7.54200 34.85900
C  40.58500 11.24400 35.14500
C  40.12700 11.06100 36.60500
H  40.93100 11.68800 37.74300
N  38.60200 8.51200 29.77800
C  37.95700 8.03200 30.85100
C  36.79600 7.25500 30.42700
C  36.74400 7.29600 29.03600
C  37.98100 8.06800 28.64200
C  35.78800 6.61300 31.34400
C  35.73700 6.82200 28.05900
O  35.88300 7.04800 26.85500
C  34.50400 6.11200 28.53700
N  40.57300 9.57900 27.76000
C  39.63000 9.00400 26.99700
C  39.81200 9.44600 25.52400
C  41.29700 10.17000 25.53900
C  41.54400 10.14500 27.05100
C  39.74200 8.22800 24.56400
C  41.45000 11.54800 24.82700
C  40.61600 12.74400 25.29300
N  42.16900 10.42200 29.93000
C  42.99500 10.85200 28.92600
C  44.20200 11.54900 29.52900
C  43.88600 11.61700 30.88400
C  42.71600 10.90100 31.05900
C  45.37200 12.09200 28.79000
C  44.36000 12.06700 32.19000
O  45.41200 12.64100 32.44800
C  43.39700 11.50100 33.21700
C  44.09500 10.53400 34.06100
O  44.34600 9.38100 33.80200
O  44.37800 11.03900 35.31200
C  45.22800 10.26800 36.19500
H  37.67600 7.77500 32.87000
H  37.79300 8.28000 26.52600
H  43.29500 11.19400 26.77300
H  41.66600 9.30200 34.93700
H  38.76800 9.29000 34.77500
H  40.74300 7.40500 35.20600
H  39.38600 6.80600 34.12700
H  39.20700 7.55400 35.82200
H  39.77800 11.68700 34.56200
H  41.48100 11.86600 35.16200
H  40.18300 10.01500 36.90900
H  39.11800 11.45600 36.72200
H  35.92700 6.80700 32.40700
H  36.03800 5.56300 31.19100
H  34.77000 6.74700 30.97900
H  33.93400 5.69700 27.70600
H  33.89900 6.89500 28.99500
H  34.67600 5.35000 29.29600
H  39.12400 10.25400 25.27500
H  41.97700 9.45100 25.08200
H  40.05900 7.28900 25.01700
H  40.26700 8.47200 23.64000
H  38.67900 8.12300 24.35100
H  41.10000 11.41600 23.80300
H  42.50900 11.75400 24.67100
H  41.22700 13.47400 25.82300
H  39.89300 12.31500 25.98600
H  40.12600 13.30300 24.49600
H  45.73300 11.25000 28.20000
H  46.23000 12.39400 29.39000
H  45.06900 12.90400 28.12800
H  42.98600 12.33800 33.78000
H  44.79500 9.27800 36.33700
H  45.19300 10.79100 37.15100
H  46.30400 10.14900 36.07100

