158

Mg 24.32300 -5.37100 45.74600
C  26.60900 -3.20900 44.14200
C  21.80400 -4.09900 43.68800
C  22.38200 -8.02800 46.29900
C  26.86800 -6.76600 47.59800
N  24.28300 -3.94300 44.10200
C  25.28700 -3.12200 43.64100
C  24.77800 -2.30900 42.41400
C  23.25100 -2.40700 42.57000
C  23.07800 -3.51800 43.54300
C  22.48000 -1.03800 43.00800
C  25.23200 -2.81600 41.01200
C  26.25700 -1.90800 40.28300
H  26.06200 -1.60500 38.80500
N  22.27800 -5.92100 45.16600
C  21.40400 -5.23000 44.37100
C  20.18200 -5.91000 44.28200
C  20.34200 -7.11100 44.99300
C  21.72200 -7.01100 45.53800
C  18.99200 -5.29500 43.47800
C  19.23100 -8.02800 45.29000
O  18.12100 -7.69100 44.92200
C  19.35100 -9.30600 46.04900
N  24.69700 -7.24500 46.56800
C  23.71800 -8.21300 46.71500
C  24.18300 -9.44200 47.51900
C  25.59300 -8.92300 48.08500
C  25.74000 -7.58700 47.36700
C  23.27200 -9.94300 48.70100
C  26.80000 -9.87700 47.99300
C  27.65300 -10.13700 49.26000
N  26.38800 -5.06100 45.93900
C  27.30700 -5.66800 46.77500
C  28.59300 -5.04000 46.54200
C  28.40900 -4.08900 45.56600
C  27.03600 -4.13800 45.25200
C  29.90700 -5.29000 47.35600
C  28.98900 -3.15000 44.69400
O  30.14400 -2.76400 44.80200
C  27.86700 -2.45000 43.71600
C  27.74800 -0.98200 43.91900
O  26.95300 -0.38600 44.62200
O  28.57400 -0.34900 43.06600
C  28.71400 1.09400 43.25900
H  21.01700 -3.65300 43.07600
H  21.80300 -8.94300 46.44200
H  27.71700 -7.09900 48.19900
H  25.14700 -1.30600 42.62800
H  22.68700 -2.68700 41.68000
H  23.13600 -0.17200 42.91300
H  22.09900 -1.20400 44.01500
H  21.67300 -1.04700 42.27500
H  24.38300 -2.92000 40.33700
H  25.67800 -3.77600 41.27300
H  27.29300 -2.21500 40.42900
H  26.22500 -1.01600 40.90800
H  18.48700 -6.01900 42.84000
H  19.20900 -4.36600 42.95000
H  18.28400 -5.05000 44.27000
H  18.38700 -9.80900 46.11400
H  19.64900 -9.01300 47.05600
H  20.17900 -9.78600 45.52700
H  24.37400 -10.29100 46.86100
H  25.46500 -8.64400 49.13100
H  23.83600 -9.98600 49.63300
H  22.94000 -10.96000 48.49200
H  22.42000 -9.29600 48.90700
H  27.32100 -9.59800 47.07700
H  26.51000 -10.90700 47.78400
H  27.48100 -11.17500 49.54700
H  27.28700 -9.44900 50.02200
H  28.72900 -10.00700 49.14900
H  30.78700 -5.34400 46.71500
H  29.82600 -6.20300 47.94600
H  30.06200 -4.38700 47.94600
H  28.21400 -2.67300 42.70700
H  28.37400 1.55600 44.18700
H  28.25300 1.63500 42.43200
H  29.77400 1.33800 43.19500
Mg 47.57400 25.13500 28.14600
C  48.62700 27.38100 30.69200
C  47.12400 22.74900 30.51700
C  46.96800 22.96300 25.63900
C  48.60700 27.49900 25.76300
N  47.92900 25.08500 30.32700
C  48.20800 26.10800 31.14100
C  47.81300 25.79400 32.56600
C  47.42300 24.25800 32.53800
C  47.46700 23.99600 31.03200
C  48.41600 23.23500 33.24200
C  46.84800 26.85700 33.32100
C  46.29300 26.39300 34.64600
H  46.12100 27.34000 35.78700
N  47.04900 23.18400 28.09900
C  46.90300 22.39500 29.19400
C  46.42500 21.15400 28.77600
C  46.37900 21.14100 27.31000
C  46.82300 22.48100 26.94400
C  45.98900 19.98900 29.73600
C  45.89300 20.04800 26.36700
O  45.97100 20.26400 25.14000
C  45.46800 18.70200 26.81400
N  47.76100 25.20200 26.03600
C  47.48700 24.17200 25.23600
C  47.68300 24.48500 23.78300
C  47.92400 25.99400 23.83000
C  48.13400 26.23700 25.32700
C  48.81900 23.71500 23.06300
C  46.69800 26.81900 23.37200
C  46.88600 28.08800 22.44600
N  48.57300 26.97000 28.17100
C  48.89200 27.79600 27.09000
C  49.45200 29.04700 27.60000
C  49.29000 28.92100 29.01900
C  48.78300 27.63700 29.31700
C  50.09500 30.21200 26.89800
C  49.35100 29.63700 30.25900
O  49.72800 30.77400 30.52400
C  48.85800 28.65800 31.40500
C  49.94000 28.74900 32.43900
O  51.17000 28.51800 32.30400
O  49.37100 29.19400 33.57000
C  50.10600 29.19500 34.86600
H  46.86300 22.14300 31.38700
H  47.02900 22.29300 24.77900
H  48.99900 28.05000 24.90600
H  48.77900 25.81100 33.07200
H  46.46500 24.27000 33.05800
H  49.03000 22.65900 32.54900
H  47.69700 22.73800 33.89300
H  49.10100 23.77400 33.89700
H  46.13000 27.20400 32.57800
H  47.45400 27.70900 33.62700
H  47.00100 25.63700 34.98400
H  45.36500 25.83400 34.52100
H  45.13900 19.48700 29.27400
H  45.69200 20.53200 30.63300
H  46.83800 19.32900 29.90800
H  44.55000 18.87700 27.37400
H  46.32500 18.42900 27.43100
H  45.39300 18.09100 25.91500
H  46.80900 24.31200 23.15500
H  48.85000 26.27800 23.32900
H  48.43300 23.53000 22.06100
H  49.12700 22.85000 23.65100
H  49.76800 24.24400 22.97900
H  46.09200 27.14200 24.21800
H  46.05600 26.13900 22.81300
H  46.55600 27.85600 21.43300
H  47.89800 28.48000 22.34800
H  46.33100 28.94100 22.83500
H  50.59300 29.83300 26.00600
H  50.86200 30.64000 27.54300
H  49.38300 30.99300 26.63600
H  47.92300 28.96900 31.87100
H  49.66700 28.45200 35.53300
H  50.00300 30.18100 35.31900
H  51.15400 28.95000 34.69200

