158

Mg 23.93900 -7.07800 44.99700
C  26.31900 -4.59400 43.79500
C  21.58100 -5.37600 43.16400
C  22.00300 -9.87200 45.41600
C  26.71900 -8.85600 46.30500
N  23.95700 -5.06300 43.83900
C  25.00800 -4.30500 43.40100
C  24.52400 -3.24000 42.42100
C  22.98200 -3.29600 42.42300
C  22.81700 -4.70500 43.17700
C  22.27600 -2.19700 43.23900
C  25.06600 -3.50500 40.98000
C  25.53300 -2.32000 40.23400
H  25.02100 -2.07000 38.85800
N  22.04800 -7.52300 44.46600
C  21.27100 -6.67500 43.70800
C  19.95500 -7.31400 43.60500
C  19.97900 -8.59200 44.25300
C  21.35400 -8.72500 44.76300
C  18.74400 -6.57000 43.09800
C  18.89500 -9.61200 44.45400
O  17.81500 -9.49400 44.00200
C  19.00300 -10.80500 45.26000
N  24.30700 -9.17300 45.75600
C  23.34300 -10.09700 45.86500
C  23.94900 -11.40000 46.49900
C  25.29100 -10.93800 47.16300
C  25.48900 -9.58700 46.37100
C  22.98700 -12.10600 47.62000
C  26.43100 -11.97000 47.10600
C  27.47900 -11.81000 48.18800
N  26.03200 -6.80900 45.18100
C  26.97400 -7.60800 45.76600
C  28.26200 -6.91700 45.67700
C  28.04100 -5.74900 44.84000
C  26.68200 -5.75600 44.61200
C  29.60300 -7.32400 46.16500
C  28.71100 -4.63400 44.17300
O  29.91500 -4.35600 44.19300
C  27.57200 -3.89100 43.36800
C  27.61000 -2.44000 43.78100
O  27.48000 -1.52900 42.95400
O  27.89900 -2.27900 45.07300
C  27.82400 -0.97100 45.70700
H  20.76400 -4.87700 42.63900
H  21.31000 -10.67000 45.69100
H  27.52300 -9.37900 46.82800
H  24.92800 -2.30600 42.81400
H  22.51600 -3.34300 41.43900
H  21.35000 -1.90000 42.74800
H  22.90200 -1.30500 43.26000
H  22.05000 -2.56000 44.24200
H  24.27400 -3.95600 40.38100
H  25.82700 -4.28500 41.02800
H  26.60500 -2.48900 40.12600
H  25.34100 -1.40900 40.80000
H  17.94200 -7.12900 42.61600
H  19.05000 -5.79700 42.39300
H  18.21700 -6.14000 43.95000
H  19.31200 -10.40400 46.22500
H  19.66900 -11.56200 44.84600
H  18.01200 -11.22900 45.42200
H  24.14900 -11.98900 45.60400
H  25.13900 -10.64200 48.20100
H  23.37000 -12.13400 48.64100
H  22.87700 -13.14900 47.32600
H  21.97700 -11.69600 47.60600
H  26.80800 -11.95400 46.08400
H  26.03000 -12.97700 47.22700
H  28.43600 -11.82500 47.66800
H  27.51100 -12.68100 48.84300
H  27.42800 -10.87300 48.74200
H  30.43800 -7.11300 45.49700
H  29.60400 -8.39200 46.38100
H  29.71200 -6.85900 47.14600
H  27.72900 -3.99800 42.29500
H  26.91400 -0.43400 45.43800
H  28.77400 -0.46200 45.54500
H  28.00200 -1.13700 46.76900
Mg 46.03300 34.82700 28.22000
C  44.43300 32.80600 30.58800
C  46.07200 37.41000 30.46800
C  47.29200 36.93300 25.78700
C  45.84100 32.22700 25.88100
N  45.40500 35.00700 30.33700
C  44.85000 34.03100 31.12900
C  44.89500 34.47200 32.63100
C  45.10800 36.01900 32.47100
C  45.58500 36.16300 31.01800
C  43.79400 36.84100 32.69600
C  46.16200 33.77200 33.33100
C  46.19800 33.61600 34.86000
H  45.28500 34.59200 35.64600
N  46.78100 36.85400 28.20600
C  46.62100 37.79200 29.20900
C  47.21000 39.05900 28.85700
C  47.58100 38.91600 27.45600
C  47.23900 37.53100 27.09800
C  47.33800 40.23200 29.78200
C  48.29200 39.89100 26.46300
O  48.63000 39.50200 25.35600
C  48.52000 41.35600 26.90000
N  46.43800 34.60400 26.18000
C  46.87600 35.63500 25.45500
C  47.05000 35.19200 23.94100
C  46.71400 33.65200 23.98900
C  46.34600 33.41900 25.44900
C  46.37900 36.06600 22.87000
C  47.80600 32.64800 23.47800
C  47.47800 31.71100 22.30700
N  45.27900 32.89300 28.16500
C  45.36400 31.94900 27.16900
C  44.77000 30.70600 27.61100
C  44.38600 30.93900 29.00900
C  44.69700 32.30600 29.26900
C  44.73000 29.36500 26.84400
C  43.90400 30.39900 30.25000
O  43.53000 29.24600 30.46200
C  43.54500 31.65500 31.18600
C  43.85100 31.25800 32.58900
O  44.83400 30.73100 33.01400
O  42.82000 31.68200 33.36900
C  42.86500 31.28300 34.80400
H  46.08900 38.21800 31.20200
H  47.48500 37.55500 24.91000
H  45.83300 31.44800 25.11600
H  44.00300 34.17500 33.18200
H  45.82300 36.38000 33.21000
H  43.10300 36.27300 33.31900
H  43.20000 37.09100 31.81700
H  43.78300 37.77000 33.26700
H  47.11800 34.08900 32.91300
H  46.13500 32.77900 32.88400
H  47.24300 33.84500 35.06600
H  46.02400 32.57700 35.14200
H  46.66900 41.04800 29.50900
H  48.41800 40.37700 29.76700
H  47.15000 39.85700 30.78800
H  48.86500 41.30200 27.93200
H  47.56600 41.88400 26.92700
H  49.17800 41.84100 26.17900
H  48.11600 35.31200 23.74700
H  45.77200 33.39800 23.50500
H  47.17200 36.44500 22.22500
H  45.85600 36.92200 23.29600
H  45.66400 35.52200 22.25200
H  48.28300 32.04100 24.24700
H  48.66900 33.22100 23.13900
H  48.20700 31.90400 21.52100
H  46.45300 31.86700 21.96900
H  47.48500 30.63900 22.50100
H  45.41100 29.27400 25.99800
H  43.74200 29.13400 26.44600
H  44.97500 28.63500 27.61500
H  42.49800 31.86800 30.96800
H  43.48800 30.40500 34.97300
H  41.89800 31.25600 35.30700
H  43.21200 32.07800 35.46500

