158

Mg 8.76700 3.97800 28.02000
C  10.15500 2.18700 30.81300
C  6.93900 5.81300 30.34400
C  7.24600 5.44500 25.57600
C  10.16100 1.56300 25.94800
N  8.58600 3.97600 30.37000
C  9.39000 3.21800 31.23800
C  9.18100 3.74800 32.64800
C  7.98500 4.78400 32.45600
C  7.75500 4.83400 30.96000
C  6.67900 4.29800 33.15700
C  10.47000 4.52300 33.23600
C  10.34100 5.20300 34.60000
H  11.14800 4.57500 35.68100
N  7.33900 5.54300 27.96400
C  6.70800 6.13900 28.98200
C  5.84900 7.12500 28.51700
C  5.93700 7.06400 27.05700
C  6.89000 6.02700 26.79600
C  5.13300 8.04900 29.43900
C  5.17400 7.91300 25.98700
O  5.32000 7.73100 24.76700
C  4.29500 9.02000 26.41200
N  8.59100 3.44600 26.04200
C  7.99500 4.30000 25.21400
C  8.37200 3.97500 23.69800
C  9.41800 2.75800 23.84900
C  9.42200 2.61500 25.39300
C  7.10300 3.69600 22.81400
C  10.88300 3.13800 23.35200
C  11.51400 2.25400 22.15000
N  9.92600 2.23900 28.29900
C  10.37100 1.46800 27.29600
C  11.32500 0.47700 27.83700
C  11.17500 0.68800 29.27200
C  10.31400 1.78300 29.47300
C  12.10700 -0.62000 27.12400
C  11.67200 0.27300 30.52400
O  12.34300 -0.67300 30.87100
C  11.06300 1.26600 31.54700
C  10.33000 0.55800 32.70800
O  9.36600 -0.19800 32.68200
O  11.03200 0.90800 33.83500
C  10.42500 0.41700 35.06500
H  6.53900 6.43000 31.15100
H  6.85700 6.00300 24.72300
H  10.69300 0.78700 25.39400
H  8.88500 2.93100 33.30500
H  8.18000 5.77100 32.87400
H  6.66800 4.71700 34.16300
H  6.79000 3.21600 33.23400
H  5.74100 4.48400 32.63400
H  10.63800 5.32400 32.51600
H  11.31500 3.83500 33.24400
H  9.31300 5.33900 34.93500
H  10.75100 6.19700 34.42300
H  4.08100 7.86000 29.22600
H  5.40300 9.10300 29.37600
H  5.16400 7.78300 30.49500
H  3.91600 9.44500 25.48200
H  4.96800 9.74200 26.87400
H  3.47800 8.70300 27.06000
H  8.84500 4.87500 23.30400
H  8.89800 1.89200 23.43800
H  6.16700 3.76900 23.36800
H  7.19400 2.75700 22.26900
H  7.11600 4.40100 21.98300
H  11.64800 3.00400 24.11700
H  10.95200 4.17700 23.03100
H  10.89000 1.36400 22.06900
H  12.53600 1.90700 22.30200
H  11.62400 2.81900 21.22500
H  13.06000 -0.14000 26.90100
H  11.66100 -0.84300 26.15500
H  12.24700 -1.50200 27.74700
H  11.88600 1.85800 31.94800
H  9.34700 0.47400 35.21100
H  10.82900 0.99800 35.89500
H  10.79100 -0.60300 35.17700
Mg 24.08300 -4.68400 45.58600
C  26.24700 -2.40100 44.23200
C  21.51100 -3.54400 43.37300
C  22.23800 -7.46000 46.15400
C  26.67000 -5.99300 47.43500
N  24.01200 -3.27900 43.90800
C  25.06500 -2.37200 43.56000
C  24.65000 -1.33400 42.53100
C  23.09500 -1.59800 42.47200
C  22.85100 -2.89200 43.28600
C  22.20000 -0.39700 42.85200
C  25.40200 -1.54700 41.15700
C  25.24800 -0.46600 40.16600
H  24.59900 -0.79500 38.76900
N  22.16000 -5.39200 44.88700
C  21.30100 -4.79400 43.99000
C  20.11900 -5.53000 43.82300
C  20.32700 -6.73200 44.62200
C  21.63100 -6.59200 45.30800
C  18.88300 -5.05400 42.89000
C  19.24800 -7.83900 44.70200
O  18.10200 -7.79000 44.16200
C  19.42400 -9.11100 45.53400
N  24.48500 -6.55700 46.55100
C  23.49600 -7.45100 46.78200
C  23.98400 -8.64200 47.60600
C  25.42400 -8.02000 48.19300
C  25.49400 -6.72000 47.41400
C  22.95200 -8.98200 48.69600
C  26.65400 -8.96100 48.01500
C  26.49600 -10.44100 48.44800
N  26.01600 -4.26500 45.92100
C  26.93700 -4.90000 46.65900
C  28.16200 -4.13300 46.64200
C  27.89800 -3.08700 45.75400
C  26.60600 -3.33400 45.23800
C  29.41300 -4.46000 47.34900
C  28.45700 -1.86700 45.09900
O  29.49900 -1.26400 45.19600
C  27.38600 -1.47200 44.05400
C  27.23500 0.00500 44.08900
O  26.74600 0.55400 45.06400
O  27.71300 0.70600 42.97900
C  27.50200 2.13900 42.93800
H  20.69700 -3.22400 42.72000
H  21.64100 -8.34600 46.38000
H  27.62800 -6.23300 47.90000
H  24.80300 -0.29900 42.83600
H  22.86300 -1.84400 41.43600
H  21.69800 -0.50800 43.81300
H  21.44200 -0.35200 42.07000
H  22.66900 0.58700 42.83200
H  25.06600 -2.44500 40.63800
H  26.42400 -1.73900 41.48300
H  26.27200 -0.15300 39.96400
H  24.74600 0.31800 40.73400
H  18.23900 -5.78300 42.39800
H  19.23800 -4.36700 42.12100
H  18.15000 -4.56400 43.53000
H  18.59200 -9.80800 45.43200
H  19.54100 -8.97800 46.61000
H  20.30400 -9.68800 45.25300
H  24.13800 -9.54000 47.00600
H  25.44300 -7.80300 49.26100
H  23.46000 -8.68600 49.61400
H  22.69800 -10.03500 48.56900
H  21.99800 -8.47100 48.56500
H  27.49200 -8.58900 48.60500
H  26.89400 -8.77500 46.96800
H  25.49800 -10.69200 48.80700
H  27.27100 -10.68700 49.17500
H  26.58200 -11.10300 47.58600
H  29.25000 -4.68000 48.40400
H  30.16500 -3.67900 47.24600
H  29.77400 -5.37000 46.86900
H  27.84300 -1.65400 43.08100
H  26.46900 2.46600 42.81900
H  27.94500 2.55500 42.03300
H  27.95500 2.66300 43.77900

