158

Mg 25.76500 0.21800 29.57100
C  27.50300 0.09300 32.60000
C  22.86200 0.60500 31.38300
C  24.06400 0.37200 26.61600
C  28.54500 -0.85700 27.79100
N  25.26400 0.26800 31.76500
C  26.14700 0.27300 32.83100
C  25.46300 0.42600 34.15800
C  23.95100 0.47000 33.64900
C  23.99600 0.39800 32.19900
C  22.86300 -0.49300 34.32000
C  25.99700 1.70500 34.98100
C  25.11300 2.20200 36.11700
H  25.54500 1.80700 37.53000
N  23.76600 0.44800 29.12000
C  22.71900 0.63900 29.98600
C  21.48200 0.84000 29.27100
C  21.82900 0.74500 27.86500
C  23.26800 0.52800 27.83900
C  20.17300 1.08100 30.03800
C  20.95500 0.82700 26.61600
O  21.45100 0.86500 25.48100
C  19.46000 0.81300 26.74700
N  26.27100 -0.09200 27.41300
C  25.35700 0.04600 26.45700
C  25.92100 -0.33800 25.01900
C  27.41600 -0.73600 25.41200
C  27.46600 -0.54200 26.94300
C  25.16000 -1.45500 24.28800
C  28.48500 0.19100 24.68800
C  28.24800 0.36000 23.17100
N  27.61500 -0.26700 29.96900
C  28.66300 -0.67300 29.18600
C  29.83800 -0.67000 29.93900
C  29.45200 -0.41400 31.26500
C  28.09300 -0.17500 31.30400
C  31.19500 -0.99100 29.41400
C  29.89800 -0.33500 32.58500
O  31.03100 -0.49900 33.04300
C  28.68200 -0.08500 33.44200
C  28.52800 -1.19300 34.37300
O  28.09200 -2.29400 34.13400
O  29.01700 -0.85500 35.59200
C  28.76200 -1.79900 36.73000
H  21.95200 0.71800 31.97500
H  23.64100 0.45200 25.61200
H  29.47600 -1.12100 27.28500
H  25.69500 -0.46300 34.74400
H  23.52500 1.45700 33.83000
H  23.23200 -0.97100 35.22800
H  22.64300 -1.29000 33.61000
H  22.03000 0.17800 34.52900
H  26.04000 2.55800 34.30500
H  26.97400 1.43100 35.37900
H  24.08900 1.84100 36.02400
H  25.08300 3.28000 35.96000
H  19.75600 2.00000 29.62400
H  20.23300 1.26200 31.11100
H  19.48900 0.25700 29.83500
H  19.15600 0.01300 27.42300
H  18.89100 0.90800 25.82300
H  19.06500 1.60300 27.38500
H  25.80100 0.50800 24.34300
H  27.66300 -1.77300 25.18300
H  25.59100 -2.45400 24.35200
H  25.05600 -1.22800 23.22700
H  24.11600 -1.50200 24.59600
H  29.40500 -0.36100 24.87900
H  28.64100 1.09900 25.26900
H  28.97500 -0.03700 22.46200
H  28.01000 1.39800 22.94000
H  27.30100 -0.13500 22.95500
H  31.87100 -1.12100 30.25900
H  31.59000 -0.16700 28.81900
H  31.12300 -2.01500 29.04800
H  29.01600 0.83900 33.91600
H  29.67000 -2.21500 37.16600
H  28.01800 -2.55600 36.48300
H  28.31200 -1.29100 37.58400
Mg -11.59400 16.96700 41.69600
C  -8.38100 15.58500 41.22300
C  -10.43500 19.94300 40.67600
C  -14.72100 17.92400 41.86000
C  -12.73100 13.50100 41.93800
N  -9.64300 17.67000 41.01800
C  -8.49100 16.93500 40.85100
C  -7.27600 17.86600 40.42700
C  -7.88500 19.32400 40.41100
C  -9.40500 18.97900 40.62100
C  -7.31200 20.33400 41.43300
C  -6.82500 17.36400 39.06600
C  -5.37100 17.72400 38.65000
H  -5.20000 18.34900 37.28800
N  -12.48000 18.76400 41.39400
C  -11.83000 19.88100 40.96200
C  -12.81400 20.94100 40.85400
C  -14.04600 20.46100 41.25700
C  -13.76900 19.03200 41.62300
C  -12.40800 22.38400 40.33400
C  -15.28300 21.23200 41.49400
O  -15.45300 22.40400 41.05900
C  -16.46500 20.55300 42.18700
N  -13.51300 15.84600 41.47900
C  -14.62100 16.56000 41.77000
C  -15.67500 15.63200 42.31600
C  -15.15000 14.19400 42.02100
C  -13.71600 14.50600 41.76200
C  -16.01700 15.78600 43.80300
C  -15.65000 13.58700 40.77800
C  -16.56700 12.33800 40.95500
N  -10.80800 15.00100 41.65900
C  -11.37200 13.75100 41.83900
C  -10.32700 12.75000 41.92000
C  -9.15800 13.45500 41.83600
C  -9.48100 14.78200 41.55700
C  -10.56100 11.27100 42.12500
C  -7.71000 13.22700 41.81100
O  -7.08600 12.20500 41.97100
C  -7.16300 14.68400 41.55000
C  -6.50500 15.07300 42.82700
O  -7.08500 15.47900 43.83600
O  -5.14400 14.94900 42.78500
C  -4.39400 15.67000 43.77800
H  -10.19000 20.96400 40.37600
H  -15.73700 18.17200 42.17600
H  -12.97600 12.43700 41.94900
H  -6.53400 17.65100 41.19600
H  -7.74200 19.77900 39.43000
H  -6.54200 19.73000 41.91300
H  -8.06700 20.72300 42.11600
H  -6.95100 21.22200 40.91500
H  -7.54100 17.74400 38.33700
H  -7.04400 16.29700 39.10300
H  -4.72500 16.84700 38.71400
H  -4.89700 18.55500 39.17100
H  -12.84700 22.45200 39.33800
H  -11.35600 22.46100 40.05900
H  -12.81200 23.22500 40.89700
H  -17.13500 21.37400 42.44300
H  -16.18400 20.10500 43.14000
H  -16.93200 19.79600 41.55700
H  -16.61300 15.83000 41.79900
H  -15.22000 13.63600 42.95500
H  -17.06300 15.53300 43.97500
H  -15.88700 16.80000 44.18000
H  -15.38800 15.14900 44.42500
H  -14.78000 13.33200 40.17400
H  -16.15900 14.31600 40.14800
H  -17.02700 12.21200 41.93500
H  -16.00700 11.42100 40.77400
H  -17.32400 12.43700 40.17700
H  -9.66200 10.81300 42.53900
H  -10.71000 10.90600 41.10900
H  -11.37600 11.02200 42.80400
H  -6.40900 14.53000 40.77700
H  -3.71100 16.19600 43.11100
H  -3.99300 14.85700 44.38300
H  -4.88100 16.42200 44.39900

