158

Mg 45.60400 24.96400 28.11600
C  46.88200 27.35300 30.54800
C  44.73500 23.07000 30.67700
C  44.79800 22.80100 25.84200
C  47.05600 27.09400 25.62600
N  45.68900 25.29200 30.28800
C  46.16500 26.30300 31.08400
C  46.12600 25.95500 32.61600
C  45.51700 24.51400 32.61300
C  45.26200 24.23100 31.10100
C  46.51800 23.50000 33.30700
C  45.17800 26.94000 33.40200
C  45.74900 27.47600 34.84100
H  44.69600 27.17400 35.99000
N  44.85100 23.13100 28.27000
C  44.59700 22.48800 29.41400
C  44.15200 21.10100 29.08600
C  44.19300 20.98800 27.66600
C  44.63100 22.32500 27.19100
C  43.84500 20.02800 30.07000
C  43.90800 19.73800 26.77600
O  44.06900 19.85000 25.60000
C  43.32300 18.47000 27.40800
N  46.07400 24.99900 25.99000
C  45.41300 23.96300 25.40200
C  45.49100 24.13600 23.83000
C  46.04600 25.62200 23.72600
C  46.42800 25.94500 25.14400
C  46.31800 23.00900 23.17400
C  45.08100 26.75400 23.16900
C  45.13800 26.96700 21.62200
N  46.73500 26.89700 28.04700
C  47.30000 27.51800 26.99300
C  48.10000 28.64700 27.47900
C  47.90300 28.68300 28.86900
C  47.13500 27.56300 29.17200
C  48.96700 29.43200 26.73100
C  48.32600 29.27800 30.09200
O  49.08100 30.19800 30.37300
C  47.53500 28.55100 31.22000
C  48.58600 28.27600 32.30700
O  49.40000 27.35200 32.30600
O  48.51300 29.19200 33.27500
C  49.19700 28.90900 34.49300
H  44.49100 22.45700 31.54700
H  44.58800 22.05000 25.07800
H  47.49900 27.72000 24.84800
H  47.13600 26.03400 33.02000
H  44.53400 24.47900 33.08200
H  46.78400 22.68900 32.62900
H  46.13900 22.97300 34.18400
H  47.40600 23.99500 33.69800
H  44.23900 26.44700 33.65600
H  44.84000 27.75300 32.76000
H  46.02400 28.53100 34.83600
H  46.54100 26.78800 35.13700
H  44.33300 20.23600 31.02200
H  44.30600 19.11400 29.69600
H  42.78700 19.77200 30.13300
H  42.64400 18.63100 28.24500
H  44.20000 17.89500 27.70500
H  42.83400 17.85600 26.65200
H  44.45200 24.09700 23.50200
H  46.94700 25.58800 23.11300
H  45.61600 22.35300 22.65800
H  46.73400 22.39500 23.97300
H  47.15400 23.43100 22.61600
H  45.34000 27.73900 23.56000
H  44.11800 26.42800 23.56100
H  45.57700 26.11400 21.10500
H  45.61400 27.85900 21.21400
H  44.10300 26.84800 21.30100
H  49.89000 28.86000 26.63900
H  49.15600 30.38100 27.23300
H  48.45300 29.57900 25.78100
H  46.79600 29.26700 31.58000
H  48.96100 27.97400 35.00200
H  49.11300 29.66700 35.27000
H  50.23100 28.69600 34.22400
Mg 17.03700 53.10500 25.79900
C  19.06300 52.39300 28.70700
C  14.47800 53.90500 27.95800
C  15.30700 53.95800 23.12500
C  19.72400 51.90700 23.85600
N  16.84600 53.11900 28.08900
C  17.74200 52.80900 29.10100
C  17.14600 52.72800 30.45500
C  15.57800 53.04300 30.17400
C  15.60300 53.36700 28.64200
C  14.64400 51.90300 30.53800
C  17.83400 53.69600 31.54300
C  17.63300 53.13900 32.95500
H  16.80000 53.76200 34.09500
N  15.12700 53.82000 25.62900
C  14.24700 54.10100 26.61600
C  13.06000 54.68600 26.01000
C  13.31200 54.72500 24.57800
C  14.60800 54.11200 24.38300
C  11.79400 54.90400 26.83300
C  12.37600 55.14200 23.49100
O  12.66100 55.23900 22.27300
C  10.89700 55.50300 23.95000
N  17.48500 53.01700 23.79600
C  16.60400 53.33900 22.89300
C  17.18700 53.08500 21.48500
C  18.55400 52.28400 21.71000
C  18.59300 52.39800 23.23100
C  16.19300 52.28300 20.58400
C  19.77500 53.03900 21.02700
C  20.17300 54.44200 21.52200
N  18.98500 52.35700 26.18100
C  19.93200 51.94000 25.26600
C  21.16500 51.47700 26.01300
C  20.86200 51.72000 27.35600
C  19.54600 52.24900 27.37700
C  22.38900 50.92000 25.45300
C  21.33000 51.53400 28.70000
O  22.45200 51.08000 28.98700
C  20.21100 51.92100 29.63600
C  19.97000 50.78800 30.53000
O  19.85100 49.62900 30.11200
O  20.05000 51.17800 31.84400
C  20.00200 50.16900 32.91800
H  13.62800 54.10900 28.61300
H  14.82100 54.31800 22.21600
H  20.55800 51.55800 23.24500
H  17.20800 51.68500 30.76400
H  15.19200 53.98100 30.57300
H  14.48600 51.26100 29.67200
H  13.72200 52.27000 30.98900
H  15.15700 51.29400 31.28200
H  17.46200 54.72000 31.55800
H  18.86900 53.73600 31.20200
H  18.64300 53.16600 33.36400
H  17.41600 52.07400 33.03700
H  11.48700 55.94300 26.70800
H  11.87500 54.93300 27.91900
H  10.92100 54.32400 26.53600
H  10.86100 56.40800 24.55600
H  10.42900 54.67300 24.48000
H  10.26500 55.61500 23.07000
H  17.27700 53.91800 20.78800
H  18.39400 51.29300 21.28600
H  16.09700 51.23500 20.86800
H  16.67200 52.31500 19.60600
H  15.17600 52.66300 20.67800
H  19.55700 53.12500 19.96300
H  20.66600 52.41000 21.04000
H  21.13300 54.34100 22.02900
H  19.44000 54.77600 22.25600
H  20.20700 55.17800 20.71900
H  23.19200 51.15600 26.15100
H  22.67300 51.34300 24.48900
H  22.11000 49.88500 25.25500
H  20.66800 52.71500 30.22600
H  19.19600 49.43800 32.85100
H  19.74400 50.65800 33.85700
H  20.94100 49.62500 33.02100

