158

Mg -2.18400 17.00400 26.38700
C  -2.68700 14.67300 28.85500
C  -2.97900 19.50600 28.62800
C  -2.35600 19.18800 23.68500
C  -1.67100 14.36800 24.05600
N  -2.59000 17.08000 28.49500
C  -2.61500 15.96400 29.33900
C  -2.97400 16.42600 30.72400
C  -3.23300 17.97500 30.62100
C  -2.95100 18.21600 29.19000
C  -4.64000 18.49600 31.08800
C  -1.84900 16.07100 31.81700
C  -1.77200 17.10300 32.96700
H  -1.46200 16.41700 34.30900
N  -2.59700 19.13300 26.19300
C  -2.77100 19.97500 27.24800
C  -2.98700 21.32200 26.67500
C  -2.77600 21.21700 25.25600
C  -2.53600 19.77300 25.00100
C  -3.43400 22.52200 27.60600
C  -2.88400 22.26300 24.23100
O  -2.71900 22.05500 23.02500
C  -3.26800 23.63300 24.58600
N  -2.05100 16.81900 24.20200
C  -2.07400 17.86200 23.34500
C  -1.81000 17.33800 21.82500
C  -1.27200 15.89100 22.00500
C  -1.73900 15.61900 23.50100
C  -2.96800 17.58400 20.81200
C  0.25000 15.77600 21.76800
C  1.30500 16.20900 22.86600
N  -2.21600 14.98700 26.42000
C  -2.00100 14.02000 25.37300
C  -2.12600 12.71700 25.85800
C  -2.32900 12.94700 27.27600
C  -2.45400 14.31800 27.53800
C  -2.16500 11.43200 25.03100
C  -2.54200 12.25200 28.46300
O  -2.67200 11.08700 28.63700
C  -2.79900 13.31100 29.62900
C  -1.71000 13.02100 30.62900
O  -0.53600 13.24800 30.56700
O  -2.33900 12.49300 31.74400
C  -1.56400 12.29200 32.94500
H  -3.36600 20.28500 29.28700
H  -2.10400 19.91200 22.90700
H  -1.59100 13.54400 23.34400
H  -3.90900 15.87800 30.84200
H  -2.49000 18.63500 31.07000
H  -5.15000 19.00000 30.26700
H  -4.34300 19.23100 31.83700
H  -5.20500 17.70100 31.57400
H  -0.89600 16.07800 31.28800
H  -2.09700 15.08100 32.19800
H  -2.71600 17.61500 33.15400
H  -1.00100 17.79800 32.63400
H  -4.49100 22.69400 27.81000
H  -2.95700 23.46300 27.33000
H  -2.90800 22.54300 28.56100
H  -3.08200 24.27800 23.72800
H  -2.64200 24.13000 25.32700
H  -4.34500 23.59700 24.74900
H  -1.07100 18.04400 21.44600
H  -1.85900 15.28200 21.31900
H  -2.49300 17.61400 19.83200
H  -3.41100 18.54200 21.08600
H  -3.75400 16.82900 20.82400
H  0.50200 16.42700 20.93100
H  0.31200 14.74200 21.43100
H  1.93900 15.37700 23.17300
H  0.83600 16.53800 23.79300
H  1.91300 16.94800 22.34500
H  -1.53800 11.53800 24.14600
H  -3.22300 11.20900 24.89100
H  -1.64000 10.71700 25.66500
H  -3.77200 13.26100 30.11700
H  -2.16700 12.78300 33.70900
H  -0.58400 12.76800 32.94600
H  -1.52000 11.21300 33.09600
Mg -12.60200 38.05200 41.97700
C  -10.33900 35.50400 41.00500
C  -10.50400 40.38100 40.55100
C  -15.24800 40.10700 42.04000
C  -14.68400 35.27600 43.10800
N  -10.72500 37.96600 40.76400
C  -10.04800 36.83200 40.46900
C  -8.78300 37.20700 39.60100
C  -8.80100 38.77200 39.64400
C  -10.03600 39.08400 40.46100
C  -7.45600 39.37200 40.20000
C  -8.86500 36.58000 38.17700
C  -7.66300 35.71400 37.67600
H  -6.68400 36.54700 36.77700
N  -12.81400 40.01400 41.55400
C  -11.77600 40.87400 41.06200
C  -12.28500 42.16600 40.87900
C  -13.57700 42.17200 41.47500
C  -13.94500 40.71200 41.73200
C  -11.42500 43.24400 40.24200
C  -14.51200 43.37800 41.67000
O  -14.29100 44.45300 41.13900
C  -15.92100 43.25500 42.29600
N  -14.66900 37.68400 42.34600
C  -15.54800 38.67800 42.25900
C  -16.98900 38.24800 42.56000
C  -16.81900 36.67400 42.91800
C  -15.31200 36.51100 42.83200
C  -17.71000 39.21500 43.58100
C  -17.71300 35.61600 42.11000
C  -18.19800 34.39800 42.86700
N  -12.58500 35.88100 42.14200
C  -13.37700 34.97600 42.68300
C  -12.69100 33.70600 42.85100
C  -11.47500 33.86800 42.20800
C  -11.52200 35.16000 41.66400
C  -13.22600 32.57500 43.61000
C  -10.19000 33.18300 41.87800
O  -9.71200 32.17000 42.34400
C  -9.44400 34.28900 40.97500
C  -8.10500 34.64200 41.60600
O  -7.79800 35.58200 42.36700
O  -7.20600 33.75200 41.16800
C  -5.90800 33.69600 41.88800
H  -9.80500 41.15000 40.21400
H  -16.12700 40.74400 41.92000
H  -15.27600 34.38300 43.31800
H  -7.91400 36.92100 40.19500
H  -8.93300 39.16000 38.63400
H  -7.11000 40.11300 39.48000
H  -6.69000 38.61200 40.35800
H  -7.73900 39.93900 41.08700
H  -8.98200 37.44000 37.51700
H  -9.77600 35.98700 38.09400
H  -8.12500 34.88000 37.14700
H  -7.04700 35.31700 38.48200
H  -12.09100 43.91500 39.70000
H  -10.71300 42.79900 39.54600
H  -10.90700 43.76000 41.05100
H  -16.62300 43.01500 41.49700
H  -16.25900 44.18800 42.74600
H  -15.70800 42.51000 43.06300
H  -17.60800 38.33300 41.66700
H  -17.13300 36.57200 43.95700
H  -18.49900 39.81000 43.12000
H  -16.87500 39.62600 44.14800
H  -18.23000 38.61100 44.32400
H  -17.11200 35.30200 41.25600
H  -18.60200 36.09800 41.70200
H  -17.59700 33.56100 42.51100
H  -19.27200 34.29300 42.71000
H  -17.92600 34.51900 43.91500
H  -13.85000 32.86000 44.45700
H  -12.51400 31.79000 43.86400
H  -13.96100 32.10000 42.96200
H  -9.21700 34.02900 39.94100
H  -5.80300 34.40100 42.71300
H  -5.25100 33.90200 41.04300
H  -5.66800 32.70300 42.26900

