158

Mg 48.80300 35.64300 27.89100
C  46.70900 33.92100 30.10700
C  48.84100 38.29900 30.17700
C  50.17500 37.59200 25.53900
C  48.50100 33.05100 25.57700
N  47.92200 36.08300 29.90500
C  47.28100 35.12800 30.69300
C  47.25900 35.56000 32.14900
C  47.39700 37.07600 31.97600
C  48.14900 37.19400 30.59800
C  46.04500 37.87100 31.99600
C  48.47300 34.97700 33.01300
C  48.43000 34.92400 34.54300
H  47.53700 35.98000 35.28200
N  49.50500 37.63600 27.93800
C  49.44400 38.48700 28.99100
C  50.08800 39.74200 28.61700
C  50.52100 39.56000 27.26100
C  50.10700 38.20100 26.85000
C  50.18200 40.92700 29.63500
C  51.20300 40.55300 26.30000
O  51.58200 40.34400 25.17300
C  51.64200 41.87400 26.87200
N  49.22100 35.33000 25.81600
C  49.79500 36.31300 25.03700
C  50.09300 35.80200 23.57700
C  49.78700 34.29700 23.66100
C  49.17900 34.18800 25.10800
C  49.39400 36.49200 22.44200
C  51.05000 33.32100 23.41200
C  50.98800 32.48700 22.16900
N  47.79300 33.83900 27.77200
C  47.80000 32.78100 26.81000
C  46.98900 31.67700 27.26000
C  46.55800 32.07700 28.54800
C  46.98100 33.42500 28.82200
C  46.71700 30.34100 26.56300
C  45.84400 31.65800 29.73100
O  45.33900 30.56200 29.93300
C  45.85400 32.87700 30.75100
C  46.42500 32.26200 31.94800
O  47.52000 31.74100 32.05600
O  45.53500 32.23100 32.97300
C  45.92200 31.56800 34.20200
H  48.91100 39.12500 30.88700
H  50.75800 38.09600 24.76600
H  48.37900 32.20700 24.89600
H  46.28500 35.38000 32.60400
H  48.04200 37.44000 32.77600
H  45.96300 38.76200 31.37300
H  45.87600 38.17000 33.03100
H  45.31200 37.10700 31.73600
H  49.38200 35.52300 32.75900
H  48.67500 33.96000 32.67700
H  49.42800 35.02700 34.96900
H  48.01600 33.96500 34.85500
H  51.05900 41.51900 29.37200
H  50.31800 40.63300 30.67600
H  49.30700 41.56000 29.48500
H  50.73600 42.43100 27.10900
H  52.14500 42.32700 26.01800
H  52.32600 41.73100 27.71000
H  51.15400 36.00600 23.43200
H  48.98100 34.04900 22.97000
H  48.73400 35.78400 21.94000
H  50.15300 36.93700 21.79800
H  48.88100 37.29700 22.96800
H  51.26600 32.63600 24.23100
H  51.91100 33.97900 23.28900
H  51.51800 32.89400 21.30700
H  49.98100 32.19600 21.86700
H  51.53400 31.61200 22.52200
H  47.70100 29.91200 26.37500
H  46.34100 30.51900 25.55500
H  46.05100 29.72700 27.16800
H  44.88300 33.24900 31.07900
H  46.53100 30.67200 34.08000
H  45.03900 31.35200 34.80500
H  46.55200 32.26100 34.76000
Mg 30.74400 58.31900 39.55600
C  27.98500 56.48600 38.15500
C  32.87300 55.72300 38.47500
C  33.37800 60.14300 40.45000
C  28.52700 60.92600 40.24300
N  30.43100 56.42800 38.23000
C  29.23800 55.85900 37.87100
C  29.50700 54.43600 37.33600
C  31.04900 54.21500 37.61200
C  31.52500 55.54400 38.13300
C  31.31200 52.98900 38.54800
C  29.00000 54.31400 35.83200
C  29.60100 55.34800 34.93900
H  28.67600 56.30400 34.05200
N  32.82800 57.99900 39.43700
C  33.50900 56.91400 38.91700
C  34.92400 57.12400 39.03300
C  35.06300 58.36900 39.71500
C  33.74300 58.91100 39.91300
C  35.94100 56.19400 38.34000
C  36.43300 58.92500 40.07000
O  37.38200 58.23000 39.80200
C  36.69200 60.20700 40.69700
N  30.85300 60.18100 40.24900
C  32.06700 60.73400 40.60500
C  31.92700 62.20400 40.91600
C  30.39400 62.41600 41.05200
C  29.83000 61.06900 40.56000
C  32.86200 62.69300 42.04600
C  29.91500 63.68600 40.24700
C  30.11400 65.07800 40.96200
N  28.72000 58.62200 39.39600
C  27.92000 59.78700 39.70900
C  26.56600 59.46200 39.46100
C  26.58800 58.17400 38.92300
C  27.90900 57.68700 38.89800
C  25.44500 60.36600 39.87000
C  25.70400 57.19500 38.35200
O  24.47100 57.13800 38.21700
C  26.53200 56.00100 37.89900
C  26.09900 54.76100 38.63800
O  26.19300 54.65900 39.88600
O  25.40800 53.90800 37.78800
C  25.03500 52.59800 38.41400
H  33.57000 54.88400 38.40900
H  34.25100 60.68900 40.81300
H  27.84100 61.70600 40.57900
H  28.90300 53.77500 37.95900
H  31.54000 53.93400 36.68000
H  30.45000 52.32300 38.50400
H  31.36000 53.48500 39.51700
H  32.29300 52.54900 38.37200
H  27.91900 54.45300 35.80200
H  29.35900 53.32200 35.56000
H  30.12300 54.70300 34.23200
H  30.38300 56.01100 35.30800
H  36.69800 56.81000 37.85500
H  35.35400 55.51500 37.72100
H  36.49400 55.64500 39.10100
H  36.30700 60.99600 40.05100
H  37.76700 60.35700 40.79400
H  36.08500 60.13900 41.60000
H  32.21400 62.67300 39.97500
H  30.00500 62.54700 42.06100
H  33.49100 61.99700 42.60200
H  32.12900 63.08000 42.75400
H  33.43300 63.56900 41.73900
H  28.83600 63.73200 40.10200
H  30.53900 63.77200 39.35700
H  30.84000 65.61500 40.35200
H  30.50900 64.97400 41.97200
H  29.18400 65.64600 40.97100
H  24.54200 59.78700 39.67500
H  25.39500 61.41000 39.55900
H  25.52000 60.42700 40.95500
H  26.40600 55.82500 36.83100
H  25.69100 52.31900 39.23800
H  25.09700 51.82000 37.65300
H  24.09400 52.61900 38.96400

