158

Mg 0.90600 7.16800 26.52800
C  1.44100 9.45600 28.97200
C  1.13200 4.56200 28.81600
C  0.76100 4.88900 23.99500
C  1.05300 9.77300 24.19500
N  1.02600 7.02800 28.67200
C  1.30800 8.12800 29.49900
C  1.41800 7.68300 30.97700
C  1.61300 6.16000 30.86100
C  1.24700 5.88900 29.37700
C  2.98400 5.57800 31.27800
C  0.13400 8.08800 31.71800
C  0.21200 8.39300 33.26300
H  1.38700 7.89300 34.07900
N  0.95800 5.01900 26.41800
C  1.04400 4.15100 27.45900
C  0.85800 2.77400 26.93300
C  0.69900 2.86700 25.57200
C  0.82200 4.33200 25.23000
C  0.82400 1.65900 27.92200
C  0.37700 1.77200 24.63000
O  -0.01500 1.97200 23.44400
C  0.57700 0.35900 24.98000
N  0.74700 7.34100 24.48900
C  0.75300 6.29000 23.61700
C  0.45700 6.74900 22.13000
C  0.46000 8.31100 22.31500
C  0.73900 8.48800 23.73400
C  1.22400 6.17700 20.99200
C  -0.84100 8.91200 21.73100
C  -2.11700 8.89600 22.54800
N  1.13400 9.21400 26.56700
C  1.27200 10.13600 25.52100
C  1.63900 11.45500 26.08200
C  1.74500 11.17400 27.42700
C  1.33900 9.85700 27.65700
C  1.96000 12.65600 25.24900
C  2.17100 11.74800 28.60900
O  2.63100 12.87800 28.86300
C  1.81900 10.73400 29.66000
C  2.92700 10.63200 30.61200
O  4.09400 10.34100 30.35200
O  2.42200 11.08600 31.84200
C  3.43900 11.25000 32.88000
H  1.22300 3.68500 29.46100
H  0.60900 4.23600 23.13400
H  0.92900 10.61700 23.51400
H  2.26000 8.18600 31.45300
H  0.92800 5.65600 31.54300
H  3.61800 5.75100 30.40800
H  2.93700 4.49600 31.39500
H  3.44100 6.08700 32.12700
H  -0.64800 7.34300 31.57300
H  -0.27900 9.01000 31.30800
H  -0.67400 8.04400 33.79300
H  0.27700 9.47600 33.37000
H  0.16600 1.90800 28.75400
H  1.85400 1.63500 28.27900
H  0.51500 0.70700 27.49200
H  -0.32500 -0.04100 25.44300
H  1.52100 0.09100 25.45500
H  0.63900 -0.23200 24.06700
H  -0.59300 6.50100 21.97200
H  1.41200 8.60800 21.87500
H  0.63900 5.38200 20.52900
H  2.10700 5.64000 21.33900
H  1.43300 7.03600 20.35500
H  -0.99400 8.50600 20.73100
H  -0.65300 9.97800 21.59900
H  -2.73500 9.79000 22.63800
H  -2.00300 8.53800 23.57100
H  -2.82300 8.19900 22.09700
H  2.02300 12.38400 24.19600
H  2.93900 13.07700 25.48000
H  1.25300 13.48200 25.32400
H  0.94600 11.11400 30.19100
H  4.47000 11.43000 32.57500
H  3.25500 10.55100 33.69700
H  3.38700 12.26600 33.27100
Mg 42.38900 41.48500 26.92700
C  41.64400 43.93100 29.38300
C  43.38100 39.40100 29.42600
C  43.12700 39.23500 24.58300
C  41.73500 43.88400 24.44300
N  42.36400 41.72600 29.12300
C  41.94500 42.73200 29.95600
C  41.92700 42.32600 31.38000
C  42.70100 40.96600 31.36000
C  42.92000 40.69200 29.84300
C  44.02300 40.94900 32.24900
C  40.55200 42.19000 31.88200
C  40.36500 41.67000 33.33300
H  39.74600 42.60200 34.31200
N  43.27500 39.58200 26.96400
C  43.60400 38.88600 28.09400
C  44.17800 37.65800 27.68100
C  44.01400 37.48400 26.26100
C  43.41500 38.80200 25.88800
C  44.77100 36.61000 28.64000
C  44.39500 36.28300 25.44600
O  44.23100 36.24700 24.24300
C  44.93700 34.99200 26.17500
N  42.30300 41.53900 24.84700
C  42.67000 40.51200 24.11400
C  42.61800 40.79800 22.58500
C  41.87800 42.20000 22.55700
C  42.00900 42.64200 24.02700
C  44.00900 40.91900 21.78400
C  40.44600 42.10300 21.95000
C  39.36500 41.73700 22.95800
N  41.76600 43.45800 26.86500
C  41.58900 44.34300 25.79500
C  41.33800 45.70000 26.35700
C  41.27800 45.45700 27.64200
C  41.56700 44.19000 27.98300
C  41.15700 46.95500 25.55400
C  40.99200 46.24800 28.85100
O  40.62900 47.42200 28.91000
C  41.04900 45.20800 30.03700
C  41.90100 45.79200 31.08900
O  43.14000 46.01900 31.00800
O  41.18400 45.90800 32.26900
C  41.99700 46.31600 33.42700
H  43.52200 38.77500 30.30900
H  43.16500 38.50800 23.77000
H  41.53700 44.58300 23.62800
H  42.49600 42.99800 32.02200
H  42.06800 40.20000 31.80600
H  43.77400 40.72800 33.28700
H  44.45400 41.94800 32.31600
H  44.87200 40.29600 32.04700
H  40.12400 41.51700 31.13900
H  40.13500 43.19400 31.80500
H  41.24600 41.16500 33.72900
H  39.64100 40.87300 33.16500
H  45.76800 36.24400 28.39300
H  44.00800 35.83200 28.67900
H  44.74200 36.99500 29.65900
H  45.94200 35.15200 26.56700
H  44.88900 34.19200 25.43600
H  44.29300 34.68100 26.99800
H  41.96400 40.07800 22.09400
H  42.50600 42.89600 21.99900
H  44.42800 41.85300 22.16000
H  43.89300 40.82000 20.70500
H  44.66600 40.11500 22.11500
H  40.48100 41.34900 21.16300
H  40.32000 43.10400 21.53600
H  39.84900 41.53700 23.91400
H  38.82300 40.85700 22.61200
H  38.72600 42.62000 22.96600
H  41.52600 46.87100 24.53200
H  41.82000 47.65600 26.06000
H  40.14600 47.35400 25.64300
H  40.03000 45.06000 30.39400
H  42.37200 47.30700 33.17400
H  42.80400 45.65200 33.74000
H  41.24300 46.64900 34.13900

