158

Mg 43.76100 3.90500 47.60000
C  41.59100 6.55200 46.74300
C  41.18800 1.76300 47.51700
C  46.09400 1.43200 47.88200
C  46.53100 6.16300 47.06500
N  41.66000 4.12300 46.87900
C  40.89900 5.27900 46.63300
C  39.47200 4.90200 46.31700
C  39.36700 3.49700 47.11100
C  40.83000 3.07300 47.22800
C  38.75700 3.63000 48.58500
C  39.22900 4.82700 44.77800
C  38.33200 5.95200 44.24800
H  38.89800 7.04400 43.29600
N  43.60200 1.87100 47.68700
C  42.46000 1.19900 47.64600
C  42.82700 -0.18000 47.64000
C  44.19100 -0.36400 47.69000
C  44.76100 1.01000 47.80100
C  41.79900 -1.31700 47.36800
C  44.98100 -1.65800 47.65500
O  44.45400 -2.79700 47.50900
C  46.50100 -1.72800 47.65300
N  46.01700 3.73100 47.28200
C  46.64300 2.66400 47.70900
C  48.20500 2.91300 47.60000
C  48.37800 4.41300 47.31300
C  46.87000 4.77700 47.15000
C  49.01500 2.36200 48.81800
C  49.24400 4.75500 46.05800
C  50.66900 4.15100 46.02300
N  44.07000 5.97000 47.16700
C  45.24400 6.72700 46.90600
C  44.83600 8.09700 46.48300
C  43.42100 8.02400 46.63300
C  42.97500 6.74800 46.94200
C  45.76300 9.19900 46.15300
C  42.22100 8.86300 46.51000
O  42.21600 10.04300 46.28900
C  40.98000 7.88200 46.52500
C  40.16600 8.32900 47.73400
O  40.55300 8.45000 48.89400
O  38.91400 8.60600 47.18300
C  37.89600 9.18100 48.08500
H  40.43400 0.98100 47.63400
H  46.90200 0.76100 48.18000
H  47.29400 6.94400 47.06300
H  38.83000 5.70100 46.68900
H  38.78400 2.77200 46.54200
H  39.48900 3.39400 49.35700
H  37.98300 2.86400 48.63000
H  38.27600 4.59600 48.73700
H  38.78800 3.85500 44.55900
H  40.16100 4.81300 44.21400
H  37.86900 6.47500 45.08400
H  37.51400 5.48500 43.69900
H  41.94000 -1.71200 46.36200
H  40.75800 -1.00200 47.44000
H  42.02700 -2.10700 48.08400
H  46.72000 -1.44700 48.68200
H  46.91800 -1.21200 46.78800
H  46.84200 -2.76300 47.61500
H  48.47600 2.34300 46.71100
H  48.72000 5.03700 48.13900
H  49.48900 1.39700 48.63700
H  48.30900 2.20200 49.63300
H  49.81500 2.98100 49.22300
H  49.41200 5.82500 45.93200
H  48.77400 4.41600 45.13500
H  50.80900 3.66400 46.98800
H  51.46500 4.88500 45.89700
H  50.85700 3.44800 45.21100
H  46.66800 9.11800 46.75500
H  45.25300 10.14400 46.34400
H  46.17000 9.01500 45.15900
H  40.31600 7.82900 45.66200
H  37.39300 8.30900 48.50400
H  37.14500 9.76600 47.55400
H  38.33800 9.75800 48.89800
Mg 26.32700 50.65700 26.71600
C  24.13600 51.45500 29.48500
C  28.66900 49.79700 28.95900
C  28.44000 50.42700 24.20800
C  23.87000 51.98700 24.60300
N  26.33500 50.77300 28.97500
C  25.37800 51.03900 29.92500
C  25.82600 50.71900 31.33400
C  27.29600 50.31500 31.10200
C  27.44800 50.28400 29.57800
C  28.34600 51.23800 31.74000
C  24.97700 49.67500 32.13300
C  24.64600 50.12100 33.62700
H  25.63700 50.60200 34.57500
N  28.23400 50.05900 26.55600
C  29.03300 49.69900 27.60600
C  30.29000 49.17900 27.10800
C  30.26600 49.52000 25.72200
C  28.91000 50.00000 25.40200
C  31.40400 48.62000 27.93400
C  31.34100 49.47300 24.70700
O  31.16000 49.76200 23.52500
C  32.60300 49.04100 25.12400
N  26.29200 51.49600 24.80500
C  27.24500 51.17200 23.90900
C  26.79800 51.22200 22.40600
C  25.38100 51.73400 22.52500
C  25.12700 51.81600 24.03600
C  27.72400 52.08600 21.48300
C  24.44200 50.80500 21.65300
C  23.54100 49.75600 22.30800
N  24.40800 51.58800 26.95700
C  23.47400 52.00500 25.98400
C  22.16400 52.26500 26.58600
C  22.42700 52.19000 27.95200
C  23.76700 51.61500 28.11100
C  20.95100 52.78400 25.85200
C  21.85100 52.43700 29.21400
O  20.81200 52.99300 29.50300
C  22.88000 51.83300 30.31900
C  23.19700 52.93900 31.24300
O  24.21400 53.61200 31.22100
O  22.32500 52.89300 32.24500
C  22.48500 53.77100 33.36400
H  29.32600 49.20900 29.60300
H  28.95500 50.20600 23.27100
H  23.10300 52.26100 23.87500
H  25.81200 51.66100 31.88200
H  27.37500 49.31100 31.51800
H  27.88900 52.22700 31.75300
H  29.24100 51.18200 31.12000
H  28.63000 50.98200 32.76100
H  25.43200 48.69000 32.03800
H  24.00800 49.58700 31.64200
H  24.05000 49.25500 33.91500
H  23.88600 50.89100 33.50100
H  31.07200 48.29000 28.91800
H  32.25700 49.29200 28.01900
H  31.67300 47.66600 27.48200
H  33.18200 48.89500 24.21100
H  32.53400 48.07200 25.61900
H  32.98100 49.68200 25.92000
H  26.81600 50.19100 22.05200
H  25.22000 52.73200 22.11600
H  28.23800 51.49800 20.72200
H  28.39600 52.53900 22.21100
H  27.18500 52.91900 21.03200
H  25.10900 50.29900 20.95500
H  23.73400 51.51600 21.22600
H  23.93600 49.45200 23.27800
H  23.67000 48.91400 21.62800
H  22.51600 50.10500 22.18200
H  20.87500 53.86300 25.71700
H  20.12600 52.68500 26.55800
H  20.70100 52.29000 24.91300
H  22.22900 51.12200 30.82800
H  22.66600 54.81100 33.09000
H  23.34700 53.45400 33.95200
H  21.55900 53.58600 33.90800

