158

Mg -2.26200 17.73400 27.38300
C  -3.04600 15.60600 30.09100
C  -2.94400 20.40200 29.49700
C  -2.43700 19.77900 24.70800
C  -2.18200 14.96100 25.32700
N  -2.77500 17.94600 29.54600
C  -2.97900 16.95100 30.44700
C  -3.17600 17.57800 31.86600
C  -3.60800 19.04000 31.56100
C  -3.05800 19.15300 30.13900
C  -5.13600 19.33200 31.56600
C  -1.99900 17.35600 32.89900
C  -1.94200 18.18300 34.23100
H  -1.45400 17.61000 35.54300
N  -2.55400 19.79200 27.14100
C  -2.71700 20.70000 28.12300
C  -2.66300 22.09700 27.60200
C  -2.60700 21.91700 26.21400
C  -2.56400 20.48700 25.95300
C  -2.94200 23.28500 28.41900
C  -2.70200 22.95500 25.13200
O  -2.82900 22.76900 23.93200
C  -2.55900 24.37900 25.57200
N  -2.32200 17.37900 25.24700
C  -2.25300 18.41600 24.40100
C  -2.08300 17.83100 22.99300
C  -1.65100 16.33600 23.20300
C  -2.06500 16.18600 24.68900
C  -3.34800 18.05500 22.16100
C  -0.13000 16.19500 22.94800
C  0.81200 17.06100 23.76900
N  -2.51300 15.64100 27.58000
C  -2.51200 14.64600 26.60200
C  -2.73700 13.41000 27.23500
C  -2.95900 13.78900 28.61200
C  -2.81300 15.13300 28.79400
C  -2.64900 12.02100 26.68800
C  -3.28400 13.23000 29.91900
O  -3.54300 12.09800 30.25900
C  -3.27200 14.41500 30.94200
C  -2.07200 14.14000 31.79000
O  -0.87100 14.03600 31.48400
O  -2.50900 13.89200 33.09100
C  -1.50700 13.32600 34.04500
H  -3.24200 21.27800 30.07700
H  -2.35500 20.43600 23.84000
H  -1.85000 14.19000 24.62800
H  -4.06100 17.07800 32.26000
H  -3.18700 19.84200 32.16700
H  -5.44300 20.05000 32.32600
H  -5.67700 18.38600 31.55100
H  -5.50700 19.94100 30.74200
H  -1.08300 17.63800 32.37900
H  -1.87700 16.29800 33.12700
H  -2.89300 18.69900 34.36100
H  -1.21200 18.98200 34.10200
H  -3.20900 23.12800 29.46400
H  -3.92300 23.57800 28.04400
H  -2.22900 24.10900 28.38900
H  -3.46600 24.69900 26.08600
H  -2.61300 24.98200 24.66600
H  -1.66000 24.70100 26.09600
H  -1.28600 18.40400 22.52000
H  -2.26000 15.78600 22.48600
H  -4.09100 18.63600 22.70700
H  -3.91400 17.12400 22.14400
H  -3.21100 18.43900 21.15000
H  0.08800 16.41500 21.90300
H  0.20300 15.17400 23.13600
H  1.13900 16.51300 24.65300
H  0.32800 17.95900 24.15300
H  1.77800 17.20400 23.28600
H  -3.16300 11.98600 25.72700
H  -3.17000 11.38200 27.40000
H  -1.59500 11.74700 26.63400
H  -4.18900 14.29800 31.51900
H  -0.66200 13.99300 34.21700
H  -1.19300 12.40200 33.56000
H  -2.03500 12.98700 34.93700
Mg 24.17100 -4.77000 46.02600
C  26.55300 -2.91400 44.24100
C  21.75900 -3.85700 43.63100
C  22.09100 -7.55200 46.97500
C  26.83200 -6.31200 47.82100
N  24.26300 -3.66000 44.00500
C  25.33200 -2.85300 43.58300
C  24.92200 -2.05600 42.32000
C  23.35400 -2.29500 42.32800
C  23.07700 -3.31600 43.40800
C  22.46200 -1.06700 42.62500
C  25.71900 -2.52100 41.09100
C  26.50400 -1.41500 40.39600
H  26.13100 -1.22300 38.88000
N  22.17600 -5.51300 45.52300
C  21.36900 -4.93700 44.50300
C  20.07500 -5.58400 44.42700
C  20.16200 -6.72600 45.36300
C  21.52800 -6.60900 46.05800
C  18.91600 -5.16100 43.54600
C  18.98200 -7.62300 45.67300
O  18.05300 -7.72300 44.88700
C  19.00900 -8.59300 46.89700
N  24.44800 -6.56900 47.39700
C  23.44100 -7.53100 47.50200
C  24.01700 -8.81200 48.17200
C  25.54800 -8.40700 48.47900
C  25.59600 -6.97900 47.95300
C  23.10700 -9.18100 49.46700
C  26.61500 -9.22600 47.66200
C  27.15200 -10.44500 48.42900
N  26.22100 -4.57300 46.25500
C  27.14300 -5.14600 47.08500
C  28.42200 -4.47000 46.88600
C  28.25100 -3.59300 45.79700
C  26.87500 -3.69600 45.43600
C  29.67000 -4.86800 47.60100
C  28.93400 -2.68200 44.92500
O  30.08300 -2.29800 44.90600
C  27.80100 -2.13600 43.88600
C  27.65600 -0.69400 44.10600
O  26.90500 -0.19200 44.92400
O  28.69500 -0.02100 43.45600
C  29.06900 1.31600 43.94500
H  20.97000 -3.50700 42.96200
H  21.56500 -8.50300 47.07400
H  27.71300 -6.59300 48.40300
H  25.04800 -0.98800 42.50100
H  23.06100 -2.63900 41.33600
H  22.99000 -0.13400 42.42800
H  22.22400 -1.09000 43.68900
H  21.60600 -1.23900 41.97300
H  25.08000 -2.85400 40.27400
H  26.41300 -3.27700 41.46100
H  27.52600 -1.76600 40.25500
H  26.41400 -0.38000 40.72600
H  18.79000 -5.93000 42.78300
H  19.08900 -4.22100 43.02400
H  18.16700 -4.99300 44.32000
H  19.29600 -8.12400 47.83900
H  19.61700 -9.49100 46.78200
H  18.02300 -9.05600 46.89500
H  23.87900 -9.61800 47.45100
H  25.72800 -8.38200 49.55400
H  22.18600 -8.60000 49.41200
H  23.56700 -8.93400 50.42300
H  22.80200 -10.21200 49.28600
H  27.45900 -8.64500 47.29200
H  26.18100 -9.51400 46.70500
H  26.82000 -10.44800 49.46700
H  28.24000 -10.37700 48.46200
H  26.84000 -11.34700 47.90200
H  30.10500 -5.78600 47.20400
H  29.57200 -5.04200 48.67200
H  30.43800 -4.12400 47.39200
H  28.04100 -2.29100 42.83400
H  28.34600 1.86700 44.54700
H  29.34800 1.96100 43.11200
H  29.97000 1.24500 44.55400

