158

Mg 41.57800 8.96700 29.39900
C  43.27000 10.27300 32.14500
C  39.31200 7.74400 31.64000
C  39.88300 7.61300 26.89900
C  44.00600 10.15100 27.35600
N  41.37400 8.96200 31.71800
C  42.09800 9.67800 32.60700
C  41.57300 9.52400 34.05200
C  40.42900 8.50400 33.85200
C  40.33600 8.41100 32.28100
C  40.56400 7.16400 34.54100
C  41.15600 10.83400 34.76800
C  40.24800 10.78700 36.09400
H  40.54000 11.73800 37.22400
N  39.82500 7.79100 29.24600
C  39.00300 7.45800 30.25100
C  37.84300 6.73300 29.79400
C  37.94400 6.68300 28.34200
C  39.25200 7.42100 28.09100
C  36.81100 6.13800 30.75300
C  37.03100 6.04600 27.36400
O  37.16600 6.28600 26.19400
C  35.86200 5.39200 27.75500
N  41.89800 8.95900 27.40900
C  41.05000 8.35400 26.52100
C  41.58700 8.45400 25.08700
C  42.81200 9.41900 25.20300
C  42.93900 9.54800 26.75200
C  41.89700 7.16800 24.29200
C  42.63500 10.78500 24.46900
C  43.86400 11.27900 23.70400
N  43.29000 9.95300 29.60600
C  44.19900 10.38200 28.67900
C  45.24900 11.15100 29.29000
C  44.92000 11.04900 30.70300
C  43.74600 10.34200 30.80800
C  46.25400 11.82700 28.47600
C  45.33200 11.51300 32.04700
O  46.33500 12.10000 32.45000
C  44.27300 11.04400 33.05500
C  45.01600 10.31500 34.18200
O  45.51500 9.21000 34.03500
O  44.94700 10.97500 35.33600
C  45.69500 10.42100 36.46700
H  38.59900 7.29200 32.33300
H  39.32900 7.16400 26.07100
H  44.66800 10.57900 26.60100
H  42.31200 9.13000 34.74900
H  39.47200 8.84600 34.24600
H  39.55200 6.84700 34.79200
H  41.16700 7.36600 35.42600
H  40.98600 6.39700 33.89200
H  40.66800 11.49800 34.05400
H  42.04300 11.41500 35.02200
H  40.41700 9.79200 36.50500
H  39.17400 10.87800 35.93200
H  36.91900 5.05400 30.74600
H  35.89600 6.49800 30.28300
H  36.96000 6.41200 31.79700
H  35.73700 4.53600 27.09200
H  34.99700 6.05400 27.79600
H  35.87100 4.95600 28.75400
H  40.80000 8.93600 24.50800
H  43.74300 8.93900 24.90200
H  42.20500 6.32300 24.90700
H  42.63500 7.25200 23.49500
H  40.91100 6.95100 23.88000
H  42.53100 11.55000 25.23900
H  41.80500 10.67500 23.77100
H  44.37500 10.42500 23.25900
H  44.51700 11.80600 24.40100
H  43.45900 12.00500 22.99900
H  47.06100 11.11200 28.31500
H  46.79300 12.57700 29.05500
H  45.90600 12.22800 27.52400
H  43.85100 11.98100 33.41600
H  45.15800 9.55800 36.86000
H  45.83600 11.20300 37.21400
H  46.68900 10.17300 36.09700
Mg 54.75200 23.56200 45.09700
C  52.12000 25.78200 43.87500
C  52.50900 21.11900 44.31200
C  57.31700 21.44800 45.35000
C  56.69200 26.20000 45.71600
N  52.52100 23.52200 44.08200
C  51.68600 24.51500 43.73300
C  50.34700 23.99500 43.31800
C  50.36300 22.51100 43.86800
C  51.89800 22.32700 44.05100
C  49.59300 22.27200 45.09600
C  50.18300 24.01400 41.81900
C  48.84000 24.41900 41.31100
H  48.48500 24.10800 39.85800
N  54.90500 21.52900 44.97600
C  53.86200 20.71700 44.62700
C  54.30200 19.36800 44.63500
C  55.69300 19.32100 44.94200
C  56.04900 20.80500 45.09300
C  53.41600 18.21100 44.19100
C  56.56700 18.06500 44.95700
O  56.10300 16.93800 44.81400
C  58.05200 18.14300 45.33200
N  56.72000 23.78500 45.41900
C  57.58000 22.77800 45.58500
C  58.89100 23.29700 46.13200
C  58.63800 24.81600 46.39800
C  57.24800 24.96300 45.86000
C  59.36600 22.45500 47.37300
C  59.67600 25.73200 45.67900
C  60.45100 26.67700 46.62700
N  54.58000 25.63700 44.78600
C  55.41500 26.58400 45.20800
C  54.72300 27.86800 45.16100
C  53.54500 27.57300 44.51000
C  53.41000 26.21000 44.36500
C  55.34600 29.13500 45.63200
C  52.31400 28.23300 44.08000
O  51.94100 29.38900 44.15400
C  51.32800 27.07700 43.58200
C  51.27300 27.28300 42.06500
O  52.16300 27.12400 41.27200
O  50.00100 27.74700 41.78100
C  49.83300 28.23000 40.39900
H  51.83800 20.26900 44.17800
H  58.13700 20.78500 45.63300
H  57.40600 26.99400 45.94400
H  49.59800 24.54500 43.88800
H  50.23900 21.68600 43.16700
H  49.13000 21.28500 45.07000
H  48.79700 23.00900 45.20000
H  50.24900 22.37200 45.96100
H  50.46300 23.01900 41.47300
H  50.88400 24.76000 41.44600
H  48.68700 25.49200 41.42800
H  48.17700 23.83000 41.94500
H  53.57000 18.06600 43.12200
H  52.34900 18.36100 44.35400
H  53.73100 17.24600 44.58700
H  58.77300 18.55600 44.62800
H  58.37400 17.13900 45.61100
H  58.15200 18.67800 46.27700
H  59.60000 23.17600 45.31300
H  58.55700 24.95500 47.47600
H  58.66200 21.62500 47.44400
H  59.47200 23.15000 48.20600
H  60.30200 21.97500 47.08700
H  59.22600 26.22700 44.81800
H  60.47800 25.04500 45.41000
H  60.20600 27.65900 46.22200
H  61.53800 26.59500 46.64500
H  60.18500 26.55800 47.67700
H  54.60300 29.88600 45.89700
H  56.11200 29.52500 44.96100
H  55.79400 28.93400 46.60500
H  50.38000 27.10200 44.12000
H  48.97800 28.90500 40.44100
H  49.63300 27.40000 39.72300
H  50.60600 28.83000 39.92000

