158

Mg 27.17800 50.63600 26.26800
C  25.16000 51.53600 29.05100
C  29.42000 49.29600 28.45300
C  29.13000 49.66800 23.56400
C  24.82300 51.99000 24.21800
N  27.34500 50.57700 28.58000
C  26.36700 50.82000 29.51700
C  26.88800 50.63600 30.94600
C  28.25400 49.98300 30.69700
C  28.35600 49.89300 29.14800
C  29.54300 50.69300 31.30900
C  25.89800 49.81400 31.79800
C  25.40900 50.52600 33.00800
H  24.89100 49.75400 34.24400
N  28.99800 49.55100 26.00100
C  29.80300 49.18300 27.06000
C  31.08900 48.71700 26.47800
C  30.85600 48.65600 25.08000
C  29.59600 49.31100 24.79700
C  32.18600 48.09500 27.38200
C  31.89600 48.12800 24.05500
O  31.67500 47.99100 22.86100
C  33.31600 47.80300 24.53000
N  27.11000 50.98900 24.16800
C  27.94800 50.41900 23.28300
C  27.55700 50.89200 21.87600
C  26.14100 51.45500 22.07500
C  25.99100 51.48500 23.55900
C  28.60700 51.75700 21.14100
C  24.93000 50.67300 21.37000
C  24.05400 49.66600 22.12500
N  25.38400 51.70100 26.51600
C  24.54700 52.20000 25.60600
C  23.29300 52.64000 26.22900
C  23.49800 52.51500 27.63500
C  24.82900 51.95400 27.69700
C  22.03800 53.13000 25.53000
C  23.02900 52.73300 28.95400
O  21.94300 53.16200 29.33400
C  24.03000 52.17800 29.91100
C  24.59100 53.23500 30.80800
O  25.64700 53.79600 30.67400
O  23.64400 53.55300 31.76700
C  23.98400 54.68300 32.60100
H  30.16400 48.91100 29.15400
H  29.62000 49.40500 22.62500
H  24.12800 52.51200 23.55800
H  26.99100 51.61400 31.41600
H  28.18700 48.94800 31.03300
H  29.14000 51.33600 32.09100
H  29.91100 51.35800 30.52600
H  30.26300 49.96900 31.69000
H  26.25800 48.84500 32.14400
H  25.10800 49.51200 31.11000
H  24.58000 51.14800 32.67200
H  26.12300 51.16000 33.53300
H  32.21800 47.00500 27.36300
H  32.02100 48.33900 28.43200
H  33.18600 48.48100 27.18500
H  33.79700 48.76100 24.73000
H  33.71100 47.31200 23.64100
H  33.29600 47.03800 25.30500
H  27.43500 49.97800 21.29600
H  26.15900 52.48800 21.72700
H  29.55900 51.72600 21.67100
H  28.18600 52.73900 20.92600
H  28.88000 51.34000 20.17200
H  25.34000 50.19100 20.48300
H  24.31400 51.46000 20.93500
H  23.99600 48.78700 21.48300
H  23.06000 50.04500 22.36300
H  24.46600 49.41000 23.10100
H  21.14400 52.73700 26.01500
H  21.98000 52.72200 24.52100
H  22.05700 54.21700 25.46400
H  23.53400 51.41500 30.51100
H  23.16600 55.04700 33.22300
H  24.39600 55.50800 32.01900
H  24.76400 54.35400 33.28800
Mg 0.62900 43.10100 24.95000
C  2.60300 42.77900 27.91200
C  -1.97800 41.99300 26.61900
C  -0.89900 42.91400 21.98100
C  3.67300 43.85200 23.25700
N  0.35300 42.65100 27.04100
C  1.23500 42.72000 28.11500
C  0.47200 42.60300 29.43400
C  -0.94800 42.14700 28.96600
C  -0.89200 42.25300 27.45900
C  -1.35600 40.73500 29.55200
C  0.57500 43.90400 30.33200
C  0.95500 43.54700 31.82600
H  0.58000 42.18000 32.40100
N  -1.27200 42.44300 24.38200
C  -2.21800 42.06800 25.21500
C  -3.40400 41.80700 24.42800
C  -3.12200 42.22400 23.09200
C  -1.70700 42.55600 23.09800
C  -4.61000 41.12100 24.97900
C  -4.00500 42.31400 21.86200
O  -3.64800 42.76800 20.79400
C  -5.46800 41.84000 22.00100
N  1.30200 43.31500 22.97900
C  0.44500 43.23100 21.95100
C  1.05600 43.79100 20.60600
C  2.47300 44.16000 21.08800
C  2.48600 43.76600 22.52200
C  0.96000 42.70800 19.48900
C  2.88900 45.66500 20.82600
C  4.37200 45.94100 20.47200
N  2.77400 43.23900 25.48500
C  3.85400 43.49700 24.64600
C  5.08300 43.43200 25.43200
C  4.63400 43.06800 26.74800
C  3.22000 42.98700 26.68800
C  6.47300 43.76000 25.05000
C  5.07200 42.79600 28.08600
O  6.24500 42.75200 28.53200
C  3.72600 42.76400 28.89000
C  3.87200 41.50700 29.68500
O  3.60900 40.36400 29.28300
O  4.23800 41.85800 30.95400
C  4.41700 40.68500 31.83600
H  -2.87100 41.69300 27.17200
H  -1.28000 43.00000 20.96100
H  4.57400 43.94000 22.64600
H  1.01200 41.80000 29.93500
H  -1.60800 42.90600 29.38600
H  -2.03100 40.96300 30.37700
H  -0.42600 40.30500 29.92300
H  -1.86300 40.10400 28.82200
H  -0.31300 44.53100 30.25600
H  1.44900 44.43500 29.95400
H  0.61500 44.29900 32.53800
H  2.03900 43.45700 31.89400
H  -5.55600 41.66000 25.01100
H  -4.47900 40.93600 26.04600
H  -4.72400 40.14800 24.50200
H  -5.43200 40.75000 22.02500
H  -6.02200 42.18700 21.12900
H  -5.93400 42.24600 22.89900
H  0.63100 44.75400 20.32300
H  3.22500 43.51400 20.63500
H  1.90000 42.18500 19.31200
H  0.78800 43.22200 18.54300
H  0.22800 41.93100 19.70600
H  2.72400 46.10600 21.80900
H  2.24800 46.08800 20.05100
H  4.83300 46.46900 21.30700
H  4.50300 46.53200 19.56500
H  4.88200 44.98600 20.34100
H  6.52200 44.27700 24.09200
H  7.12300 42.88600 25.07300
H  6.80700 44.43000 25.84300
H  3.64200 43.59600 29.58900
H  3.65200 39.90900 31.83700
H  4.42400 41.07800 32.85300
H  5.32600 40.09700 31.71000

