158

Mg 47.62400 35.59100 27.97100
C  46.33700 33.62200 30.47300
C  48.09700 38.10800 30.31800
C  49.21200 37.28900 25.60800
C  47.37800 32.87500 25.76700
N  47.21300 35.87300 30.15500
C  46.92900 34.83000 31.00800
C  47.35000 35.12300 32.41900
C  47.54300 36.73000 32.40600
C  47.55900 36.96800 30.88000
C  46.35700 37.48500 33.20000
C  48.55600 34.21600 32.87500
C  49.17500 34.47200 34.27400
H  48.28000 35.29500 35.28300
N  48.35400 37.54600 27.90300
C  48.39600 38.42600 28.94800
C  49.05500 39.68900 28.47600
C  49.44000 39.49300 27.12900
C  48.96000 38.02900 26.79600
C  49.28800 40.78500 29.46400
C  50.13800 40.34900 26.16300
O  50.58300 39.95600 25.08200
C  50.50300 41.76500 26.53800
N  48.09100 35.15600 25.87800
C  48.75600 36.03500 25.13800
C  49.23300 35.42000 23.84000
C  48.55400 34.00700 23.86300
C  47.92300 33.99300 25.19900
C  48.89100 36.27800 22.53400
C  49.55300 32.90000 23.54000
C  50.06600 32.90600 22.09700
N  46.86100 33.66700 27.95900
C  46.88000 32.67100 27.04400
C  46.22700 31.53200 27.61700
C  46.01900 31.89500 28.95800
C  46.35300 33.22200 29.09800
C  46.07500 30.08500 27.02600
C  45.40900 31.33400 30.18800
O  44.95400 30.25300 30.46500
C  45.49400 32.46400 31.13600
C  45.82600 32.06300 32.51400
O  46.70100 31.36700 32.89700
O  44.82400 32.66100 33.27600
C  44.66900 32.36500 34.67600
H  48.40300 38.89800 31.00800
H  49.78100 37.83900 24.85500
H  47.35700 31.95600 25.17700
H  46.44100 34.93000 32.98800
H  48.55800 36.99500 32.70300
H  46.73900 38.27200 33.85000
H  45.77200 36.90000 33.91000
H  45.67300 37.93900 32.48300
H  49.33400 34.49400 32.16400
H  48.40700 33.17300 32.59600
H  50.03900 35.09700 34.05000
H  49.46100 33.45300 34.53300
H  49.31200 41.79200 29.04800
H  50.19700 40.63100 30.04600
H  48.39100 40.78100 30.08200
H  49.64400 42.23100 27.02200
H  50.86900 42.23500 25.62600
H  51.26300 41.67100 27.31400
H  50.30400 35.22400 23.80300
H  47.75700 34.07700 23.12300
H  48.51200 37.26000 22.81500
H  48.04700 35.76200 22.07700
H  49.67500 36.39400 21.78500
H  49.14200 31.89600 23.64900
H  50.33300 32.82000 24.29700
H  49.95900 31.89500 21.70500
H  51.11100 33.20600 22.16600
H  49.61000 33.64500 21.43900
H  46.29100 29.93500 25.96800
H  45.09800 29.72400 27.34900
H  46.75700 29.41700 27.55300
H  44.49500 32.89300 31.22000
H  43.63100 32.03100 34.67200
H  44.75200 33.34000 35.15600
H  45.47000 31.74600 35.07900
Mg -5.81300 25.10500 25.31200
C  -4.14500 26.37900 28.24800
C  -7.61700 23.23100 27.16600
C  -6.77400 23.78700 22.48700
C  -3.29600 26.93400 23.52900
N  -5.79900 24.78100 27.49700
C  -5.19300 25.49100 28.51700
C  -5.71800 25.08500 29.86900
C  -6.72900 23.91100 29.55300
C  -6.74700 23.92700 28.00600
C  -6.37700 22.46400 30.10500
C  -6.52300 26.26600 30.45900
C  -7.14900 26.01700 31.86700
H  -6.60500 24.82100 32.67200
N  -7.07800 23.73600 24.87900
C  -7.86000 23.10500 25.82300
C  -8.79500 22.23600 25.13700
C  -8.61800 22.49200 23.79200
C  -7.41700 23.32600 23.67800
C  -9.77500 21.36000 25.80700
C  -9.36800 21.96500 22.63300
O  -9.08300 22.24700 21.46100
C  -10.43900 21.00700 22.83500
N  -4.86100 25.05400 23.30700
C  -5.58900 24.51000 22.33100
C  -4.88800 24.68800 20.93100
C  -3.91600 25.92900 21.24800
C  -4.00500 25.93800 22.77800
C  -4.18100 23.36800 20.45000
C  -4.31500 27.30800 20.53300
C  -3.12800 27.95600 19.77200
N  -4.15100 26.47400 25.77600
C  -3.28500 27.17600 24.89500
C  -2.44200 28.02200 25.62100
C  -2.68900 27.66400 26.95800
C  -3.67000 26.72700 26.98100
C  -1.63600 29.19700 25.15600
C  -2.33600 28.04300 28.34300
O  -1.50600 28.76100 28.90800
C  -3.27800 27.15700 29.23000
C  -2.64700 26.31700 30.27800
O  -1.91100 25.35600 30.17100
O  -3.06400 26.79600 31.50400
C  -2.69400 26.04400 32.73300
H  -8.28900 22.67100 27.81900
H  -7.03900 23.30900 21.54200
H  -2.68400 27.44700 22.78400
H  -4.95300 24.77700 30.58300
H  -7.72500 24.17800 29.90700
H  -7.29800 22.06000 30.52600
H  -5.60300 22.50200 30.87200
H  -6.14400 21.79000 29.28100
H  -7.43700 26.32800 29.86900
H  -5.90300 27.16000 30.39200
H  -8.23500 25.96600 31.78500
H  -6.85900 26.90400 32.42900
H  -10.76000 21.78700 25.62200
H  -9.52500 21.29200 26.86600
H  -9.72300 20.35200 25.39600
H  -10.74700 20.71900 21.83000
H  -11.32500 21.40300 23.33200
H  -10.19700 20.07500 23.34600
H  -5.69200 24.91400 20.23100
H  -2.94800 25.61500 20.85900
H  -4.23900 22.65500 21.27200
H  -3.15000 23.53900 20.13700
H  -4.82700 23.04200 19.63400
H  -4.80900 28.07600 21.12800
H  -5.18000 27.00900 19.94100
H  -2.91200 27.38400 18.87000
H  -2.27100 28.15900 20.41500
H  -3.52500 28.93100 19.49200
H  -2.22900 29.84200 24.50800
H  -0.89200 28.85200 24.43800
H  -1.24800 29.77000 25.99900
H  -3.82400 27.92900 29.77400
H  -2.80400 24.96200 32.66500
H  -3.29600 26.48400 33.52700
H  -1.62500 26.12600 32.92800

