158

Mg 44.17300 4.85600 48.25800
C  42.38300 7.88100 48.14400
C  41.19600 3.15000 48.07400
C  45.94500 2.06300 47.93200
C  47.13300 6.73900 47.69400
N  42.09300 5.45200 47.86700
C  41.55500 6.72400 47.91600
C  40.04500 6.77800 47.72900
C  39.71400 5.29900 48.02400
C  41.10300 4.54100 47.96900
C  38.94700 5.11800 49.27100
C  39.60200 7.44900 46.44300
C  40.46000 7.35000 45.12300
H  39.74400 6.73600 43.90900
N  43.64600 2.86700 47.95200
C  42.40800 2.40600 47.99000
C  42.46000 0.95200 47.92800
C  43.80300 0.60800 47.89000
C  44.55000 1.88000 47.93900
C  41.27200 0.09600 47.61100
C  44.31900 -0.82900 47.69500
O  43.50600 -1.76800 47.57700
C  45.67000 -1.14700 47.46300
N  46.25300 4.47500 47.62700
C  46.72300 3.22500 47.85900
C  48.29200 3.19600 47.82000
C  48.62400 4.75500 47.72200
C  47.27800 5.33400 47.61100
C  48.96700 2.38200 48.93100
C  49.70700 5.24300 46.75000
C  50.87800 5.91100 47.47900
N  44.69300 6.90500 48.15700
C  45.94100 7.46600 47.93200
C  45.84600 8.88800 47.89000
C  44.41200 9.15100 48.01600
C  43.80600 7.90300 48.10000
C  46.98400 10.00300 47.65100
C  43.34400 10.16900 48.06200
O  43.38900 11.42100 48.12900
C  41.98900 9.35000 48.12900
C  41.25700 9.74800 49.39200
O  41.07700 9.05200 50.39400
O  40.58100 10.93600 49.14900
C  39.72800 11.45000 50.21400
H  40.25600 2.65800 48.33100
H  46.58000 1.17500 47.94400
H  48.04800 7.33400 47.72900
H  39.67400 7.35800 48.57400
H  39.08700 4.89200 47.23100
H  38.40800 6.04600 49.46200
H  39.56500 4.76700 50.09700
H  38.16900 4.38300 49.06500
H  39.33900 8.50300 46.53200
H  38.61900 6.98400 46.36100
H  41.36700 6.74600 45.11300
H  40.84400 8.33600 44.86400
H  41.27700 -0.36100 46.62200
H  40.33300 0.62200 47.78200
H  41.32100 -0.70200 48.35200
H  46.32800 -1.21700 48.32900
H  46.11000 -0.37300 46.83500
H  45.62600 -2.09300 46.92300
H  48.47100 2.72100 46.85500
H  48.98200 4.84900 48.74700
H  49.48500 1.52200 48.50700
H  48.28800 2.21000 49.76600
H  49.88100 2.82600 49.32600
H  49.39700 6.01800 46.04800
H  50.00100 4.28400 46.32600
H  50.44900 6.41800 48.34400
H  51.29200 6.60300 46.74700
H  51.63400 5.15200 47.68000
H  47.96800 9.63800 47.94400
H  46.70400 10.76700 48.37700
H  47.02500 10.42700 46.64800
H  41.33400 9.54400 47.28000
H  38.93000 11.92900 49.64800
H  40.27300 12.28300 50.65700
H  39.26300 10.69300 50.84600
Mg -6.30400 25.22700 25.71300
C  -4.77000 26.46600 28.62000
C  -7.87000 22.78600 27.74100
C  -7.16800 23.50800 22.96400
C  -4.11300 27.19200 23.80600
N  -6.41800 24.81000 27.93600
C  -5.68700 25.48600 28.92000
C  -5.96600 24.91100 30.33300
C  -6.71300 23.50400 29.97200
C  -7.09900 23.74100 28.45200
C  -5.76800 22.31900 30.30300
C  -6.72200 25.94400 31.19200
C  -6.47200 26.12900 32.67900
H  -5.71700 24.99000 33.37500
N  -7.68800 23.55600 25.37900
C  -8.20600 22.69000 26.35500
C  -9.02900 21.72500 25.72000
C  -8.78600 21.91800 24.28600
C  -7.85700 23.02600 24.13900
C  -9.85600 20.69700 26.41400
C  -9.36100 21.05400 23.11400
O  -8.93300 21.28000 21.98300
C  -10.39600 19.96300 23.34000
N  -5.79800 25.47400 23.65100
C  -6.20200 24.48800 22.75100
C  -5.63200 24.70700 21.38200
C  -4.70600 25.96600 21.65200
C  -4.98600 26.34600 23.10700
C  -4.97000 23.46200 20.79900
C  -4.90800 27.17000 20.68500
C  -3.57900 27.88300 20.15800
N  -4.66200 26.57900 26.10500
C  -3.89700 27.29300 25.19100
C  -2.98600 28.17000 25.99800
C  -3.31900 27.88000 27.35400
C  -4.32600 26.92800 27.36300
C  -1.92000 28.99200 25.41400
C  -3.00000 28.11500 28.77900
O  -2.12800 28.76500 29.28000
C  -3.89700 27.23800 29.60200
C  -2.95600 26.41000 30.44200
O  -2.38400 25.41300 29.98100
O  -2.78400 26.95800 31.61300
C  -2.05000 26.15700 32.63300
H  -8.24800 21.93400 28.31000
H  -7.44300 22.97100 22.05400
H  -3.54600 27.89200 23.18800
H  -5.06400 24.64200 30.88200
H  -7.58200 23.34900 30.61100
H  -5.54400 21.79600 29.37400
H  -6.34600 21.56400 30.83600
H  -4.86000 22.63400 30.81600
H  -7.76400 25.66500 31.04000
H  -6.71900 26.91200 30.69100
H  -7.45200 26.21400 33.14900
H  -5.80600 26.97500 32.84600
H  -9.27600 19.79700 26.61700
H  -10.74800 20.45800 25.83600
H  -10.26000 21.22100 27.28000
H  -10.74400 19.58900 22.37700
H  -11.17400 20.45200 23.92600
H  -9.86300 19.16800 23.86100
H  -6.37400 25.02800 20.65200
H  -3.66700 25.69800 21.46200
H  -3.90400 23.66100 20.69200
H  -5.41900 23.10800 19.87100
H  -5.12500 22.68200 21.54500
H  -5.53400 27.93200 21.15000
H  -5.42500 26.84200 19.78300
H  -3.62100 28.90300 20.54000
H  -3.58200 27.75400 19.07600
H  -2.71600 27.33200 20.53100
H  -2.25700 30.02700 25.34700
H  -1.72500 28.70600 24.38000
H  -0.98500 28.98300 25.97400
H  -4.50900 27.86900 30.24700
H  -0.98900 26.39500 32.70200
H  -2.17200 25.07800 32.54600
H  -2.42500 26.43400 33.61900

