158

Mg 1.69800 7.46500 26.62900
C  2.27700 9.74700 29.39600
C  1.84900 4.93100 28.95600
C  1.26200 5.30100 24.13000
C  1.98100 10.14200 24.40300
N  2.19800 7.35300 28.96200
C  2.28700 8.42800 29.91400
C  2.05000 7.91500 31.32600
C  2.01100 6.39900 31.12900
C  2.04200 6.18700 29.59100
C  3.12200 5.56900 31.88700
C  0.80600 8.58600 31.95200
C  1.02400 9.07800 33.34700
H  2.00300 8.35600 34.26800
N  1.53600 5.44300 26.52500
C  1.65600 4.56000 27.58900
C  1.33300 3.22900 27.10300
C  1.05600 3.29800 25.71400
C  1.34500 4.73300 25.36700
C  1.33400 2.07200 28.00000
C  0.60100 2.33200 24.69200
O  0.51800 2.54900 23.52700
C  0.40500 0.90600 25.26400
N  1.90700 7.64500 24.52900
C  1.46800 6.62700 23.69900
C  1.41200 7.08400 22.22400
C  1.55400 8.63600 22.37800
C  1.85600 8.85700 23.86900
C  2.55000 6.36200 21.46900
C  0.30300 9.52200 21.97900
C  0.64600 10.80500 21.27300
N  2.07300 9.53600 26.80800
C  2.14100 10.46800 25.85000
C  2.17200 11.84900 26.47100
C  2.29800 11.57400 27.78400
C  2.25200 10.15600 27.98000
C  2.17300 13.14700 25.75200
C  2.49000 12.14000 29.12000
O  2.60600 13.29800 29.45400
C  2.36800 11.00600 30.11300
C  3.52100 11.14200 31.07700
O  4.64800 10.81600 30.77000
O  3.10900 11.72400 32.20900
C  4.20100 12.13600 33.12600
H  1.85700 4.16700 29.73500
H  0.99900 4.75000 23.22500
H  1.91100 10.99700 23.72800
H  2.97600 8.26100 31.78500
H  1.01200 6.01300 31.33000
H  3.79500 5.06800 31.19100
H  2.64400 4.72100 32.37600
H  3.64500 6.17000 32.63100
H  0.05700 7.81100 32.11900
H  0.27500 9.32300 31.35000
H  0.00900 9.11900 33.74400
H  1.39000 10.10400 33.37600
H  0.32800 1.68700 28.16700
H  1.81700 2.19800 28.96900
H  1.98900 1.29100 27.61500
H  1.36800 0.45300 25.49900
H  -0.16100 0.39800 24.48200
H  -0.21800 1.04100 26.14800
H  0.49200 6.67900 21.80000
H  2.37100 8.97500 21.74000
H  2.26700 5.99300 20.48300
H  2.88100 5.47400 22.00800
H  3.33100 7.12200 21.44100
H  -0.24900 9.69300 22.90300
H  -0.43500 8.94700 21.42000
H  0.26200 11.65400 21.83800
H  0.29600 10.85100 20.24100
H  1.72500 10.91700 21.16800
H  2.70400 13.02200 24.80800
H  2.71500 13.95000 26.25000
H  1.12600 13.40800 25.59800
H  1.48600 11.20200 30.72400
H  3.78100 12.56700 34.03500
H  5.00300 12.72400 32.67900
H  4.61800 11.20600 33.51200
Mg -5.59600 25.29900 26.92800
C  -3.85200 27.10000 29.29600
C  -6.74500 23.21400 29.29800
C  -6.46700 23.06500 24.42700
C  -3.88200 27.03100 24.48300
N  -5.21900 25.06000 29.07400
C  -4.56000 25.98100 29.85600
C  -4.84100 25.73800 31.34600
C  -5.46400 24.29400 31.33000
C  -5.86200 24.18200 29.79500
C  -4.53500 23.19100 31.94400
C  -5.64600 26.83300 31.99400
C  -5.15700 27.24700 33.42800
H  -6.01100 26.84800 34.67900
N  -6.66000 23.45600 26.84000
C  -7.12800 22.78700 27.96600
C  -7.78000 21.61500 27.58200
C  -7.63400 21.52100 26.15300
C  -6.88700 22.72800 25.74700
C  -8.50500 20.69000 28.47800
C  -8.17800 20.40400 25.28500
O  -8.04900 20.38100 24.06800
C  -8.98900 19.22500 25.80900
N  -5.22000 25.04900 24.83900
C  -5.72500 24.08900 24.04000
C  -5.24900 24.25400 22.51800
C  -4.62100 25.60900 22.59100
C  -4.59000 25.95300 24.08200
C  -4.32800 23.12500 22.03900
C  -5.38200 26.78700 21.72500
C  -4.98400 26.94200 20.25000
N  -4.37100 26.96400 26.80600
C  -3.76100 27.58100 25.79000
C  -3.02300 28.77000 26.20500
C  -3.00400 28.61900 27.61800
C  -3.80500 27.45300 27.94800
C  -2.32800 29.75600 25.28500
C  -2.52000 29.19000 28.84100
O  -1.87500 30.20300 29.10100
C  -3.05500 28.21500 29.96500
C  -1.93100 27.82300 30.83000
O  -1.29600 26.77200 30.67500
O  -1.91200 28.61300 31.97300
C  -0.90300 28.12500 32.97000
H  -7.09300 22.52400 30.07000
H  -6.82600 22.35500 23.67800
H  -3.41500 27.62400 23.69400
H  -3.91900 25.62000 31.91400
H  -6.32000 24.33800 32.00400
H  -3.46800 23.40000 31.87500
H  -4.76200 22.31600 31.33400
H  -4.82200 22.95300 32.96800
H  -6.67500 26.53300 32.19000
H  -5.70500 27.66400 31.29200
H  -4.94500 28.31200 33.32800
H  -4.12400 26.93400 33.58700
H  -8.69200 21.25800 29.38900
H  -7.92900 19.80000 28.73200
H  -9.47500 20.53700 28.00500
H  -9.95600 19.58500 26.16100
H  -8.43700 18.55700 26.47000
H  -9.37200 18.61700 24.99000
H  -6.13600 24.40200 21.90300
H  -3.62600 25.58300 22.14700
H  -4.21700 22.39300 22.83900
H  -3.29900 23.40600 21.81300
H  -4.78900 22.70300 21.14600
H  -5.43800 27.80400 22.11300
H  -6.42900 26.49300 21.78800
H  -4.24800 27.73900 20.14000
H  -5.88800 27.07600 19.65500
H  -4.51700 26.04300 19.84800
H  -2.61000 29.67300 24.23500
H  -1.26200 29.90500 25.45700
H  -2.76200 30.71000 25.58400
H  -3.71200 28.65400 30.71600
H  -1.28000 27.21200 33.43100
H  -0.77800 28.90200 33.72300
H  0.06100 27.93300 32.49800

