158

Mg 7.86600 2.06400 28.25300
C  9.34400 0.66800 31.06000
C  5.64100 3.80100 30.29600
C  6.45000 3.37600 25.54700
C  9.56500 -0.23600 26.30800
N  7.67200 2.27200 30.40900
C  8.34200 1.58800 31.37800
C  8.14700 2.27500 32.75800
C  6.81400 3.05100 32.53900
C  6.69900 3.09700 30.99600
C  5.54100 2.35200 33.16500
C  9.38900 3.10700 33.26100
C  9.91000 2.90500 34.69300
H  9.09400 2.20400 35.75400
N  6.33900 3.46200 27.95600
C  5.53900 4.02800 28.95100
C  4.50100 4.86100 28.30000
C  4.75100 4.80700 26.88900
C  5.87300 3.87500 26.76600
C  3.40800 5.59600 29.04700
C  4.00200 5.50000 25.80700
O  4.13300 5.24600 24.59100
C  2.91100 6.54000 26.16900
N  7.84400 1.54600 26.19800
C  7.36400 2.36700 25.31100
C  7.88800 2.03600 23.87800
C  8.87100 0.87000 24.16800
C  8.72600 0.66600 25.66100
C  6.65800 1.75400 22.95000
C  10.31300 0.99100 23.62500
C  11.42000 1.70500 24.48900
N  9.16900 0.43400 28.55500
C  9.81900 -0.34000 27.65300
C  10.77700 -1.14600 28.41300
C  10.65100 -0.77000 29.76600
C  9.63900 0.22000 29.80000
C  11.66300 -2.17400 27.83100
C  11.22700 -0.93100 31.09100
O  12.10200 -1.63300 31.50900
C  10.41900 -0.01900 31.98200
C  9.89600 -0.93500 33.05800
O  9.17400 -1.87500 32.82400
O  10.50500 -0.62300 34.23000
C  10.36400 -1.70600 35.17600
H  4.92800 4.27000 30.97800
H  5.98600 3.89100 24.70300
H  10.16100 -0.91700 25.69800
H  7.89900 1.39200 33.34800
H  6.96400 4.02000 33.01500
H  5.23700 2.95300 34.02200
H  5.75000 1.33700 33.50300
H  4.65200 2.28900 32.53700
H  9.23600 4.18400 33.19700
H  10.22200 3.03800 32.56100
H  10.02600 3.88700 35.15300
H  10.91200 2.48000 34.74300
H  3.48500 6.66600 29.23900
H  3.34400 5.10700 30.01800
H  2.43200 5.35100 28.62700
H  2.09300 6.17900 26.79200
H  2.46000 6.74000 25.19700
H  3.19800 7.54300 26.48600
H  8.45400 2.94400 23.67100
H  8.35200 -0.05900 23.93300
H  6.65000 2.57500 22.23400
H  5.67600 1.77500 23.42200
H  6.73300 0.80200 22.42400
H  10.22600 1.54500 22.69100
H  10.79400 0.05000 23.35700
H  11.12000 2.06400 25.47300
H  11.80100 2.50700 23.85600
H  12.25400 1.00800 24.57400
H  11.84200 -2.95300 28.57200
H  12.58300 -1.62400 27.63000
H  11.21700 -2.56900 26.91800
H  11.14400 0.75000 32.24600
H  9.73600 -2.52600 34.82800
H  9.94100 -1.38000 36.12600
H  11.31000 -2.06000 35.58700
Mg 27.51400 51.20000 25.78600
C  25.72500 52.30900 28.69100
C  30.15900 50.25500 27.80800
C  29.01000 50.04300 23.09700
C  25.05100 52.73900 23.70900
N  27.86400 51.30900 28.02700
C  26.92800 51.67700 28.97300
C  27.64000 51.61200 30.43300
C  29.04100 50.97800 30.14000
C  29.00300 50.87200 28.52100
C  30.27900 51.80800 30.57000
C  26.82000 50.91300 31.53300
C  26.80500 51.48800 32.98000
H  25.74300 50.92100 33.97900
N  29.30400 50.21100 25.56700
C  30.29800 49.87300 26.48800
C  31.38500 49.11300 25.75700
C  30.99000 49.04300 24.41200
C  29.74100 49.74400 24.29000
C  32.58800 48.52200 26.56400
C  31.72500 48.26200 23.27800
O  31.25100 48.18400 22.16000
C  33.15700 47.76400 23.53900
N  27.10800 51.38800 23.71000
C  27.85700 50.78100 22.82100
C  27.09700 50.68900 21.49100
C  25.68300 51.26500 21.80800
C  25.97900 51.91900 23.12200
C  27.88000 51.43300 20.32400
C  24.58400 50.23400 21.99700
C  23.40400 50.25400 21.01800
N  25.79200 52.33300 26.06900
C  24.95600 52.88700 25.11100
C  23.98100 53.63700 25.85600
C  24.18500 53.36500 27.26500
C  25.30900 52.57800 27.35000
C  22.90200 54.48300 25.32400
C  23.66000 53.61300 28.54300
O  22.64800 54.26000 28.86400
C  24.64800 52.97800 29.52400
C  25.01100 53.98300 30.52200
O  25.99300 54.73900 30.40900
O  24.19100 53.84600 31.59600
C  24.50700 54.74700 32.72200
H  30.98300 49.92000 28.44100
H  29.50800 49.67200 22.19900
H  24.34600 53.20000 23.01300
H  27.75600 52.65400 30.72900
H  29.23500 49.98400 30.54300
H  30.00800 52.42800 31.42500
H  30.85900 52.38100 29.84700
H  30.93700 51.10200 31.07700
H  27.23000 49.91500 31.68600
H  25.85300 50.59500 31.14500
H  26.83900 52.57700 32.95100
H  27.78200 51.22000 33.38200
H  32.53900 48.52800 27.65300
H  33.56400 48.96000 26.35600
H  32.55800 47.47600 26.25600
H  32.91000 46.88300 24.13100
H  33.75800 48.50200 24.07100
H  33.65700 47.48800 22.61100
H  26.92400 49.61600 21.40700
H  25.41800 52.09100 21.14900
H  28.96100 51.53100 20.41900
H  27.47100 52.43100 20.16400
H  27.67500 50.84200 19.43100
H  24.16600 50.30100 23.00100
H  25.03300 49.24700 21.89400
H  23.75100 49.77400 20.10300
H  22.98200 51.24700 20.85700
H  22.69400 49.46100 21.25200
H  23.40100 55.21500 24.68800
H  22.44400 54.97900 26.17900
H  22.11600 53.88100 24.86700
H  24.11100 52.21100 30.08200
H  23.57100 54.72400 33.27900
H  24.83900 55.69700 32.30100
H  25.35800 54.22100 33.15500

