158

Mg 7.94200 2.40900 27.38700
C  9.58000 1.16100 30.04700
C  6.14800 4.50200 29.46300
C  6.15700 3.46900 24.72000
C  9.38700 -0.11200 25.29100
N  7.75600 2.64500 29.53600
C  8.65300 2.15400 30.41300
C  8.36500 2.63600 31.80600
C  7.15800 3.60800 31.56600
C  7.02500 3.62100 30.04200
C  5.81400 3.13100 32.25000
C  9.60800 3.29000 32.53400
C  9.30500 4.22500 33.68100
H  10.29000 4.20600 34.93700
N  6.46200 3.90800 27.08600
C  5.87600 4.67000 28.06200
C  4.87900 5.63100 27.50900
C  4.84600 5.30600 26.07100
C  5.91400 4.23500 25.92500
C  4.17900 6.66700 28.37500
C  4.04400 5.95700 24.97200
O  4.33200 5.86200 23.80800
C  2.91900 6.79600 25.33700
N  7.92500 1.87900 25.28100
C  7.00800 2.42600 24.43400
C  7.16800 1.80000 23.05600
C  8.24600 0.70600 23.21000
C  8.54000 0.77100 24.71800
C  5.84900 1.41700 22.29500
C  9.59700 0.95000 22.44800
C  10.15500 -0.29000 21.67700
N  9.18000 0.75300 27.60200
C  9.77300 -0.13000 26.72400
C  10.76200 -0.90200 27.38500
C  10.71000 -0.39200 28.70300
C  9.77300 0.58700 28.76200
C  11.63900 -1.92500 26.78400
C  11.32200 -0.47000 30.00600
O  12.26300 -1.18500 30.28600
C  10.53200 0.47500 30.96500
C  9.74800 -0.35100 31.90500
O  8.90200 -1.13700 31.61400
O  10.21600 -0.24300 33.19200
C  9.62000 -0.94700 34.31100
H  5.71400 5.22400 30.15800
H  5.55000 3.80000 23.87500
H  9.77100 -0.89100 24.62900
H  7.96800 1.79500 32.37300
H  7.40000 4.63500 31.83800
H  5.22200 2.50600 31.58200
H  5.21400 3.98000 32.57900
H  5.95000 2.51300 33.13700
H  10.12300 3.88000 31.77700
H  10.23500 2.52000 32.98500
H  8.33100 3.96000 34.09200
H  9.20500 5.23800 33.29100
H  3.13400 6.36400 28.42700
H  4.10900 7.60700 27.82700
H  4.55500 6.79700 29.39000
H  2.19700 6.85600 24.52300
H  3.34900 7.76700 25.58100
H  2.42700 6.35000 26.20200
H  7.58400 2.61800 22.46900
H  7.84500 -0.27100 22.94200
H  5.91300 0.33800 22.15200
H  5.82000 1.87600 21.30700
H  4.91700 1.72200 22.77000
H  10.43100 1.31600 23.04700
H  9.38100 1.71700 21.70400
H  9.81000 -0.18200 20.64900
H  9.87400 -1.29300 21.99900
H  11.21900 -0.10500 21.82300
H  11.51800 -2.76500 27.46800
H  12.67600 -1.61000 26.89700
H  11.29300 -2.26100 25.80700
H  11.19100 1.18600 31.46300
H  8.65400 -1.42700 34.15500
H  9.36400 -0.38200 35.20700
H  10.31600 -1.69300 34.69800
Mg -11.64800 16.28000 41.60800
C  -8.82600 14.25700 41.13700
C  -9.83800 18.96700 40.40400
C  -14.56100 18.02300 41.22700
C  -13.52900 13.48700 42.53400
N  -9.61700 16.54400 40.68500
C  -8.60200 15.58900 40.67300
C  -7.28900 16.25400 40.15600
C  -7.57800 17.75300 40.35100
C  -9.15400 17.77800 40.33500
C  -7.01700 18.30200 41.69300
C  -7.07800 15.80900 38.70400
C  -5.65000 15.43300 38.20600
H  -5.08300 16.17200 36.98100
N  -12.15700 18.22800 40.94000
C  -11.25300 19.17700 40.60600
C  -11.96600 20.43700 40.49400
C  -13.32600 20.19600 40.67000
C  -13.41200 18.76900 40.97200
C  -11.27100 21.67800 40.03200
C  -14.41200 21.28800 40.81500
O  -14.07800 22.41000 40.65800
C  -15.87000 20.99100 41.19900
N  -13.74900 15.73500 41.74700
C  -14.71200 16.67700 41.54900
C  -16.10200 16.08000 41.74600
C  -15.76800 14.85000 42.56700
C  -14.24000 14.63400 42.27800
C  -17.13400 16.95500 42.50400
C  -16.66400 13.68400 41.97800
C  -17.13900 12.73200 43.07600
N  -11.31800 14.27300 41.82000
C  -12.12700 13.26500 42.38600
C  -11.35500 12.13600 42.61800
C  -10.05800 12.48800 42.21900
C  -10.07200 13.72600 41.65400
C  -11.83200 10.88100 43.20300
C  -8.64400 12.07000 42.15400
O  -8.10700 11.09200 42.64200
C  -7.80300 13.15500 41.46500
C  -6.78400 13.71000 42.37700
O  -7.09400 14.20400 43.45100
O  -5.52500 13.71400 41.74300
C  -4.47100 14.33500 42.49600
H  -9.42000 19.92200 40.08100
H  -15.48800 18.56500 41.02900
H  -13.99800 12.60100 42.96800
H  -6.36500 16.02000 40.68500
H  -7.23600 18.35500 39.50900
H  -6.83400 17.46300 42.36400
H  -7.74800 19.00700 42.08800
H  -6.02600 18.72700 41.53200
H  -7.35500 16.61100 38.02100
H  -7.79800 14.99800 38.60300
H  -5.51600 14.35400 38.13100
H  -4.92500 15.57600 39.00700
H  -10.25700 21.58000 39.64200
H  -11.05800 22.28200 40.91400
H  -11.90100 22.24100 39.34400
H  -16.02500 20.29100 42.02000
H  -16.42400 20.70100 40.30600
H  -16.31400 21.93500 41.51600
H  -16.37500 15.94600 40.69900
H  -15.95200 14.87900 43.64200
H  -17.48100 16.50400 43.43400
H  -17.93500 17.05900 41.77200
H  -16.72700 17.93600 42.75000
H  -15.96500 13.11200 41.36700
H  -17.55300 14.14200 41.54700
H  -16.85900 11.68000 43.01800
H  -18.21200 12.57800 42.96300
H  -17.00600 13.15300 44.07200
H  -12.69400 10.42800 42.71300
H  -11.90800 11.15000 44.25700
H  -11.08200 10.11100 43.02100
H  -7.27700 12.81700 40.57200
H  -4.76400 15.12100 43.19200
H  -3.67900 14.79800 41.90700
H  -4.16500 13.40100 42.96800

