158

Mg 47.91100 44.99200 42.43800
C  44.50700 44.25800 42.47700
C  48.55900 41.44500 42.15600
C  51.13000 45.60800 41.61500
C  47.14900 48.37400 42.09300
N  46.68600 43.02200 42.52400
C  45.26700 43.04100 42.29000
C  44.68800 41.63000 42.06400
C  46.01400 40.77300 42.10600
C  47.14300 41.78400 42.21500
C  46.01200 39.64300 43.22100
C  43.87400 41.43800 40.78300
C  44.29300 42.10200 39.43200
H  44.21400 41.36400 38.09900
N  49.62100 43.72900 42.11400
C  49.65800 42.37700 42.01100
C  50.98400 41.91000 41.79800
C  51.73600 43.10600 41.46100
C  50.84600 44.24700 41.79900
C  51.45600 40.42000 41.64100
C  53.19200 43.16800 40.85900
O  53.89200 42.13600 40.80300
C  53.76800 44.44600 40.49100
N  48.97200 46.64200 41.86300
C  50.25400 46.71300 41.54200
C  50.83800 48.11400 41.46900
C  49.56700 48.96400 41.64900
C  48.46700 47.96800 41.95100
C  51.94600 48.42500 42.53300
C  49.34300 49.79400 40.36400
C  48.94100 51.31600 40.59500
N  46.16200 46.22800 42.51800
C  46.03600 47.55100 42.30100
C  44.56000 47.83200 42.10900
C  43.92600 46.58600 42.25300
C  44.96200 45.66200 42.49100
C  43.92700 49.16200 41.81600
C  42.64600 45.87700 42.14100
O  41.51900 46.19400 41.91800
C  43.03000 44.41600 42.22500
C  42.25200 43.92400 43.39900
O  41.23500 43.24100 43.27200
O  42.73700 44.44200 44.59600
C  41.88800 44.36500 45.77400
H  48.75300 40.37900 42.01600
H  52.14700 45.96300 41.43500
H  46.81700 49.41000 41.99200
H  43.99800 41.32200 42.85000
H  46.10000 40.22100 41.17000
H  46.04400 38.66100 42.75000
H  45.13300 39.80700 43.84600
H  46.92600 39.68100 43.81400
H  42.82300 41.60300 41.02200
H  43.85200 40.37400 40.54600
H  45.34200 42.33100 39.61900
H  43.83800 43.08800 39.34100
H  51.60900 40.18700 40.58800
H  50.78000 39.63400 41.98000
H  52.40300 40.24700 42.15200
H  53.03000 44.91100 39.83800
H  54.67900 44.30600 39.90800
H  54.06400 44.87400 41.44900
H  51.31900 48.17800 40.49300
H  49.70600 49.70500 42.43700
H  52.35000 47.50700 42.95900
H  51.51600 48.98900 43.36100
H  52.69600 49.01500 42.00600
H  48.46200 49.37800 39.87500
H  50.15900 49.73400 39.64400
H  48.06600 51.63000 40.02600
H  49.76700 51.94500 40.26400
H  49.03400 51.61500 41.63900
H  42.94000 49.07900 41.36200
H  44.57100 49.68300 41.10700
H  43.84900 49.77500 42.71400
H  42.73900 44.03500 41.24700
H  41.44300 43.37000 45.79400
H  41.13000 45.12100 45.57100
H  42.41300 44.55500 46.71000
Mg -10.16600 39.59700 42.62300
C  -9.33100 36.31300 41.76900
C  -7.39400 40.69200 40.86300
C  -11.39700 42.72800 42.41800
C  -13.22300 38.48800 43.74500
N  -8.49300 38.62500 41.48300
C  -8.45200 37.24200 41.26300
C  -7.26900 36.93200 40.36200
C  -6.50800 38.36900 40.21500
C  -7.52600 39.34600 40.88500
C  -5.06300 38.43500 40.78700
C  -7.78200 36.38200 38.96400
C  -6.86400 35.27400 38.37200
H  -5.71500 35.66300 37.36500
N  -9.39900 41.50200 41.88800
C  -8.26400 41.74900 41.19700
C  -8.07900 43.16300 41.02700
C  -9.24600 43.74400 41.49400
C  -10.05300 42.66000 42.01300
C  -6.81300 43.83200 40.37000
C  -9.50400 45.21300 41.42800
O  -8.61000 45.91200 41.02000
C  -10.76400 45.88200 41.87400
N  -12.05900 40.48700 43.03200
C  -12.31200 41.80400 42.97100
C  -13.72900 42.08000 43.34100
C  -14.26500 40.77700 43.92900
C  -13.17100 39.80500 43.43200
C  -13.83100 43.40800 44.28500
C  -15.76900 40.40800 43.40600
C  -16.81000 39.91400 44.42200
N  -11.07100 37.77500 42.92400
C  -12.28900 37.47200 43.37800
C  -12.46300 35.99300 43.40700
C  -11.22800 35.55000 42.79000
C  -10.51900 36.71500 42.45800
C  -13.70700 35.21500 43.80500
C  -10.51400 34.31100 42.51600
O  -10.71800 33.13900 42.76200
C  -9.29900 34.77700 41.58600
C  -8.05700 34.21900 42.11400
O  -7.68300 34.29400 43.30900
O  -7.39900 33.51600 41.06100
C  -6.01600 33.02900 41.36200
H  -6.48600 40.95500 40.31600
H  -11.71600 43.77200 42.39500
H  -14.17500 38.10000 44.11400
H  -6.66600 36.27200 40.98400
H  -6.34000 38.54900 39.15400
H  -4.50600 39.14500 40.17700
H  -4.56600 37.46800 40.70000
H  -5.01100 38.79300 41.81500
H  -7.81000 37.25700 38.31500
H  -8.79600 36.05500 39.19700
H  -7.43800 34.40800 38.04400
H  -6.28500 34.83900 39.18700
H  -7.09800 44.31000 39.43300
H  -6.01100 43.14000 40.11400
H  -6.30300 44.61000 40.93900
H  -10.73000 45.65300 42.93900
H  -11.64300 45.46900 41.37800
H  -10.92500 46.95000 41.72600
H  -14.09300 42.23400 42.32600
H  -14.18800 40.80100 45.01600
H  -14.46600 44.09400 43.72500
H  -12.80800 43.77300 44.38300
H  -14.31900 43.18800 45.23500
H  -15.59700 39.65000 42.64100
H  -16.18700 41.30900 42.95800
H  -16.53800 40.02300 45.47100
H  -17.02900 38.87200 44.18800
H  -17.69100 40.47500 44.10900
H  -14.30800 35.72500 44.55900
H  -13.28300 34.28300 44.18000
H  -14.19500 35.14800 42.83300
H  -9.56000 34.51100 40.56200
H  -5.35200 33.88500 41.24300
H  -5.66900 32.29100 40.63900
H  -5.76000 32.68900 42.36600

