158

Mg 26.13000 51.09500 26.70500
C  23.75500 51.74100 29.25200
C  28.43700 50.42900 29.16800
C  28.44000 50.57100 24.34000
C  23.79800 52.08700 24.31500
N  26.05800 51.23300 28.92000
C  24.99400 51.49500 29.73500
C  25.39100 51.20600 31.18600
C  26.88900 51.00500 31.13700
C  27.18600 50.91500 29.61500
C  27.81000 51.91000 32.01400
C  24.63800 49.97200 31.70800
C  24.13900 50.01700 33.15900
H  24.77800 50.99600 34.23700
N  28.12600 50.48400 26.72600
C  28.92000 50.26200 27.82100
C  30.14900 49.65100 27.43500
C  30.16500 49.66800 26.04900
C  28.86400 50.27900 25.64700
C  31.20000 49.25700 28.46400
C  31.40800 49.30100 25.10500
O  31.34000 49.45900 23.89000
C  32.74600 48.81100 25.67300
N  26.20700 51.61500 24.65100
C  27.25200 51.20100 23.87900
C  26.95700 51.49600 22.36400
C  25.43000 51.88800 22.35200
C  25.08700 51.83300 23.86600
C  27.94500 52.37300 21.61000
C  24.50400 50.92700 21.45900
C  24.15000 49.48400 22.04500
N  24.16800 51.74300 26.74700
C  23.38400 52.09700 25.67200
C  22.05600 52.51700 26.21800
C  22.16800 52.46700 27.58100
C  23.47800 51.91500 27.86300
C  20.88500 53.06100 25.44700
C  21.55100 52.76700 28.83300
O  20.42800 53.24000 29.05300
C  22.51000 52.31700 29.90200
C  22.97500 53.57200 30.68100
O  23.73800 54.46200 30.27400
O  22.23300 53.57000 31.86300
C  22.21200 54.82800 32.68800
H  29.08000 50.20900 30.02400
H  29.06900 50.35600 23.47300
H  23.04700 52.38200 23.58000
H  25.17500 52.09200 31.78200
H  27.12700 50.02300 31.54400
H  27.21700 52.30100 32.84000
H  28.28100 52.64600 31.36200
H  28.67800 51.33400 32.33400
H  25.25500 49.07600 31.63300
H  23.77800 49.75300 31.07600
H  24.22100 49.02200 33.59600
H  23.09300 50.27100 32.98700
H  32.16200 49.65300 28.13900
H  31.30700 48.17200 28.48100
H  30.97200 49.63400 29.46100
H  32.58100 48.10200 26.48500
H  33.13200 49.72400 26.12500
H  33.37200 48.25800 24.97300
H  26.94900 50.55200 21.81900
H  25.39100 52.97300 22.25100
H  28.69700 52.57200 22.37300
H  27.66400 53.30700 21.12400
H  28.45200 51.75200 20.87100
H  25.03800 50.89500 20.50900
H  23.53400 51.39400 21.28800
H  24.59700 48.76400 21.36000
H  23.07200 49.32500 22.08300
H  24.53800 49.35600 23.05500
H  20.99000 54.14000 25.33500
H  20.01600 52.94700 26.09500
H  20.82400 52.62400 24.45100
H  22.02700 51.61900 30.58500
H  23.16700 54.86000 33.21200
H  21.29400 54.92400 33.26700
H  22.27200 55.74600 32.10300
Mg 6.88600 56.54200 42.21200
C  6.03200 53.18000 42.21800
C  9.88400 55.67300 40.72500
C  7.20900 59.75200 41.64800
C  3.52500 57.25400 43.42300
N  7.77000 54.61900 41.30500
C  7.24800 53.35900 41.52900
C  8.09400 52.25500 40.80300
C  9.52900 52.99400 40.83600
C  9.09300 54.47600 41.00200
C  10.62200 52.57500 41.84500
C  7.51500 52.01800 39.40600
C  7.85400 50.54900 38.92300
H  6.91300 49.95600 37.86400
N  8.39700 57.54600 41.39100
C  9.59500 57.03400 40.92100
C  10.47000 58.16200 40.56500
C  9.69000 59.35300 40.72400
C  8.35400 58.93900 41.24600
C  11.88200 57.98200 39.85900
C  10.24800 60.74200 40.55900
O  11.29200 60.91700 39.95000
C  9.57700 61.99800 41.12500
N  5.48400 58.28900 42.39700
C  5.94600 59.49400 42.16900
C  4.82100 60.55200 42.46400
C  3.68400 59.75700 43.12900
C  4.20300 58.35800 42.92700
C  5.30800 61.73100 43.34300
C  2.27500 59.94600 42.50400
C  1.17700 60.53800 43.42500
N  5.11300 55.53200 42.68800
C  3.93300 55.87900 43.30600
C  3.16600 54.73800 43.68100
C  3.94300 53.62300 43.35300
C  5.10000 54.16600 42.74800
C  1.82800 54.66300 44.35400
C  4.09200 52.15400 43.36100
O  3.33200 51.25300 43.73100
C  5.45500 51.87400 42.66400
C  5.25100 50.87700 41.63800
O  4.67900 51.07000 40.56500
O  5.61800 49.71700 42.09300
C  5.27100 48.40500 41.50300
H  10.95600 55.53200 40.56800
H  7.44400 60.81500 41.72400
H  2.55100 57.52500 43.83500
H  8.11100 51.31600 41.35700
H  9.93100 52.71700 39.86100
H  11.50000 52.35600 41.23800
H  10.30400 51.75300 42.48600
H  10.76500 53.47100 42.44900
H  8.00600 52.66300 38.67800
H  6.45700 52.20500 39.21900
H  7.76900 49.94600 39.82700
H  8.85400 50.43600 38.50400
H  11.84800 57.59400 38.84200
H  12.44300 57.21500 40.39300
H  12.52300 58.86400 39.88100
H  9.29600 61.70800 42.13800
H  8.75900 62.31600 40.47800
H  10.24900 62.82900 41.33900
H  4.51100 60.77900 41.44400
H  3.75400 59.89100 44.20900
H  4.70300 61.91600 44.23100
H  5.30000 62.68400 42.81300
H  6.31000 61.46900 43.68200
H  2.03100 58.99600 42.02900
H  2.39400 60.76200 41.79100
H  1.08700 59.89700 44.30200
H  0.23800 60.46000 42.87700
H  1.37500 61.56400 43.73500
H  1.08600 55.36900 43.98100
H  1.96900 54.77000 45.42900
H  1.57300 53.61800 44.17500
H  6.21500 51.55000 43.37500
H  6.15600 48.16500 40.91400
H  4.37700 48.38100 40.88100
H  5.14100 47.64300 42.27100

