158

Mg 47.25400 15.27000 28.15900
C  45.09100 15.15700 30.84700
C  49.49600 17.07800 30.12000
C  49.01100 15.90900 25.34700
C  45.01500 13.40600 26.34800
N  47.19800 16.13400 30.23900
C  46.28300 15.78100 31.25200
C  46.74500 16.31100 32.66100
C  48.10000 17.07700 32.28500
C  48.27400 16.81200 30.79300
C  48.19300 18.64200 32.58100
C  46.90000 15.08900 33.59800
C  46.16900 15.16900 34.96500
H  45.96700 16.65700 35.43600
N  49.00100 16.29900 27.77300
C  49.83000 16.95300 28.72200
C  50.97900 17.27100 28.04600
C  50.85300 17.09400 26.67900
C  49.58800 16.41000 26.51400
C  52.06500 17.92200 28.71700
C  51.76900 17.47900 25.47000
O  51.46000 17.36000 24.29800
C  53.09000 18.10900 25.84800
N  47.13700 14.54500 26.15000
C  47.93100 15.04900 25.18800
C  47.52000 14.61200 23.71900
C  46.29300 13.73800 24.11300
C  46.08700 13.93800 25.61900
C  47.22200 15.79400 22.80100
C  46.30100 12.22100 23.72800
C  47.27600 11.50300 24.61900
N  45.45600 14.56300 28.46600
C  44.66400 13.73600 27.63000
C  43.39900 13.43200 28.22200
C  43.53300 13.99900 29.53500
C  44.85100 14.60700 29.60300
C  42.30400 12.59600 27.77500
C  42.84600 14.11300 30.82400
O  41.79000 13.58900 31.20200
C  43.85800 14.81700 31.76000
C  43.25000 16.08900 32.22600
O  43.41600 17.18100 31.66600
O  42.50000 15.97300 33.39600
C  41.88500 17.24000 33.67900
H  50.24200 17.58400 30.73800
H  49.45700 16.13700 24.37600
H  44.30600 12.78700 25.79400
H  45.96900 16.98400 33.02700
H  48.99100 16.66300 32.75600
H  49.18800 18.77300 33.00500
H  47.42100 18.89400 33.30800
H  48.07400 19.19100 31.64700
H  47.89100 14.93000 34.02300
H  46.51900 14.21800 33.06600
H  46.74800 14.74100 35.78400
H  45.21800 14.63700 34.99300
H  52.23000 18.96100 28.43200
H  53.01500 17.43100 28.50800
H  51.94600 17.97900 29.79900
H  53.64600 18.28800 24.92700
H  53.59600 17.30500 26.38100
H  53.00000 19.05600 26.38100
H  48.36800 14.04400 23.33400
H  45.46100 14.19800 23.58100
H  48.14900 16.11200 22.32300
H  46.85200 16.67500 23.32500
H  46.46200 15.54900 22.06000
H  46.49500 12.19900 22.65600
H  45.34200 11.71200 23.82400
H  48.03600 12.16300 25.03700
H  47.84800 10.77000 24.04900
H  46.66700 10.86800 25.26300
H  42.02800 12.74900 26.73200
H  41.41100 12.84600 28.34800
H  42.61900 11.56800 27.95700
H  43.95000 14.27900 32.70400
H  41.03500 17.16400 34.35700
H  41.53900 17.88400 32.87100
H  42.58900 17.84200 34.25400
Mg 42.48700 41.63500 26.35500
C  42.08900 43.84800 29.08500
C  43.47400 39.29400 28.67600
C  43.91500 39.77900 23.82600
C  42.10200 44.29000 24.16400
N  42.68200 41.55100 28.71000
C  42.47300 42.55500 29.57700
C  42.44000 42.06700 31.04600
C  42.91200 40.59600 30.82500
C  43.08700 40.42300 29.33000
C  44.17800 40.11100 31.61500
C  40.98400 42.30500 31.65200
C  40.65800 41.34200 32.79500
H  39.83700 41.77600 34.06800
N  43.39700 39.78300 26.21000
C  43.62300 38.92500 27.32500
C  43.97900 37.60900 26.79500
C  44.16800 37.76400 25.40300
C  43.78500 39.15200 25.07900
C  44.14100 36.41200 27.69100
C  44.62500 36.76500 24.40800
O  45.00700 37.05900 23.28500
C  44.61200 35.32800 24.77400
N  42.92300 42.04900 24.22600
C  43.45500 41.03800 23.44100
C  43.34100 41.44900 21.92100
C  42.56600 42.85500 22.01200
C  42.47200 43.08600 23.54100
C  44.61500 41.44700 20.98500
C  41.17700 42.94500 21.37700
C  40.28700 41.74000 21.71400
N  42.06300 43.56600 26.54900
C  41.81900 44.51100 25.59300
C  41.40500 45.73300 26.22600
C  41.50400 45.48000 27.55700
C  41.92300 44.17400 27.72700
C  41.09200 46.97300 25.46100
C  41.39700 46.21700 28.83500
O  41.14800 47.33700 29.11800
C  41.65900 45.05300 29.93100
C  42.78200 45.51000 30.80000
O  43.95600 45.63900 30.40400
O  42.46200 45.67100 32.12500
C  43.45900 46.31500 32.95600
H  43.56500 38.45300 29.36600
H  44.26600 39.12500 23.02600
H  41.94700 45.18100 23.55200
H  43.16000 42.63500 31.63500
H  42.12600 39.85500 30.97400
H  45.08000 40.19300 31.00900
H  44.10300 39.05300 31.86400
H  44.24200 40.73800 32.50500
H  40.18200 42.52800 30.94800
H  41.09000 43.23800 32.20500
H  41.54700 40.73300 32.95700
H  39.90100 40.70700 32.33400
H  43.33900 35.68100 27.58800
H  44.03700 36.66100 28.74700
H  45.11700 35.95500 27.52700
H  43.75500 35.02900 25.37800
H  45.48300 35.21400 25.41900
H  44.76100 34.72800 23.87600
H  42.67500 40.80000 21.35300
H  43.30100 43.50500 21.53700
H  44.38100 41.10200 19.97700
H  45.43000 40.80200 21.31500
H  45.07000 42.40300 20.72700
H  41.29900 43.08900 20.30300
H  40.82400 43.82800 21.90900
H  40.24600 40.97300 20.94100
H  39.34800 42.22900 21.97600
H  40.70300 41.12200 22.51000
H  40.83100 47.76100 26.16700
H  40.23800 46.84100 24.79600
H  41.99300 47.33900 24.96900
H  40.85100 44.83800 30.63000
H  44.31400 45.64800 33.07300
H  42.87000 46.51000 33.85200
H  43.83500 47.26300 32.57200

