158

Mg 2.35400 -0.64200 43.94200
C  5.74400 0.12000 43.24900
C  1.43900 2.22900 42.46100
C  -0.60700 -1.80500 44.10600
C  3.67200 -3.78100 45.34300
N  3.48600 0.94500 43.00300
C  4.84400 1.12300 42.88100
C  5.20500 2.49100 42.30600
C  3.81500 3.26400 42.28600
C  2.85700 2.08600 42.56900
C  3.62600 4.47100 43.27900
C  5.82900 2.42500 40.94000
C  6.91300 3.50100 40.55100
H  6.71600 4.04600 39.14300
N  0.57000 0.12400 43.46100
C  0.37000 1.32700 42.81200
C  -1.05600 1.51000 42.57300
C  -1.68400 0.37900 43.13100
C  -0.60700 -0.48600 43.60900
C  -1.66100 2.80000 41.97600
C  -3.14700 0.18000 43.27600
O  -3.99600 1.01800 43.03000
C  -3.79600 -1.08700 43.80800
N  1.68500 -2.54400 44.63500
C  0.35500 -2.74800 44.46900
C  0.04000 -4.24400 44.91000
C  1.36200 -4.86800 45.36500
C  2.33300 -3.67600 45.09200
C  -1.20600 -4.37000 45.88700
C  1.70600 -6.19000 44.72300
C  2.17100 -7.25500 45.73800
N  4.28900 -1.70000 44.25000
C  4.62200 -2.84700 44.90800
C  6.09500 -2.94000 44.98500
C  6.54800 -1.81300 44.32700
C  5.41300 -1.07100 43.89000
C  6.94200 -4.05400 45.58200
C  7.79300 -1.13700 43.90300
O  8.93200 -1.48400 43.99800
C  7.30500 0.14000 43.18300
C  7.74300 1.17600 44.10600
O  7.31900 1.36400 45.22000
O  8.64500 1.97400 43.53800
C  9.15000 3.02300 44.37600
H  1.25200 3.26900 42.18300
H  -1.58900 -2.25600 43.95200
H  4.05300 -4.69900 45.79400
H  5.91100 2.98600 42.97300
H  3.55900 3.67500 41.30900
H  4.36900 4.53400 44.07400
H  2.68600 4.45700 43.83200
H  3.68200 5.32200 42.60100
H  5.04900 2.32600 40.18500
H  6.26000 1.44900 40.71600
H  7.84200 2.94300 40.67100
H  6.75300 4.27500 41.30100
H  -0.97100 3.30900 41.30400
H  -1.76700 3.52800 42.78000
H  -2.47500 2.58500 41.28300
H  -4.85000 -0.83200 43.91800
H  -3.37400 -1.20100 44.80700
H  -3.61900 -2.01800 43.26900
H  -0.30200 -4.72700 43.99400
H  1.37500 -4.99600 46.44800
H  -0.84800 -4.68600 46.86600
H  -1.95900 -5.03000 45.45600
H  -1.71100 -3.42700 46.09700
H  2.61500 -6.03300 44.14300
H  1.01800 -6.54900 43.95700
H  2.18700 -8.26400 45.32700
H  1.53000 -7.26000 46.62000
H  3.21500 -7.01900 45.94700
H  6.87300 -4.91200 44.91300
H  6.58700 -4.38400 46.55900
H  7.94600 -3.68200 45.78400
H  7.75700 0.27700 42.20100
H  9.93200 3.41000 43.72300
H  9.71000 2.77800 45.27800
H  8.39200 3.77300 44.60000
Mg 8.96900 4.12800 27.86400
C  10.32700 2.39300 30.58700
C  7.14000 6.01000 30.10900
C  7.30000 5.73800 25.25200
C  10.21400 1.78200 25.68500
N  8.68100 4.07000 30.08900
C  9.47800 3.41800 30.99000
C  9.17200 3.94200 32.43500
C  8.12400 5.01300 32.19900
C  7.97000 5.08200 30.68400
C  6.69600 4.77300 32.93400
C  10.44900 4.39200 33.26900
C  10.28600 5.44400 34.41400
H  10.83900 5.24400 35.78600
N  7.58300 5.81100 27.72800
C  7.03100 6.45500 28.74900
C  6.22300 7.54200 28.24100
C  6.21200 7.42200 26.82500
C  7.06100 6.29700 26.49900
C  5.47500 8.61000 29.16400
C  5.51100 8.26600 25.84100
O  5.75000 8.06200 24.66800
C  4.77500 9.51200 26.27300
N  8.74600 3.74300 25.74900
C  8.01400 4.56400 24.91900
C  8.05100 4.04800 23.47500
C  8.94000 2.78700 23.55300
C  9.36500 2.75200 25.02300
C  6.62800 3.80900 22.83800
C  10.12500 2.81100 22.59900
C  10.42400 1.42000 22.03400
N  10.02900 2.46300 28.07400
C  10.58200 1.66100 27.06500
C  11.54100 0.78200 27.71100
C  11.48200 1.06900 29.04700
C  10.50100 2.04900 29.22900
C  12.22400 -0.35300 26.88200
C  12.00300 0.72900 30.36200
O  12.92700 -0.06200 30.68300
C  11.28900 1.66100 31.42400
C  10.82400 0.89900 32.58900
O  9.87200 0.08800 32.59700
O  11.77300 0.97200 33.58600
C  11.50200 0.26100 34.79300
H  6.72700 6.81000 30.72600
H  6.91500 6.20600 24.34300
H  10.66400 1.07600 24.98400
H  8.69500 3.13600 32.99300
H  8.46800 6.03400 32.36500
H  6.70000 4.32200 33.92700
H  6.11300 4.19100 32.22000
H  6.21000 5.73500 33.09900
H  11.21300 4.79500 32.60400
H  10.81000 3.56400 33.88000
H  9.21200 5.48700 34.59400
H  10.77000 6.32800 33.99800
H  4.41800 8.68900 28.91200
H  5.87000 9.62100 29.06400
H  5.59800 8.19300 30.16400
H  3.74000 9.43500 26.60800
H  4.76800 10.15600 25.39300
H  5.41000 10.06500 26.96500
H  8.54500 4.87500 22.96500
H  8.36300 1.89000 23.32800
H  5.88200 3.75400 23.63200
H  6.55400 2.85000 22.32600
H  6.38900 4.66700 22.21000
H  10.97800 3.07300 23.22500
H  9.94500 3.48800 21.76400
H  11.30200 1.09000 22.58900
H  10.65000 1.48400 20.97000
H  9.65600 0.64800 22.07900
H  13.15200 -0.58800 27.40300
H  12.53600 -0.16300 25.85500
H  11.53100 -1.19400 26.90100
H  12.06400 2.29600 31.85200
H  10.90100 0.97500 35.35500
H  12.39800 0.06400 35.38200
H  10.97700 -0.69400 34.81000

