158

Mg 35.45000 1.34400 29.49200
C  33.13300 2.53700 31.74400
C  37.87900 1.83300 32.01700
C  37.82100 0.25700 27.44800
C  33.19500 1.52100 26.95100
N  35.52900 2.31400 31.59000
C  34.38000 2.38400 32.34000
C  34.74800 2.50000 33.82600
C  36.19100 2.78400 33.75600
C  36.60800 2.17500 32.36300
C  36.63600 4.23400 34.01500
C  34.22200 1.21100 34.69600
C  34.32300 1.26600 36.27700
H  34.91900 2.53100 36.89900
N  37.67400 1.17400 29.66900
C  38.42200 1.37300 30.81700
C  39.77400 0.98000 30.51300
C  39.74500 0.36500 29.22300
C  38.37200 0.57200 28.68200
C  40.82200 1.05200 31.62000
C  40.81400 -0.25100 28.43200
O  40.74800 -0.54300 27.25900
C  42.11600 -0.42900 29.16900
N  35.48500 0.94200 27.54000
C  36.59300 0.51900 26.82700
C  36.32600 0.32100 25.34300
C  34.79000 0.62600 25.23900
C  34.40300 1.03400 26.65600
C  37.10800 1.36100 24.45400
C  33.81900 -0.62800 24.76900
C  33.82800 -1.86500 25.59100
N  33.54900 1.84600 29.28200
C  32.74200 1.94400 28.21500
C  31.44300 2.48900 28.59200
C  31.54700 2.72300 30.06500
C  32.84500 2.33000 30.36900
C  30.32200 2.62000 27.65400
C  30.92100 3.18800 31.22600
O  29.77700 3.62400 31.42200
C  31.89700 2.95500 32.36700
C  32.11000 4.29600 33.06000
O  32.63500 5.25400 32.54900
O  31.60000 4.25500 34.29300
C  31.98900 5.46400 35.04500
H  38.57000 2.06300 32.83000
H  38.56400 -0.11500 26.73900
H  32.46300 1.59900 26.14400
H  34.33800 3.40100 34.28100
H  36.73600 2.20800 34.50300
H  35.81100 4.94400 33.95900
H  37.37200 4.53300 33.26900
H  37.17700 4.32500 34.95700
H  34.87100 0.40700 34.35000
H  33.24300 1.05300 34.24400
H  34.87800 0.33600 36.39600
H  33.33600 1.08100 36.70100
H  41.12900 0.01200 31.72600
H  40.43600 1.34400 32.59700
H  41.66500 1.68600 31.34400
H  41.90500 -1.22400 29.88500
H  42.55500 0.50300 29.52300
H  42.82000 -0.86600 28.46100
H  36.52600 -0.69300 24.99700
H  34.54800 1.41900 24.53200
H  37.83900 1.97900 24.97500
H  36.44700 1.87200 23.75500
H  37.81300 0.73600 23.90500
H  34.06100 -0.99300 23.77100
H  32.80800 -0.25000 24.61200
H  34.87100 -1.95000 25.89800
H  33.59000 -2.75400 25.00700
H  33.14500 -1.75400 26.43300
H  30.54500 2.10700 26.71900
H  29.99400 3.63200 27.41700
H  29.49200 2.12800 28.16200
H  31.49100 2.27000 33.11100
H  32.96800 5.93000 34.93000
H  31.93200 5.26400 36.11500
H  31.31500 6.29800 34.85100
Mg 9.12700 47.55600 25.50800
C  6.88700 47.87600 28.26500
C  11.57000 48.68200 27.62300
C  11.00500 48.00300 22.83900
C  6.36900 47.43300 23.40900
N  9.27400 48.15900 27.75400
C  8.21100 48.05500 28.68200
C  8.78100 48.31000 30.12300
C  10.19600 48.90100 29.84400
C  10.40000 48.57200 28.35900
C  10.28400 50.40800 29.92000
C  8.74300 47.07900 31.14800
C  8.46100 47.54500 32.55300
H  8.08100 46.42300 33.55000
N  11.00300 48.16100 25.26400
C  11.89600 48.50300 26.28500
C  13.22100 48.65800 25.74800
C  13.07100 48.37200 24.33400
C  11.64600 48.13600 24.09000
C  14.43900 49.02100 26.61000
C  14.10900 48.26500 23.28300
O  13.90300 47.86200 22.16100
C  15.52900 48.51600 23.67800
N  8.73700 47.65000 23.40000
C  9.66500 47.92000 22.52100
C  9.17000 47.86600 20.97000
C  7.74200 47.32000 21.21400
C  7.57100 47.48700 22.74200
C  9.22600 49.35800 20.38600
C  7.40800 45.91400 20.63600
C  6.25100 45.88900 19.68900
N  7.09200 47.59000 25.72000
C  6.07500 47.59300 24.75500
C  4.75700 47.66400 25.39400
C  5.07100 47.65300 26.71000
C  6.43200 47.70100 26.90700
C  3.42100 47.63200 24.76900
C  4.52300 47.69200 28.06400
O  3.33400 47.75500 28.30700
C  5.62600 47.74900 29.12100
C  5.53600 46.52500 29.89100
O  5.74100 45.43500 29.39900
O  5.17800 46.80200 31.19800
C  4.80800 45.66000 31.99300
H  12.39800 48.95800 28.27800
H  11.63800 48.01300 21.95000
H  5.48500 47.37600 22.77100
H  8.21600 49.15300 30.52100
H  10.89700 48.49200 30.57100
H  11.18300 50.81600 29.45800
H  10.38200 50.74000 30.95300
H  9.50700 50.93700 29.36900
H  9.73000 46.61900 31.09800
H  8.08000 46.25500 30.88500
H  7.73700 48.35900 32.53600
H  9.41200 47.88000 32.96600
H  15.18600 48.23300 26.52100
H  14.30000 49.20500 27.67600
H  14.92800 49.96100 26.35500
H  16.05300 48.61400 22.72700
H  15.81300 47.60600 24.20500
H  15.81600 49.34800 24.32100
H  9.87400 47.19700 20.47500
H  7.09500 48.02900 20.69700
H  8.29500 49.90700 20.52600
H  9.49200 49.29200 19.33100
H  10.10400 49.76000 20.89300
H  7.07000 45.28600 21.46000
H  8.19500 45.34400 20.14300
H  6.55800 45.39100 18.76900
H  5.86000 46.86100 19.38900
H  5.33200 45.37800 19.97800
H  2.85400 46.88700 25.32800
H  3.58300 47.46300 23.70500
H  3.04600 48.63200 24.98700
H  5.51400 48.64500 29.73100
H  3.73000 45.58200 31.85200
H  5.05800 45.72800 33.05200
H  5.18000 44.66100 31.76300

