158

Mg 34.87500 1.29200 29.38700
C  32.67400 3.02900 31.47800
C  37.32300 1.28700 31.87500
C  37.08900 0.18800 27.13700
C  32.57100 2.07100 26.82400
N  34.94100 2.04600 31.34100
C  33.90200 2.59800 32.05800
C  34.20300 2.58100 33.55500
C  35.66300 2.22900 33.61900
C  36.05800 1.82400 32.19300
C  36.61600 3.29300 34.13400
C  33.25200 1.52500 34.30400
C  32.77200 1.90400 35.74600
H  33.54400 2.92500 36.51600
N  37.00100 0.85900 29.45600
C  37.80600 0.85300 30.61200
C  39.05100 0.23100 30.25000
C  38.97500 -0.16900 28.88000
C  37.65200 0.31200 28.41800
C  40.14900 -0.02800 31.21500
C  39.85600 -0.95800 28.00100
O  39.49000 -1.43800 26.93300
C  41.24700 -1.33000 28.47200
N  34.83200 1.20300 27.35000
C  35.86500 0.66500 26.64300
C  35.40900 0.46000 25.14600
C  33.99600 1.08800 25.06400
C  33.77600 1.42500 26.49600
C  36.50900 1.09000 24.17600
C  32.93100 0.11000 24.46800
C  32.48900 0.35000 23.01800
N  32.93000 2.19300 29.15400
C  32.21100 2.42400 28.09100
C  30.90900 3.13500 28.43900
C  31.09700 3.48000 29.77800
C  32.35800 2.84000 30.14600
C  29.88500 3.70000 27.50900
C  30.59200 4.17000 30.94400
O  29.57400 4.83800 31.11000
C  31.46800 3.70100 32.14300
C  31.75600 4.90400 32.98300
O  32.49500 5.79600 32.66300
O  31.12600 4.92300 34.15800
C  31.27500 6.16500 34.85400
H  38.08800 1.33100 32.65200
H  37.69000 -0.20700 26.31500
H  31.84500 2.15700 26.01300
H  34.00000 3.59800 33.89100
H  35.81800 1.42600 34.33900
H  37.22200 3.61000 33.28600
H  37.26300 2.83100 34.88000
H  36.00100 4.09800 34.53800
H  33.79700 0.58300 34.36300
H  32.38300 1.41600 33.65500
H  32.68800 0.99900 36.34700
H  31.83000 2.43400 35.60300
H  40.50500 -1.05800 31.23300
H  39.92500 0.03100 32.27900
H  40.91500 0.67200 30.88000
H  41.31600 -2.10700 29.23400
H  41.70400 -0.44600 28.91700
H  41.90200 -1.61400 27.64900
H  35.37900 -0.59700 24.88300
H  34.01300 2.05800 24.56800
H  36.06000 1.76500 23.44800
H  36.81500 0.21300 23.60500
H  37.28800 1.61400 24.73100
H  32.03100 0.13900 25.08200
H  33.33300 -0.90000 24.54300
H  31.40200 0.37400 22.94000
H  32.94200 -0.24100 22.22200
H  32.94400 1.32000 22.81500
H  30.36700 4.34500 26.77400
H  29.22300 4.41100 28.00400
H  29.34000 2.89200 27.02100
H  30.79400 3.08500 32.73800
H  30.53500 6.89700 34.53100
H  32.23000 6.64500 35.06900
H  30.89700 5.85100 35.82700
Mg 35.85200 49.10900 25.60300
C  36.17700 47.58900 28.66700
C  34.24500 51.87400 27.26700
C  35.16200 50.59200 22.58500
C  37.09800 46.39500 24.06700
N  35.22700 49.66200 27.78000
C  35.59000 48.88000 28.86000
C  35.17100 49.59200 30.14900
C  34.53100 50.96300 29.72600
C  34.65000 50.82500 28.14300
C  33.02100 51.08200 30.15700
C  36.45700 49.65500 31.14000
C  36.10200 49.50400 32.63900
H  34.62400 49.53400 33.08900
N  34.85400 51.00300 25.00400
C  34.34200 51.97600 25.84300
C  33.98700 53.15000 25.01700
C  34.25500 52.80300 23.62500
C  34.69900 51.40600 23.70000
C  33.59300 54.53100 25.69300
C  34.17500 53.69700 22.42300
O  34.54800 53.36000 21.29600
C  33.63600 55.12200 22.56200
N  35.99100 48.52700 23.58100
C  35.77600 49.33400 22.55500
C  36.24200 48.70500 21.27300
C  36.92800 47.33300 21.76500
C  36.74800 47.42600 23.20300
C  35.15400 48.47700 20.14000
C  38.39600 47.23000 21.40500
C  39.46800 48.03500 22.09200
N  36.53000 47.32600 26.18300
C  37.04100 46.26100 25.44400
C  37.40400 45.18100 26.27900
C  37.07700 45.65700 27.56300
C  36.51100 46.97400 27.47400
C  37.94900 43.83500 25.86900
C  36.98300 45.26900 28.99200
O  37.27100 44.23200 29.52800
C  36.48000 46.48900 29.71000
C  35.19800 46.12200 30.44200
O  34.13400 45.96100 29.88900
O  35.46900 45.76700 31.73500
C  34.43200 44.96400 32.42300
H  33.64400 52.63100 27.77600
H  34.90400 51.03300 21.62100
H  37.55100 45.53600 23.56900
H  34.41000 48.92100 30.54800
H  35.05500 51.80300 30.18200
H  32.88800 52.03200 30.67400
H  32.61300 50.38100 30.88500
H  32.33000 51.06100 29.31400
H  37.04400 50.56700 31.02800
H  37.15200 48.87300 30.83000
H  36.68100 50.19000 33.25700
H  36.48900 48.49700 32.79500
H  32.52500 54.75100 25.66100
H  34.14400 55.32500 25.18800
H  34.03100 54.54100 26.69100
H  33.55300 55.59800 21.58500
H  34.41200 55.64700 23.11900
H  32.75000 55.06700 23.19500
H  37.03200 49.34300 20.87600
H  36.43600 46.49100 21.28000
H  34.17100 48.55700 20.60500
H  35.34500 47.49900 19.69700
H  35.38100 49.26900 19.42700
H  38.44500 47.56900 20.37100
H  38.57300 46.17200 21.59900
H  39.56900 47.83800 23.15900
H  39.33800 49.09400 21.86500
H  40.44700 47.83400 21.65700
H  38.73300 44.06400 25.14700
H  37.13500 43.21800 25.48700
H  38.48800 43.43300 26.72700
H  37.22000 46.75800 30.46300
H  34.83200 43.96400 32.58900
H  33.48300 44.94400 31.88700
H  34.12800 45.50800 33.31800

