158

Mg 46.64200 16.91700 28.45500
C  44.47300 16.34200 31.34800
C  48.75600 18.57700 30.53700
C  48.28800 17.80600 25.74600
C  44.13900 15.48000 26.45100
N  46.65900 17.31100 30.64200
C  45.70600 17.01700 31.61800
C  46.22400 17.39400 32.95400
C  47.39000 18.34200 32.65400
C  47.65700 18.08300 31.18000
C  47.13000 19.81600 33.02600
C  46.61500 16.20700 33.73200
C  47.12200 16.40900 35.19000
H  46.79500 17.73400 35.84700
N  48.35200 17.96900 28.16600
C  49.13000 18.54900 29.16600
C  50.27700 19.14500 28.54400
C  50.24800 18.76400 27.16300
C  48.88500 18.20800 26.95900
C  51.25200 19.94200 29.29500
C  51.28900 18.84300 26.00200
O  51.11800 18.39600 24.87200
C  52.70500 19.35300 26.33300
N  46.27800 16.56000 26.45400
C  47.13000 17.06600 25.46200
C  46.57500 16.84300 24.05900
C  45.40500 15.87800 24.26300
C  45.21900 15.96200 25.79400
C  46.38400 18.14600 23.23700
C  45.59700 14.38800 23.83400
C  46.45600 13.47600 24.66900
N  44.68600 16.11000 28.77400
C  43.81000 15.45600 27.85500
C  42.67600 14.88700 28.55000
C  42.85200 15.29900 29.87500
C  44.13000 15.94900 29.96200
C  41.49600 14.17900 27.92700
C  42.27100 15.37100 31.17500
O  41.13200 15.00100 31.58100
C  43.28600 15.91200 32.17200
C  42.70000 16.98800 32.93000
O  42.12700 17.96500 32.46900
O  43.15200 16.90700 34.25000
C  42.67300 18.04200 35.02100
H  49.56200 19.03600 31.11300
H  48.92800 18.10200 24.91100
H  43.44800 15.04500 25.72600
H  45.39700 17.94400 33.40300
H  48.31900 18.12400 33.18200
H  46.51000 20.17500 32.20400
H  48.07600 20.35700 33.03300
H  46.73300 19.86200 34.04000
H  47.50200 15.81800 33.23300
H  45.89900 15.38600 33.67600
H  48.19800 16.24200 35.15400
H  46.59400 15.69900 35.82700
H  51.49000 20.75600 28.61000
H  52.21100 19.43000 29.38100
H  50.93800 20.24100 30.29500
H  53.42800 19.40000 25.51900
H  53.12300 18.90500 27.23500
H  52.36200 20.36800 26.53000
H  47.38400 16.26100 23.61800
H  44.49900 16.29900 23.82600
H  45.31700 18.23700 23.03600
H  46.96500 18.00800 22.32500
H  46.82000 18.97800 23.79000
H  46.10800 14.39400 22.87100
H  44.59900 13.95900 23.74300
H  45.93600 13.35900 25.62000
H  47.36100 13.97700 25.01000
H  46.74700 12.48700 24.31600
H  41.84300 13.25300 27.46800
H  41.21600 14.99000 27.25400
H  40.66800 13.95200 28.59900
H  43.63200 15.18600 32.90800
H  41.59600 18.11500 34.86600
H  43.14300 18.96200 34.67400
H  42.78000 17.78500 36.07500
Mg 49.29500 45.11800 43.14300
C  45.87100 45.02200 42.49800
C  49.57700 41.85000 42.33300
C  52.66800 45.46500 43.28600
C  49.04600 48.70200 43.26800
N  47.84900 43.70900 42.60100
C  46.51600 43.85300 42.32300
C  45.95700 42.63800 41.65000
C  47.05100 41.58100 41.89700
C  48.28300 42.39500 42.25900
C  46.71400 40.46000 42.97000
C  45.68600 43.00400 40.11000
C  44.32800 42.38600 39.57500
H  44.55500 41.76100 38.13900
N  50.91700 43.81600 42.95400
C  50.81200 42.50100 42.63900
C  52.06100 41.87600 42.60500
C  52.96400 42.84000 43.07800
C  52.19800 44.13600 43.10900
C  52.36400 40.39300 42.30000
C  54.40100 42.66700 43.37000
O  54.99900 41.59100 43.25300
C  55.30200 43.88500 43.74400
N  50.59900 46.85600 43.16300
C  51.95600 46.67400 43.21800
C  52.73500 48.04800 43.32900
C  51.56100 49.08900 43.11900
C  50.33700 48.20600 43.16700
C  53.60800 48.14100 44.60800
C  51.64400 49.94100 41.81300
C  51.72200 51.47400 41.95700
N  47.79400 46.58000 43.09000
C  47.86200 47.99000 43.12700
C  46.53700 48.51500 42.95200
C  45.70300 47.36800 42.79300
C  46.55900 46.21000 42.83000
C  46.04200 49.94600 42.84800
C  44.27800 46.89800 42.65800
O  43.16900 47.44900 42.68200
C  44.38600 45.32700 42.43600
C  43.50400 44.59900 43.49200
O  42.63300 43.71200 43.25200
O  43.86400 45.06000 44.81400
C  43.24600 44.32100 45.94000
H  49.79600 40.78000 42.35000
H  53.72700 45.72400 43.22800
H  49.02700 49.79300 43.23100
H  44.99300 42.37100 42.08100
H  47.32100 41.04000 40.99000
H  46.02600 40.98400 43.63400
H  47.57900 40.26700 43.60400
H  46.34800 39.55800 42.48000
H  46.51000 42.71900 39.45600
H  45.65700 44.09300 40.08400
H  43.54500 43.14200 39.51500
H  44.00900 41.62200 40.28400
H  52.46800 39.81800 43.22100
H  53.32200 40.20900 41.81400
H  51.61700 39.91600 41.66500
H  54.92900 44.39000 44.63500
H  55.44700 44.50500 42.85900
H  56.24400 43.42400 44.03900
H  53.34800 48.22900 42.44600
H  51.60500 49.83100 43.91600
H  53.33400 48.94800 45.28800
H  54.57100 48.25400 44.11000
H  53.64800 47.14500 45.04800
H  50.75600 49.61200 41.27300
H  52.54700 49.61100 41.30100
H  51.24700 52.01500 41.13900
H  52.74200 51.85300 41.89100
H  51.31800 51.95900 42.84600
H  45.65700 50.06700 41.83500
H  46.76600 50.71000 43.13200
H  45.14900 49.93800 43.47200
H  44.06800 45.13500 41.41100
H  43.46500 43.25500 45.89200
H  42.16500 44.38500 45.81500
H  43.55500 44.72300 46.90500

