158

Mg 24.01100 -4.74300 45.77100
C  26.32600 -2.56000 44.39500
C  21.72300 -3.69100 43.46000
C  22.18900 -7.50300 46.39400
C  26.71600 -6.15300 47.77800
N  24.03900 -3.37200 44.00800
C  25.08300 -2.48500 43.75300
C  24.75100 -1.55300 42.60300
C  23.16100 -1.67700 42.58400
C  22.92200 -2.93900 43.42700
C  22.42500 -0.43000 42.99500
C  25.42900 -1.94600 41.23500
C  25.69100 -0.90300 40.17400
H  25.20100 -1.15700 38.74300
N  22.09700 -5.41900 45.15900
C  21.33100 -4.90300 44.18500
C  20.11900 -5.59600 44.07500
C  20.18500 -6.70100 44.99000
C  21.51700 -6.57000 45.56600
C  18.91200 -5.27600 43.14600
C  19.10100 -7.74000 45.32700
O  18.06600 -7.65900 44.70700
C  19.22900 -8.70700 46.33300
N  24.37200 -6.56900 46.88000
C  23.46400 -7.55700 46.90800
C  23.85300 -8.75500 47.81700
C  25.28800 -8.24600 48.23300
C  25.41300 -6.84000 47.66200
C  22.87900 -9.17900 48.94800
C  26.41200 -9.24700 47.91100
C  27.17000 -10.02200 48.99000
N  26.12700 -4.43700 46.08800
C  27.00000 -5.00800 46.94400
C  28.29600 -4.40100 46.73800
C  28.04200 -3.37000 45.85500
C  26.71200 -3.48700 45.39100
C  29.57900 -4.63800 47.47100
C  28.58700 -2.20500 45.19400
O  29.65900 -1.64000 45.27400
C  27.52700 -1.68300 44.23400
C  27.33100 -0.23400 44.34100
O  26.86700 0.37400 45.28600
O  27.76300 0.35400 43.16700
C  27.23600 1.72300 43.00700
H  20.91500 -3.31400 42.83000
H  21.70400 -8.42000 46.73300
H  27.54900 -6.58900 48.33300
H  25.08700 -0.53400 42.79500
H  22.92100 -1.91200 41.54700
H  22.85300 -0.13700 43.95400
H  21.38300 -0.68700 43.18200
H  22.63200 0.26500 42.18100
H  24.73900 -2.57200 40.66900
H  26.27400 -2.62600 41.34400
H  26.78000 -0.91000 40.15700
H  25.47400 0.13200 40.44000
H  18.88800 -6.11600 42.45100
H  19.01800 -4.32700 42.62200
H  18.04100 -5.18000 43.79500
H  19.53100 -8.15000 47.22000
H  19.93700 -9.50900 46.12400
H  18.27400 -9.16500 46.58900
H  23.90900 -9.57400 47.10000
H  25.29100 -8.12200 49.31600
H  22.56200 -10.18600 48.67600
H  21.96100 -8.59300 48.93300
H  23.35200 -9.25600 49.92700
H  27.17700 -8.69800 47.36100
H  26.15100 -9.98300 47.15000
H  28.20100 -9.75900 48.75300
H  26.92100 -11.06700 48.80300
H  26.96900 -9.69400 50.01000
H  29.67900 -5.63200 47.90700
H  29.69700 -3.90900 48.27200
H  30.47300 -4.54400 46.85500
H  27.99900 -1.84500 43.26500
H  26.26800 1.97000 43.44300
H  27.19000 1.86700 41.92800
H  27.93800 2.48100 43.35300
Mg -12.35500 15.80100 41.34900
C  -9.45900 13.85100 41.09300
C  -10.36800 18.52800 39.93800
C  -15.16200 17.48700 40.74200
C  -14.10500 13.08300 42.45500
N  -10.13900 16.11700 40.49800
C  -9.15500 15.14200 40.59200
C  -7.86700 15.71100 39.97000
C  -8.19300 17.26100 39.74500
C  -9.62900 17.36100 40.08000
C  -7.37900 18.31800 40.56600
C  -7.24100 14.92200 38.75800
C  -5.75600 14.87800 38.88000
H  -4.96500 15.58800 37.78400
N  -12.72300 17.75200 40.54500
C  -11.79900 18.71300 40.08400
C  -12.59200 19.84800 39.64000
C  -13.97000 19.60200 39.81700
C  -14.04500 18.19000 40.33300
C  -11.92200 21.17400 39.08100
C  -15.09200 20.60100 39.45700
O  -14.82700 21.62400 38.79800
C  -16.60900 20.37900 39.72200
N  -14.47300 15.25300 41.36000
C  -15.40200 16.27600 41.33100
C  -16.82000 15.78500 41.86800
C  -16.44200 14.37100 42.41400
C  -14.94100 14.18900 42.13800
C  -17.41800 16.75300 42.92400
C  -17.33000 13.18900 41.91400
C  -17.83200 12.20400 42.96100
N  -11.89500 13.85700 41.73400
C  -12.68800 12.86200 42.28600
C  -11.84400 11.68200 42.52900
C  -10.55500 12.06500 42.11700
C  -10.67000 13.41600 41.66400
C  -12.25600 10.34700 43.10900
C  -9.10700 11.65700 42.06200
O  -8.55200 10.61400 42.40000
C  -8.34400 12.86800 41.36100
C  -7.32900 13.40600 42.33300
O  -7.59100 13.92000 43.42700
O  -6.07200 13.42800 41.83300
C  -4.98100 14.09300 42.57400
H  -9.76100 19.38400 39.63600
H  -16.00100 18.18100 40.65300
H  -14.62400 12.28600 42.99300
H  -7.24400 15.71000 40.86400
H  -8.07800 17.42100 38.67200
H  -7.97200 19.12300 41.00100
H  -6.69200 18.78500 39.86100
H  -6.61600 17.94500 41.24900
H  -7.32100 15.48200 37.82600
H  -7.64400 13.91100 38.69200
H  -5.41100 13.84400 38.87600
H  -5.31700 15.39600 39.73200
H  -10.83400 21.15400 39.15600
H  -12.12100 22.00500 39.75900
H  -12.19300 21.46800 38.06700
H  -16.95100 19.59000 39.05200
H  -17.14600 21.30100 39.49800
H  -16.86900 20.07200 40.73500
H  -17.49600 15.74400 41.01400
H  -16.50500 14.45500 43.49900
H  -16.57100 17.39400 43.16700
H  -17.77600 16.41200 43.89600
H  -18.26000 17.29600 42.49600
H  -16.75700 12.57700 41.21700
H  -18.06400 13.68400 41.27900
H  -18.91300 12.17800 42.82300
H  -17.66700 12.57100 43.97400
H  -17.52000 11.20200 42.66400
H  -12.08200 10.35200 44.18500
H  -11.67000 9.58100 42.60100
H  -13.30400 10.06900 43.00200
H  -7.88400 12.51700 40.43700
H  -4.33900 13.38900 43.10400
H  -5.29800 14.95000 43.16800
H  -4.37000 14.54900 41.79400

