158

Mg 41.83000 40.72500 26.40200
C  41.02500 43.13800 28.80700
C  42.77400 38.56200 28.73800
C  42.63700 38.76800 23.92800
C  41.26200 43.35300 24.02100
N  42.00100 40.90200 28.52600
C  41.56900 41.94700 29.33600
C  41.56800 41.50100 30.79500
C  42.23200 40.05800 30.74400
C  42.27300 39.81300 29.24700
C  43.59100 39.83200 31.38700
C  40.14600 41.68900 31.46100
C  39.74000 40.80100 32.67500
H  39.03000 41.40500 33.83900
N  42.46100 38.87900 26.38500
C  42.84300 38.08100 27.43800
C  43.18100 36.77500 26.93900
C  43.08600 36.79900 25.46200
C  42.75300 38.17000 25.18000
C  43.52500 35.62000 27.88400
C  43.32900 35.71000 24.48700
O  43.05900 35.73600 23.31400
C  43.67900 34.35100 24.98400
N  42.10900 41.08000 24.20900
C  42.30200 40.00300 23.44400
C  42.16800 40.35700 21.92000
C  41.41900 41.77100 21.96400
C  41.53000 42.11000 23.53900
C  43.58500 40.44700 21.27400
C  40.01200 41.73100 21.32500
C  39.09500 40.73000 22.07000
N  41.25100 42.77000 26.33600
C  41.07900 43.63700 25.34700
C  40.66000 44.98700 25.84200
C  40.64800 44.80300 27.24000
C  40.93800 43.43900 27.47900
C  40.50700 46.21000 25.00400
C  40.27900 45.43700 28.54500
O  39.74000 46.50800 28.84300
C  40.52400 44.33700 29.65200
C  41.38000 44.77600 30.77000
O  42.58500 44.81100 30.67000
O  40.53000 45.10000 31.85200
C  41.37200 45.60700 32.89100
H  42.95300 37.92500 29.60700
H  42.75200 37.98500 23.17500
H  40.93800 44.13200 23.32800
H  42.22200 42.27300 31.20100
H  41.55000 39.34300 31.20600
H  43.85100 40.84800 31.68400
H  44.28400 39.32900 30.71200
H  43.44300 39.10900 32.19000
H  39.32600 41.58300 30.75000
H  40.15000 42.68000 31.91500
H  40.65400 40.32700 33.03200
H  39.16300 39.95000 32.31200
H  44.54500 35.23900 27.85100
H  42.91000 34.77500 27.57400
H  43.25000 35.80400 28.92300
H  44.46300 34.44400 25.73600
H  44.12000 33.82000 24.14100
H  42.92100 33.83700 25.57600
H  41.50600 39.61900 21.46700
H  42.11400 42.47500 21.50700
H  44.21400 39.70800 21.77100
H  44.03100 41.43600 21.37600
H  43.42400 40.16600 20.23300
H  40.06400 41.33700 20.31000
H  39.51500 42.69900 21.26300
H  39.57200 40.19100 22.88900
H  38.57700 40.04600 21.39900
H  38.28200 41.30600 22.51200
H  41.16600 46.24300 24.13600
H  40.80600 47.01000 25.68100
H  39.51500 46.42300 24.60400
H  39.56100 44.12100 30.11500
H  42.17300 46.24700 32.52100
H  41.84000 44.78800 33.43800
H  40.80000 46.28500 33.52400
Mg 9.41900 47.85500 26.41600
C  7.62200 48.00200 29.39300
C  12.16800 49.00400 28.09000
C  11.22300 47.68200 23.59400
C  6.45800 47.33900 24.74800
N  9.79600 48.36300 28.52000
C  8.88500 48.45900 29.54200
C  9.54600 49.00400 30.83300
C  10.86000 49.62400 30.24600
C  10.96700 48.92800 28.88600
C  10.81800 51.15700 30.14100
C  9.87000 47.74100 31.74400
C  9.48300 47.86200 33.18600
H  9.29300 46.54300 34.01000
N  11.43900 48.16700 25.92700
C  12.38000 48.56600 26.77800
C  13.64400 48.57800 26.14900
C  13.40500 48.25900 24.82400
C  12.01300 48.02100 24.69100
C  14.93600 48.94100 26.88800
C  14.35500 48.05600 23.69000
O  13.97800 47.86900 22.52900
C  15.87400 48.30500 23.86200
N  8.95100 47.80100 24.43000
C  9.83100 47.58100 23.40100
C  9.23500 47.32300 22.04800
C  7.71800 47.18700 22.41700
C  7.67600 47.35200 24.01000
C  9.62900 48.48100 21.04700
C  7.06100 45.95400 21.88000
C  5.72100 46.22000 21.27300
N  7.43300 47.75500 26.91300
C  6.34600 47.63300 26.10500
C  5.13400 47.56700 26.90900
C  5.59800 47.77900 28.22500
C  7.00100 47.78500 28.16800
C  3.74600 47.27800 26.44200
C  5.22300 47.87000 29.68400
O  4.08700 47.84900 30.17100
C  6.52100 47.89100 30.52100
C  6.60900 46.57500 31.24900
O  7.06100 45.57400 30.86500
O  6.01500 46.76300 32.52600
C  5.64600 45.56100 33.33800
H  12.95000 49.44500 28.71200
H  11.66700 47.45300 22.62300
H  5.56500 47.11900 24.15800
H  8.81100 49.66200 31.29700
H  11.73700 49.39000 30.84900
H  10.77200 51.48600 29.10300
H  11.67000 51.62000 30.63800
H  10.01100 51.53400 30.76900
H  10.95900 47.70800 31.71200
H  9.49800 46.83400 31.26700
H  8.61700 48.48700 33.40300
H  10.26600 48.48100 33.62400
H  14.85300 48.92000 27.97500
H  15.21700 49.92900 26.52300
H  15.85500 48.37200 26.74400
H  16.01400 49.30500 24.27300
H  16.31100 48.20200 22.86900
H  16.31200 47.54300 24.50600
H  9.56900 46.40000 21.57200
H  7.17500 48.03600 22.00100
H  8.88400 49.23600 20.79500
H  10.08500 48.05600 20.15300
H  10.53200 48.94100 21.44600
H  6.75400 45.24800 22.65200
H  7.70700 45.54900 21.10100
H  5.75600 46.46000 20.21000
H  5.33000 47.11200 21.76200
H  5.00300 45.42700 21.48300
H  3.07900 48.11600 26.64300
H  3.45600 46.46200 27.10400
H  3.69600 47.15000 25.36100
H  6.39900 48.78500 31.13200
H  4.57600 45.63400 33.53300
H  6.28300 45.39400 34.20600
H  5.65200 44.62700 32.77600

