158

Mg 44.77200 4.12300 47.21400
C  42.90600 7.10700 46.95500
C  41.88300 2.35300 47.42600
C  46.55400 1.45200 46.70100
C  47.64100 6.14300 46.73600
N  42.62700 4.68000 47.01400
C  42.18000 5.94100 46.84800
C  40.70600 5.78800 46.54400
C  40.25700 4.32300 46.99200
C  41.72600 3.75300 47.14100
C  39.46700 4.21500 48.30400
C  40.48200 6.08500 45.05100
C  39.37700 7.06600 44.64100
H  39.83400 8.10700 43.74000
N  44.31700 2.10000 47.12400
C  43.04100 1.58900 47.30800
C  43.10900 0.15300 47.17600
C  44.44800 -0.17200 46.90700
C  45.21500 1.16900 46.90900
C  41.93100 -0.86800 47.17400
C  44.93400 -1.57800 46.73400
O  44.23500 -2.50600 47.11700
C  46.35600 -1.92700 46.42500
N  46.93400 3.78000 47.06700
C  47.32800 2.57800 46.73300
C  48.81400 2.64200 46.34200
C  49.26000 4.14800 46.50600
C  47.84600 4.78300 46.74600
C  49.74600 1.57400 47.13700
C  49.95500 4.88100 45.29500
C  51.28600 5.56700 45.71600
N  45.25500 6.17500 47.11600
C  46.42600 6.86300 46.93000
C  46.23400 8.25800 47.08100
C  44.82200 8.45600 47.21500
C  44.28500 7.12600 47.06600
C  47.27400 9.31600 46.88400
C  43.82100 9.43400 47.32800
O  43.83200 10.63900 47.45700
C  42.48600 8.53200 47.06900
C  41.55600 8.73900 48.19600
O  41.33300 8.01800 49.15000
O  40.89200 9.95800 47.91700
C  39.91500 10.47700 48.85300
H  40.98400 1.75400 47.58700
H  47.06100 0.53900 46.37900
H  48.43000 6.83700 46.43800
H  40.07500 6.45900 47.12600
H  39.70200 3.89600 46.15700
H  40.13600 4.65300 49.04500
H  39.08300 3.22700 48.55700
H  38.55700 4.80000 48.17100
H  40.20000 5.12700 44.61600
H  41.37600 6.31900 44.47300
H  38.92500 7.55500 45.50400
H  38.63700 6.47000 44.10700
H  40.96700 -0.40600 47.38700
H  42.02800 -1.73200 47.83200
H  41.97800 -1.15700 46.12400
H  46.98500 -1.46300 47.18600
H  46.36300 -1.58000 45.39200
H  46.56800 -2.99300 46.50300
H  48.84100 2.33400 45.29700
H  49.88000 4.28900 47.39100
H  49.13600 0.78700 47.58000
H  50.24000 2.09400 47.95700
H  50.43100 1.03500 46.48300
H  49.33800 5.59000 44.74300
H  50.31700 4.08100 44.64900
H  51.28100 6.65600 45.76900
H  52.07300 5.25000 45.03200
H  51.48000 5.05100 46.65600
H  46.82700 10.30600 46.79600
H  47.85200 9.18700 45.96900
H  47.94900 9.15600 47.72500
H  41.94200 8.76700 46.15400
H  40.25700 11.28400 49.50100
H  39.40900 9.68000 49.39800
H  39.06200 10.81900 48.26700
Mg 9.47900 48.31400 25.78000
C  6.91400 49.04300 28.14600
C  11.79800 49.54200 27.95200
C  11.70100 48.07100 23.41300
C  6.95200 47.72200 23.44800
N  9.39700 49.14700 27.75900
C  8.26500 49.04100 28.60000
C  8.69900 48.99000 30.03700
C  10.22700 49.61900 29.98400
C  10.54200 49.46300 28.49100
C  10.36100 51.07800 30.51900
C  8.45400 47.54600 30.64000
C  8.11400 47.58700 32.17300
H  8.63800 46.62400 33.19600
N  11.48300 48.50100 25.77300
C  12.29800 48.98500 26.76500
C  13.69000 48.92200 26.37500
C  13.63100 48.34200 25.04100
C  12.23100 48.28300 24.73400
C  14.90500 49.24700 27.28900
C  14.77900 47.96600 24.06200
O  14.57300 47.48200 22.93600
C  16.17800 48.17900 24.49100
N  9.28300 48.15900 23.58600
C  10.39300 47.98400 22.92400
C  10.11000 47.64200 21.45200
C  8.53600 47.69900 21.38700
C  8.25600 47.77000 22.87100
C  10.77600 48.53600 20.44200
C  7.89300 46.50100 20.59300
C  7.17500 46.77600 19.29900
N  7.35200 48.27900 25.77800
C  6.49700 48.05700 24.70700
C  5.12900 48.26300 25.15100
C  5.28000 48.64400 26.47700
C  6.59700 48.66700 26.83800
C  3.90700 48.04300 24.31300
C  4.55400 49.02500 27.69900
O  3.33100 49.02600 27.83000
C  5.59100 49.28000 28.89800
C  5.09000 48.32800 30.01400
O  4.87700 47.12000 29.93500
O  4.87500 49.10200 31.12200
C  4.08400 48.53000 32.14200
H  12.57300 49.83800 28.66200
H  12.36300 47.75500 22.60400
H  6.20200 47.57700 22.66700
H  8.14800 49.72500 30.62400
H  10.85800 48.97900 30.60100
H  10.74600 51.75800 29.75900
H  11.06100 51.07300 31.35500
H  9.43400 51.54500 30.85400
H  9.36600 46.95100 30.59100
H  7.74700 46.98500 30.02900
H  7.02800 47.65900 32.23700
H  8.31200 48.59900 32.52900
H  14.60100 49.49600 28.30500
H  15.52700 50.05200 26.89700
H  15.57100 48.38500 27.25800
H  16.45900 47.43000 25.23100
H  16.29200 49.19000 24.88100
H  16.89100 48.03600 23.67900
H  10.38800 46.58800 21.44500
H  8.24900 48.65400 20.94600
H  11.34400 49.23300 21.05800
H  10.08600 49.05700 19.77900
H  11.45900 47.93000 19.84600
H  7.24500 45.97800 21.29600
H  8.66400 45.75600 20.39400
H  7.19100 47.79700 18.91800
H  6.12000 46.60200 19.50900
H  7.50800 46.10900 18.50300
H  4.19100 48.16200 23.26700
H  3.17200 48.83000 24.48000
H  3.42300 47.07000 24.39800
H  5.46600 50.33500 29.14400
H  3.61900 47.55700 31.98400
H  3.31100 49.24600 32.42100
H  4.72400 48.53100 33.02500

