158

Mg 25.18700 1.06600 28.97300
C  27.24900 0.75900 31.73100
C  22.53000 1.80700 31.27100
C  23.21600 1.73600 26.48700
C  27.76300 0.20700 26.76700
N  24.89900 1.11200 31.14900
C  25.93000 1.16200 32.06200
C  25.50500 1.56300 33.46600
C  24.03000 1.84000 33.25400
C  23.79800 1.66400 31.75600
C  22.95900 0.91700 33.97100
C  26.31300 2.75400 34.10600
C  26.73100 2.75700 35.59300
H  26.06800 3.77800 36.51700
N  23.15200 1.45700 28.90500
C  22.23300 1.69400 29.91500
C  20.90400 1.90700 29.33400
C  21.13200 2.08600 27.91000
C  22.55900 1.72400 27.72700
C  19.62200 2.05000 30.25400
C  20.10400 2.45100 26.87500
O  20.30600 2.31900 25.65600
C  18.69000 3.01600 27.11900
N  25.41200 0.83100 26.89700
C  24.42600 1.24700 26.07200
C  24.84600 1.31000 24.56600
C  26.36500 0.96100 24.69800
C  26.52800 0.61800 26.17400
C  24.19300 0.25700 23.71800
C  27.40900 1.95000 24.10600
C  27.75200 3.18100 25.02200
N  27.11200 0.42100 29.20800
C  28.08700 0.10000 28.19100
C  29.30300 -0.10800 28.89800
C  29.02100 0.11800 30.28100
C  27.69100 0.52600 30.36800
C  30.60100 -0.45300 28.29900
C  29.62600 0.07600 31.62100
O  30.71900 -0.19400 31.99900
C  28.44700 0.56400 32.58000
C  28.29600 -0.46100 33.65700
O  27.44100 -1.30400 33.53600
O  28.95500 -0.22300 34.80200
C  28.49700 -0.97400 35.97700
H  21.66800 1.99800 31.91400
H  22.69800 1.92400 25.54400
H  28.54500 0.12600 26.00800
H  25.53800 0.67000 34.09100
H  23.90700 2.89100 33.51500
H  22.65000 0.10200 33.31600
H  22.18600 1.63800 34.23600
H  23.36200 0.48300 34.88600
H  25.75700 3.66600 33.89100
H  27.17400 2.99800 33.48500
H  27.80900 2.79000 35.75300
H  26.41300 1.76800 35.92300
H  19.45100 3.09600 30.50900
H  19.75200 1.41700 31.13200
H  18.78100 1.68400 29.66500
H  18.74000 3.55700 28.06400
H  17.95100 2.21400 27.10600
H  18.35400 3.57600 26.24600
H  24.60700 2.29700 24.17100
H  26.68400 -0.01600 24.33400
H  24.83400 -0.36900 23.09800
H  23.65100 0.74200 22.90600
H  23.40200 -0.21400 24.30200
H  26.93800 2.49000 23.28500
H  28.34700 1.48900 23.79700
H  27.14500 3.20000 25.92800
H  27.71400 4.11500 24.46300
H  28.78700 3.10800 25.35700
H  30.27000 -1.04500 27.44500
H  31.15800 -1.14000 28.93500
H  31.28700 0.37700 28.13000
H  28.82000 1.49400 33.01100
H  27.44800 -0.70700 36.10000
H  29.09100 -0.89200 36.88700
H  28.48500 -2.02700 35.69600
Mg 47.61100 25.11700 27.84600
C  48.41000 27.27000 30.46700
C  46.94600 22.70600 30.27100
C  47.31200 22.95900 25.35400
C  49.11400 27.38300 25.61200
N  47.34700 25.09000 30.11800
C  47.81000 26.10600 30.95500
C  47.55900 25.78400 32.41300
C  47.01600 24.34900 32.28600
C  47.09500 24.00200 30.82900
C  47.60200 23.21400 33.20200
C  46.41200 26.73000 32.90900
C  45.83900 26.30000 34.28300
H  45.47200 27.38300 35.34000
N  47.20300 23.12700 27.77500
C  46.89600 22.28900 28.88900
C  46.61800 20.92500 28.43300
C  46.73300 21.02400 26.97900
C  47.16900 22.40700 26.61200
C  46.17400 19.71400 29.26900
C  46.34800 20.02100 25.96700
O  46.50100 20.20300 24.78200
C  45.67500 18.66000 26.24200
N  48.19700 25.20600 25.84500
C  47.85700 24.17300 24.98900
C  48.03900 24.59900 23.50700
C  48.32200 26.09700 23.60700
C  48.63700 26.21200 25.07300
C  49.19200 23.78300 22.73100
C  47.07100 27.00500 23.16700
C  47.44200 28.00600 22.06200
N  48.54800 26.98800 27.94600
C  49.15600 27.80600 26.94000
C  49.69200 28.95100 27.61700
C  49.44800 28.84200 28.99200
C  48.68700 27.62100 29.14400
C  50.43500 30.04900 26.90800
C  49.69300 29.37300 30.26400
O  50.28800 30.41700 30.59400
C  49.11100 28.38700 31.23200
C  50.22700 27.93400 32.17000
O  50.87800 26.95900 31.92300
O  50.27100 28.68700 33.32500
C  51.41700 28.34800 34.16200
H  46.78200 21.82400 30.89400
H  47.04500 22.35100 24.48800
H  49.46100 28.00000 24.78100
H  48.45700 25.94900 33.00900
H  45.99000 24.27700 32.64500
H  47.93400 22.30100 32.70700
H  47.03800 22.89700 34.07900
H  48.58900 23.55600 33.51600
H  45.59000 26.75400 32.19300
H  46.74700 27.76200 33.01400
H  46.51000 25.62800 34.81600
H  44.89900 25.80300 34.04400
H  46.61900 18.77600 28.93600
H  45.09500 19.68400 29.12400
H  46.49000 19.83400 30.30500
H  45.27900 18.12600 25.37900
H  44.81700 18.81200 26.89700
H  46.49300 18.06400 26.64800
H  47.08700 24.46300 22.99400
H  49.19600 26.37700 23.01800
H  50.12300 24.34100 22.62900
H  48.89200 23.65600 21.69100
H  49.34800 22.82900 23.23600
H  46.70700 27.50500 24.06500
H  46.27900 26.34600 22.81200
H  47.00500 27.62400 21.13900
H  48.52600 28.04800 21.95700
H  47.13300 29.00300 22.37600
H  50.96900 30.67300 27.62500
H  49.76800 30.69800 26.34000
H  51.20600 29.65900 26.24300
H  48.43100 28.87500 31.93100
H  52.28700 28.37800 33.50800
H  51.27500 27.37700 34.63600
H  51.53600 29.02400 35.00900

