158

Mg 40.96300 41.58700 27.13700
C  39.77500 43.78900 29.56700
C  41.41800 39.31700 29.61400
C  42.20500 39.41100 24.82400
C  40.53200 44.05400 24.72000
N  40.58100 41.59100 29.37700
C  40.05000 42.55200 30.12100
C  40.15900 42.18100 31.70500
C  40.64400 40.74400 31.58300
C  40.95300 40.53400 30.11700
C  41.74800 40.17900 32.47400
C  38.82300 42.49600 32.42300
C  38.27400 41.54000 33.45300
H  37.56900 42.31900 34.54200
N  41.76100 39.58100 27.14600
C  41.81900 38.85800 28.32000
C  42.23100 37.50500 28.00800
C  42.37600 37.44800 26.59700
C  42.15400 38.87100 26.07200
C  42.33900 36.36000 29.01800
C  42.87200 36.32300 25.63500
O  42.97500 36.42300 24.38400
C  43.17600 35.07500 26.18000
N  41.39100 41.72100 25.06300
C  41.92000 40.73500 24.36300
C  41.89100 41.03800 22.86700
C  41.32600 42.49600 22.81100
C  41.01700 42.82900 24.25100
C  43.20900 40.73700 21.99500
C  40.13900 42.58300 21.85400
C  38.87100 41.79600 22.22600
N  40.30500 43.46700 27.12900
C  40.19400 44.40800 26.04000
C  39.72100 45.67100 26.46500
C  39.46600 45.46400 27.82500
C  39.88700 44.12000 28.19700
C  39.67700 46.94600 25.67700
C  38.99800 46.10200 29.06500
O  38.58700 47.18500 29.33000
C  39.26200 45.10100 30.22600
C  40.26300 45.76500 31.15200
O  41.44800 45.96900 30.86900
O  39.61900 46.09700 32.28800
C  40.36900 46.72700 33.36900
H  41.24100 38.60100 30.41900
H  42.53700 38.79900 23.98300
H  40.39100 44.94000 24.09900
H  40.98300 42.70900 32.18600
H  39.74600 40.14800 31.74700
H  42.70800 40.18900 31.95900
H  41.39300 39.21100 32.82800
H  41.83700 40.70100 33.42600
H  38.09500 42.52900 31.61300
H  38.85600 43.52800 32.77300
H  39.01600 40.96700 34.00800
H  37.51700 40.86200 33.05800
H  41.81400 36.63600 29.93300
H  43.40400 36.12900 29.02300
H  41.84100 35.44400 28.69900
H  43.89900 35.11900 26.99400
H  43.58000 34.45100 25.38300
H  42.27400 34.58700 26.54900
H  41.11900 40.40800 22.42400
H  42.03200 43.22700 22.41800
H  43.89700 40.64500 22.83500
H  43.24100 41.55600 21.27600
H  43.14100 39.81800 21.41300
H  40.46200 42.12200 20.92100
H  39.84700 43.60700 21.61900
H  38.04400 42.37700 21.81900
H  38.74200 41.59000 23.28900
H  38.84200 40.79500 21.79700
H  40.66600 47.21800 25.31000
H  39.33200 47.71700 26.36600
H  39.00900 46.91600 24.81600
H  38.28700 44.90500 30.67300
H  41.43800 46.84800 33.19500
H  40.20400 46.14300 34.27500
H  39.98700 47.73800 33.51300
Mg 8.93900 47.37000 24.41300
C  6.84800 47.56600 27.19300
C  11.54600 48.49000 26.26700
C  10.72900 47.26200 21.62700
C  5.98200 47.15500 22.40200
N  9.15400 47.78800 26.48200
C  8.21200 47.86800 27.44100
C  8.74200 48.40700 28.78200
C  10.11100 48.97900 28.29800
C  10.29800 48.41100 26.89800
C  10.05500 50.55400 28.24100
C  8.88600 47.33900 29.87100
C  8.03900 47.61100 31.11200
H  8.04100 46.40100 32.12500
N  10.94600 47.78800 24.03300
C  11.87100 48.14300 24.93400
C  13.15400 48.25300 24.25900
C  12.93100 47.82800 22.94100
C  11.48700 47.60400 22.82000
C  14.45700 48.61700 24.90000
C  13.85000 47.65700 21.81100
O  13.49200 47.17200 20.75400
C  15.35200 47.85700 22.08000
N  8.37400 47.39100 22.27000
C  9.30500 47.17100 21.36200
C  8.71800 46.78300 19.99600
C  7.16900 46.68700 20.29400
C  7.17000 47.06700 21.74200
C  9.11500 47.80700 18.82800
C  6.58500 45.27900 19.94300
C  5.24800 45.24000 19.21800
N  6.87200 47.24300 24.71400
C  5.82600 47.24800 23.79300
C  4.52200 47.12600 24.46900
C  4.88700 47.30200 25.86000
C  6.28200 47.41400 25.93600
C  3.23100 46.92400 23.82800
C  4.35100 47.28800 27.21000
O  3.20600 47.28000 27.61400
C  5.63400 47.53600 28.10900
C  5.58600 46.36000 29.02400
O  6.27600 45.38400 29.01600
O  4.65400 46.62300 29.99900
C  4.70200 45.72000 31.21000
H  12.42300 48.85200 26.80800
H  11.24100 46.90900 20.73000
H  5.03600 46.93900 21.90200
H  8.01500 49.17000 29.06100
H  10.86000 48.60900 28.99800
H  10.73100 50.96900 28.98900
H  9.06900 50.96200 28.46000
H  10.32300 50.84400 27.22500
H  9.90000 47.18400 30.24000
H  8.52600 46.40400 29.44100
H  7.00600 47.64600 30.76500
H  8.35200 48.58900 31.47800
H  14.41400 49.04500 25.90100
H  14.86700 49.43500 24.30700
H  15.20600 47.82600 24.95200
H  15.49400 48.91400 22.30600
H  15.82400 47.65800 21.11800
H  15.82600 47.15100 22.76000
H  9.16300 45.82700 19.72100
H  6.63100 47.44500 19.72400
H  9.80300 48.55800 19.21500
H  8.31900 48.32700 18.29400
H  9.70000 47.30600 18.05700
H  6.34900 44.71000 20.84300
H  7.28300 44.67200 19.36600
H  4.55900 44.69600 19.86400
H  5.44600 44.71300 18.28500
H  4.92500 46.21900 18.86400
H  2.37100 47.14000 24.46200
H  3.22300 45.94000 23.35900
H  3.20800 47.61000 22.98100
H  5.57400 48.45300 28.69500
H  5.24400 46.31100 31.94800
H  5.07200 44.71900 30.98600
H  3.70000 45.77400 31.63500

