158

Mg 47.84000 34.05900 27.08300
C  45.91100 32.97500 29.93600
C  48.74600 36.84300 28.85500
C  49.05400 35.44500 24.25700
C  46.74900 31.24500 25.41600
N  47.37800 34.76900 29.09000
C  46.56700 34.25800 30.09600
C  46.61100 35.11000 31.36900
C  47.13800 36.41700 30.74600
C  47.82600 35.98800 29.45300
C  46.05400 37.52500 30.57000
C  47.50800 34.56600 32.56100
C  46.91800 34.91500 33.90100
H  47.87200 35.42000 35.00400
N  48.78600 35.90600 26.58000
C  49.20600 36.78400 27.54800
C  50.07400 37.76600 26.85200
C  50.26200 37.43300 25.49200
C  49.32300 36.22300 25.36900
C  50.66900 38.99700 27.52600
C  51.15500 38.05400 24.37500
O  51.11000 37.61600 23.20800
C  52.15700 39.18600 24.77800
N  47.74300 33.49200 25.20100
C  48.37300 34.20500 24.22600
C  48.09600 33.61500 22.82500
C  47.43500 32.27300 23.14200
C  47.21600 32.35900 24.68600
C  47.23100 34.48100 21.93200
C  48.47600 31.15300 22.80700
C  49.66200 30.74700 23.70200
N  46.74100 32.40600 27.51700
C  46.37600 31.27400 26.75800
C  45.55500 30.37500 27.48900
C  45.33100 31.02900 28.70200
C  46.05700 32.22800 28.69000
C  44.99700 29.08900 27.00600
C  44.55000 30.91400 30.01300
O  43.80800 29.99600 30.43200
C  44.82000 32.19900 30.70800
C  44.96600 32.00200 32.19500
O  45.97600 31.70800 32.73200
O  43.74800 31.92700 32.73100
C  43.81200 31.68900 34.23500
H  49.08400 37.65300 29.50500
H  49.52500 35.69600 23.30400
H  46.35900 30.38600 24.86400
H  45.58400 35.27800 31.69400
H  47.95300 36.84700 31.32700
H  45.99900 37.89400 29.54600
H  46.19900 38.43000 31.15900
H  45.10200 37.03100 30.76800
H  48.50000 35.01300 32.49000
H  47.75700 33.50800 32.48000
H  46.42500 34.00300 34.24000
H  46.05900 35.57800 33.79700
H  51.75500 38.92200 27.55800
H  50.27400 38.92500 28.53900
H  50.36700 39.95300 27.09600
H  52.92300 39.34300 24.01900
H  52.63900 38.83600 25.69100
H  51.79500 40.20100 24.94200
H  49.10200 33.51000 22.41900
H  46.50000 32.11000 22.60500
H  47.24200 35.50100 22.31800
H  46.22400 34.07000 21.86500
H  47.65400 34.47200 20.92800
H  49.01900 31.41900 21.90000
H  47.88000 30.25000 22.67800
H  49.74000 31.42900 24.54900
H  50.62800 30.89100 23.21900
H  49.42300 29.76500 24.11000
H  44.62600 28.43900 27.79800
H  45.68000 28.55100 26.34800
H  44.12600 29.24000 26.36800
H  43.91800 32.80600 30.63800
H  42.92600 32.20200 34.60900
H  44.61600 32.09400 34.85100
H  43.89100 30.61600 34.40900
Mg 26.04400 50.30300 27.10700
C  24.09600 51.43400 29.84400
C  28.46200 49.32300 29.45300
C  27.95500 49.21600 24.56400
C  23.62900 51.44300 24.96300
N  26.26200 50.29300 29.40100
C  25.27000 50.83700 30.26200
C  25.63900 50.36500 31.72100
C  27.09100 49.82200 31.57400
C  27.28600 49.80900 30.05600
C  28.23500 50.51200 32.39700
C  24.52700 49.35400 32.39700
C  23.88700 49.82900 33.71100
H  24.93400 50.15800 34.87500
N  27.89000 49.47200 26.96500
C  28.77900 49.26800 28.05400
C  30.04700 48.71500 27.55500
C  29.95300 48.62500 26.08900
C  28.55000 49.07700 25.85400
C  31.11500 48.29200 28.48100
C  30.99500 48.12000 25.12900
O  30.70500 48.02900 23.92400
C  32.38700 47.73700 25.61300
N  25.90900 50.38100 25.06000
C  26.76500 49.76600 24.18900
C  26.36100 50.01300 22.68200
C  24.84600 50.22000 22.92400
C  24.70300 50.71300 24.43700
C  27.19200 51.13600 21.95000
C  23.91400 49.00400 22.61000
C  23.31200 48.09500 23.75200
N  24.32200 51.33600 27.27400
C  23.42500 51.70700 26.27800
C  22.26900 52.34100 26.85600
C  22.51600 52.28800 28.28300
C  23.76800 51.65600 28.47800
C  21.07500 52.97300 26.17100
C  21.98300 52.63200 29.59900
O  20.86500 53.10500 29.89400
C  23.00600 52.08600 30.69500
C  23.42200 53.10900 31.58900
O  24.54200 53.64900 31.58300
O  22.46400 53.33200 32.61100
C  22.82200 54.22800 33.75600
H  29.24900 48.99600 30.13500
H  28.50300 48.83800 23.69800
H  22.83200 51.54600 24.22400
H  25.64900 51.32600 32.23500
H  27.08500 48.78800 31.91800
H  28.83100 49.65200 32.70100
H  27.86200 51.00800 33.29300
H  28.90500 51.05100 31.72700
H  25.03100 48.44300 32.71800
H  23.79100 49.17000 31.61500
H  23.40300 48.97000 34.17700
H  23.16600 50.63600 33.57800
H  30.93900 47.25300 28.76200
H  31.13300 48.79800 29.44600
H  32.10100 48.32300 28.01700
H  32.80700 48.62900 26.07800
H  33.07600 47.57100 24.78500
H  32.26700 46.87000 26.26200
H  26.50700 49.05100 22.19200
H  24.41800 51.01400 22.31100
H  28.03900 51.61700 22.43900
H  26.43200 51.82900 21.58900
H  27.52300 50.57200 21.07800
H  24.28400 48.38500 21.79300
H  23.03100 49.40300 22.11100
H  23.75100 47.09800 23.70900
H  22.24500 47.95300 23.58400
H  23.43900 48.46300 24.77000
H  21.02100 52.54500 25.17000
H  21.12300 54.06100 26.21700
H  20.17400 52.66300 26.70000
H  22.42800 51.48400 31.39600
H  22.61800 55.27900 33.54900
H  23.89200 54.14400 33.94700
H  22.13400 54.04800 34.58200

