158

Mg 2.04800 -2.31900 45.00800
C  5.56800 -1.41300 44.88900
C  1.36300 0.53100 43.28200
C  -0.92900 -3.52400 44.66300
C  3.14500 -5.59900 46.07500
N  3.35600 -0.79100 44.02100
C  4.71800 -0.54500 44.12600
C  5.14200 0.61500 43.23500
C  3.79200 1.24700 42.80500
C  2.75800 0.34200 43.43100
C  3.74900 2.68000 43.39200
C  5.88800 -0.00600 42.04800
C  7.16800 0.73000 41.68700
H  7.48000 0.70200 40.14900
N  0.35700 -1.49800 44.30100
C  0.22600 -0.32900 43.62800
C  -1.16200 -0.09900 43.21100
C  -1.79200 -1.38000 43.42500
C  -0.77500 -2.21000 44.12300
C  -1.56900 1.12200 42.60800
C  -3.23600 -1.68600 43.09800
O  -3.94100 -0.89200 42.62400
C  -3.85900 -3.10500 43.23800
N  1.23400 -4.32700 45.29700
C  -0.08800 -4.47800 45.18900
C  -0.57500 -5.87400 45.68000
C  0.77000 -6.46300 46.22200
C  1.77100 -5.39600 45.82100
C  -1.66800 -5.78100 46.87500
C  1.03400 -7.87100 45.58200
C  1.68900 -8.96300 46.37300
N  3.96500 -3.31200 45.47400
C  4.21800 -4.64300 45.90800
C  5.68000 -4.73800 46.08400
C  6.22800 -3.50600 45.73300
C  5.14400 -2.69300 45.39300
C  6.34000 -5.96100 46.54700
C  7.47600 -2.74900 45.71400
O  8.61900 -3.06900 46.10900
C  7.07200 -1.37900 45.02200
C  7.60100 -0.24800 45.91400
O  7.47600 -0.28400 47.13300
O  8.16500 0.78400 45.13300
C  8.42600 2.01100 45.95500
H  1.17300 1.41000 42.66200
H  -1.97100 -3.83200 44.55200
H  3.40100 -6.62500 46.34900
H  5.68600 1.32300 43.86000
H  3.60500 1.31700 41.73400
H  4.32700 3.43200 42.85600
H  3.95900 2.65700 44.46200
H  2.72700 3.05700 43.34500
H  5.33700 -0.04400 41.10800
H  6.17300 -1.03600 42.25800
H  7.99400 0.31500 42.26400
H  7.11700 1.77500 41.99400
H  -1.19900 1.12400 41.58200
H  -1.18000 1.93500 43.22100
H  -2.65500 1.21000 42.61200
H  -3.18100 -3.86300 42.84600
H  -4.78900 -3.09600 42.67000
H  -3.92200 -3.30500 44.30800
H  -0.88700 -6.44700 44.80700
H  0.68300 -6.54800 47.30500
H  -1.87800 -4.71800 46.99200
H  -1.23600 -6.15600 47.80300
H  -2.54600 -6.39500 46.67300
H  1.65800 -7.73000 44.70000
H  0.06400 -8.14700 45.16900
H  2.27900 -9.61200 45.72500
H  0.90500 -9.63400 46.72400
H  2.35300 -8.66300 47.18300
H  5.89000 -6.32300 47.47200
H  7.42700 -5.88100 46.56500
H  6.13200 -6.66600 45.74200
H  7.52800 -1.29100 44.03700
H  8.59300 2.84200 45.26900
H  9.35000 1.88700 46.52000
H  7.57200 2.19500 46.60600
Mg 10.31500 47.55200 26.25800
C  8.18700 47.75500 28.92200
C  12.83200 49.09200 28.06700
C  12.42000 47.38800 23.45900
C  7.79400 46.60500 24.16900
N  10.59300 47.94600 28.47900
C  9.52400 48.13800 29.26400
C  9.92900 48.82600 30.57200
C  11.23400 49.60700 30.06900
C  11.64600 48.80300 28.85500
C  11.01900 51.16400 29.78300
C  10.24100 47.89700 31.79900
C  10.93700 48.54900 33.04400
H  10.22500 48.24400 34.39400
N  12.28900 48.15700 25.86000
C  13.16300 48.71400 26.75900
C  14.45800 48.90100 26.13900
C  14.35700 48.32800 24.83600
C  12.99100 47.91800 24.68200
C  15.60300 49.36600 26.95300
C  15.49600 48.30400 23.77300
O  15.28400 48.00300 22.61800
C  16.89100 48.65600 24.17500
N  10.16300 47.10400 24.06500
C  11.11600 47.08100 23.16300
C  10.69600 46.42700 21.82300
C  9.16400 46.28700 22.07100
C  9.02700 46.67600 23.57100
C  11.18300 47.22600 20.54800
C  8.62200 44.84400 21.80900
C  9.30000 43.72700 22.65300
N  8.33600 47.31400 26.44600
C  7.40200 46.89900 25.47900
C  6.06600 46.83600 26.11900
C  6.28700 47.12300 27.48500
C  7.69000 47.33100 27.65800
C  4.67400 46.77200 25.38800
C  5.74900 47.38700 28.77600
O  4.61000 47.34000 29.20800
C  6.96000 47.77100 29.75000
C  6.93200 46.75900 30.90300
O  7.43700 45.65000 30.89400
O  6.20600 47.29600 31.91600
C  5.88000 46.42200 33.01600
H  13.40700 49.72100 28.75000
H  13.11200 47.25900 22.62400
H  6.89200 46.24300 23.67300
H  9.13700 49.51800 30.85900
H  12.04200 49.55000 30.79900
H  11.12700 51.38100 28.72100
H  11.82300 51.70200 30.28600
H  9.99800 51.42200 30.06300
H  10.97800 47.21100 31.38200
H  9.41300 47.20300 31.94500
H  10.76500 49.62100 32.95400
H  12.00700 48.35200 32.99000
H  15.40300 49.66100 27.98300
H  16.18100 50.21000 26.57700
H  16.39800 48.62400 27.02400
H  16.82100 49.62300 24.67400
H  17.47400 48.45900 23.27500
H  17.20400 47.95700 24.95000
H  11.19600 45.46500 21.71100
H  8.57300 46.97700 21.46900
H  11.95900 46.69700 19.99400
H  11.60600 48.16600 20.90400
H  10.30400 47.45800 19.94700
H  8.78200 44.68900 20.74200
H  7.55500 44.86500 22.03200
H  8.48700 43.26000 23.20900
H  9.97000 44.15000 23.40200
H  9.73400 42.98100 21.98700
H  4.64100 46.36000 24.37900
H  4.26900 47.77900 25.29500
H  4.01800 46.31300 26.12800
H  6.71400 48.75100 30.15900
H  5.88900 47.10000 33.87000
H  6.58300 45.62600 33.26000
H  4.85200 46.07700 32.90000

