158

Mg 46.91800 35.46300 29.05800
C  45.44300 33.08200 31.13400
C  46.75000 37.79200 31.51200
C  47.78400 37.88200 26.82800
C  46.32800 33.26500 26.26300
N  46.33400 35.37800 31.13600
C  45.77800 34.28300 31.75900
C  45.78600 34.53200 33.26800
C  45.56200 36.13000 33.23600
C  46.33800 36.51000 31.91700
C  44.06200 36.57600 33.09900
C  47.19600 34.02800 33.68800
C  47.24800 33.75500 35.19400
H  46.21500 34.36700 36.18800
N  47.42500 37.44000 29.24400
C  47.35100 38.24500 30.27900
C  47.98400 39.49200 30.06900
C  48.42300 39.50900 28.71100
C  47.88100 38.25500 28.17800
C  48.07100 40.58200 31.14300
C  49.28900 40.48800 27.96200
O  49.52000 40.32400 26.75600
C  50.03100 41.65800 28.70700
N  46.97700 35.57500 26.85900
C  47.34600 36.69700 26.24100
C  47.20500 36.50900 24.68100
C  46.70600 35.01700 24.52300
C  46.68800 34.58400 25.94200
C  46.09300 37.37900 24.02400
C  47.59300 34.15300 23.64100
C  46.91000 33.32800 22.56000
N  46.21900 33.49300 28.69100
C  46.05200 32.73300 27.51100
C  45.46100 31.37800 27.88000
C  45.16100 31.55300 29.25600
C  45.62700 32.81000 29.69000
C  45.26700 30.17400 27.03000
C  44.52500 30.90500 30.42300
O  44.12400 29.76800 30.60200
C  44.41600 31.96000 31.52100
C  44.60500 31.51400 32.90900
O  45.63400 31.01700 33.36400
O  43.46800 31.70600 33.65400
C  43.28600 31.13900 34.92400
H  46.44700 38.59400 32.18700
H  48.05200 38.69200 26.14700
H  46.02600 32.70200 25.37700
H  44.91200 34.16400 33.80500
H  46.07100 36.59700 34.07900
H  43.84900 37.20200 32.23300
H  43.72800 37.10500 33.99100
H  43.47200 35.66900 32.96500
H  47.87600 34.86500 33.53400
H  47.50400 33.17800 33.08000
H  48.21300 34.05400 35.60300
H  47.12300 32.67500 35.11500
H  47.10900 40.61400 31.65300
H  48.11100 41.52900 30.60400
H  48.97900 40.45600 31.73300
H  50.71500 41.97100 27.91900
H  50.52500 41.33400 29.62300
H  49.33400 42.45500 28.96700
H  48.16900 36.83600 24.29300
H  45.70000 35.01600 24.10300
H  45.64800 38.11000 24.69900
H  45.30600 36.91000 23.43200
H  46.66900 37.91500 23.27000
H  48.03500 33.41100 24.30600
H  48.35000 34.79700 23.19200
H  47.16000 33.66400 21.55300
H  45.82800 33.45900 22.55200
H  47.08100 32.25700 22.66700
H  45.53500 30.46400 26.01400
H  44.22400 29.93300 27.23600
H  45.82700 29.29700 27.35300
H  43.41400 32.37700 31.41700
H  42.24500 31.33400 35.18200
H  43.96800 31.66400 35.59300
H  43.58500 30.09100 34.90300
Mg 9.13100 47.65400 25.10200
C  6.82300 47.86100 27.73600
C  11.59100 47.74900 27.59100
C  11.22700 47.58500 22.68000
C  6.44400 47.88900 22.87100
N  9.12600 47.82800 27.41200
C  8.12300 47.72600 28.27100
C  8.58700 47.64800 29.74700
C  10.03900 48.10900 29.54900
C  10.28800 47.76900 28.07900
C  10.20500 49.60100 30.02600
C  8.36300 46.25200 30.42700
C  8.92900 46.08800 31.85500
H  7.95800 46.14100 33.02200
N  11.13200 47.64000 25.14900
C  11.99200 47.59600 26.23000
C  13.39000 47.50500 25.71000
C  13.29800 47.44800 24.25900
C  11.83500 47.50900 23.96100
C  14.62900 47.55500 26.65700
C  14.35200 47.18400 23.29400
O  14.15900 47.10800 22.11300
C  15.76300 47.24200 23.77400
N  8.89500 47.61600 23.07700
C  9.93500 47.68500 22.28100
C  9.54500 48.07400 20.84300
C  8.05200 47.81100 20.89400
C  7.74700 47.71000 22.39300
C  9.87000 49.56500 20.50600
C  7.66700 46.43800 20.31600
C  6.19400 46.41900 19.83900
N  7.10400 48.05900 25.25200
C  6.09200 48.04800 24.25500
C  4.80800 48.13800 24.81000
C  5.02500 48.15600 26.19400
C  6.38400 47.98000 26.41900
C  3.51300 48.18600 24.10000
C  4.35400 48.17900 27.49800
O  3.15100 48.37000 27.82900
C  5.52000 47.94400 28.56400
C  5.29500 46.71000 29.29200
O  5.58100 45.65700 28.83500
O  4.62100 46.95000 30.50200
C  4.22300 45.75900 31.32600
H  12.40100 47.73400 28.32400
H  11.98200 47.56900 21.89100
H  5.64300 48.06600 22.15100
H  8.06100 48.37900 30.36100
H  10.65400 47.54500 30.25100
H  10.11100 49.58500 31.11200
H  9.54300 50.36400 29.61700
H  11.19900 49.90000 29.69400
H  8.93200 45.57200 29.79300
H  7.37900 45.79400 30.51700
H  9.74400 46.78100 32.06200
H  9.45900 45.13600 31.88500
H  14.34200 47.68400 27.70100
H  15.21700 48.46800 26.56000
H  15.37200 46.76800 26.52900
H  16.40900 47.21800 22.89600
H  15.90300 46.39500 24.44500
H  15.84700 48.17000 24.33900
H  10.04300 47.34400 20.20500
H  7.53700 48.68400 20.49300
H  9.54200 49.90600 19.52400
H  10.93000 49.78100 20.63500
H  9.45300 50.19300 21.29300
H  7.66300 45.60600 21.02000
H  8.29800 46.17900 19.46500
H  6.31200 46.17600 18.78300
H  5.66100 47.36900 19.87400
H  5.70700 45.64200 20.42800
H  3.26600 47.41400 23.37100
H  3.28100 49.16900 23.69000
H  2.73100 48.08000 24.85100
H  5.58300 48.79600 29.24000
H  3.14300 45.80100 31.46000
H  4.67100 45.81500 32.31800
H  4.35700 44.79200 30.84000

