158

Mg 49.75100 35.58700 26.52700
C  47.68800 34.34500 29.27500
C  50.39600 38.39100 28.34800
C  51.62100 36.55000 23.93100
C  48.66000 32.74100 24.68400
N  49.02500 36.31300 28.60600
C  48.30600 35.60900 29.59200
C  48.40900 36.29100 30.92400
C  48.86700 37.79300 30.44400
C  49.46100 37.48500 29.06000
C  47.78800 38.84100 30.33200
C  49.44900 35.64700 31.77800
C  49.07300 35.49000 33.24000
H  48.02500 36.36300 33.87300
N  50.90000 37.25200 26.18000
C  51.08700 38.33500 27.04900
C  52.03600 39.23600 26.42800
C  52.49000 38.64500 25.18500
C  51.65700 37.42200 25.05100
C  52.37000 40.59900 27.08400
C  53.42200 39.34600 24.19900
O  53.68200 38.81400 23.09500
C  54.18800 40.64500 24.54200
N  50.00900 34.82100 24.54700
C  50.86200 35.37900 23.75100
C  51.07500 34.51900 22.44800
C  50.31400 33.28900 22.78200
C  49.60100 33.62700 24.05800
C  50.88700 35.13900 21.04900
C  51.22500 32.07200 23.08800
C  50.68800 30.68200 22.92900
N  48.37800 33.96100 26.81200
C  48.12300 32.86300 25.99900
C  47.33100 31.88400 26.72400
C  47.06900 32.47400 27.96000
C  47.79400 33.70800 28.01900
C  46.69700 30.68800 26.12000
C  46.37300 32.21100 29.19500
O  45.70400 31.28400 29.56900
C  46.64600 33.47800 30.07100
C  47.01100 32.98900 31.48700
O  48.13500 32.57000 31.78300
O  45.92200 32.84200 32.27900
C  46.20500 32.19700 33.60800
H  50.64400 39.16600 29.07600
H  52.28100 36.88400 23.12800
H  48.40500 31.84800 24.11000
H  47.40300 36.27500 31.34300
H  49.55000 38.28500 31.13600
H  48.14600 39.72000 30.86900
H  46.95400 38.41300 30.88800
H  47.52300 39.13100 29.31600
H  50.35000 36.25300 31.68400
H  49.53900 34.60400 31.47500
H  49.92500 35.38900 33.91200
H  48.70300 34.46500 33.24200
H  51.50800 40.84300 27.70600
H  52.37700 41.42500 26.37300
H  53.34900 40.62700 27.56200
H  53.76500 41.63200 24.35900
H  55.01200 40.60700 23.83000
H  54.44400 40.50800 25.59300
H  52.14500 34.31700 22.48600
H  49.55700 32.99400 22.05600
H  50.13200 34.58800 20.48800
H  51.81900 35.17900 20.48700
H  50.56700 36.16900 21.21000
H  51.74800 32.12100 24.04400
H  51.95300 32.06400 22.27700
H  51.14900 30.04700 23.68600
H  51.02700 30.30900 21.96200
H  49.61100 30.52000 22.95700
H  47.28700 30.19800 25.34600
H  45.71300 30.95500 25.73400
H  46.69900 29.97300 26.94300
H  45.65700 33.93600 30.06600
H  47.11200 31.59600 33.67800
H  45.36600 31.50500 33.68900
H  46.06900 32.86400 34.45900
Mg 30.76400 58.07900 39.75600
C  28.42800 55.93200 38.71100
C  33.21000 55.78600 38.80600
C  33.02300 60.46800 40.13300
C  28.18700 60.42200 40.36400
N  30.80500 55.91600 38.98400
C  29.68600 55.31500 38.48300
C  30.08000 53.96600 37.77600
C  31.55800 53.81800 38.37900
C  31.90100 55.23200 38.71200
C  31.67900 52.78800 39.51300
C  29.99500 54.04300 36.17500
C  28.97800 53.08200 35.45900
H  28.06900 53.83200 34.45400
N  32.83300 58.15700 39.50000
C  33.71200 57.10600 39.10800
C  35.05600 57.58400 39.11900
C  35.05500 58.94000 39.67000
C  33.61400 59.25100 39.75600
C  36.24700 56.73300 38.68600
C  36.26600 59.83400 39.92100
O  37.39800 59.42600 39.68400
C  36.05700 61.22700 40.50100
N  30.68300 60.19000 40.20100
C  31.74400 60.98000 40.28300
C  31.38700 62.37400 40.81900
C  29.85500 62.35500 40.84400
C  29.48700 60.81400 40.44200
C  32.21700 62.67200 42.22500
C  29.20000 63.38200 39.89800
C  27.80000 63.95200 40.32600
N  28.75500 58.20600 39.65400
C  27.81800 59.20700 39.91600
C  26.52300 58.72100 39.60500
C  26.65700 57.46900 39.11500
C  28.07300 57.20000 39.12300
C  25.28400 59.53800 39.65300
C  25.96200 56.35900 38.38600
O  24.75800 56.20700 38.10400
C  27.09300 55.29800 38.20900
C  26.72900 54.06700 39.01100
O  27.15000 53.73600 40.14700
O  25.76100 53.31800 38.32000
C  25.17900 52.23400 39.05700
H  34.02500 55.06700 38.69100
H  33.59400 61.35800 40.40400
H  27.42700 61.15500 40.64300
H  29.35000 53.23900 38.13200
H  32.30600 53.54600 37.63400
H  32.44000 52.05700 39.24100
H  30.69800 52.33200 39.64100
H  32.04300 53.23900 40.43600
H  30.94000 53.72900 35.73200
H  29.91700 55.09500 35.90000
H  28.31600 52.53800 36.13300
H  29.62300 52.39300 34.91400
H  36.36400 57.01200 37.63800
H  35.95300 55.69100 38.80800
H  37.09500 56.89400 39.35100
H  36.98800 61.77100 40.66100
H  35.64600 61.19900 41.51000
H  35.43700 61.90500 39.91400
H  31.79700 63.12700 40.14600
H  29.69200 62.55100 41.90400
H  32.96400 63.44700 42.05200
H  32.73400 61.77600 42.56600
H  31.56100 63.03900 43.01500
H  29.13600 62.89900 38.92200
H  29.92100 64.13600 39.58500
H  27.37100 63.70800 41.29800
H  27.04700 63.74000 39.56800
H  27.91200 65.02400 40.16600
H  24.46600 58.86400 39.39800
H  25.36200 60.34500 38.92500
H  25.09400 60.02900 40.60700
H  27.11700 54.96500 37.17200
H  24.27400 52.65600 39.49600
H  25.77400 51.88000 39.89800
H  24.73000 51.46700 38.42600

