158

Mg 41.68700 9.37700 29.75500
C  42.91600 10.64600 32.84800
C  39.38600 7.64500 31.47500
C  40.62900 8.15000 26.80000
C  44.18400 11.34900 28.11100
N  41.38800 9.09300 31.97000
C  41.89200 9.73800 33.03300
C  41.26200 9.21700 34.32800
C  40.17900 8.14000 33.83800
C  40.33000 8.27600 32.32100
C  40.34100 6.66400 34.34800
C  40.64000 10.33900 35.23600
C  40.98400 10.30800 36.78900
H  41.32100 11.60400 37.42900
N  40.23000 8.08300 29.25300
C  39.34400 7.47400 30.07000
C  38.37700 6.66700 29.34100
C  38.75900 6.79200 27.98900
C  39.90800 7.64300 27.94300
C  37.25800 5.80600 30.00100
C  38.09400 6.19200 26.77500
O  38.48600 6.33800 25.64800
C  36.84200 5.35800 26.89800
N  42.31300 9.73700 27.70400
C  41.77200 9.01900 26.70900
C  42.40500 9.50300 25.33000
C  43.27800 10.73200 25.73300
C  43.29800 10.53600 27.25100
C  43.05100 8.37400 24.52500
C  42.72900 12.16800 25.22200
C  41.30000 12.76800 25.62500
N  43.37600 10.53100 30.36900
C  44.29900 11.30000 29.53400
C  45.21500 12.01200 30.41900
C  44.64000 11.77800 31.72200
C  43.59500 10.83900 31.63200
C  46.37400 12.84100 29.91600
C  44.78600 12.09200 33.13100
O  45.59200 12.81100 33.68200
C  43.71700 11.38000 33.90500
C  44.44800 10.37100 34.83400
O  45.29100 9.57400 34.54700
O  44.01600 10.56400 36.27300
C  44.79300 9.67200 37.21600
H  38.68800 6.93800 31.92800
H  40.20100 7.92200 25.82200
H  44.93700 11.94200 27.58600
H  42.09200 8.73600 34.84700
H  39.20000 8.47500 34.18000
H  41.17400 6.66100 35.05100
H  40.51500 6.06500 33.45300
H  39.45100 6.24200 34.81400
H  39.55200 10.32800 35.17500
H  41.04600 11.29800 34.91300
H  41.65500 9.46600 36.96200
H  40.03100 9.95900 37.18600
H  37.28400 4.85900 29.46200
H  36.29200 6.27000 29.79900
H  37.38200 5.63700 31.07100
H  36.32200 5.13000 25.96800
H  36.19700 5.78300 27.66800
H  37.08200 4.38500 27.32600
H  41.58300 9.88200 24.72200
H  44.26800 10.48000 25.35100
H  42.94200 8.48800 23.44600
H  42.48900 7.51100 24.88300
H  44.09000 8.16100 24.77300
H  42.92200 12.32300 24.16000
H  43.36300 12.83200 25.80900
H  40.93200 12.22700 26.49700
H  40.61300 12.80800 24.78000
H  41.47000 13.81500 25.87800
H  45.96000 13.36300 29.05300
H  47.15500 12.10400 29.72900
H  46.61200 13.58800 30.67300
H  43.12500 12.14000 34.41500
H  45.84300 9.96000 37.25700
H  44.69900 8.62300 36.93600
H  44.37400 9.86700 38.20300
Mg -11.64300 17.02000 42.89800
C  -8.56600 15.60900 42.48400
C  -10.55500 19.98900 41.40700
C  -14.75400 18.12300 42.86900
C  -12.90500 13.65000 43.39400
N  -9.77900 17.71200 42.06500
C  -8.64800 16.96500 42.05200
C  -7.51600 17.69300 41.31600
C  -8.09600 19.16600 41.23300
C  -9.54900 18.95500 41.62200
C  -7.39700 20.30100 42.02700
C  -7.16100 16.98000 39.94100
C  -5.58500 16.65900 39.82500
H  -5.09200 15.70100 38.71900
N  -12.55000 18.83000 42.13800
C  -11.95500 19.88300 41.56400
C  -12.93600 20.85600 41.26200
C  -14.18500 20.45300 41.81000
C  -13.85600 19.08600 42.31600
C  -12.64000 22.16000 40.58300
C  -15.49700 21.26100 41.79700
O  -15.62600 22.42700 41.40000
C  -16.61200 20.66500 42.54500
N  -13.62400 15.96500 42.83000
C  -14.68000 16.75000 43.13900
C  -15.92300 15.84000 43.58800
C  -15.34100 14.39800 43.41100
C  -13.83200 14.62200 43.18000
C  -16.44200 16.04900 45.01300
C  -15.83300 13.51800 42.18200
C  -16.02100 12.03400 42.46300
N  -10.93900 14.99500 43.07900
C  -11.51200 13.81800 43.38100
C  -10.53500 12.76900 43.55400
C  -9.32600 13.48700 43.24000
C  -9.62400 14.79500 42.95100
C  -10.74200 11.36600 43.93300
C  -7.91300 13.30200 43.02800
O  -7.21600 12.33400 43.22600
C  -7.39400 14.64000 42.43500
C  -6.29800 15.06000 43.35500
O  -6.39300 15.53300 44.45000
O  -5.08500 14.80400 42.72000
C  -3.83500 15.25100 43.42300
H  -10.07700 20.91800 41.09000
H  -15.81500 18.35200 42.99200
H  -13.26500 12.66100 43.68600
H  -6.69200 17.69600 42.03100
H  -8.15300 19.35200 40.16000
H  -7.13600 21.01000 41.24200
H  -6.51200 19.91600 42.53300
H  -8.03300 20.83000 42.73600
H  -7.44000 17.62100 39.10400
H  -7.76400 16.07600 39.85300
H  -5.15200 16.33000 40.77000
H  -5.14700 17.64400 39.66600
H  -12.01000 21.87400 39.74100
H  -12.01000 22.75800 41.24200
H  -13.49500 22.71600 40.19900
H  -17.32700 21.46000 42.75300
H  -16.22600 20.24400 43.47400
H  -17.11500 19.90900 41.94200
H  -16.68800 16.11300 42.86100
H  -15.40900 13.76900 44.29800
H  -16.45500 15.16800 45.65500
H  -17.42500 16.51100 45.09600
H  -15.76200 16.82500 45.36400
H  -15.15000 13.53700 41.33200
H  -16.71000 14.06900 41.84200
H  -15.46800 11.81000 43.37400
H  -15.63300 11.32300 41.73300
H  -17.04800 11.71800 42.64400
H  -9.84700 10.77300 43.74400
H  -11.58400 10.96600 43.36700
H  -10.94700 11.30200 45.00200
H  -7.01800 14.55900 41.41600
H  -3.40000 14.28400 43.67600
H  -3.94100 15.72400 44.39900
H  -3.04900 15.73000 42.83900

