158

Mg 1.66000 -1.28800 45.05200
C  4.81300 0.22400 44.65900
C  0.19600 1.46600 43.51300
C  -1.27400 -3.03200 45.06800
C  3.33900 -4.28800 45.82600
N  2.44800 0.57600 44.14700
C  3.72200 1.00200 44.10500
C  3.75500 2.48200 43.69800
C  2.26400 2.91400 43.44800
C  1.57800 1.58300 43.77400
C  1.69300 4.08300 44.39900
C  4.65200 2.86400 42.47200
C  4.46700 1.98000 41.23100
H  5.73200 1.34100 40.64100
N  -0.22400 -0.90400 44.33300
C  -0.62400 0.27800 43.76200
C  -2.08500 0.21300 43.52700
C  -2.59700 -0.99700 44.03500
C  -1.37800 -1.74100 44.58000
C  -2.89600 1.33100 42.82700
C  -4.05700 -1.37500 44.04300
O  -4.79600 -0.78200 43.27100
C  -4.53700 -2.46500 44.87600
N  1.05400 -3.27900 45.44600
C  -0.19500 -3.80400 45.49800
C  -0.21500 -5.29000 45.65000
C  1.27900 -5.71200 45.68700
C  1.95300 -4.37700 45.61200
C  -1.14000 -5.89200 46.77100
C  1.86600 -6.78800 44.72600
C  1.81500 -8.31600 45.17400
N  3.62000 -1.88600 45.41800
C  4.14900 -3.11700 45.77900
C  5.59600 -3.00400 45.92800
C  5.95300 -1.72600 45.47200
C  4.72700 -1.09400 45.16600
C  6.48700 -4.12000 46.45600
C  6.98200 -0.81900 45.18700
O  8.18000 -0.93700 45.24900
C  6.30800 0.54300 44.71700
C  6.58600 1.61000 45.70200
O  6.59700 1.43300 46.91100
O  6.92400 2.73500 45.02900
C  7.52800 3.75300 45.89200
H  -0.33500 2.33200 43.11200
H  -2.24900 -3.51700 44.99100
H  3.91500 -5.21500 45.87700
H  4.05700 3.12800 44.52200
H  2.01900 3.11700 42.40600
H  2.44000 4.57100 45.02500
H  0.96400 3.61000 45.05800
H  1.09100 4.74400 43.77500
H  5.70900 3.01300 42.68800
H  4.24300 3.83900 42.20800
H  3.95200 2.68100 40.57500
H  3.83400 1.12600 41.47200
H  -3.71200 1.53000 43.52300
H  -3.12200 1.06300 41.79500
H  -2.38000 2.28300 42.94900
H  -4.58000 -3.40400 44.32400
H  -5.57000 -2.25400 45.15300
H  -3.93000 -2.55800 45.77600
H  -0.58600 -5.65800 44.69400
H  1.51500 -6.10900 46.67500
H  -2.00400 -6.34100 46.28000
H  -1.37100 -5.16500 47.54900
H  -0.62000 -6.69100 47.29900
H  2.90300 -6.51500 44.52900
H  1.32200 -6.84400 43.78400
H  1.38000 -8.70000 44.25200
H  1.09200 -8.40000 45.98500
H  2.81300 -8.69600 45.39200
H  6.03600 -4.43000 47.39900
H  7.48800 -3.70500 46.57300
H  6.50500 -4.98300 45.79100
H  6.75800 0.94200 43.80800
H  7.91200 4.56400 45.27200
H  8.32500 3.42400 46.55900
H  6.74000 4.11300 46.55200
Mg -12.04400 38.10100 41.35500
C  -9.79400 35.53000 40.55200
C  -9.92400 40.31600 39.73300
C  -14.60500 40.28600 41.29200
C  -14.33900 35.73800 42.58000
N  -10.19200 37.94900 40.10700
C  -9.39800 36.78100 40.06300
C  -8.05400 37.01800 39.34800
C  -8.02800 38.66100 39.38700
C  -9.49300 39.00700 39.76900
C  -6.97700 39.07200 40.50500
C  -8.02600 36.31600 37.93300
C  -6.76400 35.39500 37.68900
H  -5.69400 35.90300 36.70400
N  -12.25100 40.06300 40.68600
C  -11.23200 40.81800 40.12400
C  -11.66600 42.18100 40.18900
C  -13.09600 42.17100 40.45900
C  -13.34500 40.83400 40.81400
C  -10.79600 43.41400 39.67300
C  -14.10200 43.33100 40.43300
O  -13.73200 44.49300 40.36100
C  -15.61400 43.20400 40.60100
N  -14.10500 38.08700 41.97100
C  -14.93100 39.08800 41.84700
C  -16.36300 38.86100 42.35800
C  -16.22600 37.39500 42.88200
C  -14.81500 37.04000 42.49300
C  -16.90800 39.83800 43.47000
C  -17.30400 36.40000 42.25000
C  -17.91800 35.38700 43.20500
N  -12.09300 35.98800 41.65200
C  -13.06600 35.19300 42.21600
C  -12.59100 33.81500 42.21900
C  -11.26600 33.89800 41.65200
C  -11.04000 35.22200 41.27500
C  -13.31400 32.68000 42.80500
C  -10.00700 33.22100 41.22500
O  -9.66800 32.06800 41.32800
C  -9.09200 34.20400 40.51300
C  -7.76500 34.24900 41.18600
O  -6.89400 33.47000 40.86700
O  -7.65300 35.25400 42.08100
C  -6.39400 35.25400 42.85700
H  -9.22200 41.05600 39.34500
H  -15.51000 40.88100 41.42900
H  -15.14500 35.12900 42.99200
H  -7.26600 36.55700 39.94400
H  -7.78100 39.09500 38.41800
H  -6.78000 38.24500 41.18800
H  -7.39200 39.88700 41.09800
H  -6.03500 39.44800 40.10500
H  -7.90900 37.03300 37.12000
H  -8.96200 35.79900 37.72100
H  -6.98200 34.39100 37.32300
H  -6.31200 35.12100 38.64200
H  -11.03100 43.51500 38.61400
H  -9.73400 43.20100 39.79300
H  -11.19200 44.30200 40.16600
H  -16.05400 44.14400 40.26600
H  -15.79700 42.98400 41.65300
H  -15.86200 42.35900 39.95900
H  -17.06500 38.92100 41.52600
H  -16.31300 37.21000 43.95200
H  -16.11800 40.45700 43.89400
H  -17.33800 39.28400 44.30400
H  -17.66200 40.45000 42.97300
H  -16.92700 35.95100 41.33200
H  -18.12000 36.98900 41.83100
H  -17.35400 35.34500 44.13700
H  -17.95200 34.36100 42.84000
H  -18.90400 35.80200 43.41600
H  -13.25300 31.79100 42.17800
H  -14.36400 32.93800 42.94700
H  -12.77200 32.53400 43.73900
H  -8.81000 33.91900 39.49900
H  -6.47800 35.89000 43.73800
H  -5.56300 35.62600 42.25700
H  -6.28400 34.26300 43.29800

