158

Mg 7.65500 2.26700 27.97700
C  9.26100 1.15000 30.92000
C  5.68400 4.32900 29.72700
C  6.19600 3.11800 25.05400
C  9.50000 -0.16200 26.23600
N  7.38100 2.58300 30.08600
C  8.24800 2.09300 31.08900
C  7.89000 2.76600 32.40200
C  6.61000 3.64500 32.00700
C  6.53800 3.50200 30.51400
C  5.31900 3.23300 32.66100
C  9.04600 3.56800 33.10200
C  8.69200 4.45500 34.26500
H  9.12400 4.06200 35.68500
N  6.15800 3.42800 27.49300
C  5.46800 4.28400 28.34000
C  4.51200 5.07700 27.65500
C  4.63600 4.79500 26.27300
C  5.72400 3.72700 26.20900
C  3.61600 6.14100 28.42700
C  3.91100 5.42200 25.13700
O  4.07700 5.12400 23.96800
C  2.86300 6.49100 25.31900
N  7.81900 1.55100 25.94100
C  7.05200 2.10400 24.96700
C  7.45500 1.62400 23.58700
C  8.44200 0.44900 23.92900
C  8.74800 0.72400 25.42800
C  6.20400 1.28900 22.66900
C  9.71400 0.29800 23.06700
C  9.93100 -1.12400 22.57200
N  9.03700 0.75600 28.42000
C  9.69500 -0.11700 27.62900
C  10.60400 -0.84700 28.33000
C  10.55200 -0.38900 29.66600
C  9.52300 0.58800 29.64000
C  11.46900 -2.01500 27.80200
C  10.96700 -0.65000 31.02300
O  11.73500 -1.51000 31.42100
C  10.24400 0.42500 31.85700
C  9.65200 -0.19000 33.14300
O  8.85900 -1.11700 33.26600
O  10.21700 0.40500 34.24300
C  9.85300 -0.17500 35.55300
H  5.14500 5.01400 30.38500
H  5.74500 3.58400 24.17600
H  9.98600 -0.98200 25.70400
H  7.48400 2.01800 33.08300
H  6.86200 4.68700 32.20100
H  5.15000 3.72800 33.61800
H  5.27600 2.14400 32.64500
H  4.49100 3.52700 32.01700
H  9.42500 4.30000 32.38900
H  9.86000 2.97800 33.52400
H  7.60500 4.39800 34.21200
H  9.14200 5.43200 34.08700
H  4.00400 7.15800 28.36800
H  3.57800 5.86500 29.48100
H  2.59500 6.18600 28.04900
H  1.95000 5.92900 25.51700
H  2.64400 6.95800 24.35800
H  3.20300 7.20300 26.07100
H  8.01300 2.42300 23.09900
H  7.88900 -0.48600 24.01100
H  5.22400 1.29300 23.14700
H  6.29200 0.27600 22.27800
H  6.10800 1.98500 21.83500
H  10.60000 0.58300 23.63400
H  9.61700 0.99700 22.23700
H  10.32100 -1.17200 21.55600
H  9.00200 -1.69000 22.63800
H  10.59800 -1.57900 23.30500
H  11.92700 -1.74100 26.85200
H  10.81400 -2.88500 27.75800
H  12.26800 -2.20300 28.52000
H  10.99400 1.14400 32.18600
H  9.27400 0.59200 36.06800
H  10.66600 -0.37700 36.25100
H  9.19800 -1.04600 35.52700
Mg -12.33200 15.97400 41.78700
C  -9.32300 14.24700 41.40600
C  -11.12500 18.62300 40.18200
C  -15.44300 17.16200 41.70600
C  -13.72600 12.81600 42.87300
N  -10.44300 16.29100 40.76500
C  -9.32800 15.52300 40.83900
C  -8.17800 16.15800 40.13500
C  -8.56600 17.66800 40.11400
C  -10.18500 17.55000 40.38600
C  -7.88200 18.59600 41.23800
C  -7.58700 15.53800 38.83300
C  -6.04800 15.74900 38.75600
H  -5.42500 16.29200 37.55900
N  -13.11100 17.79300 41.15700
C  -12.48000 18.78500 40.52600
C  -13.43300 19.80700 40.32200
C  -14.65600 19.44200 40.75400
C  -14.44800 18.05100 41.22100
C  -12.97200 21.12200 39.71100
C  -15.91400 20.28000 40.72300
O  -15.78800 21.45000 40.36800
C  -17.30200 19.81100 41.17500
N  -14.33900 15.09500 42.27900
C  -15.45200 15.82000 42.23200
C  -16.74400 14.97800 42.45100
C  -16.16500 13.50900 42.72400
C  -14.64200 13.81200 42.64300
C  -17.79900 15.40300 43.51400
C  -16.68800 12.47500 41.69300
C  -17.27500 11.11300 42.23300
N  -11.59200 14.00300 42.44500
C  -12.29400 12.86100 42.76900
C  -11.35700 11.70900 42.75000
C  -10.17400 12.26100 42.42400
C  -10.40200 13.57200 42.11700
C  -11.61600 10.32000 43.08400
C  -8.77800 11.96100 42.19800
O  -8.15700 10.95600 42.32200
C  -8.15700 13.24500 41.61000
C  -7.08400 13.58900 42.65400
O  -7.26100 14.01900 43.79200
O  -5.78900 13.44800 42.22900
C  -4.67500 13.94700 43.00800
H  -10.59000 19.44200 39.69600
H  -16.47300 17.52000 41.65400
H  -14.12500 11.83300 43.13000
H  -7.45000 16.00500 40.93200
H  -8.42300 18.05900 39.10700
H  -8.52200 19.05100 41.99400
H  -7.53600 19.48000 40.70300
H  -7.00100 18.20800 41.74800
H  -8.12100 16.07100 38.04700
H  -7.82700 14.47700 38.76600
H  -5.53800 14.79000 38.85300
H  -5.62200 16.35900 39.55300
H  -13.06500 21.02300 38.62900
H  -11.89100 21.20700 39.81500
H  -13.40000 22.07200 40.03300
H  -17.72000 19.04800 40.51800
H  -18.01900 20.63100 41.21500
H  -17.10100 19.40400 42.16500
H  -17.43100 15.04800 41.60800
H  -16.28900 13.13300 43.73900
H  -18.77900 15.56800 43.06500
H  -17.49000 16.38000 43.88700
H  -17.84900 14.70500 44.35000
H  -15.87700 12.23800 41.00400
H  -17.47700 12.89300 41.06800
H  -16.70700 10.37300 41.66900
H  -18.34100 11.05200 42.01400
H  -17.11900 11.03900 43.30900
H  -10.97200 9.55300 42.65400
H  -12.55400 10.05800 42.59500
H  -11.71300 10.17400 44.15900
H  -7.57500 13.06400 40.70700
H  -3.90100 14.29600 42.32400
H  -4.20800 13.09300 43.50000
H  -4.88000 14.75700 43.70700

