158

Mg 7.94200 2.40900 27.38700
C  9.58000 1.16100 30.04700
C  6.14800 4.50200 29.46300
C  6.15700 3.46900 24.72000
C  9.38700 -0.11200 25.29100
N  7.75600 2.64500 29.53600
C  8.65300 2.15400 30.41300
C  8.36500 2.63600 31.80600
C  7.15800 3.60800 31.56600
C  7.02500 3.62100 30.04200
C  5.81400 3.13100 32.25000
C  9.60800 3.29000 32.53400
C  9.30500 4.22500 33.68100
H  10.29000 4.20600 34.93700
N  6.46200 3.90800 27.08600
C  5.87600 4.67000 28.06200
C  4.87900 5.63100 27.50900
C  4.84600 5.30600 26.07100
C  5.91400 4.23500 25.92500
C  4.17900 6.66700 28.37500
C  4.04400 5.95700 24.97200
O  4.33200 5.86200 23.80800
C  2.91900 6.79600 25.33700
N  7.92500 1.87900 25.28100
C  7.00800 2.42600 24.43400
C  7.16800 1.80000 23.05600
C  8.24600 0.70600 23.21000
C  8.54000 0.77100 24.71800
C  5.84900 1.41700 22.29500
C  9.59700 0.95000 22.44800
C  10.15500 -0.29000 21.67700
N  9.18000 0.75300 27.60200
C  9.77300 -0.13000 26.72400
C  10.76200 -0.90200 27.38500
C  10.71000 -0.39200 28.70300
C  9.77300 0.58700 28.76200
C  11.63900 -1.92500 26.78400
C  11.32200 -0.47000 30.00600
O  12.26300 -1.18500 30.28600
C  10.53200 0.47500 30.96500
C  9.74800 -0.35100 31.90500
O  8.90200 -1.13700 31.61400
O  10.21600 -0.24300 33.19200
C  9.62000 -0.94700 34.31100
H  5.71400 5.22400 30.15800
H  5.55000 3.80000 23.87500
H  9.77100 -0.89100 24.62900
H  7.96800 1.79500 32.37300
H  7.40000 4.63500 31.83800
H  5.22200 2.50600 31.58200
H  5.21400 3.98000 32.57900
H  5.95000 2.51300 33.13700
H  10.12300 3.88000 31.77700
H  10.23500 2.52000 32.98500
H  8.33100 3.96000 34.09200
H  9.20500 5.23800 33.29100
H  3.13400 6.36400 28.42700
H  4.10900 7.60700 27.82700
H  4.55500 6.79700 29.39000
H  2.19700 6.85600 24.52300
H  3.34900 7.76700 25.58100
H  2.42700 6.35000 26.20200
H  7.58400 2.61800 22.46900
H  7.84500 -0.27100 22.94200
H  5.91300 0.33800 22.15200
H  5.82000 1.87600 21.30700
H  4.91700 1.72200 22.77000
H  10.43100 1.31600 23.04700
H  9.38100 1.71700 21.70400
H  9.81000 -0.18200 20.64900
H  9.87400 -1.29300 21.99900
H  11.21900 -0.10500 21.82300
H  11.51800 -2.76500 27.46800
H  12.67600 -1.61000 26.89700
H  11.29300 -2.26100 25.80700
H  11.19100 1.18600 31.46300
H  8.65400 -1.42700 34.15500
H  9.36400 -0.38200 35.20700
H  10.31600 -1.69300 34.69800
Mg -4.91600 25.24900 25.30500
C  -3.62400 26.46300 28.29300
C  -6.99100 23.16700 27.27000
C  -5.91100 23.70400 22.49800
C  -2.61700 27.20400 23.58400
N  -5.34800 24.97100 27.52600
C  -4.63500 25.57800 28.56500
C  -5.17000 25.10000 29.94200
C  -5.99800 23.86400 29.48600
C  -6.15200 24.00100 27.97500
C  -5.47200 22.42500 29.82600
C  -5.97600 26.21000 30.68000
C  -5.61900 26.50500 32.16800
H  -4.78900 25.36500 32.97600
N  -6.38600 23.72700 24.87100
C  -7.19300 23.04600 25.83900
C  -8.15600 22.23900 25.15500
C  -7.80600 22.39200 23.73200
C  -6.64300 23.28400 23.65800
C  -9.14400 21.29800 25.83500
C  -8.49800 21.64700 22.53700
O  -8.07000 21.81100 21.41300
C  -9.63000 20.63100 22.69000
N  -4.40500 25.48100 23.37000
C  -4.88800 24.67900 22.33400
C  -4.27000 25.12300 21.02500
C  -3.45700 26.39100 21.38500
C  -3.47100 26.29500 22.90700
C  -3.47100 24.09700 20.21400
C  -4.05100 27.70300 20.91200
C  -3.62700 28.09400 19.51400
N  -3.41600 26.57900 25.83100
C  -2.55600 27.38700 24.99700
C  -1.82000 28.31900 25.76000
C  -2.17200 27.92500 27.09300
C  -3.14300 26.88500 27.06800
C  -0.86100 29.35600 25.33100
C  -1.87200 28.14300 28.50300
O  -1.09100 28.89100 29.05600
C  -2.84300 27.26200 29.36400
C  -2.00300 26.41500 30.23500
O  -1.29400 25.50900 29.80600
O  -1.92100 26.84500 31.51400
C  -0.87100 26.26500 32.25500
H  -7.60500 22.44700 27.81500
H  -6.26400 23.32100 21.53800
H  -1.88300 27.79300 23.03100
H  -4.41600 24.72500 30.63400
H  -7.00200 23.92000 29.90600
H  -5.62800 21.80200 28.94600
H  -5.94300 21.87100 30.63800
H  -4.40200 22.47900 30.02700
H  -7.03000 25.93700 30.72900
H  -5.84900 27.16400 30.16700
H  -6.57400 26.56300 32.69000
H  -5.11100 27.46900 32.21200
H  -8.90500 20.26500 25.58100
H  -10.13200 21.54800 25.44900
H  -9.28500 21.40500 26.91100
H  -9.18000 19.72700 23.10100
H  -10.03800 20.45300 21.69400
H  -10.46100 21.02500 23.27500
H  -5.07700 25.41700 20.35400
H  -2.38800 26.30600 21.18900
H  -4.09300 24.04900 19.32000
H  -3.50600 23.08000 20.60400
H  -2.42200 24.34300 20.05100
H  -3.79600 28.49700 21.61300
H  -5.13900 27.76400 20.92500
H  -4.26600 27.77900 18.68900
H  -2.71200 27.64900 19.12500
H  -3.62100 29.17900 19.40700
H  -0.62900 29.26200 24.27000
H  -0.00400 29.19200 25.98400
H  -1.26300 30.35000 25.52700
H  -3.45500 27.88400 30.01800
H  0.03500 26.41400 31.66700
H  -1.05500 25.20100 32.40300
H  -0.77100 26.78400 33.20800

