158

Mg 43.78600 41.76600 26.48400
C  42.73700 44.18000 28.83000
C  44.73900 39.79200 29.06900
C  44.77800 39.59500 24.22800
C  43.17900 44.24200 23.99000
N  43.89100 42.12200 28.71700
C  43.25200 43.07700 29.45200
C  43.15200 42.64500 30.96100
C  44.11400 41.43600 31.00700
C  44.37400 41.13400 29.50100
C  45.44800 41.66700 31.83700
C  41.63300 42.56900 31.37400
C  41.27700 41.70300 32.56900
H  40.61600 42.32400 33.84700
N  44.67700 39.97300 26.64900
C  44.95800 39.26400 27.79400
C  45.40300 37.90800 27.43900
C  45.52500 37.89000 26.05200
C  45.02100 39.15200 25.55500
C  45.74200 36.73400 28.48700
C  45.98000 36.73200 25.14500
O  45.88600 36.70100 23.91000
C  46.55400 35.46600 25.79100
N  43.92900 41.91200 24.34700
C  44.38600 40.87300 23.64800
C  44.33500 41.13700 22.12700
C  43.79400 42.64400 22.09600
C  43.60600 42.99200 23.52200
C  45.75300 41.02300 21.38000
C  42.52300 42.89300 21.20300
C  42.66100 43.98900 20.28000
N  43.08000 43.69900 26.33700
C  42.90000 44.58800 25.29100
C  42.32700 45.83300 25.76100
C  42.24900 45.67900 27.14700
C  42.77100 44.43100 27.46900
C  42.01100 46.93400 24.92800
C  41.90600 46.46700 28.40400
O  41.48000 47.56400 28.56400
C  42.11700 45.37500 29.55500
C  42.96500 45.99100 30.55500
O  44.11200 46.40900 30.41900
O  42.15500 46.25700 31.72400
C  42.82400 46.89500 32.87900
H  45.05100 39.04900 29.80600
H  45.02400 38.89300 23.42800
H  43.08800 45.05600 23.26800
H  43.54800 43.52500 31.46800
H  43.67300 40.55300 31.47100
H  46.34100 41.33300 31.30900
H  45.32500 40.99900 32.69000
H  45.52500 42.68900 32.21000
H  41.04100 42.14300 30.56400
H  41.37400 43.61600 31.53000
H  42.07500 41.04800 32.92000
H  40.55800 40.94600 32.25400
H  44.96600 35.98400 28.64000
H  45.85500 37.32300 29.39700
H  46.76000 36.35900 28.37700
H  46.93400 34.86500 24.96500
H  45.79000 34.95400 26.37500
H  47.40500 35.62800 26.45300
H  43.59100 40.49300 21.65900
H  44.61300 43.28900 21.77800
H  46.52800 41.38700 22.05500
H  45.77300 41.59100 20.45000
H  45.79600 39.96900 21.10800
H  41.76400 43.23100 21.90800
H  42.18200 41.99500 20.68800
H  43.64200 44.06600 19.81100
H  42.29100 44.90700 20.73600
H  42.02200 43.73900 19.43300
H  42.97800 47.43100 24.84400
H  41.39100 47.62200 25.50200
H  41.58400 46.65100 23.96600
H  41.12700 45.17800 29.96500
H  42.73900 46.29000 33.78200
H  42.55100 47.92600 33.10400
H  43.89100 46.93900 32.65900
Mg -6.13600 25.38900 26.16500
C  -4.43300 26.34000 28.93900
C  -8.05800 23.33300 28.21100
C  -7.15000 23.75700 23.34400
C  -3.94500 27.33100 24.17600
N  -6.18200 24.85800 28.30800
C  -5.45200 25.46500 29.28300
C  -6.09800 25.29700 30.67100
C  -7.04300 24.09100 30.39200
C  -7.11100 24.04700 28.87300
C  -6.63500 22.78900 31.17700
C  -6.83300 26.58300 31.18500
C  -7.04500 26.56000 32.82400
H  -6.50500 25.44400 33.75800
N  -7.52800 23.99500 25.84100
C  -8.23000 23.23600 26.78600
C  -9.20000 22.45000 26.13200
C  -8.98500 22.59200 24.74100
C  -7.88500 23.42300 24.57300
C  -10.36600 21.66100 26.88500
C  -9.72200 21.88200 23.61600
O  -9.53700 22.09800 22.40500
C  -10.68500 20.75300 23.88100
N  -5.57400 25.53800 24.06100
C  -6.15200 24.66500 23.13200
C  -5.54800 24.96400 21.68700
C  -4.57600 26.16800 21.88300
C  -4.72900 26.37100 23.43200
C  -5.02400 23.65100 21.07900
C  -5.05500 27.40800 21.07600
C  -4.13100 28.08400 20.07600
N  -4.57600 26.66600 26.44000
C  -3.81000 27.46100 25.55200
C  -2.78600 28.12100 26.29700
C  -2.91700 27.66200 27.67000
C  -4.07800 26.84500 27.67600
C  -1.75000 28.98000 25.71200
C  -2.47800 27.76200 29.04700
O  -1.49300 28.36200 29.51100
C  -3.48100 27.07900 29.95000
C  -2.80400 26.21400 30.82800
O  -2.20700 25.25700 30.48800
O  -2.86900 26.79900 32.10200
C  -2.20200 25.95500 33.20100
H  -8.76600 22.70500 28.75500
H  -7.53100 23.27800 22.44000
H  -3.30000 27.88600 23.49200
H  -5.29900 25.06800 31.37500
H  -8.04400 24.18000 30.81500
H  -7.22800 22.82300 32.09100
H  -5.58400 22.84800 31.46000
H  -6.90300 21.91300 30.58600
H  -7.81100 26.56800 30.70600
H  -6.34100 27.39300 30.64600
H  -8.13400 26.57800 32.85500
H  -6.69400 27.51000 33.22800
H  -11.36500 21.74800 26.45900
H  -10.43700 22.01500 27.91300
H  -10.18700 20.58500 26.88600
H  -11.62500 21.06400 24.33700
H  -10.18700 20.02300 24.51900
H  -11.01900 20.27200 22.96200
H  -6.45600 25.23700 21.15000
H  -3.56400 25.91800 21.56500
H  -5.22800 22.78000 21.70100
H  -3.98700 23.74400 20.75500
H  -5.64900 23.51400 20.19600
H  -5.26800 28.19200 21.80200
H  -5.93800 27.12300 20.50300
H  -4.51100 28.25900 19.07000
H  -3.22700 27.50000 19.90300
H  -3.78700 29.09300 20.30700
H  -2.15300 29.59500 24.90700
H  -0.89400 28.46800 25.27200
H  -1.28000 29.54000 26.52000
H  -4.11000 27.75000 30.53600
H  -2.69000 24.98800 33.32000
H  -2.32100 26.51700 34.12700
H  -1.15800 25.85300 32.90500

