158

Mg 43.73700 4.23100 47.22900
C  41.76200 7.10300 46.71600
C  40.88300 2.25800 46.53100
C  45.81900 1.57600 46.86000
C  46.56200 6.28000 46.64300
N  41.57300 4.63800 46.57900
C  41.01600 5.92200 46.64800
C  39.48300 5.75200 46.40900
C  39.21600 4.23600 46.59200
C  40.63900 3.64500 46.51400
C  38.59300 3.98600 48.02500
C  38.85800 6.36900 45.12900
C  39.71800 6.36300 43.81900
H  39.50800 7.48800 42.80400
N  43.36500 2.23100 46.99600
C  42.08300 1.63100 46.72200
C  42.34700 0.14700 46.63200
C  43.70300 -0.10600 46.65200
C  44.41200 1.25700 46.83000
C  41.19600 -0.77000 46.45800
C  44.33900 -1.46500 46.51300
O  43.56400 -2.45600 46.35600
C  45.75100 -1.66700 46.53900
N  45.94900 3.92500 46.84200
C  46.51900 2.78400 46.81800
C  48.09500 2.90300 46.66700
C  48.31900 4.42900 46.37300
C  46.88600 4.92800 46.62700
C  48.83200 2.39400 47.91900
C  48.93700 4.77000 44.99500
C  50.39600 5.14200 44.99100
N  44.16000 6.33300 47.04400
C  45.33300 6.98200 46.90100
C  45.08400 8.34300 47.04400
C  43.68700 8.48600 46.90600
C  43.16100 7.21700 46.91800
C  46.11300 9.40800 46.97400
C  42.58600 9.36500 46.77100
O  42.58700 10.55500 46.89000
C  41.30600 8.51600 46.45300
C  40.12500 8.86700 47.26400
O  39.84800 8.44100 48.36200
O  39.32800 9.72500 46.60800
C  38.11700 10.10500 47.25700
H  40.04100 1.59600 46.31500
H  46.47200 0.70800 46.75400
H  47.41700 6.90300 46.37300
H  39.09400 6.30900 47.26200
H  38.58800 3.82400 45.80100
H  39.15600 4.69100 48.63700
H  38.81500 2.97100 48.35300
H  37.54400 4.28300 48.06200
H  38.43100 7.35700 45.30200
H  37.98000 5.80500 44.81200
H  39.57300 5.39500 43.34100
H  40.76800 6.44700 44.10000
H  40.90400 -0.88100 45.41300
H  40.23300 -0.38200 46.79200
H  41.36200 -1.74700 46.91200
H  46.22300 -1.35200 47.47000
H  46.06300 -1.14700 45.63400
H  46.01400 -2.68300 46.24400
H  48.41900 2.21700 45.88400
H  48.99500 4.97800 47.02900
H  49.91700 2.44900 47.82500
H  48.66300 1.32200 48.02200
H  48.51700 2.85300 48.85600
H  48.29600 5.57900 44.64400
H  48.76200 3.87400 44.40000
H  50.85700 4.79500 44.06700
H  50.89500 4.74100 45.87300
H  50.51800 6.22500 45.01000
H  46.88400 9.09000 47.67600
H  45.57500 10.32200 47.22200
H  46.59000 9.43400 45.99400
H  40.92100 8.64100 45.44100
H  37.64500 9.29500 47.81300
H  37.41800 10.37400 46.46600
H  38.38100 10.98700 47.84000
Mg -11.90600 15.30600 41.90200
C  -9.02100 13.39100 41.58700
C  -10.49800 17.85200 40.32300
C  -15.00300 16.69100 41.66100
C  -13.57400 12.18100 42.72000
N  -10.12400 15.42500 40.80300
C  -9.02500 14.61700 40.94500
C  -7.82400 15.27400 40.31000
C  -8.15400 16.72600 40.34200
C  -9.73700 16.68300 40.43000
C  -7.68400 17.56700 41.53100
C  -7.35300 14.68700 38.92800
C  -5.89000 14.79700 38.64300
H  -5.44100 15.46600 37.38800
N  -12.67000 17.12800 41.17400
C  -11.85300 18.08600 40.70800
C  -12.64800 19.31300 40.60100
C  -13.99400 19.02100 40.91900
C  -13.95700 17.60700 41.26500
C  -12.10900 20.64100 40.31900
C  -15.18400 19.91200 41.06200
O  -15.10200 21.12800 40.82600
C  -16.60900 19.43600 41.47200
N  -13.89600 14.50900 42.01000
C  -14.97600 15.35500 42.04300
C  -16.31600 14.61700 42.30800
C  -15.83800 13.14200 42.32100
C  -14.31800 13.28700 42.33900
C  -17.09400 15.18200 43.55100
C  -16.24400 12.28200 41.12000
C  -17.00300 11.01100 41.39800
N  -11.39300 13.27100 42.31100
C  -12.15000 12.16500 42.71500
C  -11.32200 10.95500 42.93000
C  -10.05700 11.46300 42.58300
C  -10.21200 12.81700 42.09700
C  -11.78200 9.44800 43.33800
C  -8.67300 11.06700 42.46500
O  -8.05500 10.08900 42.88100
C  -7.96400 12.30500 41.77300
C  -6.94700 12.80600 42.66400
O  -7.10000 13.40200 43.74800
O  -5.76700 12.57800 42.01200
C  -4.68600 13.43400 42.51600
H  -9.94600 18.72500 39.96800
H  -15.97800 17.16800 41.77500
H  -13.97300 11.17800 42.88500
H  -6.99500 15.02000 40.97100
H  -7.72600 17.20900 39.46400
H  -7.47100 16.93000 42.38900
H  -8.34200 18.38700 41.82000
H  -6.70300 17.89400 41.18700
H  -7.98700 15.23900 38.23500
H  -7.67500 13.66600 38.72400
H  -5.36900 13.83900 38.66000
H  -5.47200 15.24100 39.54700
H  -12.17400 20.86600 39.25500
H  -11.08300 20.47200 40.64800
H  -12.49500 21.39000 41.01000
H  -17.35700 20.20800 41.29500
H  -16.52600 19.18600 42.53000
H  -16.83800 18.56000 40.86600
H  -16.93700 14.82800 41.43700
H  -16.22700 12.61800 43.19300
H  -17.83100 15.93100 43.26300
H  -16.44400 15.62500 44.30600
H  -17.57800 14.34700 44.05700
H  -15.32600 11.99800 40.60600
H  -16.81200 12.92000 40.44300
H  -16.50300 10.04400 41.33800
H  -17.68600 11.02800 40.55000
H  -17.57400 10.97400 42.32600
H  -12.85900 9.44500 43.50500
H  -11.27300 9.27500 44.28600
H  -11.45200 8.76100 42.55900
H  -7.72800 11.96200 40.76600
H  -3.89600 13.42300 41.76500
H  -4.21400 13.14500 43.45600
H  -4.98000 14.47800 42.61800

