158

Mg 9.28400 48.52600 26.06200
C  6.97100 48.87200 28.70500
C  11.64000 49.97300 28.16800
C  11.56600 48.61500 23.35800
C  6.75600 47.75000 23.83000
N  9.25500 49.35000 28.18600
C  8.31600 49.11500 29.13100
C  8.77600 49.54800 30.54300
C  10.17200 50.23600 30.31300
C  10.38600 49.82300 28.77000
C  10.11300 51.80100 30.40600
C  8.89800 48.27600 31.40400
C  8.62500 48.53300 32.86600
H  8.82200 47.40200 33.90700
N  11.29500 49.05800 25.90600
C  12.09200 49.69500 26.86300
C  13.38200 49.82400 26.29700
C  13.43500 49.38500 24.94600
C  12.05600 49.00200 24.65700
C  14.58900 50.13700 27.16700
C  14.67000 49.10900 23.94400
O  14.51500 48.60400 22.81500
C  16.00800 49.61900 24.24400
N  9.14900 48.29000 23.94200
C  10.22200 48.33600 23.04200
C  9.83400 47.83100 21.61000
C  8.36300 47.45400 21.82800
C  8.02300 47.81600 23.34500
C  9.99200 48.86300 20.45800
C  8.06800 45.99000 21.48200
C  8.67900 44.91600 22.35600
N  7.29200 48.29000 26.16300
C  6.36100 47.96500 25.15300
C  5.05900 47.81500 25.83000
C  5.30300 48.17200 27.16700
C  6.61900 48.53600 27.35700
C  3.82900 47.46800 25.12500
C  4.65000 48.26100 28.40300
O  3.49100 48.05400 28.74900
C  5.73700 48.88900 29.49700
C  5.69800 48.00000 30.61100
O  5.80200 46.79700 30.65800
O  5.18900 48.75100 31.69900
C  4.72500 47.96500 32.87200
H  12.38600 50.31800 28.88700
H  12.18100 48.66700 22.45600
H  6.03400 47.30500 23.14300
H  8.14200 50.31500 30.98800
H  11.01900 49.80100 30.84200
H  10.80100 52.25200 31.12100
H  9.09400 52.13800 30.59200
H  10.38300 52.26500 29.45700
H  9.90900 47.89000 31.26900
H  8.34500 47.38500 31.10800
H  7.55500 48.72600 32.93400
H  9.24700 49.39300 33.11100
H  15.15200 50.97400 26.75400
H  15.36100 49.36800 27.19100
H  14.33600 50.41000 28.19100
H  16.73500 49.34200 23.48200
H  16.39100 49.22500 25.18500
H  15.76400 50.66700 24.42300
H  10.39200 46.91300 21.42800
H  7.63000 47.86000 21.13200
H  9.02700 49.05200 19.98700
H  10.75300 48.52800 19.75300
H  10.25700 49.82400 20.90000
H  8.34400 45.78900 20.44700
H  6.98600 45.89400 21.57000
H  9.22800 45.23100 23.24300
H  9.37700 44.41400 21.68600
H  7.87200 44.22500 22.59800
H  3.38100 46.69000 25.74200
H  4.06400 47.02900 24.15600
H  3.13400 48.26800 24.86700
H  5.41800 49.90300 29.73600
H  5.57400 47.60100 33.45200
H  4.13400 47.12600 32.50500
H  4.07100 48.63600 33.42900
Mg 0.71300 43.18100 26.29500
C  2.98100 43.75700 28.75400
C  -1.65700 42.66500 28.53100
C  -1.21200 42.32600 23.72000
C  3.49000 43.37700 23.93900
N  0.72000 42.91500 28.43100
C  1.76400 43.38400 29.27000
C  1.26500 43.36000 30.75100
C  -0.14700 42.74100 30.55500
C  -0.42700 42.82400 29.06800
C  -0.58200 41.38900 31.16200
C  1.22900 44.79600 31.39800
C  1.24200 44.80200 32.93200
H  0.98700 43.46400 33.65900
N  -1.23900 42.71400 26.17100
C  -2.06800 42.50800 27.20600
C  -3.41200 42.30700 26.62100
C  -3.28700 42.28600 25.18200
C  -1.89600 42.45200 24.93800
C  -4.65100 42.23800 27.43200
C  -4.41100 41.99700 24.08300
O  -4.17000 42.11300 22.90500
C  -5.90200 41.75400 24.35500
N  1.15800 42.84600 24.17600
C  0.14500 42.48600 23.37200
C  0.64300 42.26600 21.87700
C  2.03400 43.05700 21.93200
C  2.25800 43.10000 23.46500
C  0.78000 40.73400 21.43800
C  1.90300 44.48200 21.28300
C  2.91700 44.93600 20.21200
N  2.76000 43.54200 26.30100
C  3.79500 43.67200 25.31400
C  5.03000 44.08200 25.97400
C  4.76200 44.09000 27.35300
C  3.39800 43.74800 27.47400
C  6.27500 44.36600 25.32000
C  5.36900 44.30900 28.58100
O  6.57300 44.49900 28.89300
C  4.14300 44.14100 29.57000
C  4.64800 43.13600 30.57900
O  4.49700 41.96200 30.65400
O  4.97700 43.92500 31.71400
C  5.13000 43.28200 32.98200
H  -2.47400 42.57600 29.25000
H  -1.85800 42.12900 22.86200
H  4.34600 43.49300 23.27000
H  1.91100 42.75000 31.38200
H  -0.87700 43.40600 31.01800
H  0.21900 40.78900 31.59500
H  -1.08200 40.76400 30.42200
H  -1.31400 41.54400 31.95600
H  0.26000 45.23000 31.15200
H  2.00800 45.50000 31.10200
H  0.50700 45.53100 33.27200
H  2.18000 45.23400 33.28000
H  -5.07100 43.24400 27.42300
H  -4.41800 41.99300 28.46800
H  -5.34700 41.51700 27.00400
H  -6.44000 41.70500 23.40900
H  -6.33600 42.52100 24.99800
H  -5.84700 40.82900 24.92900
H  -0.07300 42.72400 21.19600
H  2.66200 42.41900 21.31200
H  0.39900 40.10500 22.24300
H  1.84100 40.48800 21.40200
H  0.17700 40.43000 20.58300
H  1.94300 45.19300 22.10800
H  0.91700 44.67600 20.86000
H  3.60000 44.15800 19.87200
H  3.61100 45.70900 20.54200
H  2.35900 45.29700 19.34800
H  6.79300 43.45800 25.01000
H  7.00000 44.88000 25.95100
H  6.08400 45.03700 24.48300
H  3.91600 45.15100 29.90900
H  6.02000 42.65500 32.93700
H  4.35700 42.58100 33.29900
H  5.32700 44.02000 33.76100

