158

Mg 49.32100 35.21000 26.20300
C  47.65500 34.13200 29.08900
C  49.91300 38.13800 27.62200
C  50.78200 36.05100 23.38300
C  48.31000 32.01800 24.63500
N  48.97200 35.98600 28.19900
C  48.22400 35.39800 29.20300
C  47.98800 36.41400 30.34300
C  48.54500 37.77600 29.74800
C  49.24200 37.24300 28.43700
C  47.46000 38.81600 29.47800
C  48.82200 36.03600 31.69200
C  48.03000 35.84800 33.01500
H  47.85700 36.96500 34.05300
N  50.22600 36.84900 25.54600
C  50.33900 38.00100 26.28100
C  51.21200 38.90800 25.52800
C  51.55800 38.35400 24.29000
C  50.88600 36.99800 24.36100
C  51.62500 40.32300 26.02200
C  52.32800 38.86700 23.11800
O  52.66300 38.20700 22.08200
C  52.92200 40.26000 23.16200
N  49.42800 34.17800 24.35300
C  50.13200 34.84200 23.33700
C  50.22200 33.89100 22.16600
C  49.60400 32.53800 22.54200
C  49.11800 32.93800 23.95900
C  49.61700 34.56100 20.82300
C  50.60200 31.32500 22.51000
C  50.20400 30.15700 21.56300
N  48.20500 33.46200 26.72200
C  47.93000 32.24900 25.98200
C  47.09800 31.40000 26.81000
C  46.98800 32.06900 28.05500
C  47.69600 33.29400 27.97400
C  46.53300 30.09000 26.42400
C  46.46600 31.97700 29.31100
O  45.86800 31.07500 29.78400
C  46.60900 33.38400 29.94600
C  46.99600 33.09500 31.34900
O  48.11400 32.83900 31.74300
O  45.86200 33.18400 32.09900
C  45.96900 32.83300 33.51200
H  50.11100 39.12900 28.03500
H  51.42500 36.15500 22.50600
H  48.12100 30.97900 24.36000
H  46.92200 36.52200 30.54500
H  49.20700 38.25500 30.46900
H  47.31300 38.94800 28.40700
H  47.69400 39.73000 30.02500
H  46.47700 38.59300 29.89100
H  49.41000 36.93000 31.90500
H  49.40300 35.13500 31.49900
H  48.45500 35.02000 33.58300
H  47.02300 35.64000 32.65200
H  51.06100 40.98300 25.36200
H  52.67200 40.60600 26.12900
H  51.27300 40.54400 27.02900
H  53.57200 40.42300 22.30200
H  53.43800 40.58200 24.06600
H  52.05700 40.88700 22.94400
H  51.30200 33.84500 22.03000
H  48.76600 32.32200 21.88000
H  48.71900 34.15300 20.36000
H  50.35200 34.54300 20.01800
H  49.53200 35.61600 21.08100
H  50.64800 30.83100 23.48100
H  51.57300 31.66500 22.15000
H  49.67300 30.66000 20.75500
H  49.63200 29.34100 22.00400
H  51.17800 29.83400 21.19600
H  45.92600 30.27600 25.53800
H  45.98900 29.64000 27.25400
H  47.32900 29.37200 26.22600
H  45.67300 33.94200 29.94900
H  46.75000 32.09300 33.68900
H  45.00900 32.45600 33.86500
H  46.15600 33.71000 34.13100
Mg -3.19500 34.44500 26.81500
C  -4.95800 32.92200 29.44000
C  -1.93500 36.64500 29.03400
C  -1.47900 35.63700 24.33400
C  -4.85200 32.23900 24.49400
N  -3.41500 34.68200 29.04800
C  -4.13800 33.96000 29.92800
C  -4.04800 34.54400 31.35500
C  -3.27400 35.86500 31.05700
C  -2.83700 35.74700 29.65000
C  -4.13300 37.22300 31.22900
C  -3.53900 33.53200 32.43400
C  -4.25500 33.48500 33.80600
H  -3.52300 33.08200 35.08300
N  -1.95200 35.98600 26.64800
C  -1.54700 36.78400 27.64300
C  -0.64600 37.79800 27.08900
C  -0.49600 37.53600 25.72900
C  -1.35800 36.38400 25.48700
C  -0.09400 38.95000 27.86500
C  0.38000 38.25900 24.67500
O  0.29400 37.92700 23.50100
C  1.31900 39.33000 25.03900
N  -3.42200 34.19400 24.67300
C  -2.39800 34.69700 23.92900
C  -2.31100 34.05000 22.57500
C  -3.27300 32.84900 22.68500
C  -3.99100 33.20700 23.99000
C  -2.79500 35.06300 21.38900
C  -2.55000 31.47000 22.56500
C  -3.31900 30.41100 21.67800
N  -4.59600 32.93100 26.94200
C  -5.16200 32.12500 25.87700
C  -5.93300 31.04700 26.46000
C  -5.92000 31.37500 27.88000
C  -5.09200 32.52200 28.09200
C  -6.54400 29.79900 25.77100
C  -6.43900 30.98700 29.20000
O  -7.09400 30.04600 29.57000
C  -5.83100 31.96200 30.17800
C  -6.93600 32.65000 30.90400
O  -7.37600 33.74900 30.63600
O  -7.33200 31.96500 31.99700
C  -8.34100 32.54300 32.90700
H  -1.57000 37.34500 29.78900
H  -0.73800 35.88200 23.56900
H  -5.14900 31.47200 23.77600
H  -5.02400 34.94300 31.63100
H  -2.40800 35.80000 31.71600
H  -3.48400 38.01300 31.60700
H  -4.99900 36.98000 31.84600
H  -4.61300 37.61500 30.33200
H  -2.48300 33.71400 32.63500
H  -3.54900 32.50600 32.06600
H  -5.10800 32.84300 33.58600
H  -4.68300 34.48400 33.88200
H  -0.18000 38.85200 28.94800
H  -0.71300 39.81100 27.61200
H  0.97200 39.12900 27.72500
H  1.91800 39.55200 24.15600
H  1.87700 38.85800 25.84800
H  0.88100 40.24600 25.43600
H  -1.27400 33.76900 22.39200
H  -4.03700 32.93500 21.91200
H  -3.56500 34.69400 20.71200
H  -1.80900 35.12300 20.92800
H  -3.17300 36.02100 21.74700
H  -2.42200 31.06200 23.56700
H  -1.58100 31.59900 22.08300
H  -2.54400 29.92200 21.08600
H  -4.13500 30.81100 21.07700
H  -3.68900 29.57700 22.27400
H  -6.32600 29.93100 24.71100
H  -7.61500 29.97200 25.87600
H  -6.18100 28.87000 26.21100
H  -5.21700 31.42800 30.90400
H  -8.98400 33.29300 32.44600
H  -7.79700 32.93200 33.76700
H  -8.93200 31.69000 33.23900

