158

Mg 0.18300 8.10000 25.65800
C  1.03700 9.79200 28.70800
C  0.13800 5.24000 27.44400
C  0.00600 6.45700 22.74100
C  1.06400 11.09400 23.92600
N  0.57000 7.53000 27.73600
C  0.74000 8.40500 28.86700
C  0.82300 7.69700 30.29800
C  0.58600 6.21000 29.86600
C  0.37300 6.31700 28.27900
C  1.73400 5.26100 30.25700
C  -0.24600 8.10100 31.37500
C  0.21800 8.13300 32.85400
H  1.30200 7.18600 33.37700
N  0.00100 6.11100 25.16300
C  0.11000 5.08800 26.01100
C  0.23300 3.83900 25.28800
C  0.11200 4.12900 23.92600
C  0.03600 5.63600 23.90900
C  0.28600 2.50700 26.03600
C  -0.06500 3.22400 22.73700
O  -0.26500 3.59600 21.57800
C  0.18900 1.75900 23.04300
N  0.51200 8.65800 23.59600
C  0.08700 7.84300 22.64000
C  0.18300 8.57800 21.23400
C  0.32200 10.08200 21.66300
C  0.70900 9.94600 23.13700
C  1.33800 8.06800 20.30900
C  -0.96400 10.90900 21.45700
C  -2.38800 10.38500 22.01300
N  0.77800 10.08500 26.14000
C  1.18000 11.15200 25.32500
C  1.41200 12.31600 26.13400
C  1.45400 11.79200 27.42900
C  1.06400 10.42000 27.38900
C  1.65600 13.65400 25.67500
C  1.74900 12.21300 28.83400
O  2.11800 13.25900 29.32800
C  1.50100 10.85800 29.70300
C  2.65500 10.54400 30.54600
O  3.50600 9.74000 30.28800
O  2.45400 11.27500 31.71800
C  3.29700 11.01800 32.86700
H  0.02900 4.24500 27.88000
H  -0.16900 5.92100 21.80600
H  1.13800 12.03900 23.38400
H  1.81400 7.97200 30.66100
H  -0.30500 5.69300 30.22300
H  2.63500 5.69800 30.69000
H  1.93700 4.65300 29.37600
H  1.41600 4.53300 31.00300
H  -1.15100 7.50300 31.27100
H  -0.47100 9.10800 31.02500
H  -0.75400 7.85200 33.25800
H  0.36000 9.15400 33.20700
H  1.06000 1.89200 25.57600
H  -0.69000 2.02500 25.97800
H  0.49700 2.63400 27.09800
H  0.09300 1.26500 22.07700
H  -0.48500 1.38100 23.81200
H  1.19200 1.90800 23.44400
H  -0.72900 8.41700 20.66100
H  1.09100 10.51300 21.02200
H  1.43400 7.01400 20.57100
H  2.24900 8.66500 20.33500
H  1.09000 8.11800 19.24800
H  -1.05600 11.01800 20.37700
H  -0.75200 11.88100 21.90300
H  -3.00900 10.25600 21.12600
H  -2.77100 11.20000 22.62700
H  -2.22600 9.45000 22.54900
H  2.17000 13.69300 24.71500
H  2.28700 14.13500 26.42300
H  0.64700 14.06100 25.72600
H  0.62300 10.97600 30.33900
H  2.79900 10.19600 33.38300
H  3.32100 11.89300 33.51600
H  4.31100 10.66800 32.67700
Mg 17.32900 51.13400 25.96000
C  19.23800 50.27500 28.75100
C  14.80000 52.10900 28.20600
C  15.59100 52.16800 23.38700
C  19.66500 49.72200 23.84500
N  17.22300 51.32900 28.27600
C  18.07600 50.88800 29.17500
C  17.54000 51.14700 30.64800
C  16.02100 51.42500 30.46700
C  15.98300 51.64800 28.84200
C  15.09400 50.28900 30.82600
C  18.27400 52.20800 31.41300
C  17.72400 52.57200 32.83700
H  16.77900 51.65800 33.61700
N  15.41500 51.91400 25.84800
C  14.62800 52.36000 26.83200
C  13.67500 53.25000 26.32900
C  13.79700 53.28900 24.87800
C  14.99100 52.43100 24.63800
C  12.60600 53.98100 27.16200
C  13.05000 54.05500 23.78100
O  13.31700 53.87800 22.60200
C  11.78400 54.84500 24.07600
N  17.48600 50.68800 23.87900
C  16.73200 51.49500 23.06000
C  17.28500 51.35400 21.60200
C  18.79800 50.81900 21.83000
C  18.64500 50.34200 23.29100
C  16.46300 50.59600 20.55600
C  19.97300 51.86000 21.62200
C  21.18300 51.35300 20.87600
N  19.13600 50.12500 26.18100
C  19.94400 49.54000 25.27700
C  21.12000 48.97500 25.97100
C  20.88600 49.12700 27.33200
C  19.65100 49.95800 27.40600
C  22.26200 48.41700 25.29000
C  21.37000 48.92900 28.66300
O  22.37800 48.37600 29.10000
C  20.27200 49.60000 29.65600
C  19.62100 48.60400 30.57600
O  18.73600 47.84400 30.30100
O  20.06300 48.83200 31.88700
C  19.31900 48.14500 32.92500
H  13.97000 52.29300 28.89100
H  15.19500 52.66100 22.49700
H  20.44700 49.43600 23.13900
H  17.73400 50.21100 31.17200
H  15.75400 52.36700 30.94500
H  14.17100 50.64800 31.28100
H  15.63600 49.60500 31.47900
H  14.68400 49.75700 29.96800
H  18.37200 53.12800 30.83700
H  19.29100 51.81800 31.46100
H  17.24200 53.52300 32.60900
H  18.55800 52.76300 33.51200
H  12.92600 55.01200 27.30900
H  12.39800 53.48400 28.10900
H  11.62900 53.97400 26.67900
H  11.94900 55.66600 24.77400
H  11.21400 54.11600 24.65200
H  11.06100 54.92900 23.26500
H  17.37200 52.39000 21.27700
H  18.86700 49.92600 21.20900
H  16.55600 51.00900 19.55200
H  15.40200 50.64500 20.80100
H  16.83400 49.57100 20.52800
H  20.17100 52.32900 22.58600
H  19.58000 52.68300 21.02500
H  21.32500 52.01900 20.02500
H  21.24200 50.31600 20.54400
H  22.07500 51.60100 21.45100
H  22.12800 48.38600 24.20900
H  22.32200 47.38900 25.64500
H  23.21000 48.88600 25.55500
H  20.69900 50.36700 30.30200
H  19.14200 48.90700 33.68400
H  20.11800 47.52800 33.33800
H  18.42100 47.56000 32.72900

