158

Mg -0.31900 6.82600 26.46200
C  0.58200 8.96700 29.16700
C  -0.13400 4.08000 28.41700
C  -0.29100 4.99800 23.55200
C  0.22600 9.78000 24.34700
N  0.16800 6.62100 28.52700
C  0.26400 7.63600 29.47200
C  0.18600 7.00800 30.87800
C  0.09300 5.52000 30.62000
C  -0.00800 5.38800 29.09000
C  1.25800 4.57600 31.06700
C  -1.00200 7.57500 31.74200
C  -0.90100 7.59300 33.30200
H  0.30900 7.06800 33.98100
N  -0.28100 4.83700 26.05500
C  -0.25200 3.83000 27.05200
C  -0.28000 2.55400 26.39700
C  -0.26400 2.78500 24.99600
C  -0.24500 4.26000 24.76700
C  -0.38100 1.27200 27.17100
C  -0.38500 1.75500 23.90000
O  -0.31000 2.10100 22.72100
C  -0.70300 0.34500 24.10200
N  -0.14000 7.32100 24.26600
C  -0.22700 6.37400 23.31200
C  -0.28000 6.97800 21.83600
C  -0.07300 8.47200 22.10000
C  0.05600 8.53600 23.68400
C  0.91700 6.48400 20.94500
C  -1.17700 9.47800 21.58400
C  -2.53800 9.50500 22.38900
N  0.23700 8.98000 26.66800
C  0.44000 10.00900 25.74900
C  0.81400 11.22100 26.44800
C  0.74900 10.83200 27.77400
C  0.42300 9.51400 27.87500
C  1.11200 12.49700 25.87700
C  1.09800 11.33900 29.11400
O  1.50400 12.42500 29.51100
C  0.84500 10.14400 30.07900
C  2.03000 9.90900 31.00100
O  3.05500 9.25500 30.73700
O  1.64600 10.62000 32.15600
C  2.62400 10.65700 33.20500
H  -0.28500 3.21800 29.07000
H  -0.24500 4.49700 22.58300
H  0.31700 10.63300 23.67100
H  1.14600 7.18900 31.36200
H  -0.79300 5.08500 31.08100
H  2.07300 5.09300 31.57200
H  1.69600 4.19100 30.14600
H  0.92200 3.72500 31.65900
H  -1.82200 6.97400 31.34800
H  -1.17300 8.57100 31.33400
H  -1.77900 7.14000 33.76200
H  -0.97100 8.66200 33.50700
H  -1.34000 0.83600 26.89200
H  -0.32500 1.32100 28.25800
H  0.33300 0.53900 26.79400
H  -1.65500 0.35600 24.63300
H  0.18300 -0.13900 24.51200
H  -0.91700 -0.23600 23.20600
H  -1.20600 6.54800 21.45500
H  0.86900 8.79400 21.65500
H  1.48100 7.29600 20.48600
H  0.50100 5.80500 20.20100
H  1.56200 5.98300 21.66700
H  -1.30900 9.21600 20.53400
H  -0.62200 10.41100 21.68700
H  -2.44300 10.20200 23.22100
H  -2.79800 8.53600 22.81500
H  -3.31200 9.87200 21.71500
H  0.26400 12.88300 25.31100
H  2.00200 12.32900 25.27100
H  1.53500 13.16400 26.62900
H  -0.04700 10.42300 30.64100
H  2.76600 11.67800 33.55700
H  3.59600 10.23900 32.94300
H  2.26900 10.04200 34.03200
Mg -12.06700 16.30600 41.34900
C  -9.18400 14.37300 40.93100
C  -10.17600 18.98100 40.04400
C  -14.83200 17.98700 40.86000
C  -13.87800 13.41200 42.46200
N  -9.96300 16.71100 40.63600
C  -8.94900 15.71300 40.54400
C  -7.71300 16.30300 40.00300
C  -7.88900 17.86400 40.00400
C  -9.41300 17.90600 40.21500
C  -7.15200 18.70400 41.15000
C  -7.42100 15.75300 38.52300
C  -6.16900 15.03400 38.17700
H  -5.43700 15.57800 36.85700
N  -12.48000 18.28800 40.66700
C  -11.59400 19.15200 40.15900
C  -12.25600 20.34900 39.77700
C  -13.63200 20.15600 40.05900
C  -13.71500 18.74500 40.55400
C  -11.49300 21.57100 39.15600
C  -14.76100 21.05000 39.63700
O  -14.65300 21.97700 38.86200
C  -16.20100 20.75000 39.99100
N  -14.13400 15.72900 41.44800
C  -15.08800 16.63400 41.22200
C  -16.48300 15.99400 41.46600
C  -16.17400 14.64400 42.24000
C  -14.62400 14.56300 42.04800
C  -17.60800 16.93900 42.07100
C  -16.97400 13.32200 41.83600
C  -17.44500 12.56300 43.06300
N  -11.56700 14.28400 41.76700
C  -12.44900 13.21600 42.16400
C  -11.60700 11.98800 42.23700
C  -10.32600 12.38200 41.71100
C  -10.35700 13.81200 41.52400
C  -12.05600 10.55700 42.70300
C  -8.97300 11.98300 41.31500
O  -8.47900 10.88300 41.22900
C  -8.15300 13.29200 41.00600
C  -7.14400 13.64200 41.98800
O  -7.31100 13.88400 43.14300
O  -5.95200 13.50800 41.35700
C  -4.79800 13.88500 42.21500
H  -9.61600 19.89200 39.82000
H  -15.69700 18.65300 40.88700
H  -14.43500 12.54000 42.81000
H  -6.95500 16.02200 40.73400
H  -7.80300 18.39000 39.05300
H  -6.29900 18.10900 41.47900
H  -7.80700 18.94700 41.98700
H  -6.74800 19.62800 40.73700
H  -7.42600 16.62900 37.87500
H  -8.26400 15.14300 38.19700
H  -6.43300 13.97700 38.13800
H  -5.48100 15.25500 38.99300
H  -12.23800 22.36700 39.17400
H  -11.21500 21.34300 38.12700
H  -10.64300 21.93700 39.73200
H  -16.83500 21.60400 39.75400
H  -16.21200 20.70000 41.08000
H  -16.59400 19.91000 39.41800
H  -16.85800 15.68600 40.49000
H  -16.54200 14.86000 43.24300
H  -18.12900 16.41700 42.87400
H  -18.41500 17.38000 41.48500
H  -17.19600 17.79900 42.59800
H  -16.34400 12.64000 41.26600
H  -17.78600 13.63600 41.18000
H  -18.24200 13.16700 43.49800
H  -16.62700 12.51900 43.78200
H  -17.75300 11.52300 42.95300
H  -12.30800 9.78400 41.97800
H  -12.90400 10.57500 43.38900
H  -11.23100 10.22700 43.33400
H  -7.66600 13.15200 40.04100
H  -4.36100 14.86600 42.03200
H  -4.14800 13.07700 41.87800
H  -4.92000 13.72600 43.28700

