158

Mg 44.99900 5.30900 48.26000
C  43.00400 8.19100 47.36900
C  42.19200 3.41400 47.56900
C  47.02400 2.68000 47.98400
C  47.86500 7.42900 48.14000
N  42.78700 5.83900 47.50700
C  42.18200 7.04500 47.37000
C  40.63900 6.90300 46.98400
C  40.49200 5.31500 47.11000
C  41.88900 4.78900 47.48400
C  39.38200 4.98500 48.15500
C  40.36500 7.39400 45.56200
C  38.99000 8.00800 45.24600
H  38.21300 7.49400 44.01100
N  44.64800 3.31800 47.95100
C  43.43000 2.72500 47.60500
C  43.68800 1.32700 47.30100
C  45.09900 1.06700 47.35500
C  45.66300 2.41300 47.76300
C  42.53400 0.40400 46.92400
C  45.80200 -0.26900 47.04700
O  45.13300 -1.23400 46.71100
C  47.25300 -0.47600 47.15700
N  47.18300 5.10000 48.17000
C  47.71000 3.90100 48.25300
C  49.20600 3.91400 48.21200
C  49.48200 5.44100 48.20400
C  48.10100 6.08900 48.22600
C  49.84000 3.20000 49.38900
C  50.38900 6.05300 47.10600
C  51.50600 6.99300 47.58600
N  45.38700 7.41100 48.02200
C  46.62700 8.09800 48.06300
C  46.32700 9.50900 47.92300
C  44.95000 9.53300 47.62300
C  44.39700 8.23200 47.65500
C  47.26700 10.66000 48.05800
C  43.85600 10.50100 47.41000
O  43.78600 11.70600 47.32900
C  42.57900 9.58900 47.16900
C  41.51800 9.97200 48.17300
O  41.62900 10.00600 49.40400
O  40.30400 10.23200 47.51300
C  39.08200 10.38300 48.23900
H  41.29800 2.83500 47.33000
H  47.70700 1.83000 47.92000
H  48.67800 8.13200 47.94800
H  40.07600 7.43500 47.75100
H  40.08700 4.86900 46.20200
H  39.79000 4.21800 48.81300
H  38.50800 4.50700 47.71200
H  39.01900 5.81200 48.76500
H  40.49900 6.57000 44.86100
H  41.04800 8.16300 45.19900
H  39.02500 9.09700 45.23400
H  38.35500 7.70500 46.07800
H  42.74800 -0.40800 46.22800
H  41.66400 0.98400 46.61400
H  42.21900 0.07300 47.91300
H  47.69400 0.19300 46.41700
H  47.42700 -1.51300 46.87000
H  47.57600 -0.28100 48.17900
H  49.36000 3.47700 47.22500
H  49.87600 5.67200 49.19300
H  49.68100 2.12700 49.28000
H  49.43500 3.54300 50.34100
H  50.92200 3.32900 49.36300
H  49.84500 6.50100 46.27400
H  50.84700 5.26200 46.51200
H  51.47000 8.02000 47.22300
H  52.47300 6.52400 47.40600
H  51.52200 7.12100 48.66900
H  46.73300 11.49400 48.51300
H  47.58000 10.86800 47.03500
H  48.09800 10.31800 48.67500
H  42.15000 9.73800 46.17900
H  38.23500 10.29600 47.55900
H  39.05900 11.38200 48.67500
H  38.94000 9.72300 49.09500
Mg 26.80800 50.21100 26.18000
C  24.66700 51.47000 28.59800
C  29.15400 49.72100 28.66600
C  28.94500 49.30000 23.80000
C  24.50800 51.17300 23.72600
N  26.92300 50.60500 28.40900
C  25.83800 50.97000 29.21500
C  26.16500 50.98000 30.70800
C  27.68700 50.53900 30.57700
C  27.89100 50.20800 29.13100
C  28.84800 51.48900 31.16100
C  25.21600 50.03900 31.62000
C  25.06500 50.62300 33.06600
H  24.72100 49.57700 34.09300
N  28.83200 49.64000 26.22300
C  29.62500 49.41900 27.35000
C  30.81000 48.69800 26.97000
C  30.76700 48.65000 25.53800
C  29.45500 49.15300 25.10500
C  31.83900 48.14700 27.94800
C  31.75400 48.01200 24.67500
O  31.65800 47.82000 23.45700
C  33.07000 47.50100 25.29400
N  26.71100 50.19900 23.97300
C  27.73500 49.80100 23.23200
C  27.24100 49.65500 21.77500
C  25.78300 50.05500 21.84400
C  25.59100 50.33400 23.31000
C  28.12300 50.51100 20.69500
C  24.68000 48.99200 21.27200
C  24.74500 47.60500 22.00000
N  25.06700 51.20700 26.07000
C  24.22800 51.68900 25.03300
C  23.08900 52.35100 25.48300
C  23.19100 52.28500 26.87600
C  24.42100 51.64700 27.19200
C  22.08900 53.11500 24.58900
C  22.63600 52.76400 28.10000
O  21.68600 53.49600 28.31700
C  23.46300 52.10100 29.29600
C  23.85000 53.20900 30.24300
O  24.69100 54.01600 30.07700
O  22.94300 53.10900 31.34400
C  23.14100 54.01400 32.49200
H  29.82900 49.44800 29.48000
H  29.58600 48.87300 23.02600
H  23.83000 51.57200 22.96900
H  26.28900 52.00900 31.04400
H  27.83200 49.61600 31.14000
H  29.71700 51.59300 30.51100
H  29.20800 51.01100 32.07200
H  28.44100 52.44200 31.49800
H  25.79800 49.11900 31.57100
H  24.25500 49.85700 31.14000
H  24.34200 51.43900 33.08100
H  25.95800 51.17800 33.35500
H  32.83700 48.53800 27.74800
H  31.83700 47.06000 27.86700
H  31.50300 48.31900 28.97000
H  33.49500 48.35100 25.82800
H  33.81600 47.33800 24.51600
H  32.84000 46.62700 25.90300
H  27.34300 48.59300 21.55100
H  25.62500 51.00000 21.32400
H  27.57200 51.26800 20.13600
H  28.50000 49.81100 19.95000
H  28.98000 51.05900 21.08600
H  24.90800 48.85000 20.21500
H  23.66400 49.35500 21.42800
H  25.55800 47.71200 22.71800
H  24.98100 46.82300 21.27800
H  23.88000 47.38000 22.62400
H  21.66600 52.51900 23.78000
H  22.53500 53.94400 24.03900
H  21.31000 53.42200 25.28600
H  22.85500 51.31000 29.73600
H  23.03900 55.02000 32.08400
H  24.12700 53.86500 32.93300
H  22.26300 53.85700 33.11800

