158

Mg 43.75300 4.50800 47.56700
C  41.57000 7.17900 47.33200
C  41.04800 2.39600 46.98400
C  45.88800 1.96600 47.27800
C  46.40700 6.79200 47.70100
N  41.68000 4.72400 47.05200
C  40.96200 5.96500 47.07000
C  39.50000 5.73600 46.79100
C  39.32600 4.21700 47.02500
C  40.78000 3.71800 47.11100
C  38.32500 3.80000 48.21100
C  39.12600 6.29400 45.32200
C  37.88900 7.13500 45.30600
H  37.15800 7.00100 43.98600
N  43.51700 2.43900 47.16500
C  42.33400 1.72200 47.06300
C  42.61300 0.33400 46.86700
C  44.02300 0.08200 46.96800
C  44.55300 1.53100 47.12200
C  41.49800 -0.63600 46.59400
C  44.71700 -1.19200 46.95900
O  44.04700 -2.16600 46.90500
C  46.16500 -1.37600 47.09600
N  45.77600 4.42900 47.44000
C  46.44900 3.23500 47.45700
C  48.02800 3.43600 47.59200
C  48.18000 4.98000 47.64600
C  46.67500 5.43100 47.56900
C  48.69100 2.84000 48.76900
C  48.96000 5.74600 46.51400
C  49.99800 6.86600 46.93000
N  43.97000 6.55400 47.53400
C  45.05800 7.30000 47.68800
C  44.69100 8.70700 47.74000
C  43.24000 8.73100 47.68200
C  42.86700 7.37100 47.50100
C  45.71100 9.87400 47.73400
C  42.14400 9.55700 47.66300
O  42.03800 10.72200 47.78700
C  40.93800 8.56000 47.48300
C  39.98800 8.69700 48.66500
O  40.15200 8.16800 49.72600
O  38.91300 9.48900 48.34300
C  37.86900 9.68700 49.35700
H  40.22400 1.71400 46.76300
H  46.68900 1.23300 47.16000
H  47.33500 7.36500 47.65700
H  39.01900 6.19900 47.65200
H  38.82600 3.87100 46.12100
H  37.85900 4.61600 48.76300
H  38.93600 3.30100 48.96300
H  37.49800 3.17800 47.86900
H  38.98800 5.48400 44.60600
H  39.97400 6.90700 45.01800
H  38.19700 8.16100 45.50600
H  37.21300 7.03400 46.15500
H  41.65200 -1.10500 45.62200
H  40.49700 -0.20800 46.64600
H  41.54500 -1.37500 47.39400
H  46.45300 -1.28100 48.14300
H  46.61200 -0.59900 46.47700
H  46.39700 -2.34100 46.64400
H  48.47500 3.16500 46.63500
H  48.57700 5.27300 48.61800
H  48.02700 2.10600 49.22700
H  48.74400 3.53900 49.60300
H  49.68100 2.43500 48.56200
H  48.17700 6.13500 45.86200
H  49.52900 5.06700 45.88000
H  50.20700 6.89800 48.00000
H  49.42400 7.76200 46.69500
H  50.85100 6.83600 46.25200
H  45.22600 10.58500 47.06500
H  46.62800 9.45800 47.31700
H  45.81100 10.22700 48.76100
H  40.42000 8.83400 46.56400
H  36.98600 9.32300 48.83100
H  37.78200 10.74300 49.61200
H  37.98500 9.04900 50.23300
Mg 47.60900 34.67200 27.03300
C  45.65100 33.28500 29.71200
C  47.83500 37.48700 28.91700
C  48.64200 36.03000 24.34700
C  46.44200 31.79000 25.14900
N  46.85500 35.27800 29.07200
C  46.24400 34.52700 29.99600
C  46.57400 35.09300 31.41300
C  47.00500 36.53700 31.14100
C  47.22700 36.48900 29.62300
C  46.01900 37.60700 31.61600
C  47.64800 34.32400 32.24200
C  47.39000 34.25200 33.73700
H  46.58600 35.26100 34.43500
N  48.40600 36.43100 26.77600
C  48.42400 37.46900 27.62000
C  49.06900 38.56200 26.95200
C  49.54300 38.09000 25.69600
C  48.87800 36.79100 25.54800
C  49.17100 39.82300 27.70700
C  50.34700 38.88000 24.57400
O  50.49400 38.37400 23.46400
C  51.06900 40.18500 24.94700
N  47.39100 34.05000 24.91500
C  48.06100 34.76400 24.04600
C  48.21800 34.12700 22.67600
C  47.43500 32.76800 22.92700
C  47.05600 32.85100 24.40500
C  47.78900 35.02000 21.41500
C  48.15300 31.37100 22.75600
C  49.21000 31.06200 23.76000
N  46.29800 32.86700 27.24000
C  45.92700 31.85400 26.45500
C  45.12500 30.87200 27.08100
C  44.95400 31.43000 28.37300
C  45.70300 32.61700 28.45900
C  44.70800 29.54400 26.51900
C  44.26000 31.23400 29.63900
O  43.40700 30.39700 29.94900
C  44.62800 32.46100 30.62200
C  44.95000 31.91300 32.01600
O  46.03700 31.50300 32.40100
O  43.85200 31.92400 32.78200
C  44.02600 31.50800 34.20000
H  48.02100 38.39000 29.50200
H  49.11800 36.56200 23.52100
H  46.07100 30.85900 24.71400
H  45.65400 35.19100 31.98900
H  47.98400 36.77500 31.55700
H  46.49500 38.40800 32.18100
H  45.20000 37.32400 32.27700
H  45.46200 38.02800 30.77900
H  48.56000 34.89500 32.07100
H  47.87500 33.30900 31.91400
H  48.40000 34.30800 34.14200
H  46.97000 33.26300 33.92100
H  49.55000 40.65300 27.11200
H  49.68500 39.70900 28.66100
H  48.17300 40.16800 27.97600
H  51.65200 40.60000 24.12500
H  51.69700 40.04100 25.82600
H  50.23800 40.87800 25.08300
H  49.29000 33.95400 22.58200
H  46.49000 32.76700 22.38300
H  47.10800 34.51900 20.72700
H  48.78300 35.12600 20.98000
H  47.40100 36.00900 21.66000
H  48.64800 31.47800 21.79000
H  47.35800 30.63900 22.61200
H  49.12700 30.07100 24.20600
H  49.26400 31.81200 24.54900
H  50.16800 31.13600 23.24600
H  45.54800 28.85000 26.54100
H  44.36300 29.64500 25.48900
H  43.94900 29.04500 27.12100
H  43.66400 32.94500 30.78400
H  43.41500 30.66400 34.52000
H  43.78800 32.25200 34.96100
H  45.01000 31.13100 34.47700

