158

Mg 17.07300 -1.55900 28.11900
C  15.75800 0.48900 30.62800
C  19.06100 -3.01900 30.48400
C  18.34300 -3.27800 25.48000
C  15.30300 0.35600 25.74000
N  17.41700 -1.25500 30.33400
C  16.73700 -0.39200 31.17600
C  17.17000 -0.65500 32.63800
C  18.39600 -1.53400 32.51600
C  18.34000 -1.95000 31.04700
C  19.70000 -0.72100 32.91400
C  16.14300 -1.39200 33.57300
C  16.00100 -0.80800 34.96200
H  17.28100 -0.18600 35.60900
N  18.43100 -3.01600 28.01300
C  19.14900 -3.52100 29.10200
C  19.93600 -4.58200 28.49600
C  19.67000 -4.73700 27.10000
C  18.78500 -3.59700 26.79700
C  20.79400 -5.57700 29.39600
C  20.18400 -5.76900 26.09100
O  20.01900 -5.74700 24.89700
C  21.05800 -6.85600 26.58200
N  16.74800 -1.60200 25.89000
C  17.49200 -2.29200 25.02900
C  17.42300 -1.90700 23.63500
C  16.30400 -0.83000 23.78700
C  16.13500 -0.61900 25.20200
C  18.82000 -1.36100 23.05300
C  14.89300 -1.22900 23.08800
C  13.67900 -1.73300 23.93500
N  15.95400 0.10600 28.11900
C  15.24900 0.73100 27.08600
C  14.39800 1.79600 27.60400
C  14.60300 1.76000 29.01800
C  15.54400 0.74500 29.23900
C  13.52800 2.67600 26.70700
C  14.25200 2.32900 30.32100
O  13.43700 3.18800 30.56400
C  14.98100 1.48700 31.43200
C  15.68300 2.63400 32.21300
O  16.72400 3.24200 31.90200
O  15.02200 2.83500 33.38500
C  15.72500 3.77600 34.32300
H  19.55900 -3.58600 31.27400
H  18.74400 -3.84600 24.63700
H  14.70800 0.86800 24.98100
H  17.43500 0.31200 33.06600
H  18.25500 -2.44200 33.10100
H  19.98000 -1.29200 33.79900
H  19.67000 0.33300 33.19100
H  20.47700 -0.93600 32.18100
H  16.04900 -2.47400 33.48300
H  15.16400 -1.12400 33.17400
H  15.67800 -1.62500 35.60800
H  15.20200 -0.08200 34.81400
H  21.22800 -4.96400 30.18600
H  21.68400 -5.94600 28.88600
H  20.24900 -6.37900 29.89500
H  22.01600 -6.51000 26.97000
H  21.19600 -7.44900 25.67900
H  20.45000 -7.40400 27.30200
H  17.15500 -2.80300 23.07500
H  16.73100 0.09400 23.39800
H  19.52900 -1.18100 23.86000
H  18.71800 -0.50000 22.39200
H  19.32500 -2.15500 22.50300
H  15.10500 -1.95600 22.30400
H  14.52200 -0.38600 22.50500
H  12.85400 -1.05700 23.70900
H  13.82800 -1.85000 25.00900
H  13.21200 -2.68000 23.66500
H  13.04500 3.44500 27.31100
H  12.81700 2.17900 26.04800
H  14.25900 3.07500 26.00400
H  14.16700 1.05300 32.01200
H  16.78100 3.86400 34.06500
H  15.64200 3.53500 35.38300
H  15.32400 4.78800 34.27200
Mg 25.30800 1.30200 29.92600
C  27.29600 0.90500 32.87500
C  22.62400 1.54400 31.79900
C  23.54900 1.46100 27.01200
C  28.15200 0.68900 28.05400
N  25.04300 1.16000 32.04300
C  25.94600 1.09800 33.09600
C  25.29800 1.34000 34.49900
C  23.75100 1.40500 34.07100
C  23.79500 1.31500 32.51700
C  22.85700 0.33900 34.70500
C  25.88200 2.60500 35.22300
C  26.31200 2.41700 36.73600
H  25.61700 3.25700 37.82300
N  23.29800 1.41700 29.48000
C  22.35100 1.59200 30.42600
C  21.07700 1.90600 29.73900
C  21.36200 1.71300 28.34800
C  22.80300 1.58100 28.26200
C  19.78200 2.30300 30.52400
C  20.36500 1.61800 27.18900
O  20.78800 1.50500 26.01400
C  18.88400 1.72100 27.44100
N  25.77200 1.01100 27.81400
C  24.90900 1.23100 26.85900
C  25.59500 1.28900 25.43800
C  27.03100 1.33000 25.78600
C  27.03000 0.93300 27.27500
C  25.12400 0.21400 24.35400
C  27.74600 2.60600 25.30700
C  27.58300 3.89500 26.17200
N  27.29900 0.77000 30.31500
C  28.29800 0.54700 29.42800
C  29.52300 0.23000 30.18100
C  29.19800 0.36500 31.53200
C  27.82300 0.67400 31.57200
C  30.84000 -0.25800 29.62100
C  29.63200 0.32500 32.92300
O  30.76100 0.08900 33.33800
C  28.44100 0.75600 33.85100
C  28.09600 -0.30500 34.82400
O  27.31700 -1.16900 34.67700
O  28.88900 -0.11700 35.92800
C  28.62800 -1.05200 36.99500
H  21.72400 1.58300 32.41700
H  23.13300 1.57300 26.00800
H  29.09400 0.62800 27.50400
H  25.52900 0.48600 35.13500
H  23.28300 2.35100 34.34100
H  23.51100 -0.52200 34.84500
H  22.05900 0.02600 34.03200
H  22.52000 0.66300 35.69000
H  25.07300 3.33300 35.27300
H  26.73800 3.12400 34.79100
H  27.36200 2.70300 36.80000
H  26.22300 1.37600 37.04800
H  19.38300 3.21800 30.08700
H  19.96700 2.46000 31.58700
H  19.09900 1.47100 30.35700
H  18.54200 1.37400 28.41600
H  18.44200 1.12100 26.64600
H  18.58700 2.76000 27.29800
H  25.43100 2.19800 24.86000
H  27.47800 0.43900 25.34400
H  24.46700 -0.46500 24.89800
H  25.91300 -0.37100 23.88200
H  24.48500 0.72600 23.63400
H  27.47000 2.80100 24.27100
H  28.78400 2.27300 25.34500
H  28.53600 4.19100 26.61200
H  26.99700 3.68000 27.06600
H  27.18500 4.70500 25.56200
H  31.52700 -0.19000 30.46400
H  30.98400 0.37500 28.74500
H  30.80100 -1.26900 29.21500
H  28.68900 1.60200 34.49100
H  29.06100 -0.80600 37.96500
H  28.90900 -2.06200 36.69800
H  27.57200 -1.11900 37.25900

