158

Mg 0.64200 7.18500 25.33000
C  1.29100 8.99900 28.25800
C  0.98800 4.30100 27.12500
C  0.37300 5.42900 22.38100
C  0.61000 10.17700 23.51700
N  1.15500 6.75500 27.43100
C  1.21500 7.60200 28.45500
C  1.13800 6.99900 29.75400
C  1.36800 5.47400 29.39400
C  1.12300 5.48600 27.86100
C  2.73800 4.92800 29.89900
C  -0.14700 7.24900 30.60100
C  0.01900 7.90200 31.98100
H  1.20100 7.39200 32.79100
N  0.82600 5.18800 24.85500
C  0.81500 4.12400 25.73200
C  0.82400 2.89100 25.06700
C  0.66100 3.15700 23.65900
C  0.57100 4.65600 23.55900
C  0.88400 1.57200 25.81700
C  0.42600 2.22400 22.49500
O  0.47400 2.59500 21.32800
C  0.33800 0.79000 22.75700
N  0.39400 7.71300 23.28300
C  0.26100 6.77200 22.25400
C  0.03500 7.50700 20.90600
C  -0.01500 9.03100 21.36000
C  0.31500 9.00800 22.83600
C  1.26200 7.31600 19.92500
C  -1.44800 9.62500 21.03900
C  -2.60200 9.11000 21.97100
N  0.72600 9.22600 25.75300
C  0.79700 10.32400 24.87800
C  1.17500 11.52800 25.66400
C  1.31300 11.00900 26.98500
C  1.11300 9.57900 27.00500
C  1.20100 12.94300 25.36200
C  1.52900 11.47800 28.36900
O  1.72100 12.59300 28.84100
C  1.53100 10.14900 29.19000
C  2.89200 9.96700 29.91500
O  3.79900 9.23400 29.57300
O  2.84700 10.75400 31.00300
C  3.82500 10.66000 32.15400
H  0.92600 3.39500 27.73200
H  0.45900 4.82600 21.47500
H  0.55300 11.08400 22.91100
H  1.94600 7.42300 30.35000
H  0.53600 4.96300 29.87800
H  3.05300 4.47100 28.96100
H  2.56400 4.11000 30.59900
H  3.48500 5.62400 30.28000
H  -0.82900 6.39900 30.60600
H  -0.73100 8.00200 30.07300
H  -0.86400 7.91200 32.62000
H  0.23100 8.95900 31.82500
H  0.47700 1.64200 26.82600
H  1.93300 1.27700 25.85200
H  0.32800 0.77700 25.31900
H  0.42000 0.29800 21.78800
H  -0.49200 0.29200 23.25900
H  1.20000 0.45800 23.33500
H  -0.89800 7.11300 20.50300
H  0.67500 9.73900 20.90000
H  2.05900 6.74300 20.39800
H  1.72100 8.24100 19.57700
H  0.93200 6.65200 19.12500
H  -1.55900 9.17800 20.05100
H  -1.37900 10.70900 20.94700
H  -3.36100 8.81700 21.24700
H  -2.97000 9.96600 22.53700
H  -2.30600 8.38800 22.73300
H  0.69600 13.16100 24.42000
H  2.23000 13.30000 25.34300
H  0.78600 13.50500 26.19800
H  0.70300 10.26200 29.88900
H  4.66800 11.35000 32.10100
H  4.21800 9.64500 32.10400
H  3.32300 10.59900 33.11900
Mg 41.47600 41.29700 26.56900
C  40.82300 43.71400 29.11700
C  42.31800 39.27000 29.16700
C  42.46300 39.13700 24.26400
C  40.97900 43.73300 24.15800
N  41.69000 41.51500 28.85100
C  41.24800 42.53100 29.68600
C  41.60200 42.22000 31.15400
C  42.05300 40.76500 31.12000
C  41.98200 40.51400 29.59600
C  43.48100 40.53700 31.84100
C  40.32300 42.32000 32.09200
C  40.22200 41.53600 33.47700
H  39.46700 42.18100 34.66900
N  42.31000 39.47500 26.63400
C  42.51300 38.80000 27.83400
C  42.97900 37.44500 27.52500
C  43.07100 37.39100 26.13700
C  42.64000 38.69100 25.63600
C  43.39800 36.36100 28.61100
C  43.63200 36.24500 25.23000
O  43.71500 36.31300 23.98800
C  44.15200 35.07900 25.91500
N  41.86500 41.43600 24.49300
C  42.17300 40.35400 23.67600
C  42.06200 40.67600 22.14700
C  41.36400 42.07700 22.21900
C  41.44800 42.44600 23.71300
C  43.45800 40.65300 21.42000
C  39.86500 42.08600 21.86900
C  38.84000 41.11100 22.58300
N  41.08600 43.28000 26.56600
C  40.85600 44.10900 25.52800
C  40.65300 45.49800 26.04300
C  40.52600 45.32400 27.43600
C  40.78600 43.97200 27.72100
C  40.47600 46.80300 25.31900
C  40.14100 46.02000 28.64700
O  39.86100 47.18400 28.86700
C  40.38400 44.96400 29.74500
C  41.26600 45.43400 30.83400
O  42.48800 45.50500 30.85200
O  40.47000 45.90700 31.82800
C  41.15900 46.67900 32.96900
H  42.49200 38.59700 30.00900
H  43.01000 38.51000 23.55700
H  40.95400 44.50100 23.38200
H  42.37900 42.91300 31.47800
H  41.30400 40.17400 31.64600
H  44.26900 40.49700 31.08900
H  43.49300 39.75600 32.60100
H  43.71600 41.40100 32.46300
H  39.56000 41.93900 31.41400
H  40.14200 43.38100 32.26600
H  41.23600 41.27600 33.77800
H  39.71900 40.61500 33.17900
H  43.28700 36.78300 29.61000
H  44.44100 36.06100 28.51000
H  42.80400 35.44800 28.57400
H  44.86800 35.42800 26.65900
H  44.71000 34.46500 25.20800
H  43.31700 34.60300 26.42800
H  41.45800 39.94200 21.61400
H  41.88800 42.83500 21.63700
H  44.30900 40.34700 22.02900
H  43.64800 41.67800 21.10300
H  43.28000 39.90800 20.64400
H  39.85400 41.80700 20.81600
H  39.39300 43.06700 21.93300
H  37.79700 41.39500 22.72700
H  39.28100 40.62500 23.45300
H  38.78200 40.26600 21.89600
H  39.51800 47.27900 25.52800
H  40.49000 46.72300 24.23200
H  41.32600 47.42800 25.59100
H  39.37800 44.87200 30.15400
H  42.21000 46.93000 32.82900
H  41.13300 45.95200 33.78100
H  40.57700 47.55500 33.25400

