158

Mg 54.55000 24.43100 44.87100
C  52.16500 26.76200 43.77900
C  52.62400 21.89200 43.80300
C  57.28000 22.40000 45.18600
C  56.48900 27.18900 46.04500
N  52.67400 24.42300 43.84200
C  51.87400 25.41800 43.41100
C  50.71200 24.84900 42.66800
C  50.64600 23.41700 43.23100
C  52.08800 23.21000 43.63600
C  49.56700 23.20100 44.34300
C  50.75600 25.00900 41.11400
C  49.30600 24.75200 40.39800
H  49.39600 24.41800 38.91500
N  54.90700 22.43500 44.48700
C  53.96400 21.54500 44.08200
C  54.54600 20.28900 43.98600
C  55.88300 20.33500 44.37400
C  56.10500 21.76500 44.70300
C  53.69600 19.08200 43.70700
C  56.80000 19.18600 44.55800
O  56.43700 18.10500 44.23000
C  58.23900 19.29600 45.05600
N  56.60200 24.75400 45.48000
C  57.53000 23.77300 45.45300
C  58.87500 24.32300 45.97600
C  58.58800 25.76700 46.36000
C  57.12200 25.94900 45.91500
C  59.58300 23.53600 47.11000
C  59.51300 26.82300 45.63800
C  60.08700 27.83600 46.52800
N  54.34400 26.51200 45.08600
C  55.16000 27.48000 45.70000
C  54.51400 28.73800 45.59500
C  53.35900 28.51000 44.88200
C  53.27200 27.12600 44.58900
C  54.95400 30.06400 46.21800
C  52.16400 29.16400 44.38200
O  51.78900 30.31100 44.41200
C  51.40500 27.97900 43.61300
C  51.26800 28.30400 42.17000
O  52.22900 28.62800 41.50000
O  50.02700 28.04100 41.64400
C  49.97000 28.34900 40.18300
H  52.01100 21.02400 43.55000
H  58.25500 21.90800 45.22100
H  57.00200 27.99900 46.56900
H  49.81000 25.37600 42.98000
H  50.42200 22.75100 42.39800
H  50.13100 22.81000 45.19000
H  48.81000 22.46600 44.07200
H  49.06400 24.09900 44.70300
H  51.41700 24.29500 40.62400
H  51.26800 25.94900 40.90800
H  48.73000 25.67400 40.47400
H  48.68300 24.00600 40.89200
H  54.20300 18.30700 43.13400
H  52.86900 19.37600 43.06000
H  53.30400 18.74300 44.66600
H  58.67800 19.90800 44.26700
H  58.58000 18.26500 45.14500
H  58.38100 19.85300 45.98200
H  59.48100 24.21500 45.07600
H  58.50700 25.82000 47.44500
H  60.02400 24.19900 47.85300
H  60.32000 22.93300 46.57800
H  58.93800 22.78900 47.57300
H  59.02400 27.29800 44.78700
H  60.39100 26.23500 45.37200
H  60.11400 28.72400 45.89700
H  61.02900 27.53700 46.98800
H  59.42000 27.99500 47.37500
H  54.47300 30.12400 47.19400
H  54.41000 30.73400 45.55300
H  56.00600 30.31400 46.35900
H  50.39000 27.80200 43.96900
H  50.67200 27.70400 39.65400
H  50.36000 29.33100 39.91200
H  48.93600 28.28900 39.84500
Mg 0.39500 44.07100 25.86300
C  1.94600 44.27600 28.89600
C  -2.52300 43.13100 27.47300
C  -1.02900 43.33600 22.80000
C  3.41200 44.67800 24.24100
N  -0.16600 43.67600 27.87300
C  0.62500 43.86600 28.97200
C  -0.21900 43.82000 30.28700
C  -1.58400 43.15000 29.81700
C  -1.42800 43.34500 28.27600
C  -1.83500 41.67200 30.30500
C  -0.38200 45.22700 31.06500
C  -0.01100 45.30700 32.55900
H  0.02800 44.04000 33.41800
N  -1.57300 43.52200 25.25000
C  -2.57500 43.23100 26.04500
C  -3.71700 43.03900 25.20300
C  -3.29900 43.14800 23.83400
C  -1.91400 43.28400 23.93300
C  -5.05800 42.60700 25.73800
C  -4.06400 42.98500 22.50900
O  -3.55100 42.95900 21.39500
C  -5.57300 42.82200 22.56600
N  1.04500 44.08100 23.87300
C  0.28600 43.71300 22.80300
C  1.17500 43.62400 21.56100
C  2.45200 44.43500 21.89900
C  2.31700 44.35800 23.43300
C  1.34300 42.10600 21.08900
C  2.58300 45.82200 21.17800
C  3.81000 46.10100 20.20300
N  2.30500 44.36000 26.41200
C  3.40100 44.65400 25.69800
C  4.49800 44.85300 26.56700
C  4.02200 44.63100 27.87800
C  2.69500 44.44500 27.73400
C  5.96700 45.13900 26.11500
C  4.34400 44.62600 29.31400
O  5.38400 44.78800 29.93400
C  2.97500 44.37000 30.04400
C  3.20700 43.11000 30.82800
O  3.09700 42.01800 30.29300
O  3.71400 43.41300 32.06800
C  4.19600 42.24800 32.85600
H  -3.44700 42.77900 27.93700
H  -1.34100 43.10100 21.78000
H  4.42000 44.73200 23.82500
H  0.25200 43.10400 30.96000
H  -2.45200 43.72400 30.13900
H  -1.00600 41.45500 30.97900
H  -1.83100 41.01200 29.43800
H  -2.82500 41.69900 30.75900
H  -1.36100 45.66800 30.87800
H  0.27900 45.93700 30.56700
H  -0.76100 45.86700 33.11800
H  0.89500 45.90900 32.63200
H  -4.96100 42.19500 26.74200
H  -5.65000 41.94300 25.10700
H  -5.63000 43.48400 26.04200
H  -6.10300 43.28400 23.39900
H  -5.64100 41.75000 22.74800
H  -6.06600 42.99500 21.60900
H  0.65200 44.12400 20.74600
H  3.33300 43.82700 21.69300
H  2.39600 41.92500 20.87400
H  0.69900 41.79400 20.26700
H  1.15800 41.43300 21.92700
H  2.71300 46.52300 22.00400
H  1.72000 45.92000 20.52000
H  4.59000 46.60000 20.77800
H  3.58000 46.63300 19.28000
H  4.10600 45.12900 19.80900
H  5.93200 45.90500 25.34100
H  6.21600 44.15700 25.71300
H  6.63300 45.34700 26.95300
H  2.86000 45.28100 30.63100
H  5.24800 41.96900 32.79400
H  3.70600 41.31100 32.59100
H  3.91900 42.36900 33.90300

