158

Mg 44.61000 2.69700 47.22800
C  42.29500 5.25500 46.82300
C  41.93800 0.51300 47.00800
C  46.81100 0.07900 47.23900
C  47.10300 4.96000 46.34400
N  42.34100 2.86000 46.85800
C  41.66800 4.02400 46.76500
C  40.25500 3.89400 46.51900
C  40.05400 2.36900 46.85700
C  41.51000 1.83700 46.93100
C  39.15500 2.05900 48.13300
C  39.85800 4.31200 45.06500
C  38.56700 5.20600 44.88000
H  37.96900 5.22200 43.49000
N  44.42600 0.58700 47.20200
C  43.22300 -0.07100 47.09300
C  43.50800 -1.52600 47.24300
C  44.90500 -1.73400 47.23100
C  45.47000 -0.37300 47.31900
C  42.42500 -2.48800 47.11100
C  45.63600 -3.02300 47.22000
O  45.06600 -4.13100 47.22800
C  47.03000 -2.97100 47.52300
N  46.55300 2.50900 46.83800
C  47.27300 1.34000 46.94500
C  48.84700 1.63200 46.88900
C  48.84200 3.10400 46.28900
C  47.39200 3.57400 46.44200
C  49.50000 1.37300 48.27000
C  49.47700 3.32200 44.93000
C  50.84300 3.97300 44.86300
N  44.79400 4.71900 46.90600
C  45.86100 5.45900 46.53800
C  45.43600 6.77000 46.40400
C  44.02500 6.82400 46.55400
C  43.71900 5.49400 46.87000
C  46.25300 7.96500 45.93900
C  42.80200 7.63300 46.52900
O  42.59500 8.81100 46.22300
C  41.64900 6.65000 46.87300
C  41.06400 6.86300 48.15100
O  41.51200 6.50100 49.20500
O  39.77600 7.25800 48.00300
C  38.99700 7.55700 49.22200
H  41.05500 -0.12800 46.99500
H  47.66800 -0.59100 47.33700
H  47.85400 5.69900 46.05700
H  39.76800 4.53100 47.25600
H  39.52000 1.90400 46.02800
H  38.57400 2.89400 48.52500
H  39.82400 1.79200 48.95100
H  38.60700 1.15000 47.88700
H  39.79200 3.39500 44.47900
H  40.66300 4.91800 44.65000
H  38.74700 6.20800 45.27100
H  37.83700 4.87500 45.61900
H  41.86000 -2.41700 46.18100
H  41.71000 -2.20800 47.88500
H  42.80200 -3.50700 47.19200
H  47.27400 -2.34900 48.38400
H  47.46300 -2.56200 46.61000
H  47.32400 -3.99800 47.73600
H  49.27000 0.79800 46.33000
H  49.28700 3.81200 46.98800
H  50.14900 0.50100 48.35000
H  48.69100 1.20900 48.98200
H  50.07800 2.24700 48.56900
H  48.79100 3.83900 44.26000
H  49.52200 2.32100 44.49900
H  51.68500 3.44600 44.41300
H  51.11700 4.18300 45.89700
H  50.92300 4.94400 44.37500
H  45.70400 8.89300 46.09900
H  46.50600 7.81800 44.88800
H  47.19400 7.98800 46.48900
H  40.94100 6.74100 46.04900
H  39.21100 8.59600 49.47300
H  39.28200 6.88300 50.03000
H  37.92900 7.48000 49.02200
Mg 48.06100 15.06300 27.78100
C  46.08300 15.18400 30.69100
C  50.27300 17.31500 29.39400
C  49.95500 15.16700 25.05300
C  45.62000 13.14000 26.20800
N  48.20200 16.14100 29.79400
C  47.25100 15.94400 30.85000
C  47.84800 16.65300 32.12600
C  48.97600 17.57900 31.59800
C  49.17600 17.00700 30.19900
C  48.61300 19.11500 31.50200
C  48.31500 15.54200 33.22600
C  48.01300 15.88700 34.66800
H  49.03900 15.40000 35.70100
N  49.86200 16.17300 27.22100
C  50.61900 16.99800 28.08100
C  51.86800 17.44800 27.36300
C  51.77400 16.72700 26.07600
C  50.45700 16.07100 26.01600
C  52.86500 18.29700 28.01900
C  52.80900 16.69700 25.03900
O  52.64000 16.12000 23.95200
C  54.14500 17.35100 25.31400
N  47.77000 14.48100 25.92100
C  48.74000 14.51600 24.95400
C  48.50500 13.45300 23.81700
C  47.13800 12.79100 24.19800
C  46.83800 13.46300 25.54800
C  48.53100 14.09600 22.34700
C  47.19300 11.27700 24.43000
C  48.07800 10.47600 23.35400
N  46.15100 14.39600 28.22400
C  45.26700 13.60300 27.52600
C  44.08000 13.39200 28.28000
C  44.35800 13.98900 29.49000
C  45.66300 14.54900 29.48400
C  42.82600 12.70000 27.79300
C  43.77100 14.15100 30.81400
O  42.74000 13.77100 31.30200
C  44.92000 14.93800 31.69500
C  44.33900 16.18100 32.29300
O  43.84200 17.12200 31.67200
O  44.40800 16.04800 33.66200
C  44.07800 17.23000 34.46000
H  50.92200 18.08100 29.82400
H  50.61800 15.05000 24.19300
H  45.13400 12.37600 25.59700
H  47.11100 17.29200 32.61300
H  49.86800 17.47600 32.21600
H  48.64600 19.46200 30.47000
H  49.37100 19.78300 31.91100
H  47.74200 19.40000 32.09300
H  49.37700 15.40500 33.02200
H  47.87800 14.58800 32.93500
H  47.09000 15.43000 35.02400
H  47.85200 16.94900 34.84800
H  53.62500 17.78700 28.61100
H  52.36100 18.94600 28.73500
H  53.44800 18.96100 27.38100
H  54.89900 16.99200 24.61400
H  54.45700 17.05900 26.31700
H  54.08800 18.41900 25.10100
H  49.29800 12.71300 23.92400
H  46.46600 13.05700 23.38300
H  48.72500 13.29500 21.63400
H  49.33700 14.82100 22.23200
H  47.59000 14.62000 22.18000
H  46.19000 10.85600 24.35900
H  47.46800 10.88800 25.41000
H  48.57800 11.08900 22.60500
H  47.37200 9.84500 22.81400
H  48.78000 9.80700 23.85100
H  42.13300 12.43400 28.59200
H  43.11400 11.85700 27.16600
H  42.35000 13.41500 27.12200
H  45.08200 14.21500 32.49500
H  44.34200 18.18700 34.01000
H  44.63500 17.12900 35.39200
H  42.99700 17.12600 34.55700

