158

Mg -2.90500 16.63300 26.21300
C  -2.95000 14.23400 28.88900
C  -3.37000 19.08600 28.50900
C  -2.62200 18.78100 23.66100
C  -2.69200 13.95200 23.97100
N  -3.12300 16.60900 28.45600
C  -3.15800 15.55700 29.36500
C  -3.46100 16.03500 30.75700
C  -3.85700 17.55900 30.53700
C  -3.47400 17.73700 29.03700
C  -5.24500 18.09100 30.95700
C  -2.35700 15.63100 31.78900
C  -1.97800 16.67600 32.85000
H  -1.46000 16.05500 34.19000
N  -2.95100 18.65400 26.13900
C  -3.19800 19.53500 27.19900
C  -2.99900 20.93600 26.75400
C  -2.80200 20.81500 25.30500
C  -2.75700 19.38600 24.97700
C  -3.17800 22.15900 27.67500
C  -2.69400 21.97900 24.34100
O  -2.63900 21.73200 23.15900
C  -2.46500 23.35200 24.73000
N  -2.68900 16.43700 24.15800
C  -2.56900 17.46300 23.28000
C  -2.54000 16.93100 21.82600
C  -2.30600 15.42500 21.98500
C  -2.57300 15.24300 23.44800
C  -3.87200 17.09100 21.05400
C  -0.89400 14.86300 21.56700
C  -0.93000 13.53200 20.80100
N  -3.06500 14.57500 26.29800
C  -2.94000 13.67500 25.28000
C  -2.99800 12.34300 25.82700
C  -2.90900 12.51300 27.22400
C  -2.96300 13.90600 27.46200
C  -2.96600 11.04500 25.03900
C  -2.90900 11.75800 28.53200
O  -2.99400 10.53600 28.66300
C  -2.73900 12.83900 29.62600
C  -1.47700 12.66500 30.45900
O  -0.41100 13.24900 30.33800
O  -1.68700 11.60700 31.30200
C  -0.66500 11.42400 32.33600
H  -3.45800 19.79300 29.33700
H  -2.48100 19.40500 22.77700
H  -2.73100 13.13600 23.24700
H  -4.41500 15.60100 31.05700
H  -3.12400 18.10700 31.12800
H  -5.68700 18.55100 30.07300
H  -5.15200 18.83700 31.74600
H  -5.85400 17.28400 31.36400
H  -1.54300 15.32600 31.13100
H  -2.56800 14.67300 32.26300
H  -2.81400 17.36700 32.96400
H  -1.08600 17.25900 32.62400
H  -3.00900 21.84700 28.70600
H  -4.10100 22.72900 27.57400
H  -2.40600 22.91000 27.50100
H  -3.23700 23.63800 25.44500
H  -2.52600 23.99900 23.85500
H  -1.41600 23.44300 25.01400
H  -1.70400 17.47400 21.38600
H  -3.00900 14.87000 21.36400
H  -4.29900 18.03900 21.38100
H  -4.61700 16.33300 21.29500
H  -3.68000 16.95600 19.99000
H  -0.24200 14.80600 22.43900
H  -0.47200 15.62700 20.91500
H  -0.47500 13.74100 19.83300
H  -1.94600 13.15200 20.69200
H  -0.34200 12.79700 21.35100
H  -2.09500 11.24200 24.41400
H  -3.88900 10.97100 24.46400
H  -2.69900 10.16700 25.62700
H  -3.52700 12.56700 30.32800
H  -0.23600 10.45400 32.08100
H  -1.15500 11.21000 33.28500
H  0.16000 12.13600 32.34300
Mg 24.94000 2.08300 29.94900
C  27.23400 1.97000 32.67200
C  22.39300 2.43700 32.13700
C  22.85900 1.97200 27.33600
C  27.73600 1.29900 27.81500
N  24.90500 2.13900 32.09500
C  25.88200 2.23200 33.00700
C  25.35800 2.53300 34.38100
C  23.82400 2.46900 34.19500
C  23.69500 2.32800 32.70300
C  23.08100 1.38800 34.96300
C  25.83000 3.92100 34.93200
C  26.62100 3.95000 36.22100
H  26.18000 4.98800 37.21800
N  22.91500 2.16700 29.76700
C  21.99400 2.34900 30.79000
C  20.62500 2.36200 30.24900
C  20.79900 2.12400 28.80900
C  22.25500 2.06200 28.58200
C  19.48500 2.52900 31.05000
C  19.78200 2.01000 27.76300
O  20.05400 1.78300 26.61700
C  18.31600 2.33600 28.10900
N  25.19400 1.49600 27.82500
C  24.20100 1.76900 26.90300
C  24.76300 1.83500 25.47500
C  26.32700 1.69000 25.69600
C  26.45700 1.48700 27.25700
C  24.27000 0.75100 24.42900
C  27.16500 2.84100 25.12900
C  27.25700 4.18800 25.90100
N  27.03500 1.61600 30.14000
C  28.04300 1.22900 29.20200
C  29.30600 1.00300 29.85300
C  28.99800 1.28600 31.20500
C  27.60400 1.63800 31.38500
C  30.55400 0.58500 29.23800
C  29.60900 1.53000 32.51500
O  30.78100 1.32300 32.74700
C  28.50200 2.03900 33.55100
C  28.45100 0.96500 34.62300
O  28.04700 -0.18600 34.47100
O  28.76900 1.54500 35.85600
C  28.50700 0.76600 37.04700
H  21.65300 2.63400 32.91500
H  22.24300 2.00900 26.43500
H  28.57000 1.19100 27.11900
H  25.76900 1.70500 34.95900
H  23.27400 3.38800 34.39700
H  23.70000 0.75000 35.59400
H  22.68900 0.64600 34.26700
H  22.32100 1.91000 35.54600
H  24.91900 4.48500 35.13100
H  26.42100 4.48000 34.20600
H  27.69500 4.13200 36.19400
H  26.47300 3.00400 36.74100
H  18.80100 1.68200 31.00000
H  19.09100 3.51200 30.79000
H  19.58100 2.59900 32.13400
H  18.00600 1.82500 29.02000
H  17.72500 1.88100 27.31400
H  18.26700 3.42500 28.12900
H  24.61200 2.88800 25.23800
H  26.65000 0.73900 25.27300
H  23.24100 0.48900 24.67600
H  24.95900 -0.09000 24.50900
H  24.23800 1.11800 23.40300
H  26.72700 3.08300 24.16100
H  28.11300 2.41800 24.79600
H  28.23300 4.28800 26.37600
H  26.51300 4.17200 26.69800
H  26.99600 5.08500 25.33800
H  31.25100 1.39900 29.04000
H  30.33700 0.10300 28.28500
H  30.93600 -0.13600 29.96100
H  28.64400 3.00300 34.04000
H  27.89200 -0.11200 36.85000
H  27.85500 1.39200 37.65600
H  29.46100 0.53600 37.52200

