158

Mg 40.61200 9.62400 29.20300
C  42.36000 10.76500 31.79900
C  38.37000 8.07300 31.42700
C  38.72700 8.43800 26.56700
C  42.80200 10.93400 26.97000
N  40.45500 9.39400 31.39900
C  41.15400 10.22300 32.28200
C  40.69600 10.16600 33.71700
C  39.54100 9.08100 33.54000
C  39.49200 8.74000 32.03100
C  39.70400 7.72400 34.36100
C  40.14100 11.55200 34.09200
C  39.59100 11.75700 35.43600
H  40.27100 12.48800 36.53600
N  38.85500 8.33300 29.03500
C  38.12000 7.83200 30.07800
C  37.02500 6.97100 29.55500
C  37.03900 7.16300 28.14400
C  38.18100 8.01000 27.83400
C  35.92500 6.32100 30.42300
C  36.18000 6.60100 27.04300
O  36.29300 6.89200 25.87200
C  34.96600 5.80500 27.37200
N  40.64000 9.79500 27.06700
C  39.85400 9.13900 26.16600
C  40.33300 9.32000 24.66700
C  41.60300 10.20500 24.89800
C  41.65300 10.40800 26.40800
C  40.45900 8.06100 23.76700
C  41.59700 11.58500 24.11900
C  40.85900 12.82000 24.76500
N  42.22900 10.57500 29.27200
C  43.08900 11.06500 28.33800
C  44.27100 11.63100 28.97000
C  43.95900 11.58700 30.36000
C  42.80000 10.83700 30.47600
C  45.46800 12.19800 28.32200
C  44.43700 11.92300 31.68200
O  45.51600 12.36500 31.88200
C  43.31800 11.55900 32.63000
C  43.97100 10.89600 33.83900
O  44.34400 9.71000 33.87300
O  44.02000 11.70000 34.95900
C  44.54000 11.20900 36.21800
H  37.71500 7.58800 32.15400
H  38.33300 7.89300 25.70700
H  43.64300 11.21600 26.33200
H  41.41400 9.94100 34.50600
H  38.53600 9.41900 33.79400
H  39.58600 6.84200 33.73200
H  39.08200 7.73000 35.25600
H  40.71600 7.69000 34.76500
H  39.38000 11.94800 33.42000
H  40.94600 12.23700 33.82500
H  39.49400 10.73500 35.80200
H  38.57200 12.13300 35.34700
H  36.35900 5.37700 30.75000
H  34.92700 6.19300 30.00200
H  35.87800 6.96100 31.30400
H  35.26500 5.08600 28.13500
H  34.75100 5.31900 26.42000
H  34.07800 6.39100 27.60900
H  39.62000 9.99600 24.19600
H  42.52500 9.72600 24.56700
H  41.04500 7.38400 24.38800
H  41.23900 8.16200 23.01200
H  39.55000 7.55700 23.43700
H  41.19100 11.34800 23.13600
H  42.65500 11.75400 23.92000
H  40.58700 12.55500 25.78600
H  40.01400 13.25600 24.23100
H  41.61000 13.59800 24.90300
H  45.63900 13.11700 28.88200
H  45.15900 12.42400 27.30100
H  46.29800 11.49100 28.32100
H  42.84300 12.43300 33.07600
H  44.02600 10.26400 36.39200
H  44.23900 11.91100 36.99400
H  45.62900 11.16300 36.23300
Mg -11.84200 16.70200 42.91500
C  -8.45300 15.62800 42.41700
C  -10.85000 19.75800 41.58000
C  -15.12700 17.34700 42.40100
C  -12.57400 13.56400 44.04100
N  -9.85600 17.47600 41.92200
C  -8.64900 16.90200 41.99000
C  -7.60400 17.81600 41.38200
C  -8.27900 19.29300 41.48500
C  -9.74500 18.88900 41.63800
C  -7.72300 20.28400 42.55200
C  -6.97600 17.28100 40.06900
C  -5.46400 17.19500 40.00000
H  -4.75300 16.27100 38.93600
N  -12.86100 18.29100 42.13200
C  -12.24400 19.44900 41.64700
C  -13.30900 20.32800 41.14700
C  -14.57500 19.65500 41.28000
C  -14.24300 18.38100 41.96600
C  -13.08600 21.65200 40.34900
C  -15.95300 20.20700 40.77800
O  -15.99200 21.29100 40.18000
C  -17.23100 19.47200 40.84900
N  -13.72000 15.61500 43.17000
C  -14.95200 16.10800 42.97100
C  -15.98900 15.21200 43.42000
C  -15.16800 14.09800 44.08500
C  -13.70700 14.39700 43.73500
C  -17.12100 15.73400 44.29800
C  -15.67400 12.63000 43.75900
C  -15.59400 11.52900 44.85900
N  -10.77100 14.88300 43.19400
C  -11.19700 13.73200 43.81400
C  -10.03100 12.82000 43.95100
C  -8.96300 13.52500 43.42400
C  -9.46400 14.77900 42.93500
C  -10.01800 11.38600 44.57300
C  -7.55500 13.51900 43.27800
O  -6.82000 12.62000 43.64600
C  -7.08800 14.89400 42.63100
C  -6.28000 15.67700 43.60400
O  -6.73300 16.45800 44.45400
O  -4.98500 15.41100 43.44700
C  -4.04300 16.35800 44.17300
H  -10.60700 20.79500 41.33800
H  -16.17000 17.57300 42.16800
H  -12.87900 12.64600 44.54600
H  -6.76900 17.87000 42.08000
H  -8.22500 19.74400 40.49400
H  -7.42000 21.19500 42.03600
H  -6.88600 19.96000 43.17100
H  -8.57000 20.55000 43.18300
H  -7.45100 17.90800 39.31400
H  -7.39800 16.30500 39.82900
H  -5.03400 16.90900 40.96000
H  -5.13000 18.21500 39.81000
H  -13.67900 21.76300 39.44100
H  -12.04900 21.71700 40.02100
H  -13.31400 22.46400 41.04000
H  -17.61700 19.54600 41.86600
H  -17.12100 18.42100 40.58400
H  -17.97500 20.00800 40.26000
H  -16.38100 14.90100 42.45200
H  -15.33900 14.25800 45.15000
H  -17.97100 16.16900 43.77100
H  -16.67900 16.47900 44.95900
H  -17.46800 14.87400 44.87000
H  -15.11800 12.28900 42.88600
H  -16.74400 12.62100 43.54800
H  -15.15300 11.92400 45.77400
H  -15.07000 10.69000 44.40200
H  -16.60900 11.16400 45.01600
H  -9.13100 11.08300 45.12800
H  -10.12000 10.60300 43.82200
H  -10.93700 11.30000 45.15300
H  -6.47600 14.80400 41.73400
H  -4.03600 16.03100 45.21300
H  -4.33100 17.40900 44.17300
H  -3.01200 16.22800 43.84300

