158

Mg -1.34400 16.96800 25.91200
C  -1.93100 14.84000 28.76500
C  -1.79600 19.72400 28.02000
C  -1.25200 18.83700 23.26300
C  -1.57300 14.09300 23.97800
N  -1.93800 17.30900 28.12800
C  -2.10500 16.24100 29.11600
C  -2.44900 16.93500 30.47500
C  -2.33900 18.48600 30.23100
C  -1.92300 18.50200 28.72300
C  -3.56100 19.38200 30.59800
C  -1.72700 16.45100 31.76300
C  -1.97300 17.20400 33.08000
H  -1.90200 16.31400 34.27900
N  -1.42700 19.04300 25.63500
C  -1.66900 19.98800 26.60500
C  -1.61300 21.27500 25.96000
C  -1.42200 21.07200 24.60300
C  -1.28800 19.61000 24.45900
C  -1.80300 22.54100 26.79500
C  -1.52100 22.13000 23.52200
O  -1.30300 21.88400 22.31900
C  -1.91500 23.56700 23.90800
N  -1.27300 16.46900 23.86500
C  -1.20800 17.48300 22.92300
C  -1.44900 16.93800 21.46800
C  -1.70300 15.39900 21.74400
C  -1.55300 15.29600 23.28300
C  -2.67400 17.65400 20.69900
C  -0.68100 14.50500 21.00400
C  0.80500 14.64500 21.49000
N  -1.45500 14.89500 26.22100
C  -1.43900 13.84800 25.32400
C  -1.53000 12.66300 26.06900
C  -1.61700 12.97800 27.39500
C  -1.75300 14.34300 27.45800
C  -1.63500 11.25000 25.44000
C  -1.72600 12.45300 28.72400
O  -1.66900 11.26900 29.07900
C  -1.89200 13.61800 29.66400
C  -0.79900 13.59900 30.60400
O  0.31100 14.06400 30.50100
O  -1.22400 12.77500 31.62400
C  -0.38800 12.67900 32.85700
H  -1.76500 20.61300 28.65200
H  -1.31100 19.56400 22.45000
H  -1.87700 13.17000 23.48100
H  -3.50000 16.69500 30.63700
H  -1.43600 18.93600 30.64300
H  -4.10600 18.82500 31.36100
H  -4.18500 19.47400 29.70900
H  -3.32700 20.43200 30.77300
H  -0.69300 16.30700 31.44800
H  -2.20400 15.49700 31.98900
H  -2.96000 17.66300 33.11900
H  -1.18500 17.95500 33.14200
H  -2.77400 22.98100 26.56900
H  -0.97400 23.19500 26.52600
H  -1.85300 22.33700 27.86500
H  -1.80800 24.18400 23.01600
H  -1.24600 23.99000 24.65800
H  -2.91100 23.54700 24.35000
H  -0.55200 17.01400 20.85300
H  -2.72300 15.03400 21.62700
H  -3.26900 16.98600 20.07600
H  -2.36700 18.52200 20.11600
H  -3.34700 17.92500 21.51300
H  -0.70200 14.97900 20.02300
H  -0.99100 13.46400 21.10100
H  0.99000 15.26400 22.36800
H  1.36800 15.07200 20.66000
H  1.17800 13.63200 21.64200
H  -0.93300 11.28000 24.60700
H  -2.66600 10.98700 25.20200
H  -1.26500 10.49700 26.13500
H  -2.89200 13.51200 30.08500
H  -1.03200 12.67400 33.73600
H  0.28400 13.53300 32.93600
H  0.15400 11.73400 32.83100
Mg 41.03400 8.88600 29.02800
C  43.10700 9.91500 31.66200
C  38.96500 7.54500 31.29000
C  39.22400 7.70000 26.46000
C  43.62800 9.73200 26.89500
N  41.06000 8.84100 31.16500
C  41.94600 9.32900 32.05800
C  41.45500 9.24300 33.52700
C  40.11700 8.51100 33.36300
C  40.09600 8.19200 31.88100
C  39.92600 7.23100 34.20500
C  41.42800 10.67100 34.19300
C  40.24200 11.10500 35.14000
H  40.67700 11.68900 36.49900
N  39.27700 7.86400 28.86400
C  38.60600 7.32000 29.93800
C  37.39200 6.70600 29.43100
C  37.44100 6.66200 28.01700
C  38.67300 7.49300 27.71500
C  36.42500 5.98400 30.38500
C  36.47500 5.99700 26.96200
O  36.78800 5.86300 25.76300
C  35.10200 5.49300 27.39700
N  41.43100 8.67200 27.04700
C  40.49900 8.19400 26.13500
C  41.03100 8.27300 24.70100
C  42.45000 8.97000 24.84900
C  42.48800 9.23300 26.35800
C  41.05400 6.93400 24.01000
C  42.59700 10.14500 23.87600
C  42.24300 11.63400 24.30600
N  43.02000 9.68700 29.17900
C  43.98200 10.00400 28.24800
C  45.19500 10.63900 28.75700
C  44.86000 10.70100 30.18600
C  43.59700 10.03700 30.34500
C  46.52600 11.01900 28.00600
C  45.22200 11.14500 31.50100
O  46.19200 11.82000 31.81200
C  44.14600 10.64000 32.48100
C  44.70100 9.71500 33.44200
O  44.59700 8.50800 33.41800
O  45.20400 10.40000 34.47200
C  45.40700 9.50200 35.63500
H  38.11800 7.38100 31.95900
H  38.66700 7.30100 25.61000
H  44.37200 10.01800 26.14800
H  42.12800 8.51300 33.97600
H  39.23000 9.13000 33.49600
H  38.97600 6.93400 34.64900
H  40.62800 7.05500 35.02000
H  40.11900 6.34700 33.59800
H  41.38300 11.42300 33.40600
H  42.37000 10.74200 34.73700
H  39.56400 10.28300 35.36700
H  39.68200 11.84500 34.56800
H  35.48900 6.54100 30.33500
H  36.82800 5.85700 31.39000
H  36.11600 5.01500 29.99300
H  35.35500 4.57200 27.92300
H  34.53500 5.24700 26.49900
H  34.47000 6.05500 28.08400
H  40.24900 8.89700 24.26900
H  43.30600 8.31600 24.68000
H  42.11000 6.74100 23.82000
H  40.27000 6.96900 23.25400
H  40.80000 6.13100 24.70200
H  41.87300 9.91100 23.09600
H  43.56400 10.05300 23.38100
H  41.39200 11.98800 23.72400
H  43.07600 12.27700 24.02200
H  42.20700 11.54100 25.39100
H  46.32500 12.04100 27.68600
H  46.69700 10.36700 27.14900
H  47.39300 11.06400 28.66500
H  43.66600 11.56500 32.80200
H  45.99400 8.59900 35.47000
H  44.55700 9.19500 36.24500
H  45.87200 10.21400 36.31800

