158

Mg 42.18400 41.75800 25.93300
C  41.47700 44.11400 28.47100
C  43.21900 39.62600 28.55900
C  43.04700 39.53200 23.69700
C  41.77800 44.22200 23.59200
N  42.25300 41.88200 28.24400
C  41.71300 42.89700 29.02900
C  41.78100 42.49500 30.53000
C  42.39200 41.10700 30.51300
C  42.74000 40.88400 29.03100
C  43.51800 40.87400 31.43800
C  40.41700 42.55700 31.39200
C  40.54100 43.22500 32.78300
H  40.02100 42.44800 34.00100
N  42.95500 39.87100 26.08100
C  43.25400 39.15600 27.22500
C  43.56900 37.85600 26.83800
C  43.46600 37.75200 25.44500
C  43.20400 39.09300 24.99700
C  44.12000 36.85800 27.84000
C  43.70600 36.55300 24.55100
O  43.91400 36.64900 23.30100
C  43.72200 35.10600 25.18000
N  42.45900 41.88700 23.89400
C  42.74100 40.76800 23.14600
C  42.86800 41.19800 21.67500
C  42.10100 42.53100 21.65600
C  42.07400 42.92400 23.14000
C  44.30800 41.25700 21.10500
C  40.68500 42.63400 21.12800
C  39.48600 42.29500 22.02500
N  41.50800 43.72800 25.90700
C  41.54000 44.62600 24.88400
C  41.26900 45.97400 25.33700
C  41.10500 45.79100 26.73600
C  41.33100 44.40700 27.08100
C  41.11700 47.13400 24.54500
C  40.77200 46.43000 27.97600
O  40.42900 47.61300 28.13800
C  40.98300 45.37700 29.16600
C  42.02000 45.90500 30.10800
O  43.20900 46.00100 29.89800
O  41.36500 46.33400 31.28000
C  42.31800 46.98500 32.27200
H  43.46000 39.00300 29.42300
H  43.31800 38.79000 22.94300
H  41.56300 44.96600 22.82100
H  42.46200 43.22300 30.97100
H  41.57600 40.42100 30.73700
H  43.62700 41.62000 32.22500
H  44.49500 40.82100 30.95800
H  43.27800 39.89900 31.86300
H  40.09000 41.54000 31.60700
H  39.64300 43.10100 30.85100
H  39.88700 44.09700 32.79100
H  41.53900 43.59300 33.02200
H  43.52300 35.94600 27.87600
H  44.25400 37.32000 28.81800
H  45.08800 36.54400 27.44900
H  43.58300 34.45400 24.31800
H  42.89100 34.98800 25.87600
H  44.63900 34.82000 25.69600
H  42.29700 40.51000 21.05200
H  42.63600 43.34500 21.16600
H  44.95800 40.77400 21.83500
H  44.68700 42.27000 20.97100
H  44.40100 40.63200 20.21600
H  40.57200 41.97100 20.27000
H  40.52600 43.68400 20.88300
H  39.78200 41.93900 23.01200
H  38.92800 41.51400 21.50900
H  38.84000 43.16900 22.10000
H  40.57500 46.79800 23.66100
H  42.15500 47.35200 24.29400
H  40.57000 47.88300 25.11800
H  40.11100 45.10100 29.75900
H  42.66200 46.16200 32.89800
H  41.67400 47.55600 32.94100
H  43.12700 47.52900 31.78500
Mg 6.45200 53.97800 42.69000
C  5.62200 50.69400 42.19600
C  9.31300 53.58600 40.69000
C  6.86400 57.42600 42.53800
C  3.10600 54.55400 43.83400
N  7.39000 52.33100 41.70800
C  6.86100 51.11000 41.54400
C  7.83200 50.19700 40.78500
C  9.16500 51.03800 40.72700
C  8.67000 52.41700 41.14900
C  10.39900 50.49800 41.57500
C  7.32400 49.64900 39.41100
C  6.52900 50.69900 38.50300
H  6.59200 50.54700 36.93400
N  8.01700 55.30000 41.93500
C  9.07000 54.91100 41.15300
C  9.89300 56.09500 40.97300
C  9.30200 57.19200 41.54600
C  7.99300 56.72000 42.08300
C  11.26000 56.03000 40.27200
C  9.92700 58.62300 41.59800
O  11.06200 58.84600 41.19600
C  9.26400 59.79700 42.40900
N  5.16100 55.68800 43.06800
C  5.55800 56.99800 42.96100
C  4.53000 58.01400 43.44000
C  3.25200 57.12600 43.47500
C  3.82500 55.71900 43.48400
C  5.03400 58.75200 44.82700
C  2.16400 57.32500 42.31700
C  0.99500 58.19700 42.64000
N  4.73000 52.92600 43.05300
C  3.53600 53.19400 43.69000
C  2.85200 51.96100 44.01200
C  3.57600 50.98500 43.32400
C  4.74800 51.60900 42.82000
C  1.60000 51.84400 44.80600
C  3.56900 49.52900 43.20600
O  2.88400 48.61000 43.59400
C  5.04600 49.22700 42.42400
C  4.59000 48.63600 41.10600
O  3.79000 49.16100 40.32800
O  5.27300 47.44900 40.82000
C  4.64500 46.61500 39.78900
H  10.19200 53.52200 40.04500
H  7.04400 58.50200 42.51100
H  2.05600 54.45800 44.12100
H  8.01200 49.23300 41.26200
H  9.59700 51.07300 39.72600
H  10.71000 51.29300 42.25200
H  11.18700 50.30200 40.84800
H  10.26900 49.56100 42.11700
H  6.72900 48.77300 39.67000
H  8.19600 49.30800 38.85300
H  6.85700 51.73100 38.62800
H  5.53000 50.73900 38.93700
H  11.42700 56.98500 39.77400
H  11.27000 55.33700 39.43000
H  12.04600 55.77700 40.98400
H  8.58400 60.23300 41.67800
H  10.04900 60.52000 42.63000
H  8.70000 59.42000 43.26300
H  4.43600 58.77400 42.66500
H  2.75500 57.33000 44.42400
H  4.74800 59.79800 44.94100
H  6.12100 58.67400 44.81500
H  4.68300 58.16100 45.67200
H  1.87100 56.29900 42.09600
H  2.70200 57.54600 41.39500
H  1.20400 58.71500 43.57600
H  0.13600 57.52900 42.70000
H  0.82200 58.80800 41.75400
H  1.33100 52.74300 45.36100
H  1.68700 51.09300 45.59100
H  0.78000 51.61000 44.12700
H  5.74000 48.53300 42.89800
H  4.35200 45.76000 40.39800
H  5.37700 46.31000 39.04100
H  3.74500 47.07000 39.37600

