158

Mg 47.29100 24.59700 28.82600
C  48.24100 26.88600 31.22600
C  46.37300 22.50700 31.47000
C  47.05400 22.07100 26.67000
C  48.76400 26.57700 26.46700
N  47.26900 24.71500 31.09600
C  47.76700 25.74800 31.80500
C  47.45400 25.69900 33.25300
C  47.16900 24.15400 33.34300
C  46.83900 23.77400 31.91700
C  48.24300 23.33200 34.10100
C  46.25500 26.63300 33.62500
C  46.33700 27.38800 34.92000
H  46.96100 26.71800 36.27500
N  46.71100 22.66100 29.02700
C  46.28200 22.01200 30.17000
C  45.88700 20.68000 29.87100
C  45.95900 20.57900 28.44000
C  46.59200 21.76300 27.97700
C  45.39900 19.66600 30.84700
C  45.55000 19.38300 27.58000
O  45.62700 19.43200 26.38700
C  45.09200 18.15900 28.13300
N  47.69800 24.37800 26.79000
C  47.56600 23.24300 26.08400
C  47.90800 23.34800 24.61100
C  48.23000 24.88000 24.51900
C  48.32200 25.30000 26.02700
C  49.12400 22.49800 24.28500
C  47.22300 25.56400 23.56900
C  45.78500 25.81800 23.99300
N  48.26400 26.28700 28.75600
C  48.68100 27.12500 27.71300
C  49.21100 28.38400 28.17300
C  49.12400 28.32800 29.58300
C  48.52700 27.03200 29.89700
C  49.95300 29.31400 27.42100
C  49.44700 28.95300 30.83400
O  50.14900 29.88500 30.99600
C  48.78300 28.12000 31.97500
C  49.70400 28.00000 33.09500
O  50.62600 27.17300 33.21400
O  49.32600 28.94000 34.01100
C  49.97900 28.97300 35.32400
H  46.21300 21.82800 32.31100
H  46.83500 21.34200 25.88700
H  49.25100 27.19200 25.70700
H  48.33600 25.98200 33.82800
H  46.29000 24.03900 33.97800
H  48.98600 23.98600 34.55700
H  48.81300 22.82200 33.32400
H  47.82400 22.58500 34.77500
H  45.39700 25.99300 33.83100
H  46.04600 27.25800 32.75700
H  45.27500 27.52700 35.12200
H  46.89000 28.31200 34.75300
H  45.60700 19.96900 31.87300
H  45.90000 18.69900 30.79400
H  44.31000 19.62100 30.83700
H  45.87500 17.82000 28.81100
H  44.98800 17.37900 27.37900
H  44.13100 18.23200 28.64100
H  47.05000 23.09800 23.98700
H  49.24900 24.92600 24.13400
H  48.97300 21.58700 24.86500
H  50.11200 22.87900 24.54300
H  49.06800 22.49100 23.19700
H  47.21000 24.98800 22.64400
H  47.67100 26.48200 23.18900
H  45.76900 26.89900 23.85300
H  45.58700 25.51400 25.02000
H  44.95600 25.47300 23.37500
H  50.69800 28.76500 26.84500
H  50.47200 29.99100 28.09900
H  49.30300 29.89800 26.77000
H  47.86900 28.61700 32.30200
H  49.36700 28.48600 36.08400
H  50.18500 29.96400 35.72800
H  50.93000 28.44500 35.26300
Mg 0.21500 43.63100 26.08700
C  2.45500 43.42900 28.87200
C  -2.33300 43.21900 28.24200
C  -1.79800 43.06400 23.48900
C  3.04300 43.61900 24.03900
N  0.08900 43.33200 28.30900
C  1.07200 43.45100 29.23200
C  0.50800 43.52900 30.64600
C  -1.01200 43.31200 30.43100
C  -1.14200 43.40800 28.87500
C  -1.65700 41.84100 30.81700
C  0.86100 44.88100 31.24800
C  0.89200 44.84700 32.80200
H  0.49500 43.63100 33.55000
N  -1.85800 43.35300 25.88800
C  -2.72800 43.13900 26.92200
C  -3.99000 43.02200 26.41800
C  -3.92200 42.92300 24.97500
C  -2.50700 43.13600 24.68000
C  -5.29600 43.23400 27.38000
C  -4.90600 42.67100 23.99600
O  -4.76000 42.80700 22.80800
C  -6.27900 42.23200 24.44600
N  0.63000 43.47500 24.09400
C  -0.43000 43.26400 23.21000
C  0.15100 43.22600 21.77200
C  1.69600 43.53900 21.91000
C  1.80800 43.58200 23.44000
C  -0.23500 41.95300 20.99400
C  2.07500 44.84500 21.18100
C  1.41500 46.17800 21.67200
N  2.40200 43.49800 26.31300
C  3.39800 43.62900 25.40300
C  4.69600 43.56700 26.05100
C  4.40000 43.42800 27.44000
C  2.98200 43.53200 27.52500
C  6.01100 43.58800 25.31100
C  4.91000 43.34400 28.78200
O  6.08300 43.35000 29.11700
C  3.67800 43.40900 29.78600
C  3.71500 42.31600 30.75700
O  3.63400 41.10000 30.51100
O  3.93500 42.92800 31.95300
C  4.15800 42.01600 33.10100
H  -3.09200 42.93500 28.97400
H  -2.43800 42.88000 22.62300
H  3.86600 43.61000 23.32200
H  0.84700 42.70600 31.27600
H  -1.61300 44.12400 30.84000
H  -2.27300 41.34900 30.06500
H  -2.39000 41.95000 31.61700
H  -0.82600 41.17600 31.05100
H  0.09800 45.61100 30.97600
H  1.81500 45.14300 30.79100
H  0.21400 45.66400 33.04800
H  1.94500 45.09100 32.94600
H  -6.15800 42.61800 27.12100
H  -5.62000 44.27400 27.35700
H  -5.13900 42.94000 28.41800
H  -6.18500 41.54700 25.28800
H  -6.91000 41.86200 23.63800
H  -6.65600 43.12900 24.93500
H  -0.39900 44.01100 21.25100
H  2.28400 42.68200 21.58400
H  -0.63800 41.19100 21.66000
H  0.66100 41.42700 20.66300
H  -0.96900 42.16700 20.21700
H  1.76900 44.66000 20.15200
H  3.16300 44.84100 21.25300
H  0.54000 46.20600 22.32100
H  1.07700 46.75300 20.81000
H  2.10900 46.84400 22.18400
H  6.39500 44.60600 25.24600
H  5.88400 43.27500 24.27400
H  6.73800 42.91400 25.76400
H  3.77100 44.38800 30.25700
H  3.80600 42.59500 33.95500
H  5.23000 41.85200 33.21200
H  3.66400 41.05700 33.26100

