158

Mg 36.49300 49.19000 24.45400
C  36.42300 47.22000 27.56200
C  34.95800 51.71800 26.30600
C  36.17700 50.82600 21.68900
C  37.37200 46.26600 22.85300
N  35.83200 49.41600 26.73600
C  36.10500 48.57000 27.79900
C  35.59400 49.18300 29.10400
C  34.81300 50.47200 28.59200
C  35.22900 50.59300 27.14800
C  33.27100 50.68900 28.90100
C  36.72900 49.46300 30.20100
C  36.50000 48.85700 31.56900
H  35.01600 48.90200 32.24700
N  35.89800 51.12800 24.07500
C  35.28800 52.00900 25.00200
C  34.97800 53.22300 24.20400
C  35.42500 53.09500 22.83400
C  35.84600 51.68100 22.81500
C  34.34100 54.50400 24.83300
C  35.48900 54.00000 21.71700
O  35.88000 53.66900 20.61900
C  35.05500 55.45000 21.88900
N  36.87000 48.61200 22.55700
C  36.65500 49.51700 21.57900
C  36.88600 48.85100 20.21500
C  37.30100 47.45400 20.58600
C  37.04600 47.41200 22.06200
C  35.82800 48.88600 19.05200
C  38.82600 47.07300 20.22400
C  39.97200 47.61000 21.03000
N  36.85600 47.20200 25.02600
C  37.30200 46.10800 24.23300
C  37.53400 44.92900 24.99700
C  37.20200 45.40000 26.29800
C  36.75700 46.70900 26.26100
C  38.03000 43.62500 24.46600
C  37.17800 44.94600 27.70500
O  37.45400 43.89200 28.21800
C  36.68900 46.09900 28.47600
C  35.50300 45.62300 29.24900
O  34.34800 45.54500 28.84300
O  35.90200 45.17000 30.50000
C  34.87500 44.58400 31.36900
H  34.47400 52.59400 26.74200
H  35.97600 51.30700 20.72900
H  37.68500 45.38500 22.29000
H  34.96100 48.35100 29.41200
H  35.18900 51.26400 29.23900
H  32.72500 50.88600 27.97800
H  33.09400 51.42500 29.68500
H  32.89500 49.84100 29.47300
H  36.97300 50.52300 30.26500
H  37.66100 49.03500 29.83300
H  37.20400 49.42600 32.17500
H  36.87800 47.83500 31.59400
H  35.00000 55.36400 24.70500
H  34.15400 54.53600 25.90600
H  33.40800 54.70600 24.30700
H  33.97200 55.43000 22.00400
H  35.36400 55.98400 20.99000
H  35.63000 55.84200 22.72800
H  37.76600 49.34400 19.80000
H  36.56000 46.76000 20.18900
H  35.62100 49.94600 18.90100
H  34.94500 48.43900 19.50800
H  36.22700 48.40800 18.15700
H  39.07300 47.22000 19.17200
H  38.92900 45.98800 20.24600
H  39.68400 48.61100 21.35000
H  40.93700 47.71800 20.53600
H  40.29500 46.95900 21.84200
H  38.78800 43.84600 23.71400
H  37.20400 42.98400 24.15600
H  38.50500 43.05600 25.26500
H  37.48900 46.54900 29.06500
H  35.27600 44.13100 32.27600
H  34.24900 43.86400 30.84200
H  34.15300 45.33200 31.69600
Mg 6.61500 53.10800 40.88500
C  6.54700 49.59900 40.52100
C  9.89500 53.02300 40.28600
C  6.50700 56.46400 40.71500
C  2.97500 53.00300 41.00000
N  7.99500 51.48000 40.32000
C  7.82700 50.10000 40.27800
C  9.09500 49.36900 39.82900
C  10.19800 50.51000 40.01700
C  9.29700 51.77500 40.25200
C  11.20700 50.27600 41.18400
C  9.21000 48.80900 38.34900
C  8.89100 49.74900 37.19800
H  7.52100 49.52600 36.45300
N  8.13500 54.65700 40.63700
C  9.41100 54.39500 40.34000
C  10.12900 55.55600 40.10100
C  9.08900 56.66500 40.25500
C  7.83600 55.98000 40.59500
C  11.60000 55.56300 39.93000
C  9.35900 58.17400 40.11400
O  10.52600 58.46400 39.91900
C  8.31200 59.16800 40.25100
N  4.95100 54.49800 40.82600
C  5.25400 55.88000 40.82100
C  4.01900 56.67300 41.04800
C  2.94100 55.59900 40.98800
C  3.64700 54.29200 40.92100
C  4.10100 57.47800 42.40500
C  1.94900 55.67400 39.73900
C  1.46800 57.07300 39.28000
N  4.96500 51.63100 40.77400
C  3.60300 51.70800 40.95300
C  3.21000 50.40200 41.10000
C  4.28500 49.56800 40.97500
C  5.35300 50.29600 40.75100
C  1.71000 50.05700 41.45900
C  4.69700 48.20400 41.06800
O  4.05300 47.23500 41.29000
C  6.17500 48.18400 40.66200
C  6.14400 47.36000 39.43400
O  6.10300 47.79600 38.27600
O  6.05300 46.02600 39.80400
C  5.89100 45.14600 38.56900
H  10.98400 52.97500 40.22600
H  6.31000 57.53200 40.60200
H  1.88800 53.00900 41.10100
H  9.16900 48.52600 40.51700
H  10.78900 50.72900 39.12800
H  12.17300 50.38600 40.69200
H  11.07200 49.28900 41.62500
H  11.10100 51.14100 41.83900
H  8.68500 47.85800 38.26100
H  10.28400 48.70000 38.19400
H  9.60900 49.82400 36.38100
H  8.71200 50.78500 37.48800
H  12.08700 56.32500 40.53800
H  11.69700 55.91600 38.90300
H  12.13000 54.61500 39.83800
H  8.78800 60.12900 40.05800
H  7.74500 59.06900 41.17700
H  7.59400 59.12400 39.43200
H  3.82000 57.42500 40.28500
H  2.35900 55.58400 41.91000
H  3.45500 57.02900 43.16000
H  3.79300 58.50600 42.21500
H  5.12900 57.52600 42.76500
H  1.03800 55.09700 39.89800
H  2.60800 55.35100 38.93300
H  1.92400 57.25400 38.30700
H  1.55900 57.98700 39.86800
H  0.38000 57.01100 39.25400
H  1.23400 50.95700 41.84900
H  1.66200 49.21300 42.14700
H  1.21700 49.80400 40.52000
H  6.72800 47.69400 41.46300
H  6.53300 45.47900 37.75400
H  4.83100 45.12700 38.31600
H  6.28000 44.17500 38.87500

