158

Mg 7.94900 3.57900 27.27500
C  9.37500 2.04300 30.17100
C  5.67000 5.16000 29.29700
C  6.75600 4.82300 24.55500
C  9.94800 1.40500 25.37200
N  7.50800 3.56000 29.53700
C  8.25400 2.95400 30.49200
C  7.72100 3.21400 31.90800
C  6.51500 4.16700 31.56300
C  6.61500 4.40300 30.08500
C  5.10000 3.68400 32.01500
C  8.78300 3.88500 32.83700
C  8.25100 4.44500 34.17600
H  9.22200 4.36100 35.38300
N  6.47400 4.88200 27.04400
C  5.59600 5.37800 27.96000
C  4.66000 6.22500 27.25500
C  4.95900 6.09200 25.86200
C  6.12600 5.26100 25.74200
C  3.52200 6.98100 27.94900
C  4.43600 6.74700 24.74100
O  4.48500 6.39400 23.56100
C  3.73800 8.13700 24.90900
N  8.32300 3.22400 25.26900
C  7.66300 3.87900 24.30200
C  7.95600 3.37100 22.82600
C  9.14500 2.34000 23.16900
C  9.10200 2.25000 24.69800
C  6.75900 2.93600 21.96000
C  10.53000 2.62000 22.54400
C  11.56200 3.44200 23.44100
N  9.45500 2.12700 27.64000
C  10.15600 1.32700 26.73500
C  10.99500 0.34000 27.43800
C  10.68400 0.68800 28.77000
C  9.75900 1.73100 28.82500
C  11.72500 -0.79200 26.90400
C  11.05400 0.29600 30.09600
O  11.78800 -0.58300 30.46700
C  10.23000 1.22000 31.04100
C  9.44100 0.33400 31.93300
O  8.73500 -0.66800 31.59800
O  9.66400 0.68400 33.16600
C  8.58400 0.25800 34.07100
H  4.93000 5.72300 29.86900
H  6.38600 5.10500 23.56700
H  10.60900 0.76100 24.78800
H  7.55300 2.32200 32.51100
H  6.60400 5.17400 31.97000
H  4.55300 4.45700 32.55400
H  5.19200 2.76800 32.59900
H  4.45000 3.58200 31.14500
H  9.24800 4.65100 32.21600
H  9.52600 3.19700 33.24100
H  7.39200 3.79300 34.33400
H  7.93900 5.48000 34.03800
H  3.98500 7.81200 28.48000
H  3.17200 6.26500 28.69200
H  2.67800 7.29400 27.33400
H  2.75000 7.93200 25.32000
H  3.72900 8.61500 23.92900
H  4.38300 8.65200 25.62000
H  8.22700 4.28600 22.30000
H  8.80700 1.44200 22.65200
H  6.00500 2.34000 22.47400
H  7.12000 2.41900 21.07200
H  6.26100 3.83000 21.58300
H  10.40000 3.09300 21.57100
H  10.97300 1.68400 22.20400
H  11.13700 4.01600 24.26500
H  11.87000 4.33600 22.89900
H  12.41200 2.83300 23.74900
H  11.88000 -0.76900 25.82500
H  11.34300 -1.76300 27.22000
H  12.74500 -0.67700 27.27100
H  11.00000 1.77900 31.57300
H  8.77900 -0.68700 34.57700
H  7.56500 0.21000 33.68600
H  8.56000 0.89100 34.95800
Mg 36.22600 49.59400 24.76400
C  36.33200 47.98700 27.95500
C  34.91000 52.37100 26.38700
C  35.97500 50.97000 21.83700
C  37.17900 46.54300 23.33200
N  35.55100 50.08600 26.88400
C  35.86800 49.30200 28.03200
C  35.57000 50.11200 29.28500
C  34.87900 51.42800 28.66500
C  35.00800 51.22800 27.19500
C  33.35000 51.61900 29.16000
C  36.83500 50.18800 30.26000
C  36.64300 49.64500 31.66200
H  36.66300 50.68200 32.78500
N  35.74100 51.47300 24.21200
C  35.20300 52.47200 24.96700
C  35.02500 53.64000 24.16200
C  35.37700 53.26900 22.80900
C  35.78700 51.85200 22.86500
C  34.35000 54.91000 24.67000
C  35.30400 54.06900 21.51600
O  35.57600 53.67800 20.40300
C  34.87500 55.49500 21.45900
N  36.40600 48.78300 22.87300
C  36.20400 49.53200 21.79900
C  36.58600 48.87500 20.51500
C  37.27500 47.53200 21.00200
C  36.92600 47.58700 22.50400
C  35.33300 48.71200 19.59100
C  38.75100 47.43600 20.72500
C  39.15900 46.19500 19.77000
N  36.50700 47.61200 25.41100
C  37.03000 46.55300 24.73200
C  37.18600 45.45300 25.67000
C  36.96100 45.96600 26.89600
C  36.52400 47.28500 26.72600
C  37.61600 44.08900 25.27400
C  36.99700 45.62400 28.30700
O  37.39500 44.62500 28.86400
C  36.52900 46.89000 29.06300
C  35.21700 46.54800 29.71600
O  34.16400 46.44100 29.15400
O  35.41200 46.31200 31.03100
C  34.23000 45.81800 31.70800
H  34.53000 53.23900 26.93100
H  35.99900 51.43000 20.84700
H  37.52700 45.62000 22.86500
H  34.77100 49.54000 29.75600
H  35.47900 52.30000 28.92900
H  33.00600 50.87600 29.88000
H  32.59200 51.57700 28.37800
H  33.27800 52.62700 29.56900
H  37.16800 51.21900 30.37800
H  37.66300 49.59700 29.86700
H  37.49600 48.98800 31.82700
H  35.72800 49.05400 31.71000
H  34.68100 55.73900 24.04400
H  34.56500 55.14500 25.71300
H  33.27300 54.82800 24.52600
H  35.02800 55.94600 20.47900
H  35.46900 56.11000 22.13500
H  33.79900 55.53200 21.62700
H  37.23300 49.59900 20.01900
H  36.66600 46.69800 20.65400
H  34.37600 48.53700 20.08200
H  35.46800 47.77800 19.04600
H  35.19000 49.50200 18.85300
H  39.13500 47.26800 21.73100
H  39.12200 48.37300 20.30900
H  39.87300 46.61400 19.06100
H  38.20200 45.82000 19.40600
H  39.68600 45.40300 20.30100
H  37.00900 43.86900 24.39500
H  37.45400 43.42200 26.12100
H  38.68000 44.07100 25.04000
H  37.27400 47.16900 29.80800
H  34.46200 45.94700 32.76500
H  34.03800 44.76700 31.48900
H  33.33100 46.37900 31.45400

