158

Mg 8.96600 4.53100 27.46300
C  10.26200 2.89600 30.39500
C  7.05700 6.36800 29.66700
C  7.48000 6.02700 24.85700
C  10.41200 2.15000 25.57900
N  8.55400 4.45800 29.77400
C  9.30400 3.85000 30.80500
C  8.98500 4.35600 32.24500
C  8.00100 5.48700 31.92900
C  7.84000 5.45300 30.34600
C  6.60000 5.42400 32.73800
C  10.19700 4.84100 33.08000
C  9.82400 5.44200 34.45600
H  10.87500 5.13500 35.60000
N  7.52400 5.94900 27.28800
C  6.88100 6.60200 28.32300
C  5.97600 7.62400 27.76300
C  6.21200 7.59500 26.37100
C  7.03400 6.41900 26.11400
C  5.07900 8.53900 28.68300
C  5.66200 8.48000 25.26700
O  5.88400 8.30400 24.05200
C  4.81700 9.73200 25.66000
N  8.95500 4.10300 25.52900
C  8.42100 4.96800 24.57300
C  8.87200 4.61900 23.15000
C  9.68100 3.31200 23.41400
C  9.79100 3.23200 24.90900
C  7.69600 4.40800 22.13700
C  11.07700 3.25300 22.72100
C  12.17800 4.00600 23.51300
N  10.14300 2.89400 27.84900
C  10.65100 2.01200 26.90900
C  11.48000 1.07500 27.58000
C  11.27600 1.35700 28.95600
C  10.50400 2.47500 29.06000
C  12.30600 -0.07200 27.05000
C  11.62800 0.94900 30.28700
O  12.45700 0.15500 30.59000
C  11.00500 1.99300 31.26300
C  10.27200 1.12500 32.28000
O  9.19800 0.64400 32.06300
O  10.97400 1.17400 33.52400
C  10.26000 0.68700 34.72600
H  6.60800 7.12700 30.31200
H  7.11200 6.40900 23.90300
H  11.00100 1.47400 24.95400
H  8.57300 3.47900 32.74500
H  8.43500 6.41000 32.31400
H  6.45100 6.37300 33.25500
H  6.69900 4.70200 33.54800
H  5.86000 5.27700 31.95200
H  10.96400 5.42300 32.56900
H  10.62700 3.92200 33.47800
H  8.84800 5.06600 34.76400
H  9.68300 6.51700 34.34200
H  5.55200 9.46400 29.01200
H  4.93300 7.91800 29.56800
H  4.13400 8.76400 28.19100
H  5.10800 10.23000 26.58600
H  3.80900 9.31800 25.64700
H  4.81700 10.51400 24.90000
H  9.50800 5.45100 22.84500
H  9.18800 2.42500 23.01700
H  7.73000 5.10300 21.29700
H  6.75200 4.31400 22.67300
H  7.71700 3.40400 21.71200
H  11.04700 3.81900 21.79000
H  11.35200 2.20100 22.63500
H  11.66300 4.61700 24.25500
H  12.63600 4.67600 22.78600
H  12.97100 3.32900 23.82900
H  13.14700 -0.14000 27.74100
H  12.54300 0.24000 26.03300
H  11.65300 -0.94500 27.04500
H  11.85400 2.47500 31.74700
H  10.94100 0.44100 35.54000
H  9.66200 -0.20200 34.52300
H  9.58000 1.45700 35.09000
Mg 40.77800 9.26300 30.30300
C  42.63800 10.23100 33.10400
C  38.16600 8.54400 32.53300
C  39.03600 8.04000 27.64000
C  43.53200 9.79300 28.29500
N  40.53500 9.33900 32.59800
C  41.32700 9.93900 33.55800
C  40.63900 10.09600 34.89000
C  39.32000 9.35000 34.66300
C  39.35600 9.06700 33.17900
C  39.18400 7.94500 35.28800
C  40.42700 11.63200 35.18500
C  39.94400 11.94200 36.63200
H  40.93100 12.71500 37.55600
N  38.88400 8.46600 30.06700
C  38.01700 8.17300 31.11300
C  36.85100 7.52000 30.54500
C  37.06200 7.44400 29.13400
C  38.40900 7.98000 28.86800
C  35.56600 7.14400 31.39600
C  36.13100 6.91200 28.03400
O  36.42300 6.82300 26.86500
C  34.68700 6.44600 28.33800
N  41.28000 8.75900 28.28500
C  40.35100 8.48800 27.39400
C  40.86200 8.77000 25.94600
C  42.31800 9.23300 26.15300
C  42.33200 9.27900 27.69400
C  40.68000 7.62400 24.87800
C  42.78300 10.65900 25.52900
C  42.14200 11.16600 24.25600
N  42.73200 9.83000 30.56200
C  43.77100 10.08000 29.64700
C  44.99200 10.44700 30.34600
C  44.55700 10.58000 31.65900
C  43.17900 10.22600 31.78900
C  46.35600 10.56700 29.84800
C  44.99200 10.91300 33.01700
O  46.06300 11.33800 33.37000
C  43.81100 10.80500 33.95700
C  44.09500 9.93300 35.15400
O  44.80200 8.93200 35.19000
O  43.73600 10.60300 36.32700
C  44.07400 9.97200 37.60200
H  37.30900 8.57600 33.20900
H  38.41900 7.87900 26.75300
H  44.36300 9.91200 27.59600
H  41.33300 9.48200 35.46400
H  38.46400 9.97100 34.92800
H  39.89300 7.72100 36.08500
H  39.25600 7.13600 34.56100
H  38.21400 7.92400 35.78300
H  39.79300 12.07400 34.41600
H  41.39700 12.11100 35.04700
H  39.64100 11.03500 37.15600
H  39.01900 12.46200 36.38200
H  35.71000 7.26400 32.46900
H  35.31700 6.10000 31.20400
H  34.65500 7.65200 31.08200
H  34.17000 7.38900 28.51000
H  34.63000 5.96700 29.31500
H  34.24100 5.83500 27.55300
H  40.30600 9.66200 25.65900
H  42.94300 8.36600 25.94400
H  40.07500 8.13400 24.12900
H  40.13300 6.72700 25.16700
H  41.64500 7.28900 24.49900
H  43.86900 10.69000 25.45000
H  42.45700 11.45200 26.20300
H  41.50500 10.40000 23.81300
H  42.93400 11.48700 23.57900
H  41.52900 12.03800 24.48300
H  46.85300 9.59700 29.82100
H  46.91900 11.34500 30.36300
H  46.27200 10.94500 28.82900
H  43.62800 11.82700 34.28900
H  43.80100 10.51100 38.51000
H  45.13700 9.73400 37.62100
H  43.47900 9.06000 37.65000

