158

Mg 48.38500 34.74100 26.71000
C  46.21800 33.54500 29.23300
C  48.79000 37.74900 28.61400
C  49.74500 36.32200 24.08300
C  47.36800 31.99800 24.80200
N  47.65800 35.47800 28.65400
C  46.93600 34.69400 29.55100
C  47.03200 35.34300 30.97500
C  47.45300 36.82600 30.68100
C  47.99300 36.72700 29.22400
C  46.37200 37.89000 30.94700
C  47.99800 34.61500 31.90100
C  47.92300 34.89100 33.35400
H  46.82400 35.83500 33.87600
N  49.26300 36.73700 26.38200
C  49.31800 37.82000 27.33300
C  50.15200 38.81900 26.74800
C  50.36500 38.42100 25.42400
C  49.79100 37.12000 25.25100
C  50.49000 40.07300 27.57900
C  51.06000 39.14000 24.28400
O  51.16100 38.64400 23.12900
C  51.67100 40.54100 24.46500
N  48.60100 34.14300 24.78000
C  49.23900 35.02800 23.92900
C  49.35100 34.27500 22.50500
C  48.78300 32.80000 22.77100
C  48.23300 32.97200 24.15900
C  48.69900 34.97500 21.29100
C  49.72800 31.57000 22.75500
C  50.19600 31.20100 21.39200
N  47.05300 33.06700 26.86400
C  46.76400 32.01400 26.05500
C  45.86100 31.09100 26.67600
C  45.56200 31.68000 27.89200
C  46.30300 32.90900 27.97400
C  45.47800 29.77800 26.06600
C  44.82600 31.43600 29.13300
O  44.14100 30.51100 29.52200
C  45.20100 32.69700 30.09800
C  45.61200 32.26900 31.46800
O  46.55500 31.57900 31.73200
O  44.71900 32.72000 32.40300
C  44.71900 31.99100 33.68400
H  48.95700 38.67000 29.17600
H  49.99200 36.78900 23.12700
H  47.11300 31.11500 24.21100
H  46.01300 35.33200 31.36000
H  48.31200 37.19100 31.24300
H  46.50700 38.65800 31.70800
H  45.46300 37.30200 31.08000
H  46.26500 38.43400 30.00800
H  48.94800 34.96200 31.49500
H  47.93500 33.53700 31.75400
H  48.89700 35.28600 33.64200
H  47.70900 33.95300 33.86500
H  51.54900 40.27800 27.73700
H  50.08700 40.06100 28.59100
H  49.91300 40.88700 27.13900
H  50.80000 41.05800 24.86800
H  51.95000 41.06100 23.54900
H  52.47400 40.62500 25.19600
H  50.42500 34.28600 22.32200
H  47.91100 32.61600 22.14400
H  48.03900 35.75900 21.66300
H  48.12400 34.24400 20.72200
H  49.41700 35.60600 20.76700
H  49.19900 30.75500 23.24800
H  50.56100 31.86600 23.39200
H  51.28000 31.12800 21.47600
H  49.79700 31.76200 20.54700
H  50.03800 30.13300 21.24500
H  44.74100 29.72500 25.26400
H  45.24000 29.12000 26.90200
H  46.37800 29.45700 25.54200
H  44.22300 33.15800 30.23500
H  45.75600 31.80800 33.96600
H  44.07200 31.11400 33.69800
H  44.17900 32.58500 34.42100
Mg -10.38500 41.05100 40.57500
C  -9.18700 37.76700 39.75400
C  -7.24200 42.19100 39.33200
C  -11.71600 43.95800 39.98500
C  -13.44900 39.60800 41.18200
N  -8.40700 40.03300 39.73200
C  -8.17800 38.72900 39.48800
C  -6.80400 38.45100 38.92900
C  -6.14200 39.86800 39.07900
C  -7.32400 40.76200 39.47400
C  -5.01700 39.96000 40.08600
C  -6.90100 37.95500 37.46300
C  -5.49600 37.61300 36.91600
H  -5.46200 36.63600 35.73800
N  -9.57000 42.88100 39.91700
C  -8.29600 43.14200 39.50500
C  -8.16600 44.54100 39.44800
C  -9.40300 45.07800 39.57300
C  -10.31700 43.97800 39.70500
C  -6.79100 45.13800 39.11100
C  -9.61300 46.58900 39.63900
O  -8.65100 47.32100 39.49500
C  -10.89300 47.29500 39.88200
N  -12.28600 41.71200 40.62800
C  -12.62400 42.98500 40.43000
C  -14.08500 43.28300 40.73300
C  -14.59500 41.88300 41.15900
C  -13.39100 41.01200 40.97600
C  -14.35700 44.54300 41.58800
C  -15.84400 41.50500 40.37400
C  -16.85400 40.72700 41.13000
N  -11.12500 39.03500 40.63700
C  -12.41100 38.63900 40.94000
C  -12.42800 37.23100 40.95400
C  -11.18600 36.76200 40.47900
C  -10.45400 37.95600 40.21700
C  -13.55200 36.28600 41.21400
C  -10.35700 35.63800 40.16300
O  -10.55100 34.44400 40.25400
C  -9.02700 36.28200 39.55600
C  -7.94300 35.82400 40.36900
O  -7.92900 35.92300 41.56700
O  -7.14000 34.96900 39.61800
C  -6.26500 34.08900 40.41800
H  -6.24000 42.54900 39.08400
H  -12.18400 44.93800 39.87200
H  -14.39300 39.08800 41.36200
H  -6.21700 37.65100 39.37900
H  -5.74800 40.21500 38.12400
H  -4.02800 40.04600 39.63500
H  -5.00300 39.10800 40.76600
H  -5.12200 40.77000 40.80800
H  -7.28000 38.69000 36.75200
H  -7.64800 37.18800 37.25600
H  -4.93800 37.24600 37.77700
H  -5.10100 38.61000 36.72100
H  -6.88800 46.07500 38.56200
H  -6.16400 44.52900 38.46000
H  -6.29000 45.33800 40.05800
H  -10.51700 48.29300 40.10500
H  -11.25900 46.80000 40.78200
H  -11.56500 47.19100 39.03000
H  -14.49100 43.46100 39.73700
H  -14.77400 41.93400 42.23300
H  -15.23000 44.36100 42.21400
H  -14.61000 45.34300 40.89300
H  -13.45500 44.84000 42.12500
H  -15.51300 40.97000 39.48400
H  -16.32800 42.40600 39.99600
H  -16.80600 39.71400 40.73100
H  -17.85200 41.16400 41.09000
H  -16.59500 40.72000 42.18800
H  -13.80000 35.58400 40.41900
H  -14.49200 36.74200 41.52800
H  -13.28900 35.68700 42.08600
H  -8.88600 36.07400 38.49600
H  -5.67100 33.48600 39.73100
H  -6.96900 33.46300 40.96600
H  -5.64600 34.70700 41.06800

