158

Mg 49.87600 45.99100 41.85700
C  46.66800 47.22200 41.12300
C  49.11800 43.05600 40.45700
C  53.05000 45.15900 42.44500
C  50.64800 49.35600 42.75300
N  48.08500 45.26200 40.91200
C  46.88800 45.85800 40.71000
C  45.91700 45.09400 39.82400
C  46.61700 43.69700 39.83500
C  48.03500 43.98500 40.46100
C  45.98100 42.51000 40.61900
C  45.78200 45.58100 38.30800
C  44.46200 45.25800 37.66700
H  44.53700 44.76800 36.21600
N  50.93700 44.24300 41.57900
C  50.42100 43.13400 40.98200
C  51.50100 42.12600 40.86900
C  52.68000 42.75900 41.44200
C  52.25800 44.08400 41.91600
C  51.43200 40.74900 40.22300
C  54.06700 42.15500 41.42900
O  54.29900 41.07400 40.90600
C  55.29800 42.82700 42.01000
N  51.59700 47.05900 42.45300
C  52.76300 46.47500 42.63400
C  53.91100 47.58000 42.70800
C  53.13100 48.90100 42.78800
C  51.70500 48.41400 42.64100
C  54.90100 47.39100 43.95800
C  53.51200 50.11500 41.90700
C  54.53600 51.11400 42.53700
N  48.84800 47.83300 42.15100
C  49.32000 49.05400 42.46900
C  48.28200 49.99100 42.51600
C  47.16600 49.32400 42.01600
C  47.59300 47.96100 41.77400
C  48.43200 51.46900 42.84100
C  45.73600 49.50500 41.62600
O  45.04300 50.51800 41.68600
C  45.41300 48.06900 40.92300
C  44.13700 47.52200 41.54200
O  43.88700 47.35800 42.70500
O  43.31600 47.17600 40.51000
C  41.98800 46.60700 40.73200
H  48.96900 42.14400 39.87600
H  54.09800 44.85500 42.40900
H  50.97100 50.39400 42.85800
H  44.98900 44.88200 40.35500
H  46.74100 43.28800 38.83200
H  45.87600 41.67800 39.92300
H  45.07700 42.92600 41.06300
H  46.54000 42.10200 41.46100
H  46.70500 45.33600 37.78100
H  45.79900 46.67000 38.33900
H  43.73100 46.06600 37.68400
H  44.07800 44.43300 38.26600
H  50.38800 40.52300 40.00500
H  51.61100 39.95500 40.94800
H  52.19700 40.61000 39.46000
H  55.17200 43.17800 43.03500
H  55.77300 43.61700 41.42900
H  56.02800 42.02300 42.10000
H  54.49400 47.67700 41.79200
H  53.18200 49.24500 43.82100
H  54.96600 48.21700 44.66600
H  55.84900 47.11100 43.49800
H  54.36700 46.59100 44.47100
H  52.60400 50.64300 41.61600
H  53.92000 49.61000 41.03200
H  55.40300 50.95500 41.89600
H  54.79300 50.91800 43.57800
H  54.30300 52.17700 42.47800
H  48.91200 51.96300 41.99600
H  48.98400 51.57400 43.77500
H  47.48400 52.00800 42.84200
H  45.19600 48.24200 39.86900
H  41.93300 45.62300 40.26500
H  41.35200 47.35900 40.26600
H  41.75400 46.42200 41.78000
Mg 35.83100 49.16900 25.98500
C  36.30200 47.27900 28.98600
C  34.54800 51.66300 27.88900
C  35.36700 50.83300 23.11100
C  36.63200 46.25200 24.10200
N  35.52400 49.36200 28.20300
C  35.80300 48.52700 29.26300
C  35.57100 49.14000 30.65400
C  34.86600 50.49500 30.24100
C  34.91700 50.51400 28.65200
C  33.39700 50.71700 30.85900
C  36.90200 49.40100 31.43100
C  36.72400 49.49300 32.95800
H  35.32900 49.30000 33.61800
N  35.01300 50.99100 25.51300
C  34.54000 51.90300 26.42300
C  34.18100 53.14300 25.76200
C  34.35000 52.86600 24.36100
C  34.92600 51.50900 24.28000
C  33.71100 54.35900 26.45300
C  34.24100 53.79500 23.21700
O  34.48500 53.48400 22.02200
C  33.73800 55.17700 23.43700
N  35.76900 48.53000 23.85300
C  35.72800 49.50700 22.87000
C  35.89500 48.86000 21.44200
C  36.54800 47.47300 21.74400
C  36.43100 47.39600 23.34300
C  34.49100 48.84000 20.69600
C  37.95500 47.31100 21.13600
C  39.20100 47.63000 22.05400
N  36.48700 47.23100 26.41200
C  36.68200 46.14600 25.57200
C  37.14600 45.01400 26.41400
C  36.96800 45.37400 27.74600
C  36.51500 46.73200 27.66900
C  37.89300 43.81200 25.87000
C  37.13300 44.91200 29.08600
O  37.61500 43.83600 29.46000
C  36.61400 46.14100 29.97000
C  35.51600 45.67400 30.82400
O  34.32500 45.77700 30.59200
O  36.10000 45.18300 32.00100
C  35.19800 44.61800 33.01200
H  34.21100 52.51500 28.48400
H  35.11400 51.39700 22.21100
H  37.19000 45.51900 23.51600
H  34.96800 48.51400 31.31300
H  35.39900 51.41800 30.46900
H  33.23900 50.00400 31.66900
H  32.59400 50.31100 30.24400
H  33.14100 51.75300 31.08100
H  37.26900 50.36700 31.08400
H  37.62500 48.60300 31.26200
H  37.31400 50.35900 33.25800
H  37.14600 48.64900 33.50400
H  33.51300 54.21800 27.51600
H  32.73700 54.71300 26.11500
H  34.41200 55.19200 26.41200
H  32.87700 55.27800 24.09800
H  33.48000 55.66900 22.49900
H  34.59200 55.69300 23.87400
H  36.56800 49.50300 20.87400
H  36.07000 46.62700 21.25000
H  34.15100 47.81500 20.54700
H  34.59900 49.28700 19.70800
H  33.75100 49.29500 21.35400
H  37.96600 47.86200 20.19500
H  38.03400 46.25100 20.89300
H  38.97800 48.13100 22.99500
H  40.04700 48.11500 21.56800
H  39.62000 46.64500 22.25800
H  38.69100 43.64500 26.59300
H  38.26300 43.95200 24.85400
H  37.26900 42.92300 25.77900
H  37.47600 46.38600 30.59000
H  35.69900 43.72900 33.39400
H  34.23400 44.41200 32.54700
H  35.17400 45.45500 33.70900

