158

Mg 16.43500 -2.11900 28.26200
C  15.45900 0.06000 30.73900
C  18.21900 -4.01100 30.59800
C  17.74000 -4.00000 25.73100
C  15.02400 0.01600 25.84900
N  16.86200 -2.00100 30.34300
C  16.29300 -1.01400 31.13100
C  16.82300 -1.13500 32.57900
C  17.84200 -2.32300 32.47200
C  17.62800 -2.82000 31.00600
C  19.32300 -1.97300 32.65000
C  15.67800 -1.42700 33.57100
C  15.88800 -0.76900 34.96300
H  17.31500 -0.20900 35.34000
N  17.72100 -3.83800 28.22900
C  18.27800 -4.54500 29.26700
C  18.97600 -5.76700 28.82200
C  18.86900 -5.64500 27.36600
C  18.10100 -4.44500 27.01400
C  19.45500 -6.82000 29.77600
C  19.40500 -6.66100 26.37200
O  19.31900 -6.52300 25.14900
C  20.27800 -7.78900 26.83500
N  16.44600 -1.93700 26.08500
C  17.03800 -2.83600 25.35500
C  16.71100 -2.58300 23.83500
C  15.82300 -1.31000 23.85300
C  15.71500 -1.05000 25.32200
C  18.11700 -2.40400 23.13200
C  14.42100 -1.58000 23.11800
C  14.60900 -2.00600 21.66900
N  15.23500 -0.38100 28.24800
C  14.74100 0.38700 27.21600
C  14.11500 1.54700 27.83200
C  14.30600 1.41200 29.15900
C  15.05500 0.25800 29.37600
C  13.55400 2.70700 27.09200
C  14.04600 1.99600 30.50600
O  13.27000 2.91400 30.88500
C  14.84100 1.15400 31.60100
C  15.82500 2.07100 32.40400
O  16.86500 2.58800 32.00200
O  15.25800 2.44100 33.55600
C  15.93900 3.50200 34.27900
H  18.83700 -4.60400 31.27500
H  18.04400 -4.51300 24.81700
H  14.50700 0.53100 25.03600
H  17.36800 -0.24700 32.89700
H  17.55400 -3.14900 33.12300
H  19.92600 -2.22200 31.77700
H  19.71000 -2.45000 33.55000
H  19.48400 -0.92900 32.91900
H  15.53600 -2.50600 33.62500
H  14.77400 -1.00200 33.13600
H  15.53600 -1.47700 35.71300
H  15.25200 0.08500 35.19700
H  19.97200 -7.68800 29.36500
H  18.60100 -7.08000 30.40100
H  20.06800 -6.35600 30.54900
H  20.75400 -8.31000 26.00400
H  19.61000 -8.50900 27.30700
H  21.12400 -7.48500 27.45200
H  16.28900 -3.48900 23.40000
H  16.35000 -0.56000 23.26400
H  18.23800 -3.19000 22.38700
H  18.89100 -2.31400 23.89500
H  18.14400 -1.41600 22.67200
H  13.87200 -0.63900 23.16300
H  13.82100 -2.31400 23.65700
H  13.88500 -1.44100 21.08100
H  14.58000 -3.08400 21.51000
H  15.64600 -1.73600 21.47000
H  13.90500 3.64000 27.53200
H  12.47400 2.83100 27.00500
H  14.04000 2.85700 26.12800
H  14.02700 0.77800 32.22100
H  16.02700 4.30300 33.54500
H  16.88700 3.21200 34.73400
H  15.24900 3.78200 35.07500
Mg 31.18500 58.79100 40.67100
C  28.32500 57.21900 39.37300
C  33.03700 56.29600 39.15000
C  33.94300 60.71400 41.01400
C  29.13500 61.52000 41.66700
N  30.70300 57.01300 39.28800
C  29.49400 56.47800 39.09100
C  29.62200 55.05300 38.60200
C  31.16500 54.73400 38.85300
C  31.68000 56.09100 39.12700
C  31.45100 53.75500 39.98000
C  29.28600 54.86400 37.06300
C  27.97400 54.22200 36.61600
H  27.18800 54.81700 35.38700
N  33.20900 58.46300 40.13000
C  33.78800 57.42700 39.57000
C  35.24500 57.59200 39.36000
C  35.54700 58.79100 40.03500
C  34.22200 59.35500 40.49600
C  36.09300 56.56300 38.74800
C  36.87700 59.37500 40.24200
O  37.89200 58.79400 39.86700
C  37.03900 60.74100 40.88000
N  31.49300 60.80300 41.25500
C  32.78200 61.32400 41.30200
C  32.70600 62.76000 41.86900
C  31.18300 63.11900 42.01000
C  30.53500 61.75200 41.68000
C  33.73700 63.03600 43.00800
C  30.71000 64.33800 41.17000
C  29.49800 65.15200 41.67100
N  29.18400 59.27500 40.60100
C  28.53600 60.38400 41.04400
C  27.10700 60.25900 40.85500
C  26.96800 59.02100 40.22400
C  28.24700 58.48700 40.04200
C  26.00700 61.18900 41.35700
C  25.97900 58.00700 39.73600
O  24.72100 58.00200 39.64000
C  26.84500 56.80300 39.18900
C  26.56400 55.63500 40.01800
O  27.14400 55.38600 41.08700
O  25.59500 54.84400 39.41300
C  25.26000 53.65100 40.15700
H  33.55500 55.39800 38.80700
H  34.79900 61.37600 41.16000
H  28.49200 62.32700 42.02600
H  28.95200 54.43400 39.19800
H  31.73600 54.38700 37.99100
H  30.59300 53.73000 40.65200
H  32.32600 53.99200 40.58600
H  31.54800 52.68900 39.77400
H  30.06500 54.32700 36.52300
H  29.20400 55.86900 36.64900
H  27.24900 54.15700 37.42700
H  28.29400 53.19500 36.44100
H  36.64600 57.08100 37.96400
H  35.47800 55.83500 38.21900
H  36.78700 56.12300 39.46400
H  36.55400 61.52300 40.29500
H  38.09100 61.01200 40.96000
H  36.73700 60.77400 41.92700
H  33.10400 63.43400 41.11000
H  31.05800 63.31100 43.07500
H  34.15800 62.15500 43.49300
H  33.34500 63.63000 43.83300
H  34.63500 63.59000 42.73400
H  30.32200 63.86000 40.27100
H  31.65400 64.82500 40.92500
H  29.79100 66.20100 41.72000
H  29.09100 64.66300 42.55600
H  28.71000 65.09600 40.91900
H  26.31800 62.17300 41.00700
H  26.04800 61.14900 42.44600
H  25.03200 60.97800 40.91900
H  26.57900 56.41200 38.20700
H  26.16200 53.08700 40.39500
H  24.61900 52.99200 39.57100
H  24.72300 53.77600 41.09700

