158

Mg 25.76300 0.53100 29.86600
C  27.65500 0.25300 32.83600
C  22.91400 0.89300 31.84200
C  23.74900 0.64400 27.15500
C  28.47700 -0.32200 27.96400
N  25.37400 0.58900 32.03600
C  26.27900 0.49800 33.08100
C  25.70500 0.76400 34.41100
C  24.18900 0.97400 34.13700
C  24.15700 0.78400 32.60000
C  23.13600 -0.10800 34.74400
C  26.38700 1.90400 35.19000
C  26.70900 1.57900 36.66200
H  26.24700 2.69700 37.60600
N  23.59400 0.73300 29.58200
C  22.60800 0.90400 30.49000
C  21.37400 1.21600 29.91800
C  21.62000 1.10700 28.52400
C  22.99500 0.88700 28.37000
C  20.14400 1.58600 30.69500
C  20.70900 1.04400 27.34800
O  21.01100 0.67900 26.18400
C  19.24400 1.33000 27.59200
N  26.12700 0.13000 27.85500
C  25.11700 0.28100 26.90200
C  25.67200 0.17400 25.44900
C  27.22000 0.08100 25.67200
C  27.31700 -0.03400 27.24000
C  25.00800 -0.99500 24.73700
C  28.08900 1.31000 25.14600
C  27.75200 2.72300 25.69600
N  27.68400 0.12100 30.25800
C  28.63900 -0.30700 29.37800
C  29.87700 -0.62800 30.21100
C  29.48300 -0.30300 31.49700
C  28.20500 0.02200 31.52000
C  31.16500 -1.04600 29.77800
C  29.99900 -0.32400 32.87100
O  31.07300 -0.70200 33.33600
C  28.87600 0.12200 33.82300
C  28.75500 -1.01900 34.74300
O  28.47700 -2.11300 34.39800
O  29.23800 -0.65100 35.95800
C  29.07000 -1.56900 37.09200
H  22.07400 1.16500 32.48500
H  23.30700 1.04600 26.24100
H  29.43400 -0.52000 27.47800
H  25.80800 -0.05800 35.11900
H  23.89500 1.99300 34.38600
H  22.28800 0.37000 35.23300
H  23.65800 -0.59500 35.56700
H  22.66400 -0.88400 34.14000
H  25.74000 2.77900 35.12100
H  27.25600 2.32100 34.68200
H  27.79300 1.59200 36.77500
H  26.35400 0.59600 36.96900
H  19.95900 2.64200 30.49600
H  20.18500 1.54700 31.78400
H  19.24600 1.04400 30.39900
H  19.21900 2.20600 28.24000
H  18.82600 0.49000 28.14700
H  18.65100 1.61600 26.72300
H  25.33700 1.14800 25.09200
H  27.65600 -0.82300 25.24700
H  24.58900 -1.67600 25.47800
H  25.81600 -1.48800 24.19600
H  24.27900 -0.75600 23.96300
H  27.95100 1.44900 24.07300
H  29.12800 0.98300 25.19100
H  28.52300 3.25500 26.25400
H  26.95500 2.71700 26.44000
H  27.47400 3.30100 24.81400
H  31.28500 -1.26900 28.71800
H  31.43300 -2.03600 30.14600
H  31.90900 -0.29600 30.04400
H  29.06800 1.01900 34.41200
H  28.21100 -1.27800 37.69500
H  30.00100 -1.61200 37.65700
H  28.84700 -2.59200 36.78600
Mg 41.97600 40.79500 26.45000
C  41.59400 43.37200 28.80600
C  42.88000 38.70600 28.97300
C  42.82000 38.32200 24.06200
C  41.64800 43.05900 23.86600
N  42.25200 41.06200 28.67700
C  41.93800 42.17300 29.40300
C  41.83500 41.86900 30.91100
C  42.35600 40.38700 30.82900
C  42.60700 39.99600 29.40400
C  43.51300 40.09200 31.83500
C  40.37900 42.19100 31.57200
C  39.93600 41.50900 32.90400
H  39.75900 42.45000 34.12600
N  42.72100 38.83000 26.55700
C  43.06800 38.17500 27.68300
C  43.55400 36.89200 27.40600
C  43.40300 36.73200 26.01300
C  42.95500 37.98400 25.45300
C  44.13500 35.92400 28.45200
C  43.74600 35.49300 25.17500
O  43.59100 35.49800 23.92600
C  43.96500 34.12300 25.77000
N  42.36800 40.77500 24.27400
C  42.54800 39.59300 23.58200
C  42.46100 39.85700 22.02600
C  42.08600 41.36100 22.00100
C  42.06800 41.83000 23.42300
C  43.62100 39.47300 21.05700
C  40.72900 41.71400 21.32000
C  39.38800 41.63800 22.06100
N  41.64800 42.77700 26.34000
C  41.53300 43.59800 25.22000
C  41.22600 44.97300 25.65100
C  41.27600 44.94200 27.03700
C  41.49000 43.58700 27.45600
C  41.09500 46.13500 24.78300
C  41.19600 45.81100 28.18900
O  40.86500 46.97800 28.31400
C  41.20200 44.75300 29.45200
C  42.25000 45.16400 30.37700
O  43.40200 44.75100 30.46000
O  41.69400 45.97800 31.35800
C  42.51300 46.36200 32.51700
H  43.15600 38.03100 29.78500
H  42.93100 37.63100 23.22400
H  41.41300 43.75900 23.06100
H  42.57800 42.48700 31.41400
H  41.53100 39.77700 31.19700
H  43.20900 39.33000 32.55300
H  43.74500 40.87000 32.56100
H  44.46900 39.90700 31.34400
H  39.65700 41.82800 30.84000
H  40.28200 43.25000 31.81300
H  40.61700 40.69200 33.14100
H  38.95100 41.08700 32.70400
H  43.58200 34.99500 28.58900
H  44.29800 36.39800 29.42000
H  45.14700 35.70300 28.11200
H  44.94100 34.16300 26.25300
H  44.10000 33.40100 24.96400
H  43.15100 33.86800 26.44800
H  41.61900 39.21800 21.75900
H  42.81700 41.95600 21.45400
H  43.22000 39.04900 20.13700
H  44.18200 38.69800 21.58000
H  44.25200 40.31700 20.78000
H  40.76700 41.22600 20.34700
H  40.87500 42.77900 21.13700
H  39.44800 41.27700 23.08800
H  38.71700 41.04800 21.43700
H  39.00200 42.65600 22.10200
H  40.51500 45.88400 23.89500
H  42.12700 46.41100 24.56200
H  40.67500 47.02100 25.26000
H  40.19100 44.79700 29.85800
H  42.52000 45.66500 33.35500
H  42.05500 47.26300 32.92400
H  43.44700 46.77100 32.13300

