158

Mg 35.13400 49.10600 26.54600
C  35.56300 46.91800 29.26000
C  34.01200 51.54200 28.66600
C  34.24100 50.99400 23.82500
C  35.85600 46.52200 24.43300
N  34.79200 49.31900 28.73200
C  35.16700 48.22700 29.61000
C  34.88700 48.73500 31.01000
C  34.40200 50.24000 30.87000
C  34.37200 50.39200 29.38100
C  33.03300 50.48500 31.55200
C  36.12700 48.59600 31.86900
C  36.01500 48.03100 33.34100
H  36.46600 49.11800 34.36200
N  34.35600 51.00800 26.30700
C  33.93200 51.85200 27.33600
C  33.60700 53.17400 26.76300
C  33.64500 53.11300 25.37300
C  34.06300 51.63300 25.10000
C  33.51500 54.43700 27.63500
C  33.52100 54.19200 24.35600
O  33.68200 53.97000 23.17100
C  33.11600 55.63200 24.69500
N  35.08500 48.85600 24.41400
C  34.61200 49.70500 23.49100
C  34.48300 49.04600 22.09600
C  35.27100 47.70400 22.33900
C  35.51200 47.68300 23.81200
C  33.06000 48.79900 21.46700
C  36.58100 47.43400 21.46100
C  36.93900 45.96800 21.03300
N  35.58600 47.15600 26.75800
C  35.88700 46.25500 25.76000
C  36.13600 44.96400 26.41200
C  35.98500 45.18800 27.76000
C  35.68100 46.51300 27.89000
C  36.33800 43.61200 25.78200
C  36.06500 44.53800 29.08000
O  36.34100 43.41800 29.44300
C  35.70800 45.67700 30.09800
C  34.43100 45.39500 30.79300
O  33.37500 45.05500 30.22000
O  34.55300 45.41700 32.19400
C  33.43500 44.82900 32.94400
H  33.52300 52.30300 29.27700
H  33.92200 51.57500 22.95700
H  36.00500 45.59100 23.88200
H  34.06700 48.10400 31.35200
H  35.05300 51.03400 31.23500
H  32.80700 49.64700 32.21100
H  32.32800 50.43800 30.72300
H  32.86000 51.46300 32.00100
H  36.66300 49.54400 31.89400
H  36.86800 47.97100 31.36900
H  36.64600 47.15400 33.48300
H  35.01100 47.72600 33.63600
H  34.32100 55.13300 27.40200
H  33.39600 54.32800 28.71300
H  32.58800 54.92300 27.32900
H  33.23900 56.26000 23.81200
H  33.70900 56.16300 25.43900
H  32.08800 55.69200 25.05300
H  35.01800 49.63900 21.35300
H  34.66400 46.81200 22.18100
H  33.10200 49.43300 20.58100
H  32.19500 49.01900 22.09200
H  32.86600 47.83500 20.99500
H  37.35900 47.73900 22.16000
H  36.64900 48.08300 20.58700
H  38.00200 45.80300 21.20800
H  36.76900 45.83500 19.96500
H  36.41200 45.20100 21.60100
H  37.39100 43.62300 25.49700
H  35.77700 43.32600 24.89200
H  36.24300 42.88300 26.58600
H  36.50500 45.93000 30.79700
H  32.49300 45.26400 32.60900
H  33.66600 45.32900 33.88500
H  33.44400 43.74000 32.99900
Mg -12.20100 39.42600 40.08100
C  -10.57400 36.22900 39.85000
C  -9.05200 40.91800 39.04500
C  -13.76700 42.15900 39.63800
C  -15.16300 37.64400 40.76400
N  -10.09500 38.63100 39.50100
C  -9.72300 37.27000 39.39400
C  -8.42700 37.15900 38.59300
C  -7.81000 38.53300 38.97600
C  -9.06900 39.46200 39.13000
C  -7.01200 38.49400 40.22500
C  -8.76500 36.92000 37.07700
C  -7.64800 36.20300 36.31900
H  -7.93800 35.49700 34.94600
N  -11.44300 41.26100 39.58100
C  -10.18400 41.68700 39.20300
C  -10.25000 43.09600 39.20100
C  -11.56900 43.56500 39.42700
C  -12.34200 42.27900 39.51400
C  -8.95000 43.97400 38.92100
C  -12.03500 45.02400 39.51200
O  -11.31500 46.00000 39.30900
C  -13.41700 45.33400 39.99900
N  -14.26000 39.82300 39.93500
C  -14.64300 41.09000 39.91500
C  -16.16900 41.18200 39.98500
C  -16.50800 39.78100 40.62100
C  -15.24900 39.04300 40.43900
C  -16.76600 42.43500 40.68300
C  -17.69200 39.06300 39.86500
C  -18.87800 38.45600 40.61400
N  -12.77800 37.37700 40.35300
C  -14.00300 36.82800 40.61200
C  -13.87900 35.43100 40.80900
C  -12.50100 35.16800 40.59600
C  -11.90200 36.37900 40.22700
C  -15.00900 34.52100 41.21000
C  -11.53300 34.04600 40.41100
O  -11.71100 32.79400 40.46800
C  -10.24300 34.77300 39.92500
C  -9.13500 34.50200 40.90900
O  -9.25800 34.51500 42.10400
O  -7.91700 34.28900 40.30300
C  -6.82000 34.17000 41.22100
H  -8.09900 41.43400 38.90800
H  -14.18300 43.14200 39.41100
H  -16.09500 37.16400 41.06900
H  -7.74500 36.41000 38.99500
H  -7.07900 38.84600 38.23000
H  -6.01800 38.81400 39.91400
H  -7.02200 37.55700 40.78200
H  -7.37100 39.29600 40.86900
H  -8.92000 37.88100 36.58700
H  -9.72200 36.41300 36.96200
H  -7.28600 35.48800 37.05800
H  -6.87900 36.95800 36.15700
H  -8.17400 43.41300 38.40100
H  -8.55100 44.30100 39.88100
H  -9.15500 44.92700 38.43300
H  -13.46800 46.34300 40.40700
H  -13.65700 44.60400 40.77200
H  -14.17000 45.20800 39.22100
H  -16.41900 41.22400 38.92500
H  -16.87000 39.91300 41.64100
H  -17.66900 42.67900 40.12400
H  -16.10900 43.30500 40.65900
H  -17.17500 42.13100 41.64700
H  -17.27500 38.27500 39.23700
H  -18.16400 39.80700 39.22200
H  -19.06500 37.47600 40.17500
H  -19.76900 39.08400 40.61700
H  -18.54400 38.38400 41.64900
H  -15.62700 34.98000 41.98200
H  -14.65900 33.61100 41.69600
H  -15.54700 34.29900 40.28800
H  -9.95300 34.21200 39.03700
H  -6.06400 34.25300 40.44000
H  -6.78200 33.13100 41.54700
H  -6.72700 34.91500 42.01100

