158

Mg 24.65600 -4.33600 45.48200
C  26.76600 -1.97800 43.95200
C  22.19500 -3.48600 43.17600
C  22.92600 -7.22600 46.35400
C  27.41300 -5.54800 47.17700
N  24.58000 -2.84200 43.83700
C  25.50400 -1.95900 43.38900
C  25.05100 -1.04000 42.27100
C  23.47000 -1.44100 42.19500
C  23.36300 -2.68200 43.13900
C  22.59200 -0.24000 42.73800
C  25.81300 -1.42300 40.93200
C  26.53100 -0.28300 40.17000
H  26.20500 -0.32400 38.70800
N  22.71400 -5.14300 44.94700
C  21.87900 -4.61900 43.97700
C  20.70300 -5.47000 43.92300
C  20.81800 -6.49600 44.89700
C  22.16400 -6.37500 45.48600
C  19.46100 -5.15100 43.12800
C  19.81300 -7.57000 45.16900
O  18.72800 -7.62400 44.51300
C  19.96400 -8.58500 46.24300
N  25.02400 -6.06500 46.65200
C  24.16400 -7.08500 46.91000
C  24.85100 -8.25500 47.64600
C  26.29600 -7.77800 47.79900
C  26.25000 -6.37400 47.20200
C  24.07800 -8.82700 48.89000
C  27.47200 -8.67800 47.24700
C  28.54000 -9.07800 48.35600
N  26.66600 -3.86200 45.69600
C  27.67100 -4.31500 46.47300
C  28.90700 -3.59900 46.30300
C  28.58600 -2.72700 45.28300
C  27.19600 -2.86500 45.02700
C  30.21100 -3.86500 47.03300
C  29.14700 -1.72300 44.34900
O  30.29900 -1.21500 44.22200
C  27.93800 -1.20100 43.57300
C  27.86700 0.22900 43.97600
O  27.52400 0.70300 45.02300
O  28.35400 1.02500 42.90200
C  28.86200 2.42300 43.12200
H  21.44500 -3.26100 42.41400
H  22.49000 -8.21800 46.49200
H  28.31500 -6.09900 47.45100
H  25.23600 0.00200 42.53100
H  23.10900 -1.74100 41.21100
H  23.25000 0.62200 42.84700
H  22.16800 -0.43200 43.72400
H  21.76300 0.06500 42.10000
H  25.03700 -1.86000 40.30400
H  26.54800 -2.20200 41.14000
H  27.60400 -0.17700 40.32900
H  26.08400 0.65200 40.50600
H  19.47600 -4.20000 42.59500
H  18.61900 -5.15100 43.81900
H  19.21400 -5.96700 42.44800
H  18.97100 -8.79100 46.64300
H  20.56500 -8.26000 47.09200
H  20.34100 -9.53200 45.85600
H  24.75100 -9.07700 46.93700
H  26.52400 -7.55800 48.84200
H  24.01800 -9.91500 48.91600
H  23.08100 -8.38800 48.94000
H  24.67200 -8.69800 49.79500
H  28.02100 -8.23500 46.41500
H  27.08000 -9.59900 46.81500
H  29.49300 -8.57800 48.18300
H  28.47400 -10.16600 48.36600
H  28.12900 -8.92200 49.35400
H  30.03000 -4.23400 48.04200
H  30.84100 -2.98000 47.12600
H  30.76200 -4.57000 46.41100
H  28.17100 -1.21000 42.50900
H  28.37400 3.02000 42.35200
H  29.93200 2.54300 42.95300
H  28.63700 2.76000 44.13400
Mg 36.79100 49.03300 25.05200
C  37.05800 46.97800 28.00700
C  34.87900 51.12000 26.85000
C  35.87400 50.26000 22.07900
C  38.17600 46.24900 23.35800
N  36.07100 49.02400 27.20100
C  36.36800 48.22000 28.23700
C  36.01600 48.73000 29.63000
C  35.15400 50.03200 29.11700
C  35.33800 50.00700 27.62700
C  33.62700 50.08500 29.55400
C  37.24400 49.17300 30.44300
C  36.91400 49.19000 31.97400
H  35.47000 48.96300 32.47400
N  35.68700 50.64100 24.56800
C  34.95500 51.41700 25.48200
C  34.51100 52.58900 24.77200
C  34.69400 52.35000 23.36000
C  35.41500 51.07000 23.23600
C  33.86300 53.83900 25.48900
C  34.14300 53.14100 22.20300
O  34.42100 52.71800 21.08400
C  33.31300 54.38400 22.41500
N  37.15900 48.44800 23.03800
C  36.56500 49.08800 21.98400
C  36.80800 48.38900 20.60700
C  37.62800 47.12500 21.03800
C  37.67600 47.28800 22.56300
C  35.60600 48.17300 19.58600
C  39.07800 47.05900 20.45300
C  39.95700 48.24700 20.63800
N  37.53000 47.05800 25.56400
C  38.10400 46.11800 24.73800
C  38.42200 44.95000 25.57000
C  38.06900 45.24200 26.89100
C  37.54300 46.53700 26.82500
C  39.08400 43.61300 25.10800
C  38.00500 44.74000 28.30600
O  38.31800 43.62200 28.76000
C  37.25200 45.95000 29.05500
C  35.98400 45.47200 29.66800
O  34.96000 45.12000 29.10300
O  36.22200 45.27500 31.01000
C  35.25300 44.51900 31.75600
H  34.36400 51.86000 27.46700
H  35.71000 50.63300 21.06600
H  38.48300 45.32900 22.85700
H  35.47800 47.94600 30.16300
H  35.75000 50.90700 29.37800
H  33.04500 49.82000 28.67200
H  33.32300 51.04900 29.96200
H  33.46000 49.36800 30.35800
H  37.54700 50.16100 30.09800
H  38.13600 48.60400 30.18300
H  37.11000 50.21500 32.28600
H  37.63700 48.56500 32.50000
H  34.05900 54.73400 24.89900
H  34.23500 54.00000 26.50000
H  32.78200 53.72700 25.57000
H  33.80400 55.23400 22.88800
H  32.39300 54.07600 22.91300
H  32.91600 54.64900 21.43500
H  37.47100 49.01200 20.00700
H  36.99600 46.25000 20.88300
H  34.74700 48.31900 20.24100
H  35.64000 47.16800 19.16400
H  35.63700 48.80900 18.70200
H  38.95200 46.88300 19.38400
H  39.65600 46.20700 20.81200
H  39.90200 48.89400 19.76200
H  41.00000 47.97900 20.80700
H  39.62200 48.92300 21.42400
H  39.41500 43.61400 24.07000
H  38.34100 42.87600 25.41300
H  40.02800 43.48600 25.63800
H  37.82700 46.39800 29.86500
H  35.75200 44.30800 32.70200
H  35.00100 43.57900 31.26500
H  34.29500 44.97400 32.00900

