158

Mg 0.60300 7.64200 26.75200
C  1.42900 9.76900 29.55300
C  0.67100 5.03100 29.04100
C  -0.23100 5.58600 24.31100
C  1.13100 10.29100 24.63200
N  1.01900 7.45400 29.06100
C  1.21700 8.42300 29.94600
C  1.11700 7.93700 31.47600
C  1.24000 6.40900 31.21500
C  0.86500 6.26300 29.69500
C  2.66100 5.77200 31.55100
C  -0.28500 8.42400 32.01900
C  -0.47700 8.33900 33.54300
H  0.60500 7.62700 34.32100
N  0.18200 5.52800 26.63200
C  0.26200 4.65500 27.67000
C  0.06100 3.29100 27.20600
C  -0.27400 3.42700 25.84400
C  -0.18700 4.85500 25.53500
C  0.09200 2.04300 28.07800
C  -0.34000 2.41200 24.71700
O  -0.52500 2.68700 23.49900
C  -0.19300 0.95200 25.15400
N  0.54900 7.89700 24.77500
C  0.09800 6.89800 23.97200
C  0.12300 7.41100 22.52000
C  0.35200 8.96900 22.58600
C  0.76200 9.13400 24.06500
C  1.04900 6.71900 21.55100
C  -0.93900 9.79500 22.22300
C  -0.78900 11.23800 21.71700
N  1.22400 9.55900 26.95200
C  1.31600 10.52500 26.02400
C  1.59500 11.76800 26.68400
C  1.67400 11.47800 28.02400
C  1.43000 10.15000 28.17600
C  1.64000 13.07200 25.95900
C  2.00900 12.05600 29.33500
O  2.44700 13.16900 29.66500
C  1.69400 10.92000 30.38700
C  2.84400 10.90600 31.31000
O  3.86500 10.28000 31.17800
O  2.59700 11.73700 32.34000
C  3.42800 11.77200 33.51500
H  0.67900 4.20000 29.74900
H  -0.60100 5.14400 23.38400
H  1.32400 11.18600 24.03700
H  2.03800 8.28500 31.94400
H  0.49400 5.94900 31.86400
H  3.35700 6.43100 32.07000
H  3.09400 5.49400 30.59000
H  2.68600 4.77700 31.99400
H  -1.06100 7.74100 31.67300
H  -0.56600 9.40200 31.62700
H  -1.42400 7.81600 33.67100
H  -0.51400 9.31900 34.01900
H  -0.83000 1.46500 28.01000
H  0.32000 2.24200 29.12500
H  0.89100 1.36900 27.76700
H  -0.92300 0.67400 25.91300
H  0.83900 0.83000 25.48200
H  -0.12400 0.23400 24.33600
H  -0.87600 7.15200 22.17100
H  1.18600 9.19900 21.92300
H  1.86800 7.34900 21.20400
H  0.57900 6.10900 20.78000
H  1.62500 5.95800 22.07800
H  -1.56100 9.82000 23.11900
H  -1.35200 9.22400 21.39200
H  -0.94600 11.28100 20.64000
H  0.24200 11.53200 21.91500
H  -1.48400 11.79600 22.34400
H  1.27400 12.96000 24.93800
H  2.63400 13.51900 25.96700
H  0.91000 13.67400 26.49900
H  0.78900 11.07400 30.97600
H  4.19500 12.51800 33.30600
H  3.80100 10.78000 33.77100
H  2.68900 12.01700 34.27800
Mg -11.64300 17.02000 42.89800
C  -8.56600 15.60900 42.48400
C  -10.55500 19.98900 41.40700
C  -14.75400 18.12300 42.86900
C  -12.90500 13.65000 43.39400
N  -9.77900 17.71200 42.06500
C  -8.64800 16.96500 42.05200
C  -7.51600 17.69300 41.31600
C  -8.09600 19.16600 41.23300
C  -9.54900 18.95500 41.62200
C  -7.39700 20.30100 42.02700
C  -7.16100 16.98000 39.94100
C  -5.58500 16.65900 39.82500
H  -5.09200 15.70100 38.71900
N  -12.55000 18.83000 42.13800
C  -11.95500 19.88300 41.56400
C  -12.93600 20.85600 41.26200
C  -14.18500 20.45300 41.81000
C  -13.85600 19.08600 42.31600
C  -12.64000 22.16000 40.58300
C  -15.49700 21.26100 41.79700
O  -15.62600 22.42700 41.40000
C  -16.61200 20.66500 42.54500
N  -13.62400 15.96500 42.83000
C  -14.68000 16.75000 43.13900
C  -15.92300 15.84000 43.58800
C  -15.34100 14.39800 43.41100
C  -13.83200 14.62200 43.18000
C  -16.44200 16.04900 45.01300
C  -15.83300 13.51800 42.18200
C  -16.02100 12.03400 42.46300
N  -10.93900 14.99500 43.07900
C  -11.51200 13.81800 43.38100
C  -10.53500 12.76900 43.55400
C  -9.32600 13.48700 43.24000
C  -9.62400 14.79500 42.95100
C  -10.74200 11.36600 43.93300
C  -7.91300 13.30200 43.02800
O  -7.21600 12.33400 43.22600
C  -7.39400 14.64000 42.43500
C  -6.29800 15.06000 43.35500
O  -6.39300 15.53300 44.45000
O  -5.08500 14.80400 42.72000
C  -3.83500 15.25100 43.42300
H  -10.07700 20.91800 41.09000
H  -15.81500 18.35200 42.99200
H  -13.26500 12.66100 43.68600
H  -6.69200 17.69600 42.03100
H  -8.15300 19.35200 40.16000
H  -7.13600 21.01000 41.24200
H  -6.51200 19.91600 42.53300
H  -8.03300 20.83000 42.73600
H  -7.44000 17.62100 39.10400
H  -7.76400 16.07600 39.85300
H  -5.15200 16.33000 40.77000
H  -5.14700 17.64400 39.66600
H  -12.01000 21.87400 39.74100
H  -12.01000 22.75800 41.24200
H  -13.49500 22.71600 40.19900
H  -17.32700 21.46000 42.75300
H  -16.22600 20.24400 43.47400
H  -17.11500 19.90900 41.94200
H  -16.68800 16.11300 42.86100
H  -15.40900 13.76900 44.29800
H  -16.45500 15.16800 45.65500
H  -17.42500 16.51100 45.09600
H  -15.76200 16.82500 45.36400
H  -15.15000 13.53700 41.33200
H  -16.71000 14.06900 41.84200
H  -15.46800 11.81000 43.37400
H  -15.63300 11.32300 41.73300
H  -17.04800 11.71800 42.64400
H  -9.84700 10.77300 43.74400
H  -11.58400 10.96600 43.36700
H  -10.94700 11.30200 45.00200
H  -7.01800 14.55900 41.41600
H  -3.40000 14.28400 43.67600
H  -3.94100 15.72400 44.39900
H  -3.04900 15.73000 42.83900

