158

Mg 49.01100 36.26100 28.14100
C  46.61500 34.86400 30.39600
C  49.58900 38.67400 30.37000
C  51.00500 37.51800 25.83200
C  48.03000 33.71800 25.88800
N  48.18100 36.59200 30.17200
C  47.26100 35.90500 30.88900
C  47.06700 36.55300 32.32000
C  47.79200 38.01100 32.11300
C  48.60000 37.73200 30.81600
C  46.78100 39.17500 31.82500
C  47.77600 35.85900 33.52300
C  49.02100 34.94700 33.25300
H  50.40800 35.38000 33.77500
N  50.21100 37.80000 28.13200
C  50.37800 38.67500 29.13600
C  51.31900 39.64100 28.75100
C  51.93200 39.25500 27.53900
C  51.07400 38.14900 27.14600
C  51.63700 40.80300 29.76100
C  53.04400 39.86800 26.70500
O  53.45000 39.39500 25.62100
C  53.80400 41.06700 27.19500
N  49.44300 35.69300 26.14400
C  50.24700 36.47200 25.40000
C  50.35000 35.99900 23.91500
C  49.70300 34.55100 24.00000
C  49.02000 34.59400 25.41400
C  49.52100 36.96500 22.97400
C  50.76000 33.38900 23.95000
C  50.97000 32.74700 22.56800
N  47.64800 34.62300 28.04700
C  47.34200 33.71000 27.12100
C  46.34500 32.73200 27.56600
C  46.00000 33.27600 28.80200
C  46.82300 34.33000 29.10500
C  45.85500 31.57200 26.81400
C  45.02900 33.12000 29.84900
O  44.02300 32.39100 29.92500
C  45.48400 34.05900 31.02800
C  45.84600 33.21000 32.12300
O  46.51100 32.14500 32.05400
O  45.30600 33.66100 33.34200
C  45.03600 32.59700 34.34600
H  49.70400 39.44400 31.13600
H  51.55500 37.96700 25.00100
H  47.79000 32.96200 25.13700
H  45.99100 36.58900 32.49200
H  48.45200 38.33100 32.91900
H  47.04500 40.12900 32.28200
H  45.77400 38.85000 32.08700
H  46.74200 39.33900 30.74800
H  47.09900 35.28500 34.15600
H  48.10200 36.65700 34.19000
H  49.18400 34.89300 32.17700
H  48.84000 33.91600 33.55700
H  52.34700 41.52500 29.35800
H  52.14300 40.33300 30.60400
H  50.79000 41.39500 30.10700
H  53.12200 41.90800 27.31900
H  54.62100 41.26400 26.50100
H  54.23700 40.70700 28.12900
H  51.37200 35.77300 23.60900
H  48.91300 34.44400 23.25600
H  48.87800 37.58300 23.60100
H  49.04200 36.38900 22.18300
H  50.22200 37.62900 22.46900
H  50.39900 32.63600 24.65100
H  51.61800 33.88300 24.40500
H  50.16100 33.09600 21.92700
H  50.81600 31.66900 22.61100
H  51.96900 32.89600 22.15700
H  46.62100 30.79800 26.77400
H  45.40300 31.99600 25.91700
H  45.09500 31.11500 27.44800
H  44.59600 34.59500 31.36200
H  45.86400 32.44800 35.04000
H  44.75100 31.65700 33.87300
H  44.13900 32.71100 34.95400
Mg 7.47100 52.86000 42.07200
C  6.98200 49.44400 41.52100
C  10.48900 52.69700 40.55400
C  7.66600 56.19300 42.36000
C  4.25900 53.05600 43.36500
N  8.50600 51.24600 40.95700
C  8.17100 49.95900 40.93300
C  9.30200 49.17100 40.18000
C  10.53200 50.14600 40.22500
C  9.83300 51.44900 40.64600
C  11.79600 49.69500 41.00500
C  8.81900 48.71900 38.77200
C  7.96200 49.71900 37.92700
H  7.72000 49.37700 36.46400
N  8.88400 54.30900 41.48800
C  10.06900 54.05900 40.84800
C  10.86900 55.23600 40.80400
C  10.08500 56.25200 41.31600
C  8.81700 55.57700 41.81600
C  12.20900 55.28900 40.02000
C  10.44600 57.79200 41.38300
O  11.50100 58.17300 40.87200
C  9.47300 58.82800 41.78300
N  6.11900 54.47300 42.55200
C  6.43100 55.73300 42.70000
C  5.15800 56.65900 42.95500
C  4.15500 55.50600 43.34900
C  4.86900 54.24700 43.06900
C  5.28900 57.90400 43.96300
C  2.75800 55.58000 42.61400
C  1.51600 55.47200 43.53000
N  5.85500 51.59300 42.42500
C  4.66000 51.76500 43.03900
C  3.99400 50.55200 43.12900
C  4.94100 49.57700 42.72800
C  5.98200 50.28900 42.15700
C  2.56800 50.26800 43.58800
C  5.25900 48.15800 42.63300
O  4.66000 47.14200 42.99100
C  6.60700 48.08700 41.75600
C  6.27100 47.38600 40.45600
O  5.57700 47.77800 39.50800
O  6.73500 46.11400 40.53500
C  6.31500 45.13900 39.55400
H  11.52300 52.61100 40.21200
H  7.87700 57.21400 42.68300
H  3.30400 53.00800 43.89200
H  9.53700 48.22000 40.66000
H  10.90600 50.31900 39.21600
H  12.63500 49.51700 40.33300
H  11.62800 48.75200 41.52400
H  11.88100 50.44600 41.79100
H  8.47700 47.68800 38.86100
H  9.72500 48.70400 38.16600
H  8.53600 50.64500 37.87900
H  7.04100 50.03200 38.42000
H  12.07800 55.25100 38.93900
H  12.76500 54.42900 40.39400
H  12.76400 56.21800 40.15000
H  9.19700 58.79000 42.83700
H  8.55800 58.66000 41.21400
H  9.87700 59.80300 41.51000
H  4.85000 57.10600 42.01000
H  4.08000 55.66100 44.42500
H  4.46100 57.76500 44.65800
H  5.31000 58.91400 43.55200
H  6.25400 57.91300 44.47000
H  2.65200 54.72500 41.94700
H  2.74700 56.49300 42.01900
H  0.97600 54.57200 43.23400
H  0.88600 56.36100 43.55000
H  1.92800 55.33900 44.53100
H  1.93800 51.14800 43.45700
H  2.54500 49.90200 44.61500
H  2.15700 49.39000 43.08900
H  7.43000 47.66300 42.33200
H  6.90300 45.34900 38.66100
H  5.26200 45.20500 39.27900
H  6.49100 44.08700 39.78100

