158

Mg 16.05300 -3.16800 27.73300
C  15.04100 -1.07600 30.27100
C  17.91800 -4.99100 29.99800
C  17.48400 -4.95500 25.13600
C  14.64100 -1.09900 25.27600
N  16.48200 -2.88900 29.90900
C  15.96700 -1.98000 30.79600
C  16.52400 -2.07800 32.25300
C  17.59400 -3.30200 32.03200
C  17.34500 -3.74900 30.54700
C  19.14600 -2.93600 32.27400
C  15.43500 -2.45700 33.23000
C  15.43100 -1.61900 34.49100
H  16.78200 -0.92900 34.91600
N  17.38100 -4.77300 27.61600
C  18.00500 -5.41500 28.68200
C  18.78300 -6.54300 28.17100
C  18.71500 -6.46600 26.74900
C  17.86900 -5.33800 26.43500
C  19.53200 -7.49900 29.11800
C  19.30200 -7.43800 25.78400
O  19.11000 -7.42400 24.58400
C  20.32600 -8.55400 26.31000
N  16.03800 -3.04900 25.47500
C  16.69700 -3.86200 24.69200
C  16.34600 -3.72500 23.17500
C  15.19900 -2.57700 23.26600
C  15.25300 -2.23700 24.76200
C  17.55800 -3.34700 22.31000
C  13.77400 -3.14200 22.82200
C  13.38700 -2.78100 21.41700
N  14.95200 -1.54800 27.73100
C  14.44900 -0.83200 26.68300
C  13.69300 0.33200 27.26100
C  13.89000 0.28000 28.68500
C  14.69400 -0.84400 28.89800
C  12.80600 1.30600 26.48500
C  13.53300 0.89800 29.94200
O  12.82700 1.87500 30.21000
C  14.31000 0.08700 31.00700
C  15.20600 1.19900 31.52500
O  16.11400 1.66900 30.89100
O  14.77200 1.61500 32.71600
C  15.42900 2.81000 33.27500
H  18.57700 -5.46600 30.72800
H  17.85500 -5.57700 24.31900
H  14.08000 -0.42700 24.62400
H  16.99500 -1.11500 32.44900
H  17.26600 -4.15500 32.62500
H  19.56900 -3.59500 33.03200
H  19.33000 -1.90700 32.58200
H  19.71600 -3.07400 31.35500
H  15.43600 -3.53200 33.40700
H  14.50500 -2.15500 32.74800
H  15.08600 -2.20100 35.34600
H  14.71600 -0.80200 34.39300
H  19.38600 -8.52800 28.78800
H  19.27000 -7.36700 30.16700
H  20.60900 -7.33200 29.10600
H  20.81800 -8.94600 25.42000
H  19.83700 -9.41200 26.77100
H  21.16700 -8.14400 26.86900
H  15.85100 -4.64600 22.86800
H  15.49900 -1.78700 22.57800
H  18.36000 -3.99600 22.66000
H  17.96500 -2.35100 22.48400
H  17.30800 -3.60700 21.28100
H  13.10000 -2.67900 23.54200
H  13.65600 -4.22500 22.84800
H  13.75000 -3.62800 20.83500
H  13.85800 -1.83600 21.14800
H  12.29800 -2.75400 21.36500
H  12.46900 0.92000 25.52400
H  13.31700 2.24400 26.27000
H  11.93000 1.57600 27.07500
H  13.63400 -0.26700 31.78500
H  15.71700 3.58800 32.56700
H  16.28300 2.53400 33.89400
H  14.54800 3.02600 33.87900
Mg 54.17700 24.28100 45.32000
C  51.55700 26.55700 44.27900
C  52.22100 21.73600 43.85800
C  56.80300 22.39900 45.10200
C  55.98700 27.13200 45.96500
N  52.22800 24.18400 44.13300
C  51.37900 25.24100 43.82600
C  50.29800 24.77600 42.81600
C  50.23800 23.28500 43.08600
C  51.62300 22.98400 43.77000
C  49.15700 22.84900 44.15200
C  50.61600 25.24300 41.34300
C  50.79900 24.19200 40.21200
H  51.85600 23.13500 40.36500
N  54.38600 22.22200 44.78900
C  53.48900 21.35800 44.22000
C  54.12700 20.13700 44.07900
C  55.46800 20.30800 44.35500
C  55.64100 21.67600 44.83900
C  53.43900 18.88500 43.42400
C  56.58400 19.20500 44.26800
O  56.29500 17.99800 44.01500
C  58.04800 19.46500 44.37500
N  56.13000 24.66100 45.40200
C  57.05900 23.76200 45.36200
C  58.42100 24.26800 45.79000
C  58.17200 25.79000 45.91800
C  56.66600 25.88300 45.80300
C  59.04300 23.63600 47.03500
C  58.83100 26.55500 44.78000
C  58.10500 26.56300 43.48800
N  53.75900 26.43300 45.51200
C  54.59100 27.41000 45.82600
C  53.82900 28.64600 45.95600
C  52.67500 28.40100 45.28500
C  52.64700 27.01200 45.03000
C  54.32700 29.96800 46.33500
C  51.43000 28.90300 44.73600
O  51.02400 30.07300 44.73100
C  50.68400 27.77600 44.03600
C  50.45200 28.27700 42.63000
O  51.28200 28.86000 41.95200
O  49.20800 28.00300 42.22400
C  48.73000 28.35300 40.87500
H  51.66700 20.93200 43.36800
H  57.80000 22.00100 44.90500
H  56.57300 28.05000 46.05100
H  49.41800 25.34600 43.11200
H  50.16300 22.57800 42.25900
H  49.69200 22.39200 44.98400
H  48.38200 22.24800 43.67600
H  48.60200 23.72900 44.47900
H  51.48600 25.87800 41.17400
H  49.75200 25.84100 41.05400
H  51.10000 24.67900 39.28500
H  49.80100 23.76800 40.09600
H  53.86200 17.98200 43.86300
H  53.40300 18.88700 42.33400
H  52.41800 18.91300 43.80600
H  58.43800 20.05700 43.54600
H  58.53400 18.49600 44.48000
H  58.27000 19.93900 45.33100
H  58.93100 23.93900 44.88500
H  58.51900 26.02600 46.92400
H  60.03600 23.25200 46.80200
H  58.31600 22.88400 47.34000
H  59.26600 24.37700 47.80300
H  59.83500 26.17900 44.58700
H  58.91200 27.57800 45.14800
H  57.67200 27.55200 43.33500
H  57.30200 25.83600 43.36900
H  58.85000 26.52700 42.69300
H  55.16700 30.21100 45.68500
H  54.75900 29.86600 47.33100
H  53.48400 30.64600 46.46600
H  49.67700 27.83000 44.44900
H  49.40600 28.89300 40.21300
H  47.79300 28.91000 40.89700
H  48.42700 27.38500 40.47800

