158

Mg 47.20200 16.20800 28.54700
C  44.88700 16.13800 31.23500
C  49.16400 18.37200 30.53300
C  48.92200 17.02300 25.84400
C  44.61600 15.14800 26.56800
N  47.04300 17.06300 30.71100
C  46.07100 16.79800 31.60100
C  46.37100 17.41100 32.97000
C  47.67900 18.21400 32.67700
C  48.05600 17.87300 31.21900
C  47.53000 19.82300 32.85000
C  46.52600 16.22600 34.03900
C  46.03900 16.49800 35.46900
H  45.80500 18.01400 35.90700
N  48.97900 17.30300 28.28600
C  49.58800 18.13700 29.23400
C  50.73200 18.72000 28.53300
C  50.74400 18.32600 27.21000
C  49.48800 17.49300 27.03200
C  51.98100 19.47900 29.29400
C  51.70300 18.69000 26.03300
O  51.54400 18.19600 24.85300
C  52.65600 19.71900 26.28200
N  46.76700 16.23600 26.52400
C  47.70400 16.39500 25.59200
C  47.22500 16.14900 24.16100
C  45.97000 15.34200 24.47000
C  45.74200 15.61600 25.89100
C  46.99600 17.46300 23.33400
C  45.97800 13.92100 23.91800
C  46.77500 12.86000 24.72700
N  45.25800 15.37800 28.80200
C  44.27300 15.09900 27.89300
C  43.13200 14.49600 28.60100
C  43.30600 14.98200 29.87600
C  44.61400 15.57600 29.96900
C  41.81000 13.95300 28.16000
C  42.66600 15.04800 31.18700
O  41.53800 14.68200 31.56600
C  43.64800 15.74400 32.12200
C  42.92200 17.00300 32.74600
O  42.86400 18.03800 32.12400
O  42.50800 16.82000 34.05000
C  41.76700 17.95900 34.61200
H  49.84800 19.05400 31.04300
H  49.49200 17.18100 24.92600
H  43.79300 14.67000 26.03200
H  45.54400 18.06200 33.25300
H  48.57000 17.94500 33.24400
H  46.59400 20.01800 33.37400
H  47.33100 20.24100 31.86300
H  48.47900 20.08800 33.31500
H  47.57500 15.93100 34.06100
H  46.00400 15.36400 33.62300
H  46.79800 16.06800 36.12200
H  45.09200 15.97100 35.59300
H  51.82800 19.21300 30.34000
H  52.09900 20.54300 29.08900
H  52.87800 18.97800 28.92900
H  52.02600 20.54000 26.62300
H  53.02400 19.95600 25.28300
H  53.48200 19.37100 26.90100
H  47.99600 15.54400 23.68400
H  45.16300 15.81400 23.90900
H  47.84800 17.65200 22.68100
H  46.94300 18.32300 24.00100
H  46.06300 17.47400 22.77100
H  46.31100 14.00800 22.88400
H  44.95300 13.55100 23.88900
H  47.15200 13.33700 25.63100
H  47.55100 12.42800 24.09500
H  46.09700 12.05200 25.00200
H  41.84100 12.89800 28.43100
H  41.55600 14.19200 27.12700
H  41.03100 14.46000 28.72900
H  43.96200 15.06400 32.91400
H  40.86700 18.02300 34.00000
H  42.30300 18.90800 34.63800
H  41.33900 17.63400 35.56000
Mg 42.29900 41.62200 25.76800
C  41.26200 43.90800 28.18400
C  43.51200 39.68900 28.34500
C  43.55100 39.50000 23.44100
C  41.64900 44.05100 23.25800
N  42.20900 41.67600 28.02900
C  41.72500 42.70500 28.81800
C  41.91300 42.44600 30.35000
C  42.95200 41.27000 30.23700
C  42.89800 40.84500 28.82500
C  44.38700 41.70800 30.68900
C  40.58500 42.18700 31.05600
C  40.33400 43.00400 32.35900
H  41.27600 42.74300 33.51100
N  43.21000 39.82600 25.89000
C  43.65000 39.21000 27.01400
C  44.41700 38.03700 26.63900
C  44.34600 37.85600 25.23100
C  43.68800 39.10500 24.78900
C  45.17000 37.18600 27.65700
C  44.84500 36.71500 24.34700
O  44.88000 36.82000 23.09900
C  45.21800 35.33700 24.98700
N  42.50900 41.72900 23.62100
C  43.02000 40.68600 22.93400
C  42.93600 40.96600 21.43800
C  42.31400 42.38600 21.39800
C  42.13600 42.79300 22.84800
C  44.21400 40.79400 20.66100
C  40.93100 42.34200 20.79800
C  39.80800 41.55600 21.42000
N  41.51500 43.51300 25.66300
C  41.31400 44.43700 24.61000
C  40.86000 45.64000 25.13500
C  40.64800 45.49900 26.51800
C  41.21100 44.17800 26.82200
C  40.67600 46.96000 24.37800
C  40.31000 46.15800 27.73700
O  39.85200 47.31100 27.90900
C  40.72900 45.13800 28.88000
C  41.66900 45.75600 29.85500
O  42.86700 45.68900 29.86500
O  40.87100 46.34000 30.82000
C  41.75600 46.86800 31.93200
H  44.06200 39.11600 29.09400
H  44.04400 38.92400 22.65500
H  41.51700 44.84800 22.52400
H  42.34600 43.26500 30.92400
H  42.61600 40.48800 30.91900
H  45.03800 41.70500 29.81400
H  44.67900 40.93700 31.40300
H  44.43900 42.68100 31.17700
H  40.48700 41.12600 31.28900
H  39.78200 42.55500 30.41700
H  39.31600 42.74000 32.64300
H  40.28300 44.08100 32.20000
H  44.45300 36.43900 27.99800
H  45.57800 37.80500 28.45500
H  46.01300 36.66100 27.20800
H  44.56300 35.12900 25.83400
H  46.28500 35.37800 25.20700
H  44.98700 34.53900 24.28200
H  42.29800 40.19400 21.00800
H  42.89700 43.21700 21.00000
H  44.93400 41.58600 20.86400
H  44.00900 40.83300 19.59100
H  44.60500 39.80900 20.91800
H  41.06500 42.04500 19.75800
H  40.46800 43.32800 20.77000
H  39.46000 40.77200 20.74800
H  38.94200 42.20400 21.55900
H  40.11300 41.16500 22.39100
H  40.45700 47.76300 25.08200
H  39.78000 47.01300 23.76000
H  41.55300 47.09500 23.74500
H  39.80100 44.88000 29.38900
H  41.99000 45.89500 32.36400
H  41.08100 47.36900 32.62600
H  42.49100 47.54700 31.49900

