158

Mg 35.36300 3.01500 29.92100
C  33.13500 4.24500 32.43500
C  37.90900 3.44300 32.11100
C  37.44100 2.01400 27.47600
C  32.75400 2.93200 27.69400
N  35.47100 3.90500 32.03700
C  34.39000 3.93900 32.88000
C  34.86800 3.90500 34.38200
C  36.44700 3.69200 34.21800
C  36.65500 3.72100 32.68500
C  37.30700 4.73600 34.86000
C  34.10200 2.84600 35.19100
C  33.42300 3.34900 36.48100
H  34.13600 4.44000 37.24200
N  37.40500 2.65200 29.84300
C  38.30400 2.96000 30.80400
C  39.67100 2.73000 30.42900
C  39.53600 2.37800 29.03400
C  38.09500 2.35800 28.70700
C  40.81500 2.88900 31.43400
C  40.57200 1.82600 28.12000
O  40.35000 1.50600 26.99600
C  42.02000 1.72300 28.61100
N  35.13100 2.54900 27.80700
C  36.08300 2.10200 27.03200
C  35.57700 1.88800 25.63800
C  34.00400 1.72100 25.85800
C  33.93700 2.41800 27.23000
C  35.99700 3.03700 24.75000
C  33.59900 0.21000 26.00200
C  32.43100 -0.28000 24.97400
N  33.46100 3.58600 29.95100
C  32.50300 3.48500 28.95500
C  31.28400 4.06400 29.37600
C  31.53500 4.39300 30.73500
C  32.85200 4.02900 31.02000
C  29.99200 4.19100 28.60500
C  30.78200 4.78500 31.91000
O  29.60300 5.12100 32.17300
C  31.82600 4.63800 33.07100
C  31.97400 5.81700 33.87300
O  32.69400 6.75700 33.49800
O  31.21200 5.80300 34.99900
C  31.18500 7.09500 35.70600
H  38.65500 3.30100 32.89700
H  38.06600 1.52700 26.72400
H  31.91400 2.82500 27.00500
H  34.65600 4.87600 34.82900
H  36.60700 2.64700 34.48500
H  38.02900 4.14800 35.42600
H  36.65600 5.33800 35.49300
H  37.79500 5.36500 34.11600
H  34.82100 2.07200 35.46000
H  33.42800 2.34100 34.49900
H  33.34300 2.47800 37.13200
H  32.41000 3.70700 36.30100
H  40.64600 3.61600 32.22700
H  41.70400 3.27500 30.93600
H  40.93500 1.87100 31.80400
H  42.07700 1.01000 29.43400
H  42.41500 2.70300 28.87800
H  42.49200 1.39300 27.68600
H  35.86600 0.93800 25.18800
H  33.67700 2.20200 24.93600
H  35.12200 3.51800 24.31400
H  36.60500 2.77800 23.88300
H  36.52300 3.82900 25.28300
H  33.11600 0.07100 26.96900
H  34.43100 -0.49300 26.03600
H  32.61800 -1.31800 24.69700
H  32.44100 0.18700 23.98900
H  31.43100 -0.21500 25.40300
H  29.79700 3.20900 28.17400
H  30.09700 4.90700 27.79000
H  29.16000 4.54200 29.21500
H  31.40800 3.88700 33.74100
H  30.78500 7.88600 35.07100
H  32.23100 7.28700 35.94100
H  30.70100 7.03700 36.68100
Mg 17.15100 53.23800 26.58300
C  19.23300 51.56900 28.74700
C  14.72700 53.28700 28.99500
C  15.14400 54.46500 24.29800
C  19.33400 52.21900 23.88000
N  17.00300 52.55000 28.68400
C  18.01600 51.97800 29.37400
C  17.59500 51.94100 30.89800
C  16.04200 52.26300 30.84400
C  15.89500 52.70000 29.44600
C  15.09800 51.13200 31.32300
C  18.43900 52.98900 31.76800
C  19.12100 52.51700 33.03200
H  18.16800 51.93100 34.08800
N  15.28300 54.05800 26.72600
C  14.43600 53.87900 27.76500
C  13.12100 54.46000 27.39500
C  13.19000 54.82800 26.05200
C  14.59400 54.49000 25.63300
C  11.87600 54.19400 28.19900
C  12.19400 55.42300 25.16500
O  12.50100 55.66200 24.02400
C  10.82300 55.71700 25.66700
N  17.15000 53.23100 24.44200
C  16.31100 53.97900 23.81700
C  16.52300 54.05000 22.23900
C  17.92700 53.45200 22.11000
C  18.22100 53.00100 23.59200
C  15.46700 53.22700 21.41500
C  19.01600 54.28200 21.41700
C  19.48200 55.49700 22.23200
N  18.94300 52.20300 26.35000
C  19.76100 51.91400 25.21800
C  20.89100 51.19400 25.61600
C  20.76800 51.09800 27.03400
C  19.57100 51.66300 27.40300
C  21.95200 50.71900 24.66100
C  21.44900 50.48800 28.19200
O  22.51100 49.90600 28.43600
C  20.43300 50.91600 29.38600
C  20.13200 49.65000 30.14300
O  19.34500 48.73300 29.81500
O  20.70600 49.79500 31.37700
C  20.52900 48.83000 32.44100
H  13.96000 53.30500 29.77100
H  14.59600 54.94900 23.48700
H  19.92000 52.02900 22.97800
H  17.76300 50.91700 31.23100
H  15.78600 53.17600 31.38100
H  14.35400 51.69200 31.89000
H  15.67600 50.41600 31.90700
H  14.63800 50.67300 30.44800
H  17.76700 53.77500 32.11400
H  19.15100 53.50100 31.12100
H  19.75100 53.30300 33.44900
H  19.77300 51.67900 32.78700
H  11.61500 55.05300 28.81800
H  12.04600 53.33600 28.85000
H  11.02400 53.97700 27.55600
H  10.26700 56.18600 24.85500
H  10.89100 56.37600 26.53300
H  10.33000 54.74900 25.75000
H  16.44300 55.12500 22.08000
H  17.88200 52.49600 21.58900
H  15.92100 52.53700 20.70400
H  14.94500 53.93300 20.76900
H  14.75600 52.72900 22.07400
H  18.77800 54.59900 20.40100
H  19.91100 53.70400 21.18500
H  19.85400 56.32200 21.62500
H  20.23800 55.10000 22.91000
H  18.67200 55.95800 22.79700
H  21.92000 51.39900 23.81000
H  21.84200 49.65300 24.46100
H  22.91900 50.73400 25.16600
H  20.93700 51.62500 30.04200
H  19.46500 48.62500 32.55500
H  20.83600 49.42900 33.29900
H  21.03100 47.88700 32.22600

