158

Mg -0.01500 7.84800 26.46900
C  0.84000 9.84400 29.39900
C  -0.28900 5.15800 28.59200
C  -0.42100 6.11900 23.78900
C  0.42400 10.74800 24.63100
N  0.48900 7.51400 28.72900
C  0.59200 8.49000 29.75900
C  0.44500 7.83900 31.11300
C  0.20600 6.32600 30.73100
C  0.13500 6.32400 29.24700
C  1.33500 5.39100 31.33300
C  -0.71300 8.39200 31.94300
C  -0.39800 8.74000 33.40300
H  0.83500 8.11900 33.99200
N  -0.28000 5.91400 26.22800
C  -0.41800 4.93500 27.18800
C  -0.83600 3.67300 26.58400
C  -0.81000 3.92600 25.18400
C  -0.55400 5.39000 25.01400
C  -1.23600 2.45600 27.38600
C  -1.04500 3.00100 24.01100
O  -1.02600 3.30600 22.82200
C  -1.29400 1.50300 24.21200
N  0.02500 8.26800 24.51300
C  -0.14700 7.37100 23.49800
C  0.05100 8.05300 22.14000
C  -0.26600 9.56800 22.44600
C  0.00500 9.53500 23.99700
C  1.36300 7.91300 21.36100
C  -1.71500 9.95500 22.30400
C  -2.10600 10.60600 20.99800
N  0.55100 9.90700 26.79400
C  0.76400 10.93200 25.97300
C  1.21700 12.15800 26.67700
C  1.13700 11.73900 28.02300
C  0.81600 10.36700 28.02000
C  1.54400 13.46800 26.02400
C  1.34900 12.19400 29.30400
O  1.68300 13.31700 29.64900
C  1.16000 10.97700 30.28600
C  2.33500 10.95000 31.13800
O  3.31500 10.28100 30.81100
O  2.20300 11.73900 32.24700
C  3.28000 11.82200 33.29800
H  -0.63300 4.27500 29.13400
H  -0.41400 5.56000 22.85000
H  0.61300 11.53500 23.89900
H  1.43300 7.85700 31.57300
H  -0.73100 5.91500 31.10600
H  0.99200 5.11000 32.32900
H  2.30500 5.87300 31.21200
H  1.48700 4.48300 30.74900
H  -1.58600 7.74500 32.03200
H  -1.01400 9.28600 31.39800
H  -1.27600 8.41100 33.95900
H  -0.28600 9.81300 33.55400
H  -0.90000 1.56400 26.85600
H  -2.31700 2.50200 27.25200
H  -0.87800 2.39200 28.41400
H  -0.53500 0.93800 24.75300
H  -1.54600 1.11300 23.22600
H  -2.20900 1.44700 24.80300
H  -0.72100 7.66800 21.47400
H  0.40700 10.25900 21.94000
H  2.05200 8.74100 21.53000
H  1.19300 7.71400 20.30300
H  1.94200 7.11100 21.81700
H  -1.97200 10.74000 23.01600
H  -2.33800 9.07900 22.48900
H  -1.55200 10.41700 20.07800
H  -2.01600 11.69100 21.06600
H  -3.10300 10.31000 20.67100
H  0.60600 14.02000 25.96000
H  2.06200 13.28900 25.08200
H  2.11800 14.07200 26.72600
H  0.27100 11.21900 30.86900
H  4.16900 11.41700 32.81500
H  3.18800 11.22000 34.20300
H  3.44600 12.86100 33.58100
Mg -1.92900 34.22800 27.42600
C  -3.72400 32.41000 29.76200
C  -1.03600 36.34900 30.01800
C  -0.63000 36.32600 25.15600
C  -3.57700 32.37600 24.94300
N  -2.64800 34.53500 29.58500
C  -3.21900 33.55800 30.31300
C  -2.96600 33.80700 31.77500
C  -2.38100 35.30800 31.80100
C  -1.97400 35.43800 30.38700
C  -3.29500 36.39800 32.34200
C  -1.99000 32.74200 32.39500
C  -2.46700 31.74100 33.55900
H  -1.66700 31.92000 34.90100
N  -0.91100 35.98500 27.59500
C  -0.50900 36.56000 28.76400
C  0.51400 37.50800 28.37700
C  0.63900 37.61000 26.95900
C  -0.28500 36.59100 26.47200
C  1.26800 38.21200 29.49400
C  1.46800 38.51200 26.05700
O  1.43300 38.50000 24.80500
C  2.49900 39.33100 26.65500
N  -1.97200 34.23000 25.35000
C  -1.49800 35.31100 24.63500
C  -2.17000 35.39900 23.24700
C  -2.91800 33.98100 23.12400
C  -2.77100 33.49300 24.55600
C  -3.17000 36.63000 23.06300
C  -2.42300 32.89200 22.14300
C  -1.39700 31.86200 22.47700
N  -3.21700 32.51800 27.35900
C  -3.80000 31.90900 26.26800
C  -4.67300 30.80900 26.66700
C  -4.71200 30.90100 28.08200
C  -3.79700 31.98200 28.38800
C  -5.45000 29.99600 25.66000
C  -5.19300 30.38800 29.31400
O  -5.94500 29.40400 29.56900
C  -4.50500 31.27700 30.46500
C  -5.64100 31.66200 31.21400
O  -6.34800 32.60400 30.93200
O  -5.79700 30.95700 32.33600
C  -7.08800 31.21200 33.09400
H  -0.69700 36.99100 30.83300
H  -0.22500 37.03100 24.42800
H  -4.14100 31.88100 24.14900
H  -3.94400 33.80100 32.25700
H  -1.47600 35.35900 32.40700
H  -2.90500 36.71400 33.31000
H  -4.32300 36.03900 32.40400
H  -3.30500 37.17300 31.57600
H  -1.11700 33.23000 32.83100
H  -1.62800 32.00100 31.68300
H  -2.25400 30.74900 33.16200
H  -3.53400 31.84600 33.75600
H  1.41300 37.60200 30.38600
H  0.72600 39.13800 29.68100
H  2.30000 38.34300 29.16700
H  1.88000 39.95000 27.30500
H  3.02700 39.99100 25.96700
H  3.23600 38.85400 27.30100
H  -1.38300 35.49900 22.50000
H  -3.97800 34.07100 22.88800
H  -2.95000 37.36600 23.83700
H  -4.20600 36.37400 23.28300
H  -3.19700 37.19200 22.12900
H  -2.00100 33.38500 21.26600
H  -3.31200 32.34700 21.82500
H  -1.04200 32.09100 23.48200
H  -0.55000 31.86300 21.79100
H  -1.83500 30.86400 22.47600
H  -5.98500 29.25800 26.25800
H  -4.74700 29.44200 25.03900
H  -6.24500 30.45000 25.06800
H  -3.98300 30.60800 31.14900
H  -7.96200 31.24600 32.44300
H  -6.97900 32.05400 33.77800
H  -7.18300 30.30100 33.68500

