158

Mg 34.90000 3.91300 30.02800
C  32.41900 5.06700 32.26100
C  37.04300 3.67300 32.51800
C  37.24100 3.45000 27.83700
C  32.61100 4.73800 27.49600
N  34.71900 4.30600 32.17600
C  33.60100 4.69800 32.89800
C  33.95900 4.62800 34.37100
C  35.55800 4.50500 34.44500
C  35.79100 4.13000 32.96600
C  36.32500 5.77000 34.83500
C  33.16000 3.38400 34.89100
C  32.43300 3.55300 36.22500
H  33.01700 4.53300 37.16500
N  36.81600 3.44700 30.17400
C  37.52400 3.29200 31.25000
C  38.84800 2.86200 30.89500
C  38.90000 2.72900 29.50800
C  37.60900 3.21000 29.11200
C  39.89800 2.70500 32.04200
C  40.01300 2.26000 28.64300
O  39.90500 1.85300 27.50800
C  41.41500 2.09700 29.28000
N  34.92800 4.09700 27.95400
C  36.09000 3.90100 27.25400
C  35.90900 4.31400 25.75400
C  34.40100 4.77700 25.74200
C  33.95100 4.47100 27.14500
C  36.93500 5.42500 25.35400
C  33.49400 4.06700 24.62500
C  32.70300 2.80600 24.91300
N  32.81500 4.51600 29.82300
C  32.03800 4.81400 28.74900
C  30.72600 5.14400 29.16400
C  30.83700 5.21900 30.55700
C  32.15100 4.92600 30.88900
C  29.48900 5.41900 28.29100
C  30.06600 5.78600 31.71000
O  29.01000 6.41300 31.85400
C  31.05900 5.46400 32.88200
C  31.16900 6.66700 33.70700
O  32.06300 7.48300 33.64200
O  30.22900 6.75500 34.70100
C  30.45800 7.70700 35.83900
H  37.74400 3.64600 33.35500
H  38.01800 3.29700 27.08600
H  32.10500 5.19700 26.64400
H  33.51600 5.53500 34.78200
H  35.90800 3.64800 35.02200
H  36.92400 6.17300 34.01900
H  37.09800 5.60000 35.58500
H  35.73400 6.61700 35.18200
H  33.80400 2.55500 35.18400
H  32.46600 2.91700 34.19200
H  32.49600 2.64900 36.83100
H  31.41800 3.86200 35.97700
H  40.63300 1.93900 31.79500
H  39.50300 2.40400 33.01300
H  40.30700 3.62600 32.45900
H  42.08000 2.22900 28.42700
H  41.58600 1.08700 29.65400
H  41.73500 2.87700 29.97100
H  35.96100 3.40800 25.15100
H  34.36100 5.85000 25.55300
H  36.37300 6.34000 25.16500
H  37.34100 5.09300 24.39900
H  37.70900 5.62900 26.09400
H  34.13800 3.85800 23.77100
H  32.83500 4.80800 24.17100
H  31.64500 2.98800 24.72200
H  32.90100 2.54400 25.95300
H  33.00500 1.94200 24.32100
H  28.72900 4.65300 28.44600
H  29.76300 5.35800 27.23700
H  29.07200 6.42300 28.36000
H  30.68400 4.64600 33.49600
H  29.71100 7.41400 36.57600
H  30.30800 8.66600 35.34200
H  31.46300 7.59400 36.24700
Mg 50.12600 47.24700 43.40900
C  46.60600 47.19600 42.60200
C  50.24200 43.98500 42.53000
C  53.51200 47.37300 43.44800
C  49.82400 50.69700 43.56800
N  48.55900 45.86400 42.56600
C  47.26300 45.98400 42.38300
C  46.53700 44.70800 41.99700
C  47.64600 43.65700 42.32700
C  48.92200 44.58000 42.44700
C  47.44200 42.77200 43.58900
C  45.87500 44.57900 40.58000
C  46.68300 45.32600 39.47000
H  46.76200 44.58500 38.09600
N  51.72700 45.79200 43.15400
C  51.50300 44.48000 42.86500
C  52.73600 43.79200 42.79000
C  53.77400 44.72300 42.90900
C  53.05100 46.04000 43.27000
C  52.78800 42.34300 42.53600
C  55.29900 44.34500 42.85600
O  55.69400 43.21300 42.73100
C  56.26900 45.35000 43.32000
N  51.51400 48.79400 43.53900
C  52.83900 48.58800 43.60900
C  53.50700 49.97200 43.75400
C  52.36200 50.98800 43.91900
C  51.12600 50.09700 43.72500
C  54.71500 50.10700 44.80700
C  52.40600 52.16900 42.87700
C  52.03700 53.58500 43.39700
N  48.58300 48.75000 43.10600
C  48.58300 50.10800 43.30500
C  47.28000 50.64400 43.30000
C  46.44100 49.54900 42.98200
C  47.33000 48.41900 42.85900
C  46.84300 52.10600 43.51200
C  45.04000 49.13700 42.72600
O  43.97100 49.69300 42.73300
C  45.13600 47.58300 42.40400
C  44.19600 46.96600 43.34200
O  44.41700 46.65700 44.53600
O  42.99900 46.81200 42.68700
C  41.99100 45.91600 43.31100
H  50.08600 42.92800 42.30400
H  54.59500 47.39800 43.31300
H  49.76500 51.78200 43.68200
H  45.76500 44.57500 42.75500
H  47.66100 42.94200 41.50400
H  48.40700 42.72800 44.09300
H  47.20800 41.73600 43.34300
H  46.73700 43.15900 44.32600
H  44.81500 44.79800 40.71000
H  45.84800 43.52900 40.28900
H  47.67700 45.64200 39.78800
H  46.10200 46.22700 39.27300
H  52.04900 41.73800 43.06200
H  53.67100 41.84200 42.93400
H  52.70700 42.30100 41.45000
H  55.75400 45.60000 44.24800
H  56.38200 46.25900 42.73000
H  57.19400 44.84200 43.59300
H  54.10200 50.14600 42.85700
H  52.30900 51.44000 44.90900
H  55.09100 49.10700 45.02200
H  54.57600 50.57100 45.78400
H  55.54500 50.63400 44.33600
H  51.73100 52.03700 42.03100
H  53.39600 52.16300 42.42200
H  51.13100 53.90300 42.88100
H  52.81600 54.31900 43.19100
H  51.83000 53.60000 44.46700
H  47.34300 52.48200 44.40500
H  45.75600 52.09000 43.58800
H  47.20500 52.77800 42.73400
H  44.81400 47.35200 41.38800
H  42.21800 44.86400 43.13800
H  40.98200 46.07800 42.93000
H  41.90300 46.12200 44.37800

