158

Mg 35.46700 1.85600 29.31500
C  33.67100 3.20900 32.01600
C  38.32700 1.82400 31.31100
C  37.36200 1.41400 26.50100
C  32.71600 2.63200 27.23600
N  35.91400 2.36400 31.37500
C  35.02600 2.73800 32.34500
C  35.58300 2.65600 33.76000
C  37.10600 2.28900 33.53100
C  37.15900 2.12900 32.01700
C  38.24700 3.38400 33.90800
C  34.66200 1.60800 34.54100
C  34.40400 1.95900 36.02700
H  35.06800 3.19000 36.66600
N  37.58400 1.57900 28.97600
C  38.57200 1.56800 29.97200
C  39.82700 1.38000 29.34300
C  39.57700 1.29900 27.88900
C  38.13700 1.39700 27.70000
C  41.08300 1.13300 30.06800
C  40.68000 1.23200 26.83900
O  40.39900 1.11200 25.65100
C  42.13600 1.39300 27.14600
N  35.07200 1.78700 27.29500
C  35.99300 1.56600 26.29100
C  35.36400 1.72900 24.84300
C  33.89400 1.78600 25.25300
C  33.89600 2.14400 26.72900
C  35.86800 2.96300 24.06600
C  33.08800 0.50100 25.07500
C  33.05600 0.00500 23.63600
N  33.53100 2.63000 29.57000
C  32.54600 2.89700 28.58900
C  31.39900 3.43900 29.29000
C  31.73400 3.56000 30.68200
C  33.11100 3.10300 30.73100
C  30.14900 3.90700 28.61100
C  31.31300 4.03400 32.00900
O  30.19500 4.46600 32.27900
C  32.53900 3.74500 32.95000
C  32.79600 5.03300 33.73400
O  33.67900 5.82500 33.46200
O  31.83800 5.24300 34.70100
C  31.84300 6.59300 35.35000
H  39.22200 1.80500 31.93600
H  38.04100 1.41700 25.64600
H  31.79000 2.68000 26.66000
H  35.47600 3.65000 34.19200
H  37.32300 1.39900 34.12300
H  37.91800 4.13900 34.62200
H  38.78500 3.78900 33.05200
H  39.07400 2.90800 34.43500
H  35.24400 0.68800 34.48400
H  33.72200 1.47000 34.00700
H  34.61900 1.05400 36.59600
H  33.31800 2.05300 36.01100
H  41.66900 0.24900 29.81600
H  40.83700 0.88100 31.10000
H  41.65400 2.06200 30.05500
H  42.42600 1.98800 28.01200
H  42.57600 1.81000 26.24100
H  42.57100 0.41400 27.35000
H  35.50400 0.80400 24.28400
H  33.44300 2.58700 24.66700
H  36.37900 3.59300 24.79400
H  35.04400 3.57900 23.70700
H  36.47600 2.88800 23.16400
H  32.08400 0.73400 25.43100
H  33.54100 -0.25900 25.71300
H  32.04500 0.04700 23.23100
H  33.37000 -1.03900 23.65400
H  33.58400 0.57700 22.87300
H  29.49500 3.04600 28.47100
H  30.26300 4.30900 27.60400
H  29.62200 4.68400 29.16400
H  32.22400 2.89300 33.55200
H  31.79500 7.31200 34.53200
H  32.75500 6.52100 35.94300
H  30.99100 6.78000 36.00300
Mg 16.83000 51.72800 26.25200
C  18.43100 50.20700 28.90800
C  14.60800 53.19000 28.37600
C  15.06300 52.79400 23.59800
C  19.03900 50.09600 24.12100
N  16.49400 51.44000 28.35900
C  17.26200 50.85900 29.29300
C  16.87700 51.28800 30.68500
C  15.49800 52.01300 30.48100
C  15.57100 52.32300 28.96300
C  14.27300 51.18200 30.78700
C  17.88200 52.27800 31.42900
C  17.98200 52.12200 32.91800
H  17.01100 51.20600 33.63900
N  15.03700 52.81700 26.05500
C  14.26900 53.39800 27.07100
C  13.16300 54.23400 26.54500
C  13.32000 54.12700 25.10400
C  14.50200 53.22900 24.89300
C  12.23300 55.04200 27.33800
C  12.46700 54.76000 24.03200
O  12.59200 54.40500 22.79300
C  11.27100 55.71600 24.38300
N  17.00900 51.46800 24.20300
C  16.22200 51.98800 23.31400
C  16.64200 51.66800 21.89400
C  18.12600 51.30100 22.05500
C  18.02600 50.83000 23.52600
C  15.71000 50.54900 21.19500
C  19.10200 52.54400 21.98600
C  20.38900 52.27000 21.19200
N  18.49800 50.37200 26.43800
C  19.33200 49.82000 25.51500
C  20.39800 49.15800 26.15600
C  20.13000 49.28700 27.51800
C  18.89200 49.99700 27.58700
C  21.56000 48.42700 25.49500
C  20.62600 49.06000 28.90700
O  21.68800 48.61800 29.29600
C  19.48500 49.53000 29.84900
C  19.04600 48.41700 30.68200
O  18.72800 47.31400 30.25700
O  19.17900 48.70400 31.99400
C  18.92400 47.59400 32.89400
H  13.95800 53.86300 28.93800
H  14.48200 53.05000 22.70900
H  19.86400 49.83500 23.45600
H  16.63400 50.40800 31.28100
H  15.45000 52.92500 31.07600
H  14.49200 50.37600 31.48800
H  14.00100 50.67900 29.85900
H  13.54500 51.89300 31.17900
H  17.57100 53.30800 31.25500
H  18.86600 52.30000 30.96200
H  17.92900 53.07500 33.44500
H  19.01800 51.84200 33.11400
H  11.26100 54.92900 26.85600
H  12.47200 56.10500 27.32800
H  12.19400 54.66400 28.35900
H  11.57000 56.51900 25.05700
H  10.51900 55.05000 24.80600
H  10.84600 56.25200 23.53500
H  16.62300 52.59000 21.31300
H  18.29100 50.52100 21.31200
H  14.64600 50.64300 21.41600
H  16.12900 49.65200 21.65200
H  15.95000 50.50800 20.13300
H  19.39700 52.89700 22.97400
H  18.50100 53.30500 21.48700
H  20.26100 52.68500 20.19200
H  20.67200 51.22100 21.27900
H  21.16700 52.87200 21.66200
H  21.41600 48.41500 24.41500
H  21.54300 47.38700 25.82200
H  22.55000 48.83600 25.69800
H  19.89300 50.31200 30.48900
H  17.84100 47.47400 32.94500
H  19.24200 48.05900 33.82700
H  19.48700 46.68400 32.68800

