158

Mg 3.01300 -0.68300 43.66000
C  6.31000 0.39700 43.25900
C  1.90100 2.09400 41.84600
C  -0.07000 -2.10400 43.41500
C  4.18900 -3.60800 45.03800
N  3.95700 0.91700 42.43400
C  5.30500 1.22000 42.56800
C  5.50800 2.63500 42.14600
C  4.18500 3.28700 42.06000
C  3.27400 2.02600 42.17900
C  3.86200 4.37400 43.14600
C  6.33900 2.78800 40.84000
C  5.81700 2.18600 39.54800
H  5.71700 3.16700 38.38300
N  1.08900 -0.02700 42.83600
C  0.85400 1.15400 42.16600
C  -0.54100 1.23100 41.83700
C  -1.17600 -0.05300 42.24700
C  -0.07600 -0.78200 42.94500
C  -1.11800 2.47700 41.21200
C  -2.56100 -0.44000 41.95200
O  -3.28900 0.32400 41.39500
C  -3.08000 -1.85100 42.23400
N  2.22300 -2.69100 44.04300
C  0.92600 -2.99700 43.95900
C  0.65600 -4.47600 44.13800
C  2.01000 -4.94300 44.69900
C  2.89700 -3.69800 44.59600
C  -0.57900 -4.78300 44.97300
C  2.74500 -6.13800 43.85900
C  3.59700 -7.08100 44.67800
N  4.94100 -1.52300 44.13600
C  5.23000 -2.55500 44.86200
C  6.64700 -2.61600 45.10500
C  7.12000 -1.46800 44.48500
C  6.01300 -0.80200 43.94500
C  7.33700 -3.64500 45.84400
C  8.27200 -0.66500 44.24500
O  9.46800 -0.82700 44.55700
C  7.80800 0.64600 43.43600
C  8.16100 1.86800 44.22500
O  8.79700 2.83700 43.83200
O  7.98400 1.64500 45.59400
C  8.56800 2.65400 46.45300
H  1.57000 2.96000 41.26900
H  -1.04400 -2.59900 43.39400
H  4.45000 -4.56200 45.50100
H  6.02600 3.10600 42.98200
H  4.09600 3.86600 41.14100
H  3.40600 5.19600 42.59300
H  4.76100 4.71800 43.65700
H  3.10700 4.05400 43.86400
H  7.28500 2.27600 41.01200
H  6.66400 3.80200 40.60800
H  4.82300 1.77600 39.72400
H  6.44800 1.32400 39.33400
H  -0.87700 2.52200 40.15000
H  -0.75500 3.38800 41.68800
H  -2.19300 2.57800 41.36400
H  -4.04700 -1.92900 41.73700
H  -3.19700 -2.08600 43.29200
H  -2.41500 -2.53300 41.70400
H  0.57500 -4.93700 43.15300
H  1.87600 -5.28200 45.72600
H  -1.16300 -3.92400 45.30200
H  -0.23200 -5.30300 45.86500
H  -1.28500 -5.38100 44.39700
H  3.29500 -5.80200 42.98000
H  2.02800 -6.80200 43.37500
H  3.30300 -8.11900 44.52700
H  3.66800 -6.82600 45.73600
H  4.61700 -7.06100 44.29300
H  7.57300 -4.56200 45.30500
H  6.60000 -3.92400 46.59700
H  8.21300 -3.21600 46.33100
H  8.34600 0.69200 42.48900
H  9.65700 2.68500 46.45300
H  8.28200 2.55500 47.50100
H  8.11500 3.59600 46.14400
Mg 46.78800 34.53600 28.44000
C  45.43700 32.74500 31.07200
C  47.15700 37.22900 30.53700
C  47.79800 36.50000 25.84400
C  46.08700 31.97900 26.36000
N  46.24800 34.85700 30.60000
C  45.83200 33.97700 31.51400
C  45.98900 34.61600 32.96500
C  45.97000 36.14700 32.58600
C  46.53800 36.07600 31.09700
C  44.59600 36.83100 32.57600
C  47.18200 34.11800 33.75000
C  47.16300 33.72400 35.19600
H  46.70800 34.81600 36.10500
N  47.35800 36.62100 28.22600
C  47.54900 37.51400 29.20200
C  48.09500 38.73300 28.68300
C  48.36500 38.52000 27.29700
C  47.81900 37.20100 27.03700
C  48.47100 39.92600 29.47500
C  48.98300 39.47600 26.28200
O  49.24400 39.09300 25.16800
C  49.40400 40.74800 26.68500
N  46.94400 34.31200 26.38300
C  47.47400 35.18900 25.48500
C  47.57400 34.58200 24.02900
C  46.96600 33.12800 24.25100
C  46.60100 33.15300 25.74500
C  46.63500 35.41200 23.10400
C  47.97000 32.00000 23.80200
C  47.45800 31.00500 22.74100
N  45.95500 32.72300 28.60700
C  45.85800 31.74300 27.66900
C  45.34200 30.60800 28.28000
C  45.00700 30.94800 29.59000
C  45.52900 32.20900 29.76100
C  44.92400 29.27700 27.63900
C  44.51700 30.48800 30.89300
O  44.04800 29.42400 31.27600
C  44.51800 31.78200 31.80200
C  44.92100 31.42600 33.12800
O  46.01700 30.99500 33.46700
O  43.90100 31.64300 33.99000
C  44.01500 30.96200 35.25900
H  47.31600 38.03600 31.25500
H  48.04400 37.07900 24.95100
H  45.83300 31.22200 25.61500
H  45.08000 34.41100 33.53000
H  46.72900 36.67600 33.16200
H  44.67400 37.70100 33.22800
H  43.80000 36.21300 32.99100
H  44.20300 37.14300 31.60900
H  48.10800 34.68300 33.63700
H  47.44600 33.12300 33.39400
H  48.05800 33.17900 35.49600
H  46.31200 33.04300 35.20600
H  49.54600 40.06200 29.35800
H  48.21100 39.84500 30.53100
H  48.01700 40.85100 29.12100
H  49.85000 41.22400 25.81200
H  50.16200 40.69800 27.46700
H  48.47100 41.22300 26.98700
H  48.54400 34.59300 23.53300
H  46.05200 33.02400 23.66500
H  46.48400 36.38700 23.56700
H  45.61200 35.03800 23.09400
H  46.96200 35.54800 22.07300
H  48.20300 31.40700 24.68700
H  48.90700 32.45300 23.47800
H  47.15600 30.11900 23.30000
H  48.14800 30.62500 21.98700
H  46.61600 31.35400 22.14300
H  45.41600 29.06800 26.68900
H  43.86200 29.34400 27.40100
H  45.17500 28.48300 28.34200
H  43.47700 32.10500 31.82000
H  44.50300 29.99800 35.11100
H  43.01400 30.64600 35.55300
H  44.47600 31.51900 36.07500

