158

Mg 1.19700 8.58100 27.50100
C  2.16600 10.84700 30.01400
C  1.62200 6.12800 29.64400
C  0.76500 6.65300 24.92500
C  1.54400 11.32500 25.27100
N  1.81300 8.50300 29.63500
C  1.96500 9.51400 30.50100
C  1.88100 9.09100 31.93300
C  2.14400 7.55000 31.69800
C  1.80000 7.32300 30.23300
C  3.64000 7.09700 32.06500
C  0.50700 9.49200 32.48300
C  0.29200 9.58000 33.99800
H  1.49600 9.17500 34.87500
N  1.15500 6.55800 27.32400
C  1.42400 5.70100 28.31400
C  1.33000 4.30700 27.82700
C  1.02200 4.39000 26.43400
C  0.98600 5.91700 26.13500
C  1.61200 3.09800 28.68900
C  0.86100 3.34100 25.36400
O  0.33900 3.55700 24.23400
C  1.12800 1.89200 25.71700
N  1.33200 8.92600 25.43900
C  0.94500 7.94200 24.63400
C  0.99500 8.35400 23.13500
C  0.97000 9.92600 23.22800
C  1.32800 10.08100 24.71000
C  2.22200 7.77400 22.42400
C  -0.37300 10.58500 22.99400
C  -0.39300 11.85300 22.10500
N  1.71400 10.69100 27.57500
C  1.80700 11.65200 26.62200
C  2.18200 12.94900 27.15300
C  2.36200 12.64700 28.49400
C  2.03100 11.29400 28.73700
C  2.20500 14.19300 26.38400
C  2.78000 13.16300 29.78600
O  3.25000 14.22900 30.17300
C  2.56700 12.08600 30.84200
C  3.74700 11.87300 31.76200
O  4.77800 11.20500 31.58800
O  3.42900 12.46700 32.95000
C  4.62500 12.61800 33.84900
H  1.68300 5.22000 30.24700
H  0.61200 5.98000 24.07800
H  1.48800 12.22800 24.66000
H  2.63400 9.51800 32.59500
H  1.48900 6.93300 32.31300
H  3.65700 6.71700 33.08700
H  4.20000 8.03200 32.03200
H  4.08400 6.34400 31.41400
H  -0.24800 8.80800 32.09200
H  0.20200 10.48000 32.13900
H  -0.57200 9.01100 34.34300
H  0.14000 10.61700 34.29800
H  1.04700 2.24300 28.31700
H  1.21500 3.26000 29.69100
H  2.68300 2.90200 28.73300
H  2.06200 1.73600 26.25700
H  1.22300 1.36800 24.76600
H  0.24600 1.59300 26.28300
H  0.08100 7.98700 22.66700
H  1.66400 10.34400 22.49900
H  2.57000 8.38000 21.58700
H  1.74600 6.90800 21.96300
H  2.99000 7.54000 23.16100
H  -0.83700 10.82400 23.95100
H  -1.14300 9.95900 22.54400
H  -0.25400 11.40300 21.12200
H  0.51500 12.44800 22.21100
H  -1.30600 12.36400 22.40900
H  1.24600 14.70900 26.42300
H  2.46300 14.08400 25.33100
H  2.89600 14.91000 26.82800
H  1.76200 12.38400 31.51300
H  5.31500 13.33400 33.40200
H  5.15500 11.73600 34.20900
H  4.29400 13.08800 34.77500
Mg -1.25900 35.35700 26.85800
C  -3.26000 33.53800 29.00700
C  -0.08000 37.19600 29.58400
C  0.51700 37.20400 24.73300
C  -2.59600 33.44900 24.19800
N  -1.70000 35.39900 29.01600
C  -2.49600 34.51000 29.67200
C  -2.24100 34.54300 31.21600
C  -1.51800 35.89800 31.37500
C  -1.05100 36.17900 29.87800
C  -2.37300 37.00800 32.01000
C  -1.60100 33.24900 31.74500
C  -2.32400 32.37000 32.81000
H  -1.65300 32.05800 34.15400
N  0.00300 37.03000 27.12800
C  0.41300 37.64100 28.32800
C  1.41100 38.63000 27.96600
C  1.70200 38.57400 26.57700
C  0.71000 37.57900 26.11100
C  2.02900 39.45200 29.09400
C  2.70800 39.32300 25.77400
O  2.80300 39.24200 24.56600
C  3.66100 40.20400 26.48400
N  -1.23600 35.53800 24.76600
C  -0.30300 36.27100 24.10000
C  -0.14700 35.83400 22.63900
C  -1.05800 34.56300 22.49100
C  -1.73200 34.49600 23.88400
C  -0.55400 36.98200 21.72000
C  -0.36700 33.21700 22.00400
C  0.65300 32.61100 23.00900
N  -2.73900 33.92700 26.59000
C  -3.23900 33.24400 25.43400
C  -4.09600 32.13500 25.83200
C  -4.11500 32.24400 27.21900
C  -3.29200 33.28300 27.63700
C  -4.48200 31.11100 24.86200
C  -4.62000 31.63000 28.41300
O  -5.37200 30.69600 28.57600
C  -4.12000 32.49500 29.60100
C  -5.32300 33.10300 30.26600
O  -6.11100 33.90500 29.75600
O  -5.45300 32.51600 31.55100
C  -6.61200 33.03600 32.34200
H  0.36000 37.67800 30.45900
H  1.12300 37.68000 23.96000
H  -2.88300 32.86600 23.32000
H  -3.19000 34.61600 31.74700
H  -0.63400 35.79000 32.00400
H  -2.01100 37.07100 33.03600
H  -3.42700 36.73200 32.03400
H  -2.47000 37.83800 31.31100
H  -0.62000 33.54500 32.11600
H  -1.47600 32.58000 30.89300
H  -2.53200 31.35400 32.47500
H  -3.30900 32.80300 32.98400
H  1.54200 39.39700 30.06800
H  1.82400 40.50100 28.87900
H  3.10200 39.26800 29.04000
H  3.18900 40.97200 27.09700
H  4.08000 40.89600 25.75200
H  4.39200 39.71000 27.12300
H  0.88700 35.56900 22.42000
H  -1.77400 34.70600 21.68200
H  -0.74200 37.96700 22.14500
H  -1.50400 36.75200 21.23700
H  0.21700 37.13000 20.96400
H  0.25000 33.39000 21.12300
H  -1.06700 32.43200 21.71900
H  0.35900 31.67500 23.48300
H  0.63900 33.32000 23.83700
H  1.58600 32.57200 22.44700
H  -5.04900 31.57900 24.05700
H  -5.24300 30.46200 25.29500
H  -3.62200 30.63200 24.39500
H  -3.54000 31.82500 30.23600
H  -6.24900 33.76300 33.06800
H  -7.17100 32.19000 32.74100
H  -7.31600 33.67100 31.80300

