158

Mg 2.10500 -1.28000 44.05100
C  5.37200 -0.08600 43.63400
C  0.96300 1.49900 42.25300
C  -0.91800 -2.72200 43.52900
C  3.27200 -4.23700 45.14100
N  3.07200 0.40400 42.90200
C  4.40300 0.81900 43.03700
C  4.66100 2.14400 42.29600
C  3.24800 2.64500 42.01600
C  2.33400 1.43400 42.33100
C  2.90900 3.95900 42.84800
C  5.55100 2.00700 41.09000
C  5.31100 0.81000 40.10100
H  5.77900 0.88500 38.68200
N  0.20100 -0.63600 43.23800
C  -0.04400 0.54200 42.56500
C  -1.47300 0.69100 42.36700
C  -2.05300 -0.56000 42.66300
C  -0.90700 -1.37700 43.14900
C  -2.06000 2.00100 41.82700
C  -3.47000 -0.91200 42.40200
O  -4.21500 -0.00400 42.02500
C  -4.03500 -2.26600 42.56700
N  1.31000 -3.24000 44.25200
C  0.01900 -3.57100 44.09500
C  -0.38800 -4.92900 44.66100
C  0.92900 -5.34100 45.32100
C  1.94600 -4.22800 44.88800
C  -1.64800 -4.84900 45.61200
C  1.33500 -6.73000 44.93100
C  1.67000 -7.67100 46.11400
N  3.87400 -2.01500 44.51800
C  4.29100 -3.23100 45.02500
C  5.66800 -3.28700 45.29100
C  6.13400 -2.12000 44.69600
C  5.05500 -1.32000 44.30300
C  6.47500 -4.38300 45.98200
C  7.36100 -1.35500 44.35300
O  8.49600 -1.65000 44.49800
C  6.82900 0.03100 43.72200
C  7.23400 0.99300 44.67800
O  7.23800 0.88300 45.90600
O  7.36300 2.15900 43.95800
C  7.39800 3.46800 44.70700
H  0.62900 2.47800 41.90200
H  -1.86900 -3.21600 43.31800
H  3.61500 -5.17000 45.59300
H  5.10100 2.77100 43.07100
H  3.11800 2.95200 40.97800
H  3.79200 4.51600 43.16300
H  2.39000 3.74500 43.78200
H  2.21700 4.56200 42.26000
H  6.58500 2.01000 41.43500
H  5.27600 2.91500 40.55400
H  4.24500 0.61600 40.22000
H  5.92100 -0.03500 40.41700
H  -2.19400 1.98500 40.74500
H  -1.37000 2.84400 41.81000
H  -3.06200 2.23100 42.19100
H  -5.12000 -2.18800 42.50400
H  -3.77600 -2.51300 43.59600
H  -3.58400 -2.92800 41.82800
H  -0.48300 -5.62500 43.82800
H  0.97000 -5.35400 46.41000
H  -2.36600 -4.12200 45.23300
H  -1.33300 -4.49600 46.59400
H  -2.19800 -5.78600 45.71000
H  2.26200 -6.61500 44.36800
H  0.57500 -7.19300 44.30200
H  2.74900 -7.79100 46.22100
H  1.14000 -8.59300 45.87800
H  1.29100 -7.31100 47.07000
H  7.28800 -3.90400 46.52700
H  6.93000 -5.08000 45.27800
H  5.82000 -4.94600 46.64800
H  7.38700 0.16400 42.79500
H  7.97600 3.39200 45.62700
H  6.41600 3.91400 44.86900
H  7.90500 4.08200 43.96200
Mg -0.99200 34.05000 27.01000
C  -2.66600 32.45800 29.72700
C  0.36900 36.26200 29.21500
C  0.27800 35.79100 24.32600
C  -2.77500 32.05400 24.81500
N  -1.22600 34.38000 29.14500
C  -1.87000 33.57200 30.07900
C  -1.40800 33.93100 31.49500
C  -0.60500 35.29000 31.31000
C  -0.45600 35.32200 29.79800
C  -1.28300 36.50100 31.95600
C  -0.76600 32.80100 32.39600
C  -0.62800 33.11300 33.86000
H  -1.65200 32.39600 34.76300
N  0.28800 35.60400 26.84000
C  0.71600 36.43700 27.85000
C  1.60900 37.43000 27.34400
C  1.52600 37.38800 25.93100
C  0.69900 36.19700 25.64200
C  2.45600 38.37000 28.32700
C  2.23400 38.27900 24.88600
O  2.09100 38.14200 23.63800
C  3.23600 39.30100 25.41600
N  -1.17500 33.97200 24.87600
C  -0.60400 34.77600 23.96200
C  -0.93700 34.37100 22.56500
C  -1.47500 32.85800 22.75200
C  -1.87600 32.93800 24.25500
C  -1.92500 35.32900 21.84700
C  -0.51700 31.67500 22.39900
C  0.43600 30.98400 23.46600
N  -2.52300 32.66400 27.13600
C  -3.17600 31.96000 26.19800
C  -4.06800 31.02000 26.81400
C  -3.90300 31.23400 28.19600
C  -2.95900 32.19200 28.39600
C  -4.90900 29.93200 26.16900
C  -4.40700 30.76100 29.49700
O  -5.30000 30.00000 29.76500
C  -3.53400 31.55200 30.50800
C  -4.51600 32.25700 31.45800
O  -5.21300 33.17600 31.17600
O  -4.58300 31.63200 32.67600
C  -5.45900 32.26300 33.65600
H  1.00000 36.76400 29.95100
H  0.55700 36.34200 23.42500
H  -3.21700 31.27500 24.19000
H  -2.30000 34.19600 32.06400
H  0.31200 35.11600 31.87200
H  -2.30800 36.38600 32.30900
H  -1.38100 37.26000 31.17900
H  -0.63100 37.01700 32.66100
H  0.27600 32.70400 32.09000
H  -1.37700 31.90900 32.25700
H  -0.87800 34.15800 34.04200
H  0.33200 32.99500 34.36300
H  2.31900 38.21600 29.39700
H  2.09100 39.38000 28.14000
H  3.52600 38.29900 28.13400
H  3.63000 39.89400 24.59000
H  4.04200 38.75500 25.90500
H  2.67300 39.84800 26.17300
H  0.05200 34.37100 22.10800
H  -2.41500 32.75200 22.21000
H  -2.69500 34.77300 21.31200
H  -1.35900 35.92700 21.13300
H  -2.37500 35.93300 22.63500
H  0.15600 32.14100 21.67800
H  -1.14100 30.95500 21.86900
H  0.23200 31.40800 24.44900
H  1.50700 31.01100 23.26600
H  0.10300 29.94900 23.54000
H  -4.93800 29.93500 25.08000
H  -5.96100 30.02900 26.43600
H  -4.63400 28.96600 26.59400
H  -2.89800 30.85400 31.05200
H  -5.01200 32.05500 34.62800
H  -6.49300 31.92400 33.60300
H  -5.44500 33.34200 33.49800

