158

Mg 36.55400 0.95300 29.68600
C  34.31000 2.39000 31.97200
C  38.90600 1.18100 32.06700
C  38.76200 -0.00600 27.36900
C  34.07000 1.15000 27.12200
N  36.61400 1.78200 31.77200
C  35.55900 2.17300 32.51700
C  35.84300 2.20200 33.99700
C  37.35500 2.05000 33.94700
C  37.67200 1.67100 32.50600
C  38.22100 3.10400 34.57600
C  35.04400 1.09800 34.77100
C  34.31800 1.48100 36.08500
H  34.81900 2.73300 36.82500
N  38.43700 0.47400 29.75000
C  39.23600 0.53600 30.86000
C  40.57200 0.02600 30.54300
C  40.53400 -0.31700 29.19300
C  39.13400 -0.02300 28.71200
C  41.70900 0.12800 31.59700
C  41.76000 -0.80900 28.30900
O  41.68900 -0.92700 27.06600
C  43.07600 -1.11600 28.91000
N  36.42000 0.73100 27.49900
C  37.54400 0.38600 26.79800
C  37.20200 0.19800 25.31000
C  35.69600 0.42700 25.22500
C  35.34800 0.77900 26.67000
C  38.09200 1.00700 24.36200
C  34.85000 -0.75000 24.71400
C  34.14800 -1.77100 25.70400
N  34.58900 1.64800 29.49100
C  33.68000 1.65900 28.45200
C  32.41400 2.26200 28.96100
C  32.64100 2.47100 30.33000
C  33.93900 2.15300 30.61600
C  31.14400 2.29100 28.15600
C  31.97700 2.92400 31.51900
O  30.81500 3.19900 31.68000
C  33.01700 2.78200 32.64500
C  33.08100 4.11200 33.32300
O  33.70600 5.08900 32.93000
O  32.14700 4.12100 34.39500
C  31.79600 5.44500 34.93800
H  39.67400 1.16100 32.84400
H  39.47400 -0.09100 26.54600
H  33.27900 1.18800 26.36900
H  35.58900 3.16600 34.43700
H  37.70800 1.16100 34.47000
H  38.79500 2.63300 35.37500
H  37.59900 3.92200 34.93800
H  38.99600 3.40700 33.87300
H  35.72800 0.29000 35.03000
H  34.31500 0.62400 34.11400
H  34.44400 0.69800 36.83200
H  33.28100 1.52200 35.75100
H  42.32800 -0.76500 31.51200
H  41.39600 0.09400 32.64000
H  42.46000 0.87600 31.34400
H  43.50200 -0.32500 29.52700
H  43.75200 -1.37900 28.09600
H  43.03300 -2.02700 29.50700
H  37.48600 -0.85000 25.20600
H  35.46700 1.24800 24.54500
H  38.66900 0.30900 23.75500
H  38.72800 1.69400 24.92000
H  37.48600 1.67400 23.74900
H  35.57200 -1.31600 24.12500
H  34.02800 -0.38100 24.10100
H  33.10400 -1.95500 25.45000
H  34.28400 -1.58100 26.76900
H  34.56100 -2.77200 25.57800
H  31.13100 1.86700 27.15200
H  30.78000 3.31900 28.16300
H  30.51300 1.72700 28.84200
H  32.58100 2.14100 33.41100
H  32.49400 5.61200 35.75800
H  30.74200 5.43500 35.21700
H  31.87200 6.20200 34.15800
Mg 46.31200 24.80400 28.56800
C  47.09500 27.21200 31.22900
C  45.17600 22.77200 30.86500
C  46.81400 22.32200 26.37200
C  47.91000 26.96600 26.41800
N  46.35000 24.92300 30.85400
C  46.48800 26.04500 31.72700
C  45.92500 25.75600 33.04800
C  45.35800 24.31000 32.94700
C  45.63400 23.96500 31.44400
C  45.81900 23.27000 33.93700
C  44.92600 26.85900 33.57400
C  45.34600 27.57100 34.86100
H  44.23100 27.83500 35.85600
N  45.74500 22.86700 28.56300
C  45.19900 22.18400 29.64200
C  44.74200 20.93600 29.18300
C  45.35300 20.72600 27.82900
C  46.11900 21.96800 27.54100
C  43.85500 19.93500 30.00400
C  45.39900 19.43100 26.98200
O  45.90100 19.47600 25.82800
C  44.79900 18.15700 27.52300
N  47.23800 24.67800 26.62300
C  47.33200 23.55600 25.93700
C  47.80000 23.80100 24.49100
C  47.92000 25.39100 24.40100
C  47.63600 25.76800 25.92400
C  49.08200 22.97400 24.05000
C  46.96900 26.01100 23.31700
C  45.60000 26.61600 23.71500
N  47.29100 26.78200 28.74700
C  47.75500 27.50600 27.70400
C  48.20900 28.75400 28.29200
C  47.99100 28.68800 29.67200
C  47.42500 27.45200 29.90100
C  48.67300 29.98300 27.52000
C  48.16500 29.45900 30.91100
O  48.60600 30.55000 31.19300
C  47.51300 28.46000 31.96200
C  48.62800 28.15100 32.92200
O  49.59400 27.42100 32.64500
O  48.44300 28.70200 34.11700
C  49.11300 28.00200 35.24900
H  44.66700 22.14700 31.60100
H  46.78500 21.52100 25.63100
H  48.30500 27.70000 25.71300
H  46.81800 25.73500 33.67300
H  44.30800 24.59700 33.00900
H  46.81800 22.98600 33.60800
H  45.07400 22.48300 34.04800
H  45.86100 23.70700 34.93500
H  43.95800 26.39600 33.76200
H  44.98400 27.57300 32.75300
H  45.62700 28.61500 34.72300
H  46.16900 27.06300 35.36400
H  42.99300 19.57800 29.44000
H  43.42700 20.49900 30.83200
H  44.53800 19.17400 30.38200
H  45.05400 17.92700 28.55700
H  45.15000 17.40100 26.82100
H  43.71200 18.07700 27.55000
H  46.88800 23.55600 23.94700
H  48.90600 25.68300 24.03900
H  48.83000 22.11100 23.43400
H  49.66500 22.50300 24.84200
H  49.78200 23.60200 23.49900
H  46.71200 25.27000 22.56000
H  47.56300 26.71200 22.73000
H  45.35300 26.34900 24.74300
H  44.79600 26.20400 23.10500
H  45.63400 27.68700 23.51300
H  47.92300 30.08400 26.73500
H  49.69500 29.80600 27.18600
H  48.52500 30.87800 28.12400
H  46.72400 28.84700 32.60600
H  48.23400 27.72300 35.83000
H  49.72000 28.66900 35.86100
H  49.51800 27.00100 35.09900

