158

Mg 16.88000 -1.09200 27.15300
C  16.13300 1.08500 29.89900
C  19.22800 -2.60300 29.20800
C  18.32900 -2.56300 24.48400
C  15.58400 1.43600 25.10500
N  17.71900 -0.61200 29.27700
C  17.07600 0.14000 30.24700
C  17.62200 -0.27300 31.66600
C  18.69300 -1.37900 31.37500
C  18.61500 -1.46700 29.84100
C  20.23800 -1.05100 31.73800
C  16.54400 -0.73500 32.69200
C  16.42600 0.06100 33.97400
H  17.62100 0.39100 34.95100
N  18.36100 -2.63400 26.96300
C  19.16400 -3.12300 27.91600
C  19.90200 -4.21600 27.42900
C  19.61400 -4.21300 26.00100
C  18.72800 -3.15500 25.75200
C  20.82800 -4.95600 28.30600
C  20.21800 -5.09000 24.94000
O  19.83400 -5.00600 23.75800
C  21.20200 -6.16500 25.30200
N  16.88800 -0.63700 25.06200
C  17.43900 -1.52600 24.13400
C  17.23800 -1.02500 22.78300
C  16.25200 0.18900 22.92800
C  16.15900 0.31100 24.45100
C  18.48300 -0.54500 21.93800
C  14.85000 0.03700 22.36400
C  14.60700 -0.61800 21.03100
N  15.79400 0.75700 27.40600
C  15.29900 1.63200 26.49400
C  14.53500 2.62700 27.19900
C  14.78700 2.48400 28.54800
C  15.62200 1.33400 28.60800
C  13.69700 3.75400 26.61700
C  14.61000 3.07400 29.87900
O  14.04700 4.10900 30.23300
C  15.41300 2.10000 30.82200
C  16.27300 2.97300 31.71300
O  17.39100 3.37300 31.45600
O  15.66100 3.28100 32.88700
C  16.45300 4.10900 33.81400
H  19.92900 -3.13300 29.85600
H  18.76500 -2.90600 23.54400
H  15.12900 2.11500 24.38000
H  18.06200 0.66000 32.01900
H  18.50600 -2.35600 31.82200
H  20.09300 -0.44200 32.63000
H  20.61900 -0.38800 30.96000
H  20.90200 -1.89100 31.93700
H  16.59400 -1.78300 32.98700
H  15.56100 -0.66200 32.22700
H  15.81400 -0.50800 34.67400
H  15.83800 0.93200 33.68300
H  21.19600 -5.93100 27.98900
H  20.60500 -5.21500 29.34100
H  21.73100 -4.35100 28.38400
H  21.67000 -6.67000 24.45700
H  20.57600 -6.91400 25.78700
H  21.89000 -5.74400 26.03600
H  16.71400 -1.85300 22.30500
H  16.70600 1.11900 22.58500
H  19.46000 -0.73700 22.38200
H  18.54400 0.50400 21.64500
H  18.41000 -1.16900 21.04800
H  14.52700 1.06200 22.18600
H  14.20500 -0.41300 23.11900
H  13.84400 -0.14900 20.41000
H  14.33000 -1.65100 21.24300
H  15.50700 -0.51000 20.42600
H  12.64500 3.51800 26.45800
H  14.12600 4.04400 25.65800
H  13.84500 4.68000 27.17300
H  14.71800 1.67300 31.54600
H  16.42600 5.14800 33.48600
H  17.44300 3.66200 33.90700
H  16.10600 4.04600 34.84500
Mg 36.02300 49.65000 25.37700
C  36.23900 47.49200 28.22600
C  34.38800 51.83600 27.20000
C  35.39200 51.34700 22.50000
C  37.35600 47.02200 23.55200
N  35.36900 49.64300 27.48800
C  35.65100 48.73600 28.47700
C  35.39000 49.39400 29.77400
C  34.77300 50.80700 29.46000
C  34.88500 50.79900 27.96600
C  33.28700 51.03300 29.94100
C  36.60500 49.54100 30.70400
C  36.58400 48.72300 31.99900
H  35.27800 48.68400 32.76400
N  35.05100 51.32000 24.93000
C  34.48500 52.16800 25.84200
C  34.11600 53.50300 25.17600
C  34.40400 53.32600 23.79600
C  35.01800 51.94600 23.69700
C  33.57300 54.59000 26.00800
C  33.95000 54.24800 22.65500
O  34.28400 54.12500 21.48800
C  33.10200 55.38100 23.01700
N  36.27200 49.22500 23.32300
C  35.96000 50.05800 22.28400
C  36.33200 49.37100 20.97100
C  37.25000 48.10300 21.38800
C  37.04700 48.14600 22.85600
C  35.10300 48.85600 20.19900
C  38.80200 48.27400 20.98900
C  39.52300 46.95900 20.88300
N  36.65900 47.68300 25.73700
C  37.14400 46.75900 24.85100
C  37.37800 45.49600 25.54900
C  37.11200 45.75700 26.85500
C  36.57900 47.08100 26.97300
C  37.97100 44.22500 24.88500
C  37.07700 45.19900 28.20100
O  37.48900 44.12600 28.62600
C  36.42200 46.27600 29.14200
C  35.17400 45.65500 29.80300
O  34.10100 45.50700 29.26700
O  35.41500 45.36500 31.10600
C  34.37100 44.74800 31.94100
H  33.88100 52.56300 27.83900
H  35.16400 51.94500 21.61500
H  37.64300 46.20900 22.88200
H  34.65300 48.73600 30.23500
H  35.35400 51.57800 29.96600
H  33.38900 51.89500 30.59900
H  32.86700 50.16800 30.45400
H  32.71300 51.35000 29.07000
H  36.72600 50.54400 31.11500
H  37.48700 49.20400 30.16000
H  37.32500 49.12200 32.69100
H  36.88800 47.69900 31.78300
H  32.50700 54.37100 26.06000
H  33.72800 55.61900 25.68300
H  33.89500 54.49100 27.04500
H  32.21500 55.13900 23.60200
H  32.71700 55.79100 22.08400
H  33.66300 56.05700 23.66300
H  36.82800 50.16000 20.40500
H  36.82300 47.16300 21.03800
H  34.42300 48.50500 20.97600
H  35.36200 47.95000 19.65000
H  34.84100 49.65200 19.50200
H  39.24100 49.09300 21.56000
H  38.77500 48.63300 19.96000
H  40.13700 46.82900 21.77400
H  40.10800 46.86900 19.96800
H  38.77800 46.16700 20.81600
H  37.67500 44.14600 23.83900
H  37.69900 43.41200 25.55800
H  39.04200 44.42500 24.84500
H  37.15500 46.53500 29.90600
H  33.52400 44.21700 31.50600
H  34.04200 45.59400 32.54500
H  34.78800 44.09700 32.70900

