158

Mg 47.54500 16.26200 29.46800
C  45.61900 16.04200 32.22500
C  49.97900 18.01900 31.37700
C  49.43700 16.75500 26.59000
C  45.02200 14.91300 27.47700
N  47.73300 17.02600 31.55500
C  46.83300 16.68900 32.50000
C  47.24800 17.35400 33.89700
C  48.52600 18.19200 33.58900
C  48.73900 17.80600 32.05700
C  48.43200 19.69200 33.87400
C  47.52600 16.18700 34.91500
C  48.12500 16.62000 36.24300
H  48.09700 18.04200 36.90100
N  49.43500 17.19500 29.03400
C  50.31100 17.68700 29.98000
C  51.64300 17.90200 29.33800
C  51.52900 17.58900 27.95000
C  50.05800 17.18900 27.78000
C  52.85500 18.35300 30.07000
C  52.51900 17.60200 26.71200
O  52.22800 17.20600 25.60700
C  53.98300 18.15300 27.00700
N  47.17200 16.02700 27.25400
C  48.15700 16.23000 26.32500
C  47.56600 16.03100 24.95800
C  46.24500 15.20800 25.14800
C  46.13200 15.33100 26.70800
C  47.54000 17.32000 24.03800
C  46.26400 13.71700 24.62700
C  44.92900 13.38200 23.90400
N  45.78600 15.47700 29.74000
C  44.82300 14.97600 28.84700
C  43.69800 14.50200 29.67400
C  43.98300 14.96900 30.98300
C  45.25000 15.49800 30.95900
C  42.50500 13.78900 29.13300
C  43.33300 15.11100 32.27100
O  42.26600 14.70000 32.66800
C  44.47000 15.79800 33.17800
C  43.97100 17.07500 33.83000
O  43.79400 18.15600 33.26300
O  44.02400 16.92900 35.19900
C  43.80200 18.10400 36.03300
H  50.81700 18.47100 31.91200
H  49.94500 16.88000 25.63200
H  44.22400 14.37900 26.95600
H  46.44600 18.01700 34.22200
H  49.45500 17.85800 34.05000
H  48.50200 20.20000 32.91300
H  49.27500 20.08800 34.44100
H  47.50800 19.99200 34.36800
H  48.22100 15.52700 34.39600
H  46.58700 15.66000 35.08400
H  49.21200 16.55300 36.21000
H  47.67500 15.93900 36.96600
H  52.61900 18.94000 30.95700
H  53.46100 19.07800 29.52600
H  53.49400 17.50100 30.30000
H  54.64900 18.24900 26.14900
H  54.50200 17.59900 27.78900
H  53.92500 19.11000 27.52600
H  48.32300 15.41700 24.47100
H  45.40800 15.77700 24.74300
H  47.66900 18.20900 24.65500
H  46.58000 17.31500 23.52200
H  48.34300 17.26700 23.30200
H  46.35100 13.15000 25.55400
H  47.11100 13.54400 23.96400
H  44.85400 13.94700 22.97500
H  44.03800 13.65200 24.47100
H  44.86300 12.31100 23.71400
H  42.58600 12.82800 29.64100
H  42.42500 13.62000 28.06000
H  41.56400 14.23200 29.45800
H  44.69200 15.00000 33.88700
H  44.77600 18.50000 36.32300
H  43.19000 17.77000 36.87200
H  43.21200 18.88400 35.55400
Mg 47.69300 24.93800 28.90300
C  48.37200 27.38800 31.25600
C  46.51000 22.93200 31.42800
C  47.36600 22.66500 26.58300
C  48.96400 27.19000 26.38600
N  47.34200 25.22500 31.05500
C  47.74100 26.28200 31.84200
C  47.29600 26.12300 33.31600
C  46.72800 24.72200 33.33300
C  46.82800 24.24500 31.85600
C  47.50200 23.70300 34.21200
C  46.55900 27.34700 33.92500
C  45.51100 26.95400 35.00700
H  45.23800 27.94600 36.12500
N  46.95200 23.05400 29.03100
C  46.53100 22.39400 30.11800
C  46.05100 21.03000 29.76300
C  46.31700 20.90600 28.30000
C  46.93800 22.22900 27.88200
C  45.51600 19.98800 30.63200
C  46.02700 19.83500 27.28600
O  46.58000 19.76000 26.21100
C  45.15600 18.73700 27.66900
N  48.11800 24.96000 26.76400
C  47.92800 23.82200 26.05900
C  48.21300 24.00800 24.56300
C  48.34200 25.56700 24.55500
C  48.57000 25.93900 25.98700
C  49.43500 23.23600 24.06400
C  47.06700 26.30300 23.97000
C  47.33300 27.16600 22.70100
N  48.54400 26.84100 28.77200
C  49.02000 27.57600 27.75500
C  49.53600 28.84500 28.25700
C  49.42000 28.76800 29.65900
C  48.70000 27.61700 29.89100
C  50.03500 30.06400 27.47800
C  49.70800 29.44900 30.91100
O  50.31900 30.55000 31.03300
C  49.03100 28.53700 32.04100
C  49.96100 28.07700 33.06500
O  50.59900 27.06500 32.89600
O  50.22500 29.04000 34.07700
C  51.38200 28.79400 34.93800
H  46.16100 22.36100 32.29200
H  47.27300 22.05100 25.68500
H  49.29200 27.89900 25.62300
H  48.22700 26.03000 33.87500
H  45.68500 24.68100 33.64800
H  48.15100 23.12700 33.55400
H  46.80700 22.98500 34.64800
H  48.19900 24.18600 34.89800
H  45.99400 27.91800 33.18900
H  47.28100 27.98600 34.43200
H  45.79000 25.93900 35.28800
H  44.54600 26.83400 34.51400
H  44.48800 19.84800 30.30000
H  45.54200 20.16100 31.70800
H  46.12000 19.09300 30.48100
H  45.75100 18.18900 28.39900
H  44.89400 18.24500 26.73200
H  44.30100 19.15400 28.20200
H  47.28800 23.70400 24.07400
H  49.23300 25.82000 23.98000
H  50.25300 23.94300 23.93100
H  49.30900 22.68200 23.13400
H  49.72700 22.61400 24.91100
H  46.61600 26.94500 24.72600
H  46.28900 25.58600 23.70600
H  46.55100 27.92300 22.74600
H  47.22400 26.53100 21.82200
H  48.24300 27.75400 22.82100
H  50.03200 29.79400 26.42200
H  51.01700 30.44000 27.76600
H  49.25500 30.80600 27.65100
H  48.32400 29.09300 32.65600
H  51.19700 27.84700 35.44500
H  51.48100 29.55900 35.70900
H  52.32600 28.78100 34.39200

