158

Mg 36.78100 49.65600 24.95100
C  37.25700 47.64900 27.94900
C  35.49500 51.97900 27.05800
C  36.40600 51.46100 22.30400
C  38.02600 46.89300 23.11300
N  36.28700 49.69700 27.22100
C  36.67200 48.83800 28.23700
C  36.22700 49.39300 29.57600
C  35.77800 50.80900 29.25900
C  35.86300 50.81300 27.74800
C  34.31700 51.22600 29.72800
C  37.22200 49.18200 30.78500
C  37.35500 50.27800 31.86800
H  36.26300 50.38300 32.98500
N  35.99400 51.42100 24.68800
C  35.56800 52.29200 25.70000
C  35.16500 53.52100 25.19400
C  35.35800 53.42000 23.76600
C  35.98200 52.08400 23.48000
C  34.84700 54.76400 26.03600
C  35.09100 54.37200 22.66600
O  35.14200 54.08500 21.49500
C  34.72700 55.83700 22.91200
N  36.89900 49.11900 23.06300
C  36.81500 50.14000 22.14900
C  37.02700 49.58500 20.72900
C  37.70000 48.23000 20.95300
C  37.57800 48.06700 22.50500
C  35.78500 49.66600 19.78000
C  39.25300 48.26500 20.53700
C  40.30700 49.00500 21.31800
N  37.59800 47.66000 25.32400
C  38.02600 46.68200 24.47200
C  38.50800 45.54100 25.26600
C  38.26600 45.93500 26.64900
C  37.63600 47.20800 26.63900
C  39.04700 44.32700 24.66500
C  38.26900 45.39400 28.02500
O  38.67900 44.36600 28.50500
C  37.66900 46.53400 28.91700
C  36.54000 46.09900 29.77400
O  35.42200 45.93800 29.39200
O  37.02100 45.92700 31.09200
C  36.03100 45.39800 32.04200
H  35.14100 52.75700 27.73800
H  36.33300 51.98900 21.35100
H  38.46200 46.13100 22.46500
H  35.32100 48.86600 29.87500
H  36.41800 51.62100 29.60400
H  33.73400 51.31800 28.81100
H  34.26500 52.22400 30.16300
H  33.74000 50.48900 30.28800
H  38.23700 48.96300 30.45600
H  36.87000 48.36300 31.41300
H  37.24100 51.26000 31.41100
H  38.39000 50.21100 32.20300
H  35.33200 55.60100 25.53500
H  35.33800 54.73900 27.00900
H  33.77400 54.82300 26.22000
H  34.01100 55.90100 23.73200
H  34.09900 56.25100 22.12300
H  35.62400 56.42400 23.10800
H  37.72000 50.27200 20.24300
H  37.14600 47.39100 20.53200
H  35.08300 50.37100 20.22600
H  35.34700 48.66800 19.78600
H  36.01100 49.96300 18.75600
H  39.21700 48.67600 19.52800
H  39.63200 47.24700 20.45000
H  41.09200 48.32900 21.65800
H  39.65100 49.40200 22.09300
H  40.74500 49.85600 20.79600
H  39.84800 44.52600 23.95400
H  38.31700 43.62500 24.26200
H  39.55300 43.71900 25.41500
H  38.48600 46.92700 29.52100
H  35.43300 44.59500 31.61000
H  35.46400 46.21600 32.48500
H  36.43000 44.84500 32.89300
Mg -11.37000 38.20300 41.25200
C  -9.36100 35.38600 40.61100
C  -8.99600 40.17500 39.93500
C  -13.64500 40.62400 40.90500
C  -13.85300 35.99600 42.25900
N  -9.38200 37.81700 40.37700
C  -8.69900 36.56900 40.27100
C  -7.28000 36.83200 39.59400
C  -7.23700 38.43900 39.57200
C  -8.63900 38.87700 39.98900
C  -6.12900 38.91700 40.63400
C  -7.30300 36.21300 38.15000
C  -6.12300 35.19700 37.83400
H  -5.19000 35.60800 36.77600
N  -11.18000 40.27400 40.88200
C  -10.19100 40.82300 40.28100
C  -10.40700 42.24700 40.11400
C  -11.80000 42.47700 40.32700
C  -12.31100 41.10600 40.73500
C  -9.38700 43.26700 39.55700
C  -12.56700 43.76400 40.13000
O  -12.02100 44.88300 39.85900
C  -14.05400 43.73500 40.18700
N  -13.52300 38.35900 41.48900
C  -14.23200 39.45600 41.35700
C  -15.73300 39.09000 41.32800
C  -15.78500 37.63700 41.99500
C  -14.27500 37.31400 41.90600
C  -16.72000 40.13300 42.05100
C  -16.70100 36.57700 41.33200
C  -17.93200 36.34200 42.19300
N  -11.59100 36.18500 41.53700
C  -12.60700 35.46400 42.03300
C  -12.20100 34.08600 42.35100
C  -10.95700 33.96400 41.65800
C  -10.57300 35.31200 41.27800
C  -12.97700 33.06300 43.11600
C  -9.83700 33.09100 41.31200
O  -9.68700 31.91400 41.57000
C  -8.84800 33.92900 40.51900
C  -7.46300 33.75400 40.99200
O  -6.60600 33.12700 40.43000
O  -7.25300 34.46400 42.13200
C  -5.92900 34.23500 42.81200
H  -8.20400 40.85100 39.60700
H  -14.47300 41.25200 40.56900
H  -14.52000 35.20500 42.60700
H  -6.52100 36.28600 40.15400
H  -6.94300 38.85100 38.60700
H  -5.10300 38.66500 40.36500
H  -6.52100 38.44700 41.53600
H  -6.20800 39.98100 40.86000
H  -7.23200 37.03300 37.43600
H  -8.27000 35.72000 38.05600
H  -6.58300 34.23600 37.60500
H  -5.54700 34.96600 38.73000
H  -9.65400 43.47900 38.52200
H  -8.34900 42.99700 39.75300
H  -9.39300 44.12100 40.23500
H  -14.44400 44.75200 40.15700
H  -14.30500 43.32100 41.16400
H  -14.47900 43.09900 39.41100
H  -16.00500 39.15900 40.27500
H  -15.87300 37.83800 43.06300
H  -17.10300 40.74900 41.23800
H  -16.24100 40.82600 42.74300
H  -17.59700 39.63400 42.46200
H  -16.25500 35.60100 41.13600
H  -17.12100 37.04600 40.44200
H  -18.01900 35.26700 42.34500
H  -18.83900 36.75100 41.74600
H  -17.87100 36.72200 43.21300
H  -14.04000 33.29600 43.17300
H  -12.58400 33.00900 44.13100
H  -12.69000 32.09800 42.69700
H  -8.76400 33.59800 39.48400
H  -5.11100 33.90700 42.17000
H  -6.05200 33.55000 43.65100
H  -5.49000 35.16700 43.16900

