158

Mg 43.80100 4.15600 47.52300
C  41.55600 6.91700 47.27300
C  41.01700 2.19200 48.03600
C  45.72700 1.48200 47.26400
C  46.36300 6.28500 46.87300
N  41.54400 4.57100 47.62100
C  40.90600 5.74700 47.44300
C  39.40000 5.55700 47.63800
C  39.22500 4.03600 47.90900
C  40.66600 3.53800 47.90600
C  38.28700 3.60500 49.10700
C  38.47800 6.11800 46.54900
C  38.96900 6.09300 45.13300
H  38.53900 7.21000 44.16900
N  43.43100 2.09900 47.70300
C  42.22500 1.50600 47.89200
C  42.51400 0.05800 48.02200
C  43.84900 -0.20100 47.69900
C  44.39800 1.14500 47.58700
C  41.48300 -1.00700 48.30200
C  44.52900 -1.55800 47.70700
O  43.89800 -2.55900 48.00300
C  45.89300 -1.84800 47.26700
N  45.69800 3.91200 46.84800
C  46.27800 2.67500 47.04300
C  47.81600 2.82400 47.08700
C  48.04700 4.39700 46.88800
C  46.63500 4.92000 46.85500
C  48.54800 2.18400 48.36400
C  48.87800 4.73200 45.56900
C  50.32500 4.99100 45.86100
N  43.96300 6.20800 46.97000
C  45.13600 7.00100 46.86500
C  44.76600 8.40700 46.76100
C  43.39400 8.39500 46.86600
C  42.90800 7.09900 46.98100
C  45.69700 9.58500 46.63800
C  42.29400 9.23700 47.06000
O  42.27800 10.46600 47.13900
C  40.98200 8.32200 47.14600
C  40.07900 8.72800 48.33000
O  40.24600 8.46900 49.47800
O  38.96600 9.39200 47.78900
C  38.07300 9.97300 48.73800
H  40.11700 1.57600 48.09400
H  46.40800 0.63100 47.20800
H  47.25000 6.90800 46.74500
H  39.10500 6.08800 48.54300
H  38.69700 3.59300 47.06400
H  37.91000 4.53700 49.52800
H  38.85800 3.05100 49.85200
H  37.48500 2.92900 48.80900
H  38.07700 7.10900 46.76200
H  37.53400 5.57800 46.47600
H  38.49200 5.22000 44.68900
H  40.02900 5.84300 45.07900
H  41.65400 -1.44500 49.28500
H  41.51700 -1.60900 47.39400
H  40.45700 -0.64000 48.26400
H  46.73500 -1.45700 47.83700
H  46.00700 -1.41900 46.27100
H  45.93800 -2.93500 47.19300
H  48.32300 2.28000 46.29000
H  48.51900 4.66700 47.83200
H  47.75800 1.94500 49.07600
H  49.26900 2.80700 48.89300
H  49.00000 1.25600 48.01600
H  48.54600 5.71400 45.23200
H  48.71600 4.03600 44.74700
H  50.89000 4.83700 44.94100
H  50.76100 4.40900 46.67300
H  50.38300 6.03600 46.16700
H  46.49400 9.29800 45.95100
H  46.18600 9.66800 47.60900
H  45.19600 10.51900 46.38400
H  40.35400 8.35100 46.25600
H  38.59000 10.32100 49.63200
H  37.39800 9.17000 49.03400
H  37.62700 10.79100 48.17300
Mg -12.32300 37.99800 41.91500
C  -10.23300 35.40700 40.83300
C  -10.28000 40.21000 40.15200
C  -14.52800 40.41600 42.50500
C  -14.24700 35.69700 43.44200
N  -10.59400 37.73800 40.58100
C  -9.88900 36.61300 40.29400
C  -8.83800 36.86100 39.19400
C  -8.71200 38.43300 39.33900
C  -10.02200 38.87000 40.03900
C  -7.44200 38.84700 40.21300
C  -9.03200 36.23500 37.76900
C  -7.78800 35.47900 37.17200
H  -6.78600 36.37600 36.30500
N  -12.34400 40.12600 41.50000
C  -11.41300 40.76800 40.81600
C  -11.84800 42.16800 40.81200
C  -13.16400 42.30400 41.44800
C  -13.39000 40.91000 41.88800
C  -11.02900 43.14800 40.16700
C  -13.94200 43.54800 41.73400
O  -13.51800 44.66000 41.44000
C  -15.30800 43.54400 42.34900
N  -14.14100 38.05400 42.69100
C  -14.89200 39.14600 42.88500
C  -16.21100 38.80500 43.72600
C  -16.12800 37.24700 43.94200
C  -14.77700 36.98500 43.29900
C  -16.19100 39.64400 44.94000
C  -17.21300 36.39200 43.26900
C  -17.91500 35.33600 44.09200
N  -12.32400 35.90600 42.06900
C  -13.07800 35.13500 42.93000
C  -12.53600 33.76800 43.09600
C  -11.32600 33.80600 42.32200
C  -11.31800 35.10200 41.67900
C  -12.99700 32.64900 43.99600
C  -10.15500 33.17500 41.81800
O  -9.73400 32.03900 42.01700
C  -9.55300 34.07800 40.65400
C  -8.03000 34.14600 40.77100
O  -7.24200 34.79600 41.46200
O  -7.57000 33.17300 39.90800
C  -6.11900 33.07600 39.83200
H  -9.58200 40.87300 39.63700
H  -15.32200 41.15000 42.65400
H  -14.81400 34.91200 43.94600
H  -7.88000 36.49500 39.56300
H  -8.67000 38.93800 38.37400
H  -6.81200 38.05200 40.61300
H  -7.82300 39.39200 41.07600
H  -6.81500 39.55200 39.66700
H  -9.26100 36.93300 36.96300
H  -9.78500 35.44900 37.81400
H  -8.14200 34.64700 36.56300
H  -7.24100 35.01200 37.99100
H  -11.66200 43.98600 39.87600
H  -10.48000 42.86700 39.26800
H  -10.29700 43.40000 40.93400
H  -15.97600 42.91200 41.76300
H  -15.66400 44.56000 42.52300
H  -15.26400 43.09400 43.34000
H  -17.09500 39.08000 43.15100
H  -16.07200 37.05700 45.01300
H  -15.13000 39.75300 45.16900
H  -16.60100 39.05900 45.76300
H  -16.73200 40.58900 44.89600
H  -16.74200 35.80900 42.47700
H  -17.88900 37.08800 42.77300
H  -17.96100 35.52200 45.16500
H  -17.61700 34.28900 44.03000
H  -18.91000 35.25700 43.65500
H  -12.36200 31.77100 43.87500
H  -14.03600 32.39800 43.78400
H  -13.11400 32.98200 45.02700
H  -9.95400 33.66500 39.72900
H  -5.69800 32.67400 40.75400
H  -5.74500 34.08400 39.65300
H  -5.87300 32.29100 39.11700

