158

Mg 17.11700 52.67200 25.64500
C  19.06300 51.22100 28.36500
C  14.75300 53.44800 28.20000
C  15.17700 53.96100 23.31300
C  19.35400 51.51100 23.49100
N  16.94000 52.34600 27.97800
C  17.88400 51.75100 28.82300
C  17.56600 52.06300 30.27000
C  15.99000 52.48700 30.14800
C  15.88100 52.75500 28.66700
C  14.95500 51.40400 30.56100
C  18.42300 53.16000 31.01500
C  18.67400 52.85100 32.50300
H  17.75900 53.50200 33.55100
N  15.21700 53.64500 25.74200
C  14.48200 53.95400 26.85900
C  13.30100 54.69100 26.44200
C  13.36300 54.87100 24.99100
C  14.61000 54.09100 24.60300
C  12.31500 55.23300 27.46600
C  12.50200 55.44600 23.98200
O  12.84300 55.75900 22.85500
C  11.05400 55.79000 24.43500
N  17.12800 52.52800 23.72200
C  16.26600 53.17300 22.92400
C  16.64200 52.90700 21.46800
C  18.02900 52.28000 21.53300
C  18.21200 52.10600 23.02500
C  15.50000 52.09100 20.85500
C  19.22000 53.18100 21.03800
C  19.27400 54.71300 21.45800
N  18.88800 51.57600 25.87600
C  19.71300 51.24300 24.83500
C  20.81700 50.58600 25.41300
C  20.59400 50.53200 26.75600
C  19.45500 51.17700 27.01900
C  21.89800 49.94800 24.75600
C  21.09400 50.01100 28.06200
O  22.05300 49.26700 28.32800
C  20.16300 50.72800 29.17100
C  19.71500 49.77900 30.24600
O  18.86900 48.90600 30.09300
O  20.46600 50.08000 31.30600
C  20.13900 49.18800 32.47100
H  13.95300 53.76900 28.87000
H  14.61600 54.39600 22.48300
H  20.22300 51.36300 22.84700
H  17.61100 51.11800 30.81200
H  15.73600 53.42600 30.64100
H  15.37800 50.55700 31.10100
H  14.38100 50.97700 29.73900
H  14.14600 51.78500 31.18400
H  17.88600 54.09900 30.88300
H  19.39800 53.23300 30.53400
H  19.73700 53.03000 32.66400
H  18.48800 51.78400 32.62800
H  11.35300 54.98600 27.01800
H  12.52100 56.30100 27.53000
H  12.34400 54.69100 28.41100
H  11.00600 56.44500 25.30500
H  10.36200 54.97600 24.65400
H  10.49800 56.29000 23.64200
H  16.66300 53.86600 20.95100
H  18.05500 51.26600 21.13500
H  15.05400 51.45000 21.61500
H  15.85400 51.46400 20.03700
H  14.70700 52.77500 20.55100
H  19.27600 53.31100 19.95700
H  20.15600 52.63800 21.16700
H  19.31600 55.37600 20.59400
H  20.24300 54.79700 21.94900
H  18.59100 55.21100 22.14600
H  22.76500 49.80300 25.40100
H  22.35100 50.54500 23.96500
H  21.59700 48.99400 24.32500
H  20.75800 51.57700 29.50800
H  19.06900 49.07400 32.64700
H  20.58200 49.55100 33.39800
H  20.67900 48.25600 32.30400
Mg -1.02700 35.21100 27.48700
C  -2.53900 33.40300 29.81000
C  0.19300 37.39600 29.70000
C  -0.02000 37.23200 24.79700
C  -2.60600 33.17100 24.99600
N  -1.23300 35.35000 29.45500
C  -1.82000 34.48800 30.31000
C  -1.56200 34.85600 31.76200
C  -0.89000 36.25200 31.70400
C  -0.54400 36.30300 30.15800
C  -1.68000 37.48300 32.16400
C  -0.68300 33.84300 32.56500
C  -1.24100 33.36900 33.95100
H  -0.29700 33.30700 35.17700
N  0.08000 36.93600 27.24500
C  0.46500 37.69500 28.33800
C  1.24300 38.86900 27.88400
C  1.18900 38.80800 26.43900
C  0.33000 37.66100 26.11000
C  2.04400 39.73200 28.78900
C  1.81400 39.66000 25.43500
O  1.81700 39.35100 24.24600
C  2.67500 40.77400 25.81500
N  -1.25200 35.08200 25.29300
C  -0.62800 36.03900 24.44100
C  -0.93700 35.70800 22.91400
C  -1.47700 34.21400 23.06400
C  -1.83700 34.17500 24.52000
C  -2.00500 36.65100 22.29700
C  -0.42000 33.16100 22.68500
C  -0.87700 31.96200 21.88600
N  -2.25700 33.57500 27.35700
C  -2.87200 32.85800 26.33100
C  -3.76600 31.84600 26.84600
C  -3.57800 31.99800 28.20800
C  -2.78600 33.10800 28.45900
C  -4.61900 30.84600 26.19200
C  -3.97500 31.43200 29.46400
O  -4.67300 30.50700 29.72600
C  -3.29000 32.38500 30.60100
C  -4.48900 32.98400 31.31600
O  -5.07600 34.03000 31.00100
O  -4.81600 32.39900 32.48000
C  -6.05100 32.96300 33.02200
H  0.75000 37.99100 30.42700
H  0.36900 37.70800 23.89500
H  -3.14400 32.55000 24.27700
H  -2.53400 34.80200 32.25200
H  0.09300 36.17400 32.16800
H  -1.23200 38.47600 32.12200
H  -2.12000 37.37500 33.15500
H  -2.54300 37.54200 31.50000
H  0.27600 34.23300 32.90600
H  -0.41300 32.97800 31.95900
H  -1.65600 32.38300 33.74100
H  -2.09200 33.96400 34.28100
H  2.03300 39.32500 29.80000
H  1.51200 40.68000 28.71500
H  3.07200 39.94000 28.49500
H  3.50700 40.38300 26.40100
H  2.09600 41.48500 26.40400
H  2.97700 41.31000 24.91600
H  -0.09200 35.90600 22.25500
H  -2.37500 34.07100 22.46300
H  -2.68500 36.11700 21.63300
H  -1.54200 37.39600 21.65100
H  -2.53000 37.11300 23.13300
H  -0.05800 32.74800 23.62700
H  0.37100 33.76700 22.24400
H  -0.09000 31.63300 21.20700
H  -1.83700 32.09500 21.38700
H  -1.06100 31.05500 22.46200
H  -4.32600 29.82000 26.41800
H  -4.57800 31.05400 25.12300
H  -5.63500 31.02100 26.54600
H  -2.70000 31.81300 31.31700
H  -6.73800 33.16300 32.20000
H  -5.90700 33.90800 33.54800
H  -6.44700 32.18000 33.66900

