158

Mg 24.98500 -7.95000 47.51900
C  26.81900 -5.46900 46.04000
C  22.31200 -7.26100 45.09500
C  23.29300 -10.78200 48.33600
C  27.89600 -9.27700 48.85900
N  24.66100 -6.64700 45.52200
C  25.53400 -5.53000 45.41400
C  24.93500 -4.52700 44.36900
C  23.43800 -4.99500 44.20600
C  23.44100 -6.39600 45.03100
C  22.43700 -3.96100 44.71400
C  25.67400 -4.41200 43.04700
C  25.58900 -2.97000 42.39300
H  24.98200 -2.87000 41.03500
N  23.08100 -8.82900 46.94300
C  22.20400 -8.45800 45.88500
C  21.05000 -9.34200 45.90800
C  21.24700 -10.29100 46.91300
C  22.60000 -9.98700 47.49500
C  19.90100 -9.09000 45.03100
C  20.26400 -11.40500 47.29600
O  19.18100 -11.32500 46.80700
C  20.57700 -12.41200 48.38600
N  25.46700 -9.71700 48.66700
C  24.62800 -10.74700 48.71900
C  25.33100 -11.96800 49.48700
C  26.78300 -11.50400 49.78700
C  26.73200 -10.08300 49.13500
C  24.56700 -12.53100 50.77500
C  27.86900 -12.36100 49.13600
C  27.88900 -12.51500 47.53700
N  26.88900 -7.42200 47.71500
C  28.00200 -7.97300 48.25700
C  29.12900 -7.04500 48.19300
C  28.66600 -6.04000 47.40500
C  27.33200 -6.35700 47.03000
C  30.46900 -7.27900 48.87400
C  29.09700 -4.75400 46.81900
O  30.17000 -4.14700 46.90900
C  27.91900 -4.30600 45.80700
C  27.44900 -2.92000 46.09400
O  27.71400 -1.96700 45.36400
O  26.58100 -2.80400 47.18600
C  25.72100 -1.64000 47.44300
H  21.47100 -7.01300 44.44400
H  22.94400 -11.71400 48.78600
H  28.89200 -9.66000 49.09000
H  24.97200 -3.50600 44.75000
H  23.25700 -5.21200 43.15300
H  22.90300 -3.20700 45.34900
H  21.63600 -4.37300 45.32700
H  21.89200 -3.55600 43.86100
H  25.25600 -5.18700 42.40500
H  26.73100 -4.60400 43.23200
H  26.58800 -2.56200 42.23900
H  25.04900 -2.32900 43.08900
H  20.22000 -8.65200 44.08500
H  19.28700 -8.34800 45.54100
H  19.23400 -9.93300 44.85100
H  21.26400 -13.21500 48.11900
H  19.61400 -12.92200 48.39300
H  20.80400 -12.00300 49.37100
H  25.45300 -12.72000 48.70700
H  26.97000 -11.39800 50.85500
H  23.70300 -11.91200 51.01600
H  25.26600 -12.60000 51.60900
H  24.25600 -13.57500 50.71600
H  27.86300 -13.36200 49.56700
H  28.78700 -11.83200 49.39400
H  28.64700 -11.81900 47.17800
H  27.07600 -12.01700 47.00900
H  28.01200 -13.56200 47.25900
H  30.80000 -6.35100 49.34100
H  31.27800 -7.43200 48.15900
H  30.42700 -8.10100 49.58900
H  28.24200 -4.40900 44.77100
H  24.84100 -1.88200 48.03900
H  25.44900 -1.17800 46.49400
H  26.35900 -0.97000 48.01800
Mg -10.07200 17.05900 42.88900
C  -6.73700 17.94800 42.69600
C  -10.81200 20.41400 42.25400
C  -13.08200 16.14600 42.26800
C  -9.08400 13.68600 42.82600
N  -8.90900 18.90700 42.38100
C  -7.55100 19.02500 42.44400
C  -7.07900 20.46100 42.17800
C  -8.41500 21.21300 42.42600
C  -9.47500 20.15300 42.29900
C  -8.34700 21.96000 43.80100
C  -6.52200 20.60500 40.69500
C  -5.02000 20.83000 40.55600
H  -4.26800 19.85200 39.58200
N  -11.71800 18.15400 42.25000
C  -11.89900 19.52000 42.17800
C  -13.31700 19.79200 41.81700
C  -13.96700 18.50700 41.68000
C  -12.92300 17.53200 42.05300
C  -13.87100 21.24200 41.57000
C  -15.44500 18.38800 41.32600
O  -16.16800 19.36900 41.21700
C  -16.02200 16.97500 41.00200
N  -10.95700 15.17800 42.46300
C  -12.22600 15.09100 42.50200
C  -12.71700 13.76600 42.81700
C  -11.47900 12.89500 43.00900
C  -10.43000 13.95300 42.65000
C  -13.76200 13.79100 44.02200
C  -11.45200 11.58100 42.18100
C  -11.29900 10.26800 43.08800
N  -8.33600 16.01400 42.83200
C  -8.03000 14.63300 42.79600
C  -6.58400 14.38800 42.97000
C  -6.07900 15.64100 42.90400
C  -7.14800 16.60000 42.79300
C  -5.92000 13.00200 43.20500
C  -4.77500 16.38500 42.98200
O  -3.60400 15.86300 43.02800
C  -5.21500 17.91100 42.95400
C  -4.90700 18.49700 44.30000
O  -5.11500 18.00500 45.42400
O  -4.55500 19.79300 44.09900
C  -3.84700 20.39400 45.27100
H  -11.12900 21.44700 42.09600
H  -14.13100 15.84100 42.28200
H  -8.73800 12.67100 43.03400
H  -6.27700 20.86100 42.79800
H  -8.61900 22.04700 41.75500
H  -7.87800 22.93000 43.63800
H  -7.86700 21.36000 44.57500
H  -9.33100 22.16200 44.22400
H  -6.95800 21.46000 40.17700
H  -6.70600 19.66300 40.17800
H  -4.47300 20.88700 41.49700
H  -4.85000 21.83200 40.16200
H  -13.32100 22.00900 42.11500
H  -14.90400 21.30800 41.91100
H  -13.75900 21.53800 40.52700
H  -15.24500 16.39900 40.50000
H  -16.91900 17.25100 40.44600
H  -16.28600 16.56100 41.97500
H  -13.36500 13.40000 42.02000
H  -11.32600 12.71600 44.07300
H  -13.54500 14.57300 44.75000
H  -13.48400 12.85100 44.50000
H  -14.81700 13.92200 43.78200
H  -10.63600 11.50000 41.46300
H  -12.35000 11.54900 41.56400
H  -10.85600 10.55900 44.04000
H  -10.63000 9.54400 42.62300
H  -12.34200 9.95200 43.08400
H  -4.85300 13.05300 42.99200
H  -6.36700 12.30900 42.49200
H  -6.08700 12.62400 44.21300
H  -4.63900 18.45300 42.20500
H  -4.53500 20.53600 46.10500
H  -3.33300 21.33500 45.07700
H  -3.05900 19.71100 45.59000

