158

Mg 47.33600 44.54500 44.11300
C  43.91400 44.20000 43.59600
C  47.65900 41.16400 43.05900
C  50.69000 44.94400 43.88600
C  46.85800 48.03300 44.41100
N  45.87700 42.94800 43.49400
C  44.56900 42.98000 43.43300
C  43.92300 41.73700 42.91800
C  45.09100 40.76800 43.26000
C  46.32100 41.69300 43.27000
C  45.04800 39.95100 44.63100
C  43.65400 41.78800 41.36700
C  42.28500 41.38400 40.87900
H  42.18500 40.93600 39.36500
N  48.95800 43.20500 43.53400
C  48.88000 41.89600 43.16900
C  50.20200 41.35400 42.92100
C  51.06000 42.46600 43.09700
C  50.26600 43.57400 43.59900
C  50.39800 39.88200 42.58400
C  52.58400 42.44900 42.77100
O  53.07000 41.48000 42.15900
C  53.46700 43.56700 43.10400
N  48.58700 46.27000 44.07300
C  49.90100 46.14000 44.05100
C  50.61600 47.47900 44.05400
C  49.39800 48.40400 44.41000
C  48.19000 47.54400 44.25500
C  51.87800 47.62800 44.87600
C  49.28900 49.77900 43.67400
C  49.21800 51.01000 44.67200
N  45.74800 45.92600 44.12000
C  45.68600 47.25900 44.35000
C  44.29000 47.72900 44.29400
C  43.57300 46.52800 44.02500
C  44.50400 45.48300 43.93200
C  43.83400 49.02600 44.66600
C  42.25600 45.99100 43.91200
O  41.17000 46.56000 43.98800
C  42.43200 44.47100 43.43400
C  41.48800 43.62300 44.18100
O  40.33000 43.49200 43.90400
O  42.02400 43.11200 45.34900
C  41.02900 42.43500 46.19500
H  47.61200 40.09300 42.85000
H  51.75800 45.05200 44.09200
H  46.60000 49.06900 44.63900
H  43.06800 41.56500 43.57300
H  45.15600 40.08200 42.41500
H  45.47300 40.60600 45.39200
H  45.56000 38.99600 44.51600
H  43.99200 39.74000 44.80100
H  44.42200 41.28600 40.77700
H  43.69200 42.85300 41.13800
H  41.61800 42.23600 41.01000
H  41.89300 40.56200 41.47800
H  50.57200 39.91100 41.50800
H  49.52800 39.23900 42.71400
H  51.22400 39.43300 43.13500
H  52.96500 44.36100 42.55100
H  54.44100 43.37900 42.65200
H  53.49100 43.63300 44.19200
H  50.84300 47.66500 43.00400
H  49.49500 48.50000 45.49100
H  52.32000 46.67100 45.15600
H  51.64300 48.34800 45.65900
H  52.60000 48.01100 44.15400
H  48.39000 49.75700 43.05800
H  50.13300 49.81700 42.98600
H  49.30300 50.62400 45.68700
H  48.23900 51.44000 44.45800
H  49.90200 51.83000 44.45200
H  44.30400 49.69000 43.94000
H  44.08800 49.24200 45.70400
H  42.75100 49.07200 44.55100
H  42.07400 44.41600 42.40600
H  40.46000 41.67300 45.66200
H  40.28000 43.09700 46.63000
H  41.57900 41.99500 47.02600
Mg -8.88000 40.95800 42.83200
C  -7.91500 37.68300 41.92400
C  -6.05700 42.15300 41.11100
C  -10.02500 44.16400 43.15200
C  -11.95900 39.66700 43.75100
N  -7.31000 40.02800 41.60200
C  -7.02200 38.68800 41.51700
C  -5.80800 38.41400 40.63900
C  -5.04700 39.82000 40.74800
C  -6.17100 40.75300 41.20300
C  -3.94500 39.91800 41.78300
C  -6.18200 37.79300 39.21300
C  -5.47200 36.44800 38.74700
H  -4.48300 36.60100 37.56500
N  -8.22200 42.88200 42.00400
C  -6.96900 43.20300 41.46300
C  -6.77200 44.63800 41.46200
C  -7.95800 45.22000 42.14400
C  -8.82300 44.08600 42.37400
C  -5.50200 45.25000 40.88100
C  -8.18500 46.68700 42.44500
O  -7.36500 47.46600 42.10900
C  -9.36200 47.24400 43.12300
N  -10.70900 41.76500 43.38700
C  -10.91500 43.14800 43.53000
C  -12.26000 43.43700 44.24200
C  -12.91600 41.96100 44.22400
C  -11.81800 41.03400 43.82100
C  -12.24500 44.11200 45.61800
C  -14.16700 41.77900 43.41700
C  -15.52200 41.72000 44.18800
N  -9.66600 39.07200 43.05500
C  -10.97100 38.70000 43.41000
C  -11.03700 37.32700 43.50600
C  -9.82700 36.80900 42.92800
C  -9.10700 37.91600 42.59800
C  -12.13100 36.54300 44.13400
C  -9.03400 35.64500 42.50000
O  -9.40700 34.49000 42.45600
C  -7.80500 36.16500 41.84900
C  -6.69600 35.57000 42.63600
O  -6.63700 35.67400 43.85600
O  -5.74800 34.93600 41.85800
C  -4.57600 34.41600 42.56600
H  -5.14900 42.52400 40.63000
H  -10.35800 45.16400 43.43700
H  -12.91100 39.27600 44.11700
H  -5.23100 37.60700 41.08900
H  -4.69100 40.27500 39.82400
H  -3.09000 40.23900 41.18600
H  -3.90600 38.91100 42.19800
H  -4.12500 40.57300 42.63600
H  -5.87400 38.63300 38.59000
H  -7.23500 37.69100 38.95000
H  -6.22000 35.67200 38.58600
H  -4.94700 36.07900 39.62800
H  -5.72700 46.11300 40.25500
H  -4.99300 44.48100 40.30000
H  -4.74400 45.62900 41.56600
H  -9.16600 48.31200 43.22400
H  -9.48800 46.89200 44.14700
H  -10.28000 47.05400 42.56600
H  -12.74900 44.11700 43.54500
H  -13.22100 41.82700 45.26100
H  -13.01500 44.88200 45.58500
H  -11.24600 44.52800 45.74900
H  -12.41900 43.51500 46.51200
H  -14.10300 40.89800 42.77800
H  -14.26300 42.70000 42.84100
H  -15.34900 41.64300 45.26200
H  -16.07100 40.79700 44.00300
H  -16.06100 42.64900 44.00100
H  -12.90300 36.45100 43.36900
H  -12.48100 36.88200 45.10900
H  -11.68900 35.58600 44.40900
H  -7.72200 35.81500 40.82000
H  -4.63900 33.32900 42.52600
H  -4.37900 34.67600 43.60600
H  -3.69300 34.72200 42.00400

