158

Mg 9.13300 47.99800 25.15300
C  7.09600 48.62100 27.86900
C  11.88700 48.87000 27.00600
C  10.92200 47.21800 22.40300
C  6.14200 47.77200 23.04200
N  9.42100 48.67900 27.17100
C  8.44100 48.80000 28.16800
C  9.13100 49.08300 29.46200
C  10.58700 49.60700 29.13900
C  10.65400 49.04100 27.64600
C  10.70800 51.15800 29.12200
C  9.05800 47.97100 30.53700
C  9.08100 48.42700 32.08600
H  9.35500 47.17200 33.06000
N  11.18100 47.94400 24.74600
C  12.18600 48.39200 25.67900
C  13.44100 48.29600 24.97900
C  13.17000 47.80500 23.62900
C  11.70000 47.64600 23.52900
C  14.76900 48.71000 25.60600
C  14.16500 47.67300 22.47200
O  13.77600 47.35400 21.33000
C  15.59300 47.71600 22.70500
N  8.58100 47.64400 22.93600
C  9.56500 47.23000 22.07100
C  8.86500 46.55800 20.85800
C  7.49300 47.35200 20.87000
C  7.31600 47.56500 22.35800
C  9.62200 46.63300 19.43500
C  6.28200 46.71800 20.18100
C  5.23800 47.74600 19.86900
N  7.09000 48.07600 25.38700
C  5.96000 47.98500 24.45400
C  4.76900 48.17100 25.19700
C  5.14900 48.35400 26.54700
C  6.58100 48.28800 26.61500
C  3.38700 48.09400 24.64500
C  4.60500 48.68900 27.78300
O  3.43400 49.00300 28.08000
C  5.88900 48.83600 28.72000
C  5.76400 48.07900 29.91100
O  5.55600 46.86700 29.87400
O  5.83700 48.82300 31.10400
C  5.31100 48.06200 32.28600
H  12.74900 49.15300 27.61400
H  11.51900 46.89400 21.54800
H  5.14100 47.65000 22.62400
H  8.53300 49.93200 29.79700
H  11.32800 49.19000 29.82100
H  9.75600 51.67000 29.26400
H  11.29700 51.51800 28.27900
H  11.15600 51.44400 30.07400
H  9.95100 47.34800 30.49100
H  8.20800 47.32400 30.32300
H  8.18400 49.00400 32.31200
H  9.91100 49.11400 32.24900
H  14.67300 48.97900 26.65800
H  15.19600 49.55300 25.06300
H  15.39500 47.82200 25.52000
H  15.95200 46.89900 23.33100
H  15.72600 48.71400 23.12400
H  16.24900 47.68500 21.83400
H  8.73200 45.50300 21.10000
H  7.73900 48.32700 20.44900
H  8.96000 47.08300 18.69500
H  9.89300 45.61900 19.14100
H  10.48300 47.29900 19.39000
H  5.84100 45.86500 20.69600
H  6.70300 46.24700 19.29300
H  5.49300 48.68400 20.36200
H  4.27200 47.43900 20.27100
H  5.21400 48.02400 18.81600
H  2.69300 47.44700 25.18200
H  3.38300 47.76500 23.60500
H  2.90900 49.07100 24.72600
H  5.94000 49.86500 29.07400
H  4.41400 48.55300 32.66400
H  6.08300 48.14800 33.05100
H  5.02700 47.02500 32.10600
Mg -5.50000 25.68100 26.03200
C  -4.26500 27.22900 29.05600
C  -7.35300 23.53600 28.10700
C  -6.38800 23.91100 23.40100
C  -3.23400 27.60700 24.21700
N  -5.82700 25.51100 28.31400
C  -5.23200 26.23000 29.27700
C  -5.80400 25.88600 30.67700
C  -6.46900 24.56400 30.36800
C  -6.52700 24.47800 28.80400
C  -5.54000 23.29200 30.83200
C  -6.67800 26.99100 31.35100
C  -6.79200 26.96700 32.86900
H  -6.07500 25.79900 33.63400
N  -6.74300 23.94300 25.74000
C  -7.42400 23.19800 26.75000
C  -8.33600 22.28100 26.05300
C  -8.06000 22.40900 24.65400
C  -7.02200 23.44500 24.56200
C  -9.29900 21.37800 26.78200
C  -8.70100 21.70500 23.48500
O  -8.37200 21.96300 22.31400
C  -9.63500 20.53100 23.74200
N  -4.81100 25.71500 24.10100
C  -5.38300 24.84700 23.14900
C  -4.55500 24.98700 21.90000
C  -3.65500 26.28600 21.98500
C  -3.91100 26.58800 23.53600
C  -3.76500 23.70900 21.59100
C  -4.16400 27.54400 21.10700
C  -3.28700 28.21900 20.04100
N  -4.02600 27.21300 26.53100
C  -3.23900 27.94500 25.67700
C  -2.54000 28.96400 26.45800
C  -2.88300 28.70700 27.78700
C  -3.77400 27.62400 27.82900
C  -1.58100 29.95500 25.95800
C  -2.64700 29.07500 29.14200
O  -1.86800 29.92600 29.57700
C  -3.62200 28.23000 30.04300
C  -2.79400 27.53300 31.06000
O  -1.99400 26.62300 30.79400
O  -3.08000 28.13500 32.31600
C  -2.23600 27.54900 33.36700
H  -7.94300 22.83900 28.70600
H  -6.66100 23.41900 22.46500
H  -2.54100 28.18600 23.60400
H  -4.89200 25.78800 31.26700
H  -7.49200 24.61500 30.74000
H  -4.46900 23.42800 30.98300
H  -5.68400 22.50600 30.09100
H  -5.91800 23.02100 31.81800
H  -7.71800 26.83300 31.06400
H  -6.35900 27.97000 30.99200
H  -7.83500 27.05100 33.17400
H  -6.32400 27.91700 33.12600
H  -10.28400 21.84400 26.80200
H  -8.86500 21.20200 27.76600
H  -9.34100 20.33600 26.46500
H  -9.11800 19.72800 24.26700
H  -10.14200 20.21400 22.83100
H  -10.46100 20.85000 24.37900
H  -5.26900 25.17400 21.09900
H  -2.59100 26.11700 21.82100
H  -4.00400 23.49500 20.54900
H  -4.13600 22.90400 22.22500
H  -2.68900 23.88400 21.57700
H  -4.40000 28.37900 21.76700
H  -5.10700 27.26100 20.63800
H  -3.89200 28.37400 19.14700
H  -2.48700 27.54000 19.74700
H  -2.82600 29.17700 20.28000
H  -0.97600 29.50100 25.17300
H  -1.03200 30.39900 26.78900
H  -2.26800 30.70300 25.56300
H  -4.44500 28.85700 30.38400
H  -2.79100 27.60800 34.30300
H  -1.33300 28.13900 33.52800
H  -1.97600 26.50800 33.17300

