158

Mg 40.85200 8.85600 29.93500
C  42.72700 9.99600 32.72200
C  38.67300 7.38900 31.89200
C  39.30000 7.59300 27.13000
C  43.67500 9.59600 28.00000
N  40.86800 8.61500 32.10200
C  41.66800 9.16600 33.07300
C  41.04000 8.88300 34.46100
C  39.83900 7.85400 34.13200
C  39.73600 7.90500 32.58600
C  39.98000 6.50900 34.81100
C  40.77200 10.17400 35.35400
C  41.22400 10.02500 36.80200
H  41.45600 11.35200 37.56800
N  39.18500 7.74800 29.62500
C  38.35400 7.25200 30.55000
C  37.19700 6.71300 29.97500
C  37.27900 6.91100 28.55600
C  38.66000 7.38100 28.40500
C  36.05200 6.08600 30.77100
C  36.35400 6.68500 27.43800
O  36.59500 6.73400 26.23800
C  35.06000 6.09700 27.79300
N  41.42600 8.69400 27.89000
C  40.53400 8.12200 26.91900
C  41.20100 8.13700 25.49800
C  42.63200 8.82700 25.87900
C  42.59700 9.02900 27.35000
C  41.35500 6.76500 24.68100
C  42.87400 10.16500 25.05800
C  41.97400 11.37200 25.41300
N  42.70100 9.74800 30.21500
C  43.67500 10.06700 29.27800
C  44.79900 10.74400 29.90000
C  44.36100 10.84200 31.22200
C  43.16400 10.14300 31.37500
C  46.18700 11.11400 29.35600
C  44.78000 11.34400 32.55600
O  45.72400 12.01500 32.81000
C  43.60800 10.91000 33.60800
C  44.31900 10.14800 34.70600
O  44.73000 9.00200 34.63300
O  44.57200 10.95400 35.78400
C  45.48200 10.41000 36.86100
H  37.96200 6.89400 32.55700
H  38.85500 7.21800 26.20500
H  44.52900 10.01600 27.46400
H  41.75300 8.31600 35.05900
H  38.93600 8.16600 34.65800
H  40.45700 5.71500 34.23700
H  39.06700 6.09500 35.23800
H  40.68000 6.47900 35.64600
H  39.69300 10.32800 35.33500
H  41.18600 11.10400 34.96500
H  42.25000 9.67100 36.70100
H  40.64200 9.27400 37.33600
H  35.95600 5.01900 30.57200
H  35.10700 6.62900 30.77400
H  36.39100 6.07600 31.80700
H  35.04600 5.04200 28.06400
H  34.45800 6.37200 26.92700
H  34.68000 6.71400 28.60700
H  40.54500 8.87900 25.04200
H  43.42000 8.07600 25.81400
H  42.26000 6.72500 24.07400
H  40.57100 6.74500 23.92400
H  41.30200 5.88000 25.31500
H  42.67300 9.93900 24.01100
H  43.93000 10.43200 25.10500
H  41.52100 11.25700 26.39700
H  41.23200 11.57200 24.64000
H  42.70600 12.16600 25.55900
H  46.56900 10.21300 28.87600
H  46.97100 11.44900 30.03500
H  45.86300 11.80700 28.58000
H  43.10100 11.77900 34.03000
H  46.33900 9.84200 36.49800
H  44.90900 9.75400 37.51600
H  45.88000 11.26500 37.40700
Mg 50.82500 45.89600 41.69300
C  47.81600 47.36100 40.71500
C  49.71200 42.98700 40.31500
C  54.08600 44.87800 41.70900
C  52.01700 49.17100 42.35600
N  49.00300 45.31800 40.56800
C  47.87100 46.04100 40.36800
C  46.64100 45.15200 39.91000
C  47.26400 43.68700 40.24700
C  48.74700 43.96000 40.45200
C  46.61300 42.93800 41.39900
C  46.30800 45.26700 38.37500
C  44.82600 45.42400 37.93800
H  44.24500 44.50400 36.85300
N  51.78100 44.16600 41.00500
C  51.14000 43.04900 40.44500
C  52.12600 42.07400 40.18300
C  53.37500 42.43700 40.72300
C  53.14400 43.85400 41.18000
C  51.78400 40.78500 39.50200
C  54.60700 41.65200 40.70100
O  54.59700 40.47600 40.26200
C  55.87300 42.29400 41.23000
N  52.80200 46.91700 41.94500
C  53.96700 46.17900 42.03900
C  55.16600 47.04100 42.51700
C  54.54500 48.46000 42.48900
C  53.04500 48.19500 42.20900
C  55.82600 46.46900 43.84800
C  55.04800 49.35700 41.31000
C  55.56200 50.72000 41.72800
N  50.03500 47.85600 41.79700
C  50.60800 49.01600 42.10000
C  49.63300 50.09100 41.97800
C  48.50100 49.49000 41.45000
C  48.86100 48.14300 41.24200
C  49.81500 51.52200 42.16900
C  47.17400 49.74200 40.92500
O  46.59500 50.83100 40.76900
C  46.60500 48.28600 40.57400
C  45.41200 47.78700 41.41300
O  45.39200 47.09500 42.43200
O  44.27500 48.18400 40.77800
C  43.08900 47.79200 41.56500
H  49.30200 42.07600 39.87400
H  55.09600 44.48200 41.83600
H  52.47000 50.10400 42.69900
H  45.71300 45.30200 40.46300
H  47.40100 43.03500 39.38500
H  46.01200 42.14300 40.95800
H  45.88300 43.49900 41.98200
H  47.34200 42.59300 42.13200
H  46.78900 44.39000 37.94100
H  46.82900 46.11200 37.92500
H  44.67800 46.46800 37.66200
H  44.17900 45.32500 38.80900
H  52.51300 40.62300 38.70800
H  50.76900 40.78900 39.10500
H  51.83000 39.98600 40.24300
H  55.70700 42.43100 42.29800
H  56.26800 43.12400 40.64400
H  56.63500 41.52300 41.11000
H  55.90900 46.90200 41.73200
H  54.78900 48.92300 43.44500
H  55.49000 45.47700 44.15000
H  55.64300 47.16200 44.67000
H  56.91500 46.45300 43.87100
H  54.20900 49.57700 40.65100
H  55.81900 48.83000 40.74700
H  55.01400 51.58300 41.34900
H  56.63500 50.86600 41.60100
H  55.40900 50.79300 42.80400
H  50.89300 51.63800 42.28800
H  49.29800 52.01600 42.99200
H  49.51000 51.93400 41.20800
H  46.34800 48.36800 39.51800
H  43.15100 47.70900 42.65000
H  42.66100 46.84300 41.24200
H  42.36100 48.57500 41.35800

