158

Mg 0.76200 -1.18000 44.13400
C  4.11500 -0.04400 43.76900
C  -0.26000 1.51800 42.33000
C  -2.28500 -2.58700 44.06700
C  2.05900 -4.28700 45.23700
N  1.81300 0.52800 43.05800
C  3.15900 0.83000 43.14700
C  3.45900 2.17000 42.48000
C  2.05000 2.76500 42.28100
C  1.11700 1.54600 42.50800
C  1.61200 4.03600 43.07800
C  4.28500 2.00100 41.11500
C  5.58100 2.75600 41.08600
H  6.70700 2.13600 40.30000
N  -1.03900 -0.54500 43.47200
C  -1.30500 0.64400 42.77000
C  -2.72800 0.64500 42.39300
C  -3.38200 -0.47700 42.95500
C  -2.28300 -1.28900 43.49100
C  -3.33500 1.95700 41.73500
C  -4.82300 -0.72900 43.01900
O  -5.62100 0.03400 42.46000
C  -5.45600 -1.77600 43.88600
N  0.06700 -3.09600 44.53400
C  -1.26000 -3.32800 44.56800
C  -1.55300 -4.74600 45.13800
C  -0.17600 -5.38900 45.27600
C  0.72600 -4.16200 45.00400
C  -2.31200 -4.67400 46.47800
C  0.16600 -6.55200 44.41900
C  0.58000 -7.75600 45.26800
N  2.61400 -2.01300 44.36800
C  2.96400 -3.25300 44.95500
C  4.46700 -3.26300 45.11700
C  4.86700 -1.98600 44.65900
C  3.75300 -1.27000 44.21900
C  5.33200 -4.37700 45.67000
C  6.09100 -1.18300 44.46700
O  7.22500 -1.60800 44.60500
C  5.65300 0.17000 43.98000
C  5.82900 1.19900 44.95900
O  5.35100 1.35000 46.12000
O  6.78600 2.05600 44.44600
C  7.32200 3.09000 45.33500
H  -0.58800 2.50500 41.99500
H  -3.24000 -3.08200 44.25400
H  2.44500 -5.29000 45.43100
H  4.02200 2.71300 43.24000
H  1.83800 3.03500 41.24600
H  0.99500 3.78400 43.94000
H  0.98400 4.60000 42.38800
H  2.43200 4.64100 43.46500
H  3.77800 2.54200 40.31600
H  4.44600 0.97200 40.79300
H  5.99000 2.83200 42.09300
H  5.50000 3.77500 40.70800
H  -3.54900 1.64500 40.71300
H  -2.64400 2.79000 41.60700
H  -4.29400 2.23500 42.17200
H  -5.27000 -2.76000 43.45400
H  -6.51200 -1.50800 43.93000
H  -4.93800 -1.76400 44.84500
H  -2.12200 -5.28800 44.38200
H  -0.01200 -5.54100 46.34200
H  -3.30100 -5.09500 46.29400
H  -2.45600 -3.65700 46.84300
H  -1.75100 -5.25000 47.21400
H  0.98600 -6.39400 43.71900
H  -0.65600 -6.92000 43.80500
H  1.41200 -7.47800 45.91500
H  0.93000 -8.56600 44.62900
H  -0.32800 -7.94900 45.84000
H  5.07100 -5.40200 45.40800
H  5.39800 -4.35300 46.75800
H  6.34100 -4.40400 45.25800
H  6.09500 0.48600 43.03600
H  8.03700 2.61000 46.00400
H  6.59400 3.74500 45.81300
H  7.89500 3.72400 44.65800
Mg 1.12300 42.07900 26.31800
C  2.72300 41.91800 29.38000
C  -1.76100 41.01600 27.63900
C  -0.14400 41.63200 23.14300
C  4.20000 43.28600 24.88500
N  0.62400 41.37000 28.25600
C  1.37900 41.54700 29.39800
C  0.47300 41.34100 30.62200
C  -0.98800 41.07800 30.05000
C  -0.72500 41.24200 28.54200
C  -1.61600 39.72000 30.54300
C  0.50100 42.49300 31.65400
C  0.94000 42.25500 33.10800
H  -0.07700 42.47700 34.28100
N  -0.66900 41.40500 25.60200
C  -1.74500 40.88600 26.28700
C  -2.75700 40.55100 25.34300
C  -2.31400 40.80000 24.05900
C  -0.94000 41.24600 24.19700
C  -4.06800 39.99000 25.82500
C  -3.09000 40.78600 22.69900
O  -2.65100 40.90000 21.57800
C  -4.65500 40.59900 22.78300
N  1.83300 42.40100 24.35700
C  1.13800 42.12600 23.19700
C  2.00100 42.55400 21.91900
C  3.31200 43.17000 22.64100
C  3.05600 42.96400 24.09100
C  2.28300 41.44300 20.82900
C  3.60600 44.61900 22.11000
C  3.56400 44.87000 20.58900
N  3.03200 42.49300 26.93700
C  4.14700 42.93200 26.24700
C  5.28400 43.00200 27.14800
C  4.71900 42.68100 28.36100
C  3.41100 42.26300 28.18600
C  6.62400 43.48100 26.91900
C  5.04000 42.50600 29.78700
O  6.14000 42.76700 30.33700
C  3.75100 42.03300 30.54000
C  4.00800 40.76000 31.26600
O  4.43000 39.69700 30.86000
O  3.94000 41.06800 32.56100
C  3.86200 39.90100 33.48500
H  -2.64800 40.81500 28.24400
H  -0.48100 41.41200 22.12800
H  5.12500 43.59500 24.39400
H  0.88500 40.42400 31.04200
H  -1.66200 41.88900 30.32700
H  -1.17200 39.37600 31.47700
H  -1.39000 38.93900 29.81700
H  -2.70000 39.76100 30.64200
H  -0.43100 43.05500 31.71000
H  1.14800 43.32000 31.36200
H  1.65300 43.04800 33.33300
H  1.34100 41.24300 33.17500
H  -4.67000 39.52700 25.04400
H  -4.67700 40.81400 26.19700
H  -3.95200 39.20900 26.57700
H  -5.05400 41.20600 23.59600
H  -4.89400 39.54100 22.89100
H  -5.10300 41.01100 21.87900
H  1.38000 43.36900 21.54700
H  4.25000 42.65500 22.43200
H  2.18000 40.39100 21.09400
H  3.23100 41.62700 20.32300
H  1.49600 41.49300 20.07700
H  4.63500 44.83300 22.40100
H  2.98000 45.27100 22.71900
H  4.28300 44.23600 20.07000
H  4.00900 45.82600 20.31400
H  2.57900 44.87300 20.12200
H  6.58000 44.56800 26.98200
H  6.89600 43.18500 25.90600
H  7.21900 43.05200 27.72500
H  3.48600 42.79400 31.27500
H  3.22900 40.35900 34.24500
H  4.81100 39.74700 33.99900
H  3.30800 39.04600 33.09800

