158

Mg 25.70900 1.63500 29.54800
C  27.76600 1.21700 32.35000
C  23.00700 1.82000 31.68300
C  23.72000 1.76800 26.88000
C  28.39700 0.57300 27.52700
N  25.49200 1.48000 31.76700
C  26.42900 1.36700 32.70600
C  25.77400 1.59200 34.12400
C  24.28000 1.69500 33.81200
C  24.24400 1.66700 32.30200
C  23.41100 0.62100 34.54700
C  26.32500 2.86200 34.85600
C  25.60500 3.10600 36.23400
H  26.48600 3.41800 37.44400
N  23.60400 1.70800 29.30900
C  22.70600 1.78100 30.32500
C  21.34600 1.93600 29.71400
C  21.60300 1.95800 28.29500
C  23.01700 1.86400 28.09200
C  20.12800 2.12000 30.59200
C  20.55300 2.01900 27.19400
O  20.76100 2.11700 25.96100
C  19.11700 2.13400 27.64000
N  26.05300 1.34200 27.45700
C  25.08800 1.55900 26.59400
C  25.72200 1.61100 25.16700
C  27.15800 1.18700 25.41500
C  27.23700 1.00000 26.91700
C  24.93100 0.83400 24.05200
C  28.21600 2.24900 24.85900
C  29.57700 1.53800 24.52100
N  27.71700 1.03300 29.80000
C  28.65000 0.63600 28.87100
C  29.87900 0.35500 29.54700
C  29.61100 0.56200 30.89600
C  28.30200 1.01300 31.01700
C  31.21400 0.03200 28.98900
C  30.17700 0.44100 32.22200
O  31.26300 0.11400 32.69700
C  28.96900 0.88500 33.17500
C  28.65500 -0.23200 34.04400
O  28.19600 -1.29000 33.66700
O  28.95300 0.08200 35.35000
C  28.72400 -0.93800 36.33700
H  22.21200 2.00000 32.41000
H  23.10400 1.99300 26.00700
H  29.24400 0.41500 26.85700
H  26.02100 0.66800 34.64600
H  23.96900 2.69800 34.10400
H  22.50400 1.16200 34.81600
H  23.87100 0.21700 35.44900
H  23.03500 -0.18600 33.91900
H  26.16700 3.67100 34.14300
H  27.40200 2.77100 34.99900
H  25.08800 2.18000 36.48500
H  24.95900 3.89400 35.84700
H  19.55300 1.21900 30.37500
H  19.66400 3.10000 30.48300
H  20.34900 2.01100 31.65300
H  19.01800 2.99100 28.30700
H  18.95300 1.21700 28.20500
H  18.47800 2.28500 26.77000
H  25.70900 2.64700 24.82900
H  27.34200 0.20200 24.98400
H  24.60900 1.51400 23.26300
H  24.11500 0.20000 24.39800
H  25.53900 0.12400 23.49200
H  28.24500 3.08000 25.56300
H  27.90300 2.62400 23.88400
H  29.70500 1.73100 23.45600
H  29.53300 0.45200 24.44300
H  30.47000 1.95400 24.98800
H  31.52200 0.69000 28.17600
H  31.16900 -0.97500 28.57600
H  31.95400 0.05200 29.78800
H  29.27900 1.79700 33.68400
H  29.59700 -1.01900 36.98400
H  28.51900 -1.98500 36.11500
H  27.92500 -0.53500 36.95900
Mg 30.46200 57.64900 40.05000
C  27.70100 55.79000 39.01200
C  32.50300 55.01800 39.31200
C  33.07400 59.78300 40.25700
C  28.37200 60.42600 40.56400
N  30.13800 55.71500 39.09900
C  28.92800 55.06100 38.89700
C  29.10500 53.63300 38.51600
C  30.52200 53.33500 39.12500
C  31.12300 54.75700 39.17500
C  30.39900 52.74200 40.53300
C  29.09500 53.42000 36.96400
C  27.98800 52.56700 36.29000
H  27.05300 53.22500 35.28700
N  32.51300 57.46500 39.81500
C  33.16200 56.27700 39.63500
C  34.52800 56.45700 39.58000
C  34.79600 57.85100 39.80700
C  33.42000 58.44700 40.02700
C  35.43500 55.40900 39.20200
C  36.17100 58.54200 39.83800
O  37.26500 58.02300 39.59000
C  36.23800 60.04200 40.29700
N  30.66500 59.83900 40.38200
C  31.90300 60.42600 40.36500
C  31.75100 61.95000 40.67700
C  30.24700 62.11200 40.83400
C  29.69800 60.74700 40.59500
C  32.63400 62.55300 41.84700
C  29.69600 63.30100 39.94500
C  29.03500 64.44900 40.67100
N  28.40800 58.04400 39.96700
C  27.70400 59.18900 40.28600
C  26.26000 58.78500 40.21800
C  26.25300 57.52600 39.65000
C  27.55600 57.13700 39.44800
C  25.00200 59.62800 40.70800
C  25.36700 56.39500 39.34800
O  24.12800 56.34400 39.32000
C  26.26600 55.17400 38.88500
C  25.86600 54.04200 39.82700
O  26.54300 53.59100 40.65600
O  24.70900 53.44800 39.36600
C  24.43800 52.08800 39.84200
H  33.14900 54.13800 39.30100
H  33.85300 60.53400 40.40800
H  27.67300 61.19800 40.89200
H  28.35100 53.09100 39.08600
H  31.09200 52.66800 38.47800
H  31.05900 51.87400 40.51700
H  29.39500 52.34800 40.69000
H  30.62200 53.32600 41.42500
H  30.03400 52.98600 36.62200
H  29.22100 54.39800 36.49900
H  27.35600 52.11000 37.05200
H  28.51000 51.76400 35.76900
H  35.09200 54.91300 38.29400
H  35.36000 54.62700 39.95800
H  36.49400 55.65600 39.12800
H  35.86400 60.20500 41.30800
H  35.66100 60.69900 39.64600
H  37.31200 60.23000 40.28600
H  32.04300 62.50700 39.78700
H  29.90600 62.36700 41.83800
H  33.48400 63.02400 41.35300
H  33.00700 61.74500 42.47700
H  32.10700 63.29200 42.45100
H  28.84000 62.97900 39.35300
H  30.40800 63.71800 39.23200
H  27.94500 64.44600 40.69200
H  29.35900 65.39800 40.24400
H  29.34100 64.51600 41.71500
H  24.39800 59.78600 39.81400
H  25.28100 60.48700 41.31900
H  24.42900 58.96100 41.35200
H  26.23200 54.85000 37.84400
H  23.36800 51.98900 40.02300
H  24.86200 51.90700 40.82900
H  24.75000 51.30400 39.15300

