158

Mg 24.36100 -4.24700 45.81300
C  26.69700 -2.14400 44.12100
C  22.00000 -3.42800 43.44400
C  22.51200 -7.16200 46.66600
C  27.05500 -5.68300 47.44900
N  24.38000 -2.95900 43.99000
C  25.39900 -2.12700 43.51900
C  24.89900 -1.16400 42.40500
C  23.26200 -1.39600 42.51600
C  23.17900 -2.70000 43.36700
C  22.47600 -0.12700 42.99300
C  25.60100 -1.44000 41.10600
C  25.67200 -0.37600 39.95300
H  25.14600 -0.79000 38.54900
N  22.42300 -5.04300 45.25900
C  21.60700 -4.49700 44.30200
C  20.35500 -5.25200 44.28800
C  20.55700 -6.40000 45.15500
C  21.89500 -6.19500 45.81700
C  19.15500 -4.84100 43.30800
C  19.60400 -7.60900 45.32800
O  18.65800 -7.66000 44.59600
C  19.79200 -8.84500 46.19000
N  24.76300 -6.09200 46.82600
C  23.78700 -6.96500 47.24000
C  24.30400 -8.08100 48.22100
C  25.69800 -7.48200 48.57600
C  25.88900 -6.39400 47.48900
C  23.51900 -8.56900 49.36700
C  26.85100 -8.55200 48.67000
C  27.98600 -8.37100 49.69600
N  26.46400 -4.00100 45.91400
C  27.42900 -4.60100 46.57500
C  28.72000 -3.93600 46.40000
C  28.49100 -2.87300 45.44200
C  27.11000 -3.03600 45.14500
C  30.00300 -4.22800 47.25500
C  29.08000 -1.82500 44.67000
O  30.20100 -1.31400 44.54500
C  27.93400 -1.35300 43.69000
C  27.65500 0.07200 43.77800
O  27.03700 0.54800 44.72000
O  28.10700 0.89100 42.69600
C  27.86500 2.31300 42.53300
H  21.14400 -3.20700 42.80300
H  21.92000 -8.01400 47.01000
H  27.80700 -6.02700 48.16200
H  25.14200 -0.15000 42.72200
H  22.73500 -1.69800 41.61100
H  23.20000 0.68600 43.05600
H  21.95800 -0.32900 43.93000
H  21.80100 0.31900 42.26200
H  25.10700 -2.27100 40.60300
H  26.59600 -1.83700 41.30600
H  26.73000 -0.13500 39.85400
H  25.08700 0.39000 40.46200
H  19.37600 -5.53700 42.50000
H  19.24200 -3.80000 42.99600
H  18.27000 -5.10100 43.88900
H  20.57100 -9.49000 45.78400
H  18.82600 -9.35100 46.19100
H  19.96200 -8.53300 47.22100
H  24.44500 -8.91800 47.53600
H  25.65300 -7.02700 49.56500
H  22.53800 -8.09400 49.38400
H  23.92400 -8.52500 50.37800
H  23.15900 -9.59800 49.36600
H  27.31800 -8.42000 47.69400
H  26.48400 -9.57500 48.75100
H  28.37200 -9.32400 50.05800
H  27.64700 -7.89300 50.61500
H  28.80300 -7.75300 49.32200
H  30.11600 -3.56600 48.11400
H  30.89100 -4.05700 46.64600
H  29.97600 -5.29100 47.49600
H  28.29700 -1.64300 42.70400
H  27.15200 2.81500 43.18700
H  27.52600 2.43000 41.50400
H  28.85000 2.77400 42.60200
Mg 49.29000 47.20700 43.63000
C  45.98700 47.76100 42.83200
C  49.00000 44.11400 42.14000
C  52.60700 47.04200 43.80500
C  49.45100 50.55900 44.73200
N  47.70900 46.13400 42.54500
C  46.47800 46.55800 42.29100
C  45.63700 45.61100 41.32800
C  46.57700 44.36200 41.27300
C  47.82800 44.86700 42.01600
C  45.96700 43.03600 41.69400
C  45.32200 46.38400 39.97600
C  43.78100 46.34900 39.64700
H  43.30300 45.77800 38.35300
N  50.62700 45.66200 43.11700
C  50.32100 44.43900 42.59000
C  51.51700 43.64300 42.64900
C  52.61200 44.51000 43.08900
C  51.97800 45.79900 43.34900
C  51.55300 42.25300 42.03200
C  53.96400 44.14000 43.34100
O  54.27400 42.98600 43.10600
C  55.04000 44.98000 43.70200
N  50.87600 48.64900 44.15400
C  52.12500 48.21200 44.27100
C  53.02200 49.33900 44.89500
C  52.01900 50.52200 45.13000
C  50.69700 49.85900 44.68300
C  53.95200 48.92300 46.05800
C  52.31300 51.84000 44.51500
C  51.96200 53.07400 45.41800
N  48.01800 48.87700 43.86200
C  48.19400 50.14800 44.34600
C  46.95700 50.91500 44.30200
C  46.03300 49.97000 43.74200
C  46.76700 48.70100 43.52400
C  46.82800 52.37700 44.71400
C  44.65400 49.77000 43.44200
O  43.69000 50.51700 43.43900
C  44.56300 48.28700 42.83700
C  43.73100 47.43600 43.72600
O  43.67100 47.55300 44.94100
O  43.03000 46.54500 42.95200
C  42.04800 45.65700 43.69800
H  49.00900 43.07600 41.80100
H  53.60600 46.97400 44.24100
H  49.57300 51.60600 45.01500
H  44.76800 45.23800 41.86900
H  46.88500 44.14100 40.25100
H  44.88500 42.92000 41.75200
H  46.36700 42.67400 42.64200
H  46.22100 42.23200 41.00300
H  45.95100 46.01900 39.16500
H  45.46400 47.45300 40.13800
H  43.45600 47.38600 39.72800
H  43.24800 45.81800 40.43600
H  51.55900 41.49700 42.81800
H  52.24800 42.11700 41.20400
H  50.68200 41.93600 41.45800
H  55.02000 45.75500 42.93600
H  55.98100 44.43200 43.75200
H  54.83400 45.42200 44.67600
H  53.66300 49.56600 44.04300
H  51.78500 50.62300 46.19000
H  53.75200 47.85100 46.07500
H  53.76700 49.50300 46.96200
H  54.92100 49.19400 45.64100
H  51.78300 51.83300 43.56200
H  53.38700 51.92400 44.34700
H  51.13800 53.68600 45.04900
H  52.77700 53.79600 45.46500
H  51.77500 52.80200 46.45700
H  47.24700 52.89700 43.85300
H  47.37400 52.49000 45.65100
H  45.80600 52.73700 44.83600
H  44.13700 48.33500 41.83500
H  42.49200 45.12000 44.53600
H  41.85400 44.86400 42.97600
H  41.13000 46.14200 44.03100

