158

Mg 24.75300 1.58600 29.98600
C  26.56900 1.56500 32.97600
C  21.84300 1.74800 31.92500
C  22.99000 1.17900 27.19500
C  27.72600 0.90400 28.15900
N  24.35000 1.90600 32.18100
C  25.24000 1.93800 33.21600
C  24.56100 2.00100 34.58900
C  23.03200 1.84800 34.23500
C  23.06200 1.79900 32.68000
C  22.21400 0.70000 34.86400
C  25.04300 3.24600 35.50500
C  26.04500 3.05700 36.74900
H  25.73900 3.89500 38.02100
N  22.68900 1.50700 29.61200
C  21.64300 1.69900 30.54100
C  20.38800 1.76300 29.80400
C  20.76400 1.66400 28.38500
C  22.21300 1.51200 28.30500
C  19.10700 2.08800 30.48200
C  19.79200 1.64700 27.21400
O  20.15800 1.82700 26.03100
C  18.27700 1.60700 27.42200
N  25.32400 1.16200 27.94300
C  24.38200 1.13300 26.98000
C  25.03900 0.81700 25.61500
C  26.53600 0.77300 25.94800
C  26.58200 0.92400 27.42400
C  24.32100 -0.46000 25.06100
C  27.39800 1.82700 25.26300
C  27.12000 3.36200 25.50800
N  26.71400 1.16200 30.37400
C  27.82900 1.00200 29.55400
C  28.98300 0.92500 30.37700
C  28.51400 1.15300 31.64800
C  27.14900 1.27500 31.69100
C  30.39000 0.94300 29.96700
C  28.99500 1.37300 32.95800
O  30.12300 1.27200 33.40200
C  27.80900 1.51700 33.91000
C  27.68700 0.51100 34.91400
O  26.90500 -0.43700 34.83800
O  28.58400 0.71200 35.89000
C  28.42300 -0.17600 37.01600
H  20.99400 1.80900 32.60900
H  22.28800 0.94100 26.39400
H  28.62900 0.79600 27.55500
H  24.96100 1.08700 35.02900
H  22.48200 2.73600 34.54500
H  21.82500 0.07400 34.06100
H  21.31800 1.14700 35.29600
H  22.87200 0.07400 35.46600
H  24.12900 3.65600 35.93500
H  25.57200 3.93000 34.84100
H  26.97700 3.42500 36.32200
H  26.27500 2.01100 36.95400
H  18.78700 2.97700 29.93900
H  19.27300 2.37700 31.52000
H  18.45300 1.21600 30.50000
H  17.87200 2.59800 27.62300
H  18.04200 0.85700 28.17800
H  17.77500 1.31100 26.50100
H  24.74200 1.60100 24.91700
H  26.95000 -0.19100 25.65200
H  23.72700 -0.95100 25.83100
H  25.21200 -1.03700 24.81400
H  23.84000 -0.17200 24.12600
H  27.15800 1.72500 24.20500
H  28.40900 1.48500 25.48400
H  27.88900 3.80800 26.13800
H  26.22800 3.55000 26.10700
H  27.06500 3.86200 24.54200
H  30.75300 -0.07500 29.82100
H  30.91400 1.35200 30.83100
H  30.57700 1.40600 28.99800
H  28.16100 2.48000 34.28000
H  28.89600 -1.12700 36.76800
H  27.43100 -0.45300 37.37400
H  28.93600 0.29700 37.85400
Mg -10.18200 39.05600 41.23400
C  -9.00000 35.81300 40.70500
C  -7.13300 40.13700 39.96900
C  -11.32700 42.20100 41.01600
C  -13.39300 37.81600 41.96400
N  -8.35500 38.02500 40.27000
C  -8.08900 36.71100 40.22600
C  -6.75700 36.55100 39.43000
C  -6.03500 37.89700 39.62000
C  -7.26500 38.74400 39.98000
C  -4.95300 37.92000 40.69100
C  -7.08300 36.12300 37.96200
C  -6.11700 35.12600 37.31300
H  -5.70400 35.71300 35.94500
N  -9.37300 40.94800 40.62300
C  -8.09100 41.18800 40.17600
C  -7.85800 42.55700 39.99200
C  -9.06700 43.14400 40.33000
C  -9.98900 42.10600 40.62800
C  -6.64200 43.17800 39.43200
C  -9.35300 44.68500 40.31800
O  -8.44600 45.50700 39.98600
C  -10.74100 45.29300 40.55400
N  -12.18100 39.93900 41.24400
C  -12.34500 41.28600 41.30800
C  -13.78200 41.63300 41.86500
C  -14.42400 40.16400 42.03200
C  -13.26500 39.19400 41.70700
C  -13.92200 42.52200 43.01100
C  -15.73500 39.84300 41.13400
C  -16.87900 39.24300 41.87200
N  -11.02000 37.24800 41.34300
C  -12.32700 36.88500 41.81800
C  -12.42300 35.44800 41.89200
C  -11.14100 34.96400 41.46400
C  -10.31700 36.12300 41.13300
C  -13.54800 34.55800 42.35300
C  -10.30500 33.82000 41.27900
O  -10.52000 32.64300 41.46400
C  -8.91900 34.30400 40.76300
C  -7.75100 33.80200 41.54600
O  -6.94600 32.98100 41.14500
O  -7.84500 34.16400 42.86900
C  -6.93400 33.64600 43.85500
H  -6.15700 40.43700 39.58200
H  -11.73300 43.19100 41.23300
H  -14.40800 37.52200 42.23500
H  -6.25200 35.71400 39.91300
H  -5.65700 38.17300 38.63600
H  -4.63500 36.92600 41.00700
H  -5.31200 38.45900 41.56800
H  -4.17600 38.47100 40.16100
H  -7.24000 37.02600 37.37200
H  -8.04400 35.61400 38.03100
H  -6.70600 34.22100 37.17000
H  -5.24100 34.87200 37.91000
H  -6.74800 43.26900 38.35100
H  -5.75700 42.54200 39.46700
H  -6.40800 44.14300 39.88100
H  -11.38500 44.98600 39.73000
H  -10.61100 46.37500 40.53500
H  -11.16700 44.95500 41.49900
H  -14.37400 42.16600 41.12200
H  -14.68900 40.09500 43.08700
H  -14.91000 42.51000 43.47200
H  -13.83800 43.58400 42.77700
H  -13.07600 42.26400 43.64800
H  -15.56800 39.17000 40.29300
H  -16.18000 40.74800 40.72000
H  -17.70800 39.93400 42.02900
H  -16.52800 38.97400 42.86800
H  -17.34400 38.39300 41.37300
H  -13.26000 33.62900 42.84400
H  -13.93600 34.13100 41.42800
H  -14.21500 35.11200 43.01300
H  -8.78300 33.90100 39.76000
H  -6.23400 32.87600 43.53200
H  -7.45800 33.25200 44.72600
H  -6.40000 34.51800 44.23300

