158

Mg 34.90700 47.97600 24.88300
C  35.51300 46.17900 27.81000
C  33.46600 50.40500 26.83600
C  34.06700 49.52600 22.10100
C  35.95600 45.07700 23.11100
N  34.38000 48.12100 27.07200
C  34.88500 47.34100 28.14600
C  34.57700 48.05500 29.51700
C  33.86000 49.34900 29.09400
C  33.87400 49.27600 27.54200
C  32.41600 49.48100 29.72600
C  35.89400 48.24800 30.34500
C  35.77100 48.14400 31.89800
H  34.33900 48.08600 32.43500
N  34.09800 49.79000 24.49600
C  33.58600 50.65800 25.42000
C  33.18500 51.93800 24.75300
C  33.34200 51.65100 23.34000
C  33.90400 50.26900 23.23200
C  32.56800 53.19500 25.49200
C  33.02000 52.59800 22.14700
O  33.17000 52.26400 20.98700
C  32.41900 53.98500 22.36900
N  35.03300 47.37700 22.88900
C  34.53500 48.18300 21.95500
C  34.73900 47.57900 20.55700
C  35.65600 46.39400 20.82400
C  35.60600 46.24400 22.36900
C  33.36900 47.12200 19.89800
C  37.13400 46.69500 20.48700
C  37.92500 47.72600 21.29900
N  35.53700 46.04400 25.35800
C  35.95600 45.00400 24.50800
C  36.53500 43.92500 25.24000
C  36.34000 44.28900 26.62200
C  35.72200 45.59200 26.62700
C  36.99300 42.64400 24.75700
C  36.50400 43.95600 28.04000
O  37.09200 43.01800 28.52200
C  35.92900 45.10900 28.83600
C  34.72500 44.61100 29.67400
O  33.57400 44.60600 29.31700
O  35.14500 44.32800 30.91400
C  34.12800 44.14600 31.93900
H  33.04700 51.16300 27.50100
H  33.80300 49.96600 21.13700
H  36.40100 44.21200 22.61600
H  33.88200 47.43700 30.08400
H  34.46700 50.22100 29.33700
H  32.44800 50.37500 30.34900
H  32.13700 48.65500 30.38100
H  31.63700 49.48100 28.96400
H  36.27500 49.24900 30.14000
H  36.60800 47.50100 30.00100
H  36.33300 48.93800 32.39100
H  36.35300 47.25900 32.15400
H  33.28200 53.99900 25.66600
H  32.27400 52.88700 26.49600
H  31.66400 53.60400 25.04000
H  31.37300 53.83900 22.63800
H  32.59100 54.67200 21.54100
H  32.95500 54.49200 23.17100
H  35.26700 48.25100 19.88100
H  35.39100 45.52600 20.22100
H  33.28200 46.08000 20.20700
H  33.42700 47.19900 18.81300
H  32.48600 47.66100 20.24200
H  37.29400 46.72900 19.40900
H  37.58900 45.73500 20.73000
H  37.17900 48.35000 21.79100
H  38.63900 48.25400 20.66700
H  38.54800 47.28300 22.07600
H  37.76800 42.75200 23.99800
H  36.10200 42.24100 24.27600
H  37.30600 42.02700 25.59900
H  36.75500 45.40200 29.48500
H  33.70400 43.14200 31.97500
H  33.36700 44.90800 31.77400
H  34.68600 44.33200 32.85700
Mg -0.30000 44.18500 26.31800
C  1.47900 43.88200 29.38800
C  -3.17500 43.61000 28.00800
C  -1.68000 43.77100 23.32600
C  2.93100 44.57900 24.77700
N  -0.78600 43.75700 28.39600
C  0.10500 43.71900 29.45800
C  -0.71500 43.44700 30.74800
C  -2.19900 43.37000 30.32900
C  -2.03000 43.54000 28.83800
C  -2.94000 42.01100 30.72400
C  -0.50700 44.47800 31.98100
C  -0.01900 44.01800 33.39900
H  -0.57400 42.68100 33.95500
N  -2.20000 43.83100 25.70700
C  -3.30900 43.65400 26.58600
C  -4.46600 43.53100 25.73400
C  -4.04800 43.47100 24.32400
C  -2.62900 43.71000 24.39000
C  -5.83600 43.31700 26.37200
C  -4.92600 43.17400 23.08700
O  -4.37200 43.04900 22.00400
C  -6.36300 42.81600 23.19300
N  0.49900 44.18000 24.39100
C  -0.28500 44.07200 23.30300
C  0.56400 43.96800 22.05600
C  1.93900 44.56700 22.45400
C  1.82600 44.43000 23.96500
C  0.75600 42.48400 21.62700
C  2.28200 45.99500 21.94500
C  1.14100 47.01600 21.89400
N  1.78800 44.27000 26.90700
C  2.94900 44.54400 26.22500
C  4.02200 44.51900 27.08300
C  3.51800 44.23200 28.34600
C  2.16900 44.13900 28.19600
C  5.55700 44.54000 26.77300
C  3.79400 43.98400 29.74100
O  4.87800 43.92800 30.28200
C  2.51200 43.74600 30.45500
C  2.53200 42.48500 31.21400
O  2.04400 41.42300 30.84400
O  3.05400 42.67000 32.46600
C  3.03900 41.45300 33.33300
H  -4.06900 43.80400 28.60400
H  -2.04600 43.51700 22.32900
H  3.87600 44.62500 24.23200
H  -0.38300 42.43000 30.95700
H  -2.80500 44.23800 30.58700
H  -3.88600 42.23100 31.21900
H  -2.33000 41.36200 31.35200
H  -3.21800 41.46400 29.82300
H  -1.46500 44.97800 32.12000
H  0.04800 45.37600 31.71100
H  -0.33600 44.72600 34.16400
H  1.06600 44.12100 33.41700
H  -6.19400 42.29000 26.29400
H  -6.61700 43.95400 25.95600
H  -5.84300 43.66000 27.40600
H  -6.39700 41.84900 23.69500
H  -6.84500 42.63300 22.23300
H  -6.95200 43.52300 23.77700
H  0.11500 44.52200 21.23200
H  2.80700 43.97400 22.16400
H  1.79200 42.15900 21.71800
H  0.34600 42.40700 20.62000
H  0.10100 41.89000 22.26500
H  2.79700 45.91300 20.98800
H  2.99100 46.33800 22.69800
H  0.25200 46.53800 22.30700
H  0.95800 47.51400 20.94200
H  1.31700 47.76600 22.66500
H  6.15900 44.55800 27.68200
H  5.69100 45.50800 26.29000
H  5.77600 43.70100 26.11400
H  2.42200 44.61400 31.10800
H  2.28600 41.40900 34.11900
H  3.99600 41.34100 33.84500
H  2.88800 40.49000 32.84500

