158

Mg 17.06200 -2.72000 29.01500
C  15.93200 -0.50200 31.54700
C  18.75600 -4.45500 31.29300
C  18.33400 -4.50300 26.44300
C  15.53600 -0.60400 26.66100
N  17.39900 -2.45100 31.21100
C  16.77200 -1.50400 32.04600
C  17.14300 -1.76800 33.55100
C  18.21000 -2.99300 33.45100
C  18.08100 -3.38800 31.93600
C  19.72300 -2.72100 33.82000
C  15.92400 -2.07800 34.43400
C  16.06700 -1.67000 35.90400
H  17.47200 -1.21800 36.45200
N  18.25800 -4.33100 28.93000
C  18.82400 -4.97600 29.96400
C  19.40100 -6.17700 29.43600
C  19.22600 -6.23100 28.04700
C  18.58200 -4.94400 27.75300
C  19.94400 -7.26800 30.33200
C  19.48500 -7.37400 27.12600
O  19.27700 -7.30900 25.92700
C  19.99300 -8.65400 27.63700
N  16.99700 -2.53400 26.83700
C  17.53500 -3.47100 26.01000
C  17.27000 -3.21800 24.55800
C  16.53200 -1.79100 24.60800
C  16.20800 -1.73000 26.12300
C  18.55600 -3.25600 23.69000
C  15.27600 -1.54700 23.66600
C  15.72500 -1.32300 22.15800
N  15.90200 -0.96500 29.01500
C  15.26200 -0.23200 28.00500
C  14.64000 0.96500 28.59800
C  14.87600 0.76100 29.91900
C  15.68400 -0.31300 30.18000
C  13.93500 2.10300 27.82300
C  14.58100 1.49500 31.14700
O  14.04800 2.57500 31.33700
C  15.13500 0.52500 32.22500
C  16.04500 1.45600 33.05400
O  17.20600 1.78700 32.80400
O  15.42200 1.80900 34.24400
C  16.13700 2.62800 35.15100
H  19.17000 -5.05900 32.10300
H  18.83000 -5.09200 25.67000
H  15.05600 0.08200 25.95900
H  17.68500 -0.89600 33.91700
H  17.82800 -3.84600 34.01200
H  19.86400 -1.74700 34.28900
H  20.37600 -2.81200 32.95200
H  19.95900 -3.44300 34.60200
H  15.72800 -3.15000 34.44500
H  15.03000 -1.52800 34.14100
H  15.80000 -2.56100 36.47300
H  15.30500 -0.91500 36.09400
H  19.13200 -7.98000 30.47600
H  20.20600 -6.90600 31.32700
H  20.90800 -7.64200 29.98700
H  19.35000 -9.11800 28.38600
H  20.99400 -8.49000 28.03600
H  20.03500 -9.29900 26.76000
H  16.51900 -3.96100 24.29200
H  17.22600 -0.98500 24.37000
H  19.40300 -2.80400 24.20600
H  18.27000 -2.52300 22.93600
H  18.76700 -4.23900 23.26900
H  14.66200 -0.69600 23.95800
H  14.65200 -2.44000 23.64200
H  15.14600 -0.47400 21.79400
H  15.50500 -2.20700 21.55900
H  16.78500 -1.07500 22.09900
H  12.87600 1.93800 28.01900
H  14.13400 1.97000 26.76000
H  14.27800 3.06700 28.19900
H  14.41800 0.20400 32.98100
H  17.20700 2.61300 34.94500
H  15.98400 2.30600 36.18100
H  15.86000 3.67500 35.02500
Mg -1.78300 34.51900 26.27500
C  -3.14600 32.56100 28.92700
C  -0.65700 36.73400 28.45100
C  -0.88600 36.19100 23.56100
C  -3.41800 32.07700 24.07700
N  -2.00500 34.59300 28.43500
C  -2.43800 33.71300 29.27900
C  -2.10500 34.24900 30.73100
C  -1.45500 35.60100 30.59000
C  -1.39500 35.70200 29.08400
C  -2.03800 36.80100 31.35900
C  -1.30300 33.10400 31.46800
C  -1.90400 32.50500 32.74500
H  -1.03500 32.43700 34.05200
N  -0.84100 36.20000 26.02800
C  -0.35300 36.95700 27.06000
C  0.49000 37.99200 26.54800
C  0.37900 37.89700 25.12900
C  -0.44300 36.67200 24.80400
C  1.25800 38.96500 27.52700
C  0.98400 38.75200 24.06000
O  0.70800 38.56700 22.86500
C  1.93600 39.83000 24.42900
N  -2.36000 34.23000 24.08300
C  -1.67600 35.05000 23.21600
C  -1.78400 34.60300 21.78600
C  -2.32300 33.08400 22.06700
C  -2.64000 33.09900 23.51600
C  -2.83600 35.35000 20.94200
C  -1.41100 31.86400 21.63100
C  -0.04900 31.87300 22.36200
N  -3.17000 32.75600 26.42500
C  -3.67300 31.84900 25.46100
C  -4.38800 30.77000 26.10400
C  -4.27200 31.04700 27.49100
C  -3.51600 32.23500 27.61700
C  -4.80900 29.53700 25.42600
C  -4.59200 30.49300 28.82100
O  -5.14200 29.46100 29.18300
C  -3.86600 31.52100 29.79400
C  -4.85700 32.13900 30.78300
O  -5.54800 33.07800 30.48100
O  -4.88300 31.50800 31.99800
C  -5.90200 31.98400 32.85500
H  -0.40700 37.52900 29.15600
H  -0.51600 36.69000 22.66300
H  -3.74300 31.38900 23.29400
H  -3.09800 34.36600 31.16500
H  -0.40500 35.60300 30.88200
H  -2.56300 37.45000 30.65700
H  -1.32300 37.39600 31.92800
H  -2.79300 36.54100 32.10100
H  -0.40200 33.51100 31.92800
H  -1.03600 32.33600 30.74100
H  -1.92400 31.43500 32.53400
H  -2.87900 32.96200 32.90900
H  0.92000 39.99600 27.42400
H  2.29700 38.80000 27.24200
H  1.30100 38.70100 28.58400
H  2.33400 40.40200 23.59000
H  2.72800 39.36300 25.01500
H  1.41700 40.50700 25.10700
H  -0.81800 34.62600 21.28000
H  -3.29300 32.88300 21.61200
H  -3.25900 36.16800 21.52500
H  -3.59500 34.68800 20.52400
H  -2.30100 35.70400 20.06100
H  -1.29600 31.94400 20.55000
H  -1.97400 30.95800 21.86000
H  -0.00100 32.66200 23.11300
H  0.78800 32.02100 21.68000
H  0.23000 30.94800 22.86700
H  -4.17400 29.37400 24.55600
H  -5.86400 29.60700 25.16300
H  -4.67600 28.66300 26.06500
H  -3.19300 31.01900 30.48800
H  -5.46400 32.61200 33.63100
H  -6.33900 31.06900 33.25600
H  -6.75600 32.48300 32.39700

