158

Mg 45.06800 3.03000 46.96300
C  42.67900 5.81800 46.60700
C  42.42900 0.90200 46.69600
C  47.28300 0.65900 46.97400
C  47.61100 5.50600 46.91600
N  42.88600 3.41100 46.81200
C  42.18700 4.55000 46.45000
C  40.75600 4.12900 46.11800
C  40.64700 2.66800 46.69100
C  42.08400 2.29300 46.81000
C  39.87200 2.56400 48.03000
C  40.38700 4.28500 44.56500
C  39.25400 5.21600 44.15400
H  39.62600 6.13100 43.02300
N  44.84100 1.01000 46.83700
C  43.66800 0.34800 46.70300
C  44.04000 -1.07600 46.53600
C  45.45600 -1.18100 46.63200
C  45.88100 0.17700 46.82800
C  42.98700 -2.15400 46.28700
C  46.25900 -2.48200 46.58800
O  45.66000 -3.51200 46.31900
C  47.75000 -2.66700 46.87500
N  47.16100 3.04500 46.65600
C  47.83300 1.91900 47.06800
C  49.30700 2.19200 47.42400
C  49.46000 3.74700 47.14200
C  47.96600 4.13500 46.93400
C  49.73000 1.60500 48.81800
C  50.35400 4.08900 45.87700
C  51.63100 4.90700 46.20300
N  45.13300 5.24500 46.79800
C  46.26900 6.07200 46.90800
C  45.93500 7.46700 46.87100
C  44.48200 7.44700 46.81600
C  44.05800 6.05000 46.80000
C  46.90900 8.64300 46.79400
C  43.28800 8.25200 46.77600
O  43.18000 9.44400 46.64000
C  42.05700 7.23600 46.69900
C  41.39800 7.32500 48.01500
O  41.61900 6.70700 49.04500
O  40.46200 8.36800 47.77100
C  39.53900 8.58100 48.92400
H  41.53500 0.27500 46.67900
H  47.90600 -0.20100 47.22900
H  48.45400 6.15600 47.15800
H  40.13300 4.83500 46.66600
H  40.03600 2.00200 46.08100
H  40.51200 2.20300 48.83500
H  39.09100 1.81700 47.88800
H  39.30200 3.43200 48.36000
H  40.13300 3.27800 44.23400
H  41.26100 4.59200 43.99100
H  38.97500 5.66900 45.10500
H  38.42200 4.58800 43.83700
H  42.08000 -1.75500 45.83400
H  42.70200 -2.72500 47.17000
H  43.34600 -2.88500 45.56200
H  47.97500 -3.73000 46.95600
H  48.15000 -2.27500 47.81000
H  48.34900 -2.20800 46.08800
H  49.96900 1.72400 46.69500
H  49.85100 4.25300 48.02500
H  50.41900 0.76600 48.72700
H  48.81800 1.37500 49.36800
H  50.26600 2.33900 49.42000
H  49.86400 4.66100 45.08900
H  50.54400 3.16800 45.32500
H  52.41300 4.45500 45.59300
H  51.96500 4.77300 47.23200
H  51.62000 5.97400 45.97900
H  47.49200 8.42500 47.68900
H  46.45700 9.63200 46.86900
H  47.70300 8.60400 46.04900
H  41.31700 7.42900 45.92300
H  38.79900 7.78400 48.86400
H  38.95800 9.49700 48.80900
H  40.11200 8.49200 49.84700
Mg 9.61700 48.24400 25.78300
C  7.19100 48.07500 28.26300
C  11.63900 49.86500 27.95600
C  11.74800 48.34100 23.30400
C  7.01900 47.52100 23.35300
N  9.45000 48.72800 27.90300
C  8.39700 48.53900 28.82200
C  8.78300 48.78200 30.22900
C  10.12700 49.55300 30.05100
C  10.45300 49.41600 28.50800
C  9.95900 51.10500 30.31700
C  8.77700 47.53900 31.15600
C  9.86700 47.20200 32.19400
H  9.37200 46.35000 33.46100
N  11.44900 49.00600 25.65400
C  12.16500 49.60500 26.64300
C  13.50300 49.81600 26.15600
C  13.61300 49.27800 24.81800
C  12.23200 48.86400 24.51400
C  14.70500 50.44100 26.98200
C  14.78100 49.04500 23.86400
O  14.63500 48.45700 22.79400
C  16.14600 49.51100 24.21400
N  9.45100 47.84600 23.64900
C  10.55500 47.87200 22.87500
C  10.20900 47.58200 21.35900
C  8.70400 47.17700 21.38800
C  8.33600 47.58200 22.86300
C  10.43700 48.80700 20.47700
C  8.40200 45.70700 21.16600
C  8.29100 44.71200 22.32600
N  7.50700 47.89800 25.74700
C  6.61100 47.64200 24.72200
C  5.28300 47.49400 25.29400
C  5.46200 47.55900 26.65300
C  6.85600 47.83600 26.86700
C  4.04600 47.26200 24.46700
C  4.74800 47.50400 27.93900
O  3.54600 47.38600 28.27400
C  5.84700 47.91200 29.03200
C  5.90200 46.92500 30.08300
O  6.37000 45.83800 30.02600
O  5.32600 47.46300 31.23700
C  5.17700 46.55000 32.37600
H  12.28900 50.44800 28.61200
H  12.48400 48.42000 22.50200
H  6.23000 47.37000 22.61300
H  8.03800 49.46900 30.63400
H  10.97000 49.25100 30.67200
H  10.07200 51.45600 31.34300
H  8.94400 51.34300 29.99900
H  10.69400 51.72700 29.80700
H  8.64100 46.64500 30.54800
H  7.85500 47.64700 31.72800
H  10.35000 48.08000 32.62200
H  10.72100 46.68900 31.75300
H  15.56900 49.78400 27.08700
H  14.37600 50.56600 28.01300
H  15.05400 51.39600 26.58800
H  16.01800 50.56300 24.46900
H  16.70700 49.41000 23.28500
H  16.37600 48.82800 25.03200
H  10.81300 46.78500 20.92600
H  8.09800 47.84000 20.77000
H  9.69500 48.81200 19.67900
H  11.35700 48.58300 19.93800
H  10.45400 49.75400 21.01700
H  9.10200 45.26600 20.45700
H  7.46400 45.84600 20.62800
H  9.05100 44.98100 23.06000
H  8.45400 43.73900 21.86200
H  7.33300 44.80700 22.83600
H  3.93400 46.20100 24.24600
H  3.99100 47.71500 23.47700
H  3.22800 47.67500 25.05800
H  5.49200 48.85900 29.43900
H  4.10300 46.40300 32.25700
H  5.36000 47.01400 33.34500
H  5.79200 45.66100 32.23700

