158

Mg 46.82600 25.21900 28.29700
C  47.58900 27.47400 30.94300
C  46.01000 22.82700 30.63500
C  47.21300 22.81700 25.85800
C  48.02900 27.58300 26.17700
N  46.81000 25.14600 30.51300
C  47.01000 26.24100 31.37800
C  46.59400 25.92500 32.74100
C  46.31500 24.29800 32.68500
C  46.43000 24.02100 31.15800
C  47.16900 23.39300 33.60500
C  45.43500 26.79500 33.43800
C  45.77400 27.22300 34.90400
H  44.61200 27.28400 35.86300
N  46.50800 23.07200 28.24400
C  46.13300 22.36500 29.32800
C  45.75700 21.08200 28.79500
C  46.29900 20.94900 27.49000
C  46.69200 22.34200 27.13800
C  45.15800 19.95000 29.59200
C  46.29500 19.79800 26.52400
O  46.67400 19.93700 25.33000
C  45.73700 18.43000 26.95300
N  47.44600 25.17300 26.26500
C  47.52700 24.09300 25.44800
C  47.65500 24.50600 24.01500
C  47.72600 26.09300 24.05600
C  47.73100 26.34700 25.61700
C  48.78600 23.80900 23.15100
C  46.62000 26.83800 23.20900
C  45.16800 26.67800 23.59500
N  47.61400 27.19200 28.44000
C  47.99600 28.03500 27.50300
C  48.26400 29.30900 27.97200
C  48.17200 29.21900 29.41500
C  47.71200 27.84300 29.61900
C  48.65500 30.49300 27.13100
C  48.45500 29.79800 30.76600
O  49.00800 30.86400 31.09900
C  47.98400 28.70400 31.80300
C  49.09000 28.37900 32.74800
O  50.08100 27.66000 32.50200
O  48.90900 28.98100 33.99300
C  49.94900 28.68300 34.97600
H  45.57000 22.04200 31.25300
H  47.29900 22.03800 25.09800
H  48.31600 28.34600 25.45000
H  47.41700 26.14400 33.42200
H  45.28300 24.13400 32.99800
H  46.54700 22.88500 34.34200
H  47.71800 24.09200 34.23600
H  47.83300 22.67700 33.12200
H  44.53600 26.18300 33.51400
H  45.25000 27.64300 32.77900
H  46.05000 28.27600 34.86500
H  46.59000 26.61800 35.30000
H  44.50900 19.38300 28.92500
H  44.69100 20.38800 30.47400
H  45.94500 19.27700 29.93200
H  45.79800 17.66500 26.17900
H  44.64800 18.41200 27.00100
H  46.05900 18.14200 27.95400
H  46.69400 24.17300 23.62100
H  48.67500 26.51600 23.72800
H  49.48700 24.56700 22.80200
H  48.40200 23.18500 22.34400
H  49.32300 23.14200 23.82600
H  46.75100 26.47100 22.19100
H  46.97300 27.86900 23.23000
H  44.96200 25.64300 23.86600
H  44.48000 27.01200 22.81800
H  44.86700 27.23600 24.48200
H  49.05800 31.27000 27.78100
H  47.80300 30.87600 26.56900
H  49.43800 30.30500 26.39700
H  47.22200 29.25300 32.35700
H  50.94000 28.96100 34.61900
H  50.02900 27.61400 35.17600
H  49.76500 29.30100 35.85400
Mg 35.15700 49.18600 25.10500
C  35.21400 47.51400 28.23300
C  33.78700 52.00400 26.73900
C  34.43400 50.49300 22.16700
C  36.04200 46.13500 23.63400
N  34.48500 49.64600 27.24500
C  34.73600 48.86800 28.36800
C  34.29300 49.60400 29.65700
C  33.77400 51.02200 29.12000
C  34.08500 50.94100 27.59400
C  32.28800 51.41700 29.43800
C  35.48500 49.67000 30.62300
C  35.19000 49.15100 32.07800
H  33.68800 48.96200 32.55300
N  34.29200 51.04700 24.49600
C  33.84200 52.06600 25.31600
C  33.30600 53.20400 24.45600
C  33.40800 52.70500 23.11700
C  34.07600 51.39200 23.16700
C  32.62300 54.47700 25.08000
C  33.01100 53.36400 21.84300
O  33.06300 52.81600 20.69300
C  32.33200 54.76200 21.80200
N  35.38200 48.45100 23.15600
C  35.05400 49.21300 22.14100
C  35.38700 48.48800 20.77900
C  35.90700 47.08500 21.28400
C  35.76600 47.20100 22.77100
C  34.20700 48.40700 19.78700
C  37.33000 46.84000 20.79500
C  38.33900 47.85600 21.39900
N  35.64700 47.22200 25.74200
C  36.09700 46.09700 25.02000
C  36.40700 45.00300 25.99600
C  36.11900 45.56400 27.23300
C  35.65800 46.88400 27.03000
C  36.78300 43.54600 25.76200
C  36.05500 45.19300 28.59300
O  36.31900 44.17000 29.24200
C  35.44800 46.52600 29.31600
C  34.22300 45.95600 30.05100
O  33.07400 45.96300 29.65400
O  34.53800 45.46500 31.28000
C  33.43500 44.81100 32.10700
H  33.49300 52.93300 27.23200
H  34.22300 50.94000 21.19300
H  36.38700 45.21600 23.15700
H  33.51700 48.91600 29.99100
H  34.44700 51.73700 29.59500
H  31.57000 50.63500 29.68500
H  31.92400 51.90300 28.53200
H  32.39500 52.14000 30.24600
H  36.03900 50.59700 30.76600
H  36.26200 49.01400 30.23100
H  35.79100 49.76700 32.74600
H  35.56800 48.13500 32.18900
H  32.52600 55.41500 24.53200
H  33.04200 54.71500 26.05800
H  31.62600 54.18100 25.40600
H  32.45000 55.03100 20.75200
H  32.91600 55.50400 22.34700
H  31.32300 54.56000 22.16000
H  36.16700 49.06300 20.27900
H  35.26200 46.25600 20.99300
H  34.62700 48.55400 18.79200
H  33.31600 49.02400 19.90600
H  33.75700 47.41500 19.78300
H  37.31500 47.09800 19.73600
H  37.73300 45.83000 20.87000
H  38.02600 48.52300 22.20200
H  38.62900 48.44100 20.52700
H  39.23900 47.34400 21.73900
H  37.20200 43.60100 24.75700
H  35.91800 42.88300 25.76000
H  37.60000 43.34500 26.45500
H  36.21500 46.93400 29.97400
H  33.24000 43.75100 31.94400
H  32.42500 45.19600 31.96400
H  33.66300 44.91100 33.16800

