158

Mg -1.70000 17.31400 26.65400
C  -1.66300 14.98800 29.12500
C  -2.30300 19.72100 29.03800
C  -1.73600 19.56900 24.13800
C  -1.48600 14.81800 24.32400
N  -1.83700 17.36300 28.81700
C  -1.76000 16.27500 29.62000
C  -1.96900 16.76500 31.09400
C  -2.50300 18.22200 30.96300
C  -2.16500 18.45400 29.54700
C  -4.00700 18.38900 31.34400
C  -0.55100 16.63000 31.89900
C  -0.07400 17.55800 33.02300
H  0.44600 16.95600 34.36600
N  -1.92700 19.31200 26.60100
C  -2.10700 20.13100 27.69400
C  -2.16200 21.54200 27.19600
C  -1.73900 21.51400 25.82800
C  -1.76100 20.14000 25.47200
C  -2.57200 22.79500 28.12800
C  -1.54100 22.68600 24.85300
O  -1.38500 22.56400 23.61600
C  -1.50700 24.07000 25.41100
N  -1.89100 17.21000 24.48900
C  -1.78200 18.27300 23.67900
C  -1.81900 17.86900 22.14900
C  -1.62100 16.32700 22.22100
C  -1.67900 16.08200 23.81900
C  -3.09900 18.37200 21.41000
C  -0.32000 15.79800 21.50400
C  1.00900 15.95000 22.34100
N  -1.75400 15.32600 26.64200
C  -1.57100 14.42100 25.63400
C  -1.49900 13.11700 26.16200
C  -1.57200 13.27900 27.55900
C  -1.67700 14.66700 27.77900
C  -1.26700 11.76600 25.45300
C  -1.57500 12.51800 28.82200
O  -1.36300 11.32800 29.09300
C  -1.87000 13.60900 29.88200
C  -0.95800 13.35400 31.02700
O  0.26200 13.58900 30.91100
O  -1.53800 12.85600 32.14400
C  -0.65900 12.65000 33.27900
H  -2.36600 20.44400 29.85300
H  -1.71700 20.31700 23.34200
H  -1.25000 14.04100 23.59400
H  -2.62500 16.07800 31.62700
H  -1.83700 18.90300 31.49100
H  -4.56800 17.60100 31.84700
H  -4.55100 18.60800 30.42500
H  -4.14600 19.28600 31.94800
H  0.28200 16.59500 31.19700
H  -0.73700 15.64900 32.33600
H  -0.78900 18.35000 33.24500
H  0.76300 18.06400 32.54200
H  -3.03000 22.41800 29.04200
H  -3.32700 23.31900 27.54100
H  -1.62300 23.26300 28.38900
H  -0.74400 24.06200 26.19000
H  -2.47100 24.30700 25.86100
H  -1.33500 24.79400 24.61500
H  -0.94100 18.31800 21.68400
H  -2.53900 15.92200 21.79500
H  -2.77800 19.09800 20.66200
H  -3.75400 18.97000 22.04300
H  -3.65400 17.57900 20.90800
H  -0.14700 16.23400 20.52000
H  -0.50300 14.72900 21.39600
H  0.84000 16.52900 23.24900
H  1.81700 16.29700 21.69700
H  1.31300 14.95700 22.67200
H  -0.58200 11.06900 25.93400
H  -1.01300 11.84900 24.39600
H  -2.22900 11.26000 25.37200
H  -2.87600 13.43500 30.26500
H  -0.23800 13.58200 33.65700
H  0.15000 12.01100 32.92500
H  -1.19200 11.97800 33.95300
Mg 6.42200 53.97400 41.36100
C  5.70000 50.58600 41.22000
C  9.63400 53.18900 40.46700
C  6.71500 57.23300 40.48200
C  3.06500 54.56900 41.82900
N  7.51700 52.04900 40.72500
C  7.04300 50.76000 40.82200
C  8.14900 49.75500 40.65100
C  9.42400 50.66300 40.68500
C  8.81600 52.08500 40.58700
C  10.18500 50.55000 41.96600
C  8.01600 49.02800 39.28000
C  7.76200 49.89100 38.00100
H  6.72100 49.27100 37.01300
N  7.98700 55.06900 40.54800
C  9.28000 54.58800 40.32300
C  10.11600 55.67400 39.97100
C  9.27200 56.81000 39.89700
C  7.89700 56.40200 40.34600
C  11.63300 55.64200 39.82500
C  9.70200 58.14300 39.54300
O  10.81300 58.25100 38.99200
C  8.96900 59.44800 39.81400
N  5.03300 55.61400 40.94900
C  5.41500 56.91200 40.74700
C  4.30000 57.91600 40.97100
C  3.06800 57.06700 41.40700
C  3.69400 55.62000 41.31000
C  4.48900 59.14800 41.78700
C  1.78800 57.25900 40.55200
C  0.63800 58.10000 41.11900
N  4.78800 52.85800 41.54600
C  3.52600 53.22300 41.85800
C  2.71400 52.10200 42.23400
C  3.54000 51.03200 41.91600
C  4.75700 51.54600 41.54700
C  1.24400 51.99300 42.61800
C  3.56600 49.64600 41.92000
O  2.81200 48.74500 42.23400
C  4.97200 49.26400 41.35700
C  4.69300 48.65800 40.05100
O  4.25800 49.24300 39.01200
O  5.00100 47.33700 40.11200
C  4.54100 46.52600 38.93300
H  10.68400 52.97200 40.26000
H  6.70600 58.30600 40.28000
H  2.01500 54.61400 42.12700
H  8.25400 49.01900 41.44900
H  10.09500 50.56600 39.83200
H  10.22600 51.58100 42.31900
H  11.23500 50.29400 41.82700
H  9.67200 49.96100 42.72600
H  7.28400 48.22100 39.25000
H  9.00800 48.59900 39.13900
H  8.64500 49.76200 37.37500
H  7.74000 50.97100 38.14300
H  12.02700 56.52700 40.32500
H  12.01000 55.55900 38.80600
H  12.01700 54.78500 40.38000
H  8.22600 59.59300 39.03000
H  9.69500 60.24300 39.64100
H  8.67600 59.56900 40.85600
H  4.13800 58.28600 39.95900
H  2.74000 57.18600 42.44000
H  4.48300 60.06100 41.19100
H  5.42500 59.08200 42.34200
H  3.69300 59.19800 42.53100
H  1.44500 56.24700 40.33600
H  2.08500 57.68700 39.59500
H  0.61500 59.11800 40.73000
H  0.63400 58.18700 42.20500
H  -0.31800 57.61900 40.91000
H  0.60200 51.41600 41.95400
H  0.84500 53.00500 42.54400
H  1.18500 51.46600 43.57000
H  5.43000 48.51200 42.00000
H  4.47000 47.08100 37.99800
H  3.53300 46.16700 39.14200
H  5.24400 45.71900 38.73100

