158

Mg 44.78200 3.27100 47.38900
C  42.57500 6.02600 47.21000
C  42.07300 1.24200 47.03900
C  46.90100 0.52800 47.38300
C  47.42300 5.39800 47.38400
N  42.59900 3.64900 47.08300
C  41.91000 4.83700 47.03200
C  40.39500 4.68100 46.64900
C  40.30400 3.10800 47.02400
C  41.74100 2.61300 47.04500
C  39.42100 2.78100 48.31600
C  39.97100 5.03000 45.15800
C  39.01800 6.21800 45.03300
H  38.39400 6.34400 43.63600
N  44.51100 1.15300 47.25700
C  43.28700 0.52800 47.10500
C  43.57300 -0.90000 47.00700
C  44.95600 -1.09900 46.87800
C  45.58500 0.22200 47.20500
C  42.47100 -1.90800 46.95500
C  45.60200 -2.45000 46.51200
O  44.89000 -3.42300 46.29100
C  47.16800 -2.62100 46.34400
N  46.85500 2.97700 47.09900
C  47.51500 1.76800 47.40300
C  49.03900 1.98100 47.64200
C  49.16900 3.53900 47.58700
C  47.72200 4.05600 47.34600
C  49.58000 1.31500 48.89300
C  50.13900 4.00700 46.42700
C  51.45800 4.75800 46.81900
N  45.06000 5.32500 47.22700
C  46.15400 6.04400 47.31000
C  45.85100 7.46700 47.31700
C  44.45800 7.48300 47.20900
C  43.97500 6.14300 47.23800
C  46.74600 8.61500 47.34100
C  43.30600 8.36100 47.12700
O  43.27500 9.60100 47.06000
C  42.05500 7.42600 47.05100
C  41.18100 7.72200 48.18800
O  41.53100 7.60500 49.37400
O  39.92600 8.26900 47.82100
C  38.94600 8.61600 48.78700
H  41.15900 0.68200 46.83100
H  47.63800 -0.26900 47.26000
H  48.31500 6.01400 47.51900
H  39.81900 5.26100 47.37100
H  39.87300 2.57700 46.17600
H  39.12600 3.74000 48.74300
H  40.02200 2.27200 49.07000
H  38.56200 2.19800 47.98500
H  39.46200 4.12900 44.81600
H  40.86700 5.00200 44.53800
H  39.47500 7.15300 45.35800
H  38.17900 6.01700 45.69900
H  42.57600 -2.53000 46.06700
H  41.45500 -1.52200 46.87600
H  42.49900 -2.52600 47.85300
H  47.48200 -1.82400 45.67000
H  47.34400 -3.62900 45.96800
H  47.66000 -2.53900 47.31300
H  49.58800 1.50600 46.82900
H  49.52000 3.83300 48.57600
H  48.75100 1.23700 49.59600
H  50.37900 1.95900 49.26200
H  50.02100 0.35000 48.64300
H  49.67700 4.64600 45.67400
H  50.46400 3.16000 45.82300
H  51.44200 5.77100 46.41900
H  52.17800 4.19200 46.22800
H  51.61000 4.66700 47.89400
H  46.95000 8.86400 46.30000
H  47.58400 8.24300 47.93200
H  46.09500 9.39300 47.73900
H  41.48300 7.51200 46.12700
H  39.15600 8.24300 49.78900
H  37.95100 8.36200 48.42200
H  39.00400 9.70200 48.85900
Mg -1.40400 34.67000 26.76900
C  -2.91100 32.59300 29.23000
C  -0.36600 36.67900 29.32300
C  -0.58200 36.94500 24.52200
C  -2.97300 32.70300 24.36400
N  -1.66000 34.65900 29.00600
C  -2.27400 33.71200 29.82100
C  -1.98100 34.00800 31.32700
C  -1.24600 35.40200 31.29800
C  -1.16600 35.67400 29.77300
C  -1.98900 36.46600 32.16400
C  -1.25800 32.85000 32.04900
C  -2.01200 32.21200 33.22000
H  -1.16900 31.71800 34.36200
N  -0.55700 36.54600 26.91600
C  -0.09400 37.12800 28.02000
C  0.60800 38.35500 27.68000
C  0.59300 38.44400 26.28500
C  -0.21700 37.29500 25.82500
C  1.40700 39.16700 28.69600
C  1.23100 39.51500 25.37300
O  1.03000 39.53000 24.15500
C  2.14600 40.55400 25.99100
N  -2.02800 34.90300 24.79800
C  -1.47300 35.89300 24.07800
C  -1.75900 35.74000 22.57300
C  -2.25200 34.21400 22.51900
C  -2.39900 33.86600 24.00400
C  -2.77700 36.81100 21.94500
C  -1.40600 33.27900 21.70200
C  0.07100 33.15000 22.14300
N  -2.75500 33.00000 26.73800
C  -3.14900 32.29200 25.69400
C  -3.92300 31.17300 26.16800
C  -3.81100 31.17100 27.57300
C  -3.11200 32.35300 27.88600
C  -4.60900 30.18000 25.25500
C  -4.11500 30.50900 28.79500
O  -4.66800 29.45200 28.99300
C  -3.56400 31.38300 29.92200
C  -4.74100 31.63300 30.82700
O  -5.47600 32.63600 30.78300
O  -4.79600 30.64400 31.71700
C  -5.69500 30.80700 32.79900
H  0.01700 37.19400 30.20700
H  -0.24100 37.64300 23.75500
H  -3.24600 32.11200 23.48800
H  -2.98400 34.21300 31.70200
H  -0.22300 35.34000 31.66800
H  -2.79800 36.99000 31.65600
H  -1.24000 37.13900 32.58200
H  -2.42500 36.01200 33.05400
H  -0.28500 33.24300 32.34600
H  -1.00000 32.00100 31.41700
H  -2.38000 31.31400 32.72300
H  -2.86200 32.78200 33.59400
H  0.91000 40.13600 28.74800
H  2.44200 39.33400 28.39800
H  1.33700 38.68100 29.66900
H  2.38600 41.38500 25.32700
H  3.05400 40.03100 26.29200
H  1.58300 41.06500 26.77200
H  -0.84100 35.91700 22.01200
H  -3.25600 34.16400 22.09800
H  -3.52400 36.57500 21.18700
H  -2.17700 37.50500 21.35700
H  -3.20700 37.34400 22.79200
H  -1.43500 33.60500 20.66200
H  -1.73100 32.26500 21.93800
H  0.65700 33.18100 21.22400
H  0.21200 32.24100 22.72800
H  0.40000 33.86500 22.89700
H  -4.46900 30.40100 24.19700
H  -5.67900 30.32200 25.40700
H  -4.19000 29.20400 25.49900
H  -2.80900 30.77700 30.42300
H  -6.71100 31.04500 32.48200
H  -5.39300 31.51700 33.56900
H  -5.71500 29.82800 33.27700

