158

Mg 49.30900 35.61600 27.13900
C  47.14000 34.01300 29.43300
C  49.46400 38.25000 29.43000
C  50.60700 37.59600 24.69600
C  48.87000 33.01600 24.82000
N  48.56100 35.90000 29.24200
C  47.79200 35.11300 30.01200
C  47.70900 35.59400 31.45000
C  48.17800 37.10700 31.33100
C  48.80100 37.06900 29.92400
C  47.06400 38.20300 31.67200
C  48.64000 34.74100 32.36100
C  48.35700 34.76900 33.90800
H  47.35400 35.68500 34.43800
N  50.01200 37.55400 27.09600
C  49.95300 38.49500 28.11800
C  50.57500 39.81400 27.66300
C  50.93900 39.61200 26.28900
C  50.53100 38.19700 25.98800
C  50.61900 40.99200 28.52800
C  51.62300 40.55800 25.29100
O  52.14500 40.15200 24.22300
C  51.90200 42.04500 25.61300
N  49.67700 35.25000 24.98500
C  50.28900 36.28300 24.26300
C  50.74100 35.67300 22.90100
C  50.35800 34.13300 23.04700
C  49.63800 34.08600 24.33500
C  50.18200 36.51000 21.67700
C  51.62700 33.16000 23.08000
C  51.31900 31.76000 22.59800
N  48.18300 33.91400 27.07500
C  48.09200 32.95200 26.03900
C  47.19800 31.90600 26.55400
C  46.78800 32.27700 27.78900
C  47.45000 33.47500 28.14600
C  46.87500 30.59100 25.88000
C  45.90000 31.89400 28.81200
O  45.17700 30.93900 29.03600
C  46.01900 33.12700 29.89800
C  46.16500 32.60000 31.30700
O  46.92500 31.69800 31.60000
O  45.25800 33.16300 32.16900
C  45.19800 32.58600 33.55600
H  49.28100 39.10200 30.08700
H  51.12600 38.26100 24.00200
H  48.83900 32.12600 24.18800
H  46.67200 35.46000 31.75800
H  49.00100 37.27300 32.02600
H  46.93800 38.89300 30.83800
H  47.45000 38.71500 32.55300
H  46.08100 37.78000 31.87900
H  49.64200 35.14100 32.21000
H  48.67300 33.69500 32.05500
H  49.32400 34.87500 34.39900
H  48.01200 33.75700 34.11700
H  50.16100 40.94100 29.51600
H  50.03500 41.67700 27.91300
H  51.68100 41.23100 28.57200
H  52.40300 42.47900 24.74800
H  52.45300 42.16800 26.54600
H  50.89600 42.46200 25.60000
H  51.82800 35.62600 22.85000
H  49.65700 33.84300 22.26400
H  49.36500 35.88800 21.31200
H  50.96300 36.65800 20.93200
H  49.82400 37.48800 22.00000
H  51.98200 33.02700 24.10200
H  52.52600 33.58400 22.63300
H  52.12700 31.68000 21.87100
H  50.30800 31.75000 22.19000
H  51.57600 30.95100 23.28200
H  46.02600 30.74600 25.21300
H  46.86500 29.78100 26.60900
H  47.63500 30.32000 25.14600
H  45.06300 33.64900 29.85700
H  44.18500 32.91600 33.78400
H  45.94900 33.15100 34.10900
H  45.42700 31.52500 33.45600
Mg 6.66400 53.53800 39.59800
C  6.46100 49.81600 39.50600
C  10.00900 53.12500 38.85300
C  6.67300 56.71300 39.33100
C  3.22000 53.42500 40.09100
N  8.07600 51.70100 39.21000
C  7.78700 50.32900 39.35800
C  9.08400 49.48700 39.14000
C  10.21800 50.52400 39.32500
C  9.42400 51.86700 39.12300
C  10.94400 50.51900 40.69700
C  9.16800 48.80500 37.72700
C  8.92500 49.75600 36.52300
H  7.65300 49.69200 35.73500
N  8.11600 54.81900 39.03900
C  9.44500 54.44800 38.70200
C  10.08800 55.60700 38.38900
C  9.16800 56.75900 38.59500
C  7.94900 56.17700 39.06900
C  11.52400 55.66400 37.82200
C  9.53400 58.22500 38.34000
O  10.64700 58.50800 37.91300
C  8.59400 59.39200 38.61200
N  5.15500 54.86200 39.51300
C  5.44800 56.15400 39.61600
C  4.16600 57.04600 39.86800
C  3.11400 55.91500 40.19900
C  3.88400 54.63900 39.96800
C  4.30600 58.12600 41.00700
C  1.72900 56.01800 39.56700
C  0.57200 55.96500 40.54500
N  5.06200 51.93300 39.57600
C  3.73700 52.14800 39.90100
C  3.04500 50.85800 40.07300
C  4.11300 49.93100 39.95100
C  5.28300 50.62800 39.63700
C  1.57400 50.65200 40.44400
C  4.39200 48.58000 40.02700
O  3.64600 47.60100 40.13200
C  5.86900 48.42300 39.72400
C  6.00900 47.60900 38.57200
O  5.77500 47.93000 37.41800
O  6.46700 46.30800 38.91000
C  6.17100 45.13900 37.97600
H  11.08700 52.98700 38.74500
H  6.70600 57.80200 39.24600
H  2.16900 53.38000 40.38500
H  9.14200 48.65900 39.84600
H  10.98600 50.53300 38.55200
H  11.98900 50.39900 40.41000
H  10.83300 49.68300 41.38800
H  10.91400 51.40200 41.33500
H  8.35400 48.08100 37.71900
H  10.11800 48.27100 37.70300
H  9.78300 49.65900 35.85700
H  9.06100 50.76700 36.90600
H  12.24100 55.79100 38.63300
H  11.55500 56.48500 37.10600
H  11.89700 54.78600 37.29400
H  9.08200 60.35900 38.73200
H  8.25300 59.07000 39.59600
H  7.72000 59.35200 37.96200
H  4.05000 57.54400 38.90500
H  3.03700 55.89700 41.28600
H  4.40500 59.16400 40.68900
H  5.21900 57.76200 41.47800
H  3.51000 57.94900 41.73000
H  1.61400 55.18800 38.87000
H  1.69700 56.98200 39.05800
H  -0.38300 55.87600 40.02600
H  0.52100 56.91100 41.08500
H  0.56600 54.96100 40.97000
H  1.51000 49.59300 40.69000
H  0.82600 51.00800 39.73600
H  1.46300 51.25900 41.34300
H  6.24100 47.88200 40.59400
H  7.11000 44.76800 37.56500
H  5.34700 45.41200 37.31800
H  5.70600 44.34900 38.56600

