158

Mg 29.36300 58.00800 40.79500
C  26.36700 56.38100 39.69700
C  31.09500 55.52800 39.17800
C  32.21300 60.03400 40.73700
C  27.45600 60.84100 41.60200
N  28.75000 56.10800 39.63100
C  27.48800 55.66700 39.33700
C  27.59100 54.36100 38.50300
C  29.11900 54.00800 38.47900
C  29.70400 55.26600 39.12200
C  29.58700 52.66800 39.22600
C  26.93600 54.48800 37.14800
C  27.05900 55.79200 36.40600
H  26.85300 55.80700 34.91700
N  31.34300 57.74100 40.25500
C  31.90500 56.63000 39.68400
C  33.33000 56.71600 39.47600
C  33.74800 57.98800 40.07900
C  32.44500 58.65000 40.41600
C  34.17200 55.67100 38.82500
C  35.15900 58.54100 40.20200
O  36.08500 57.99700 39.58500
C  35.49500 59.71200 41.02200
N  29.73900 60.13000 41.07000
C  30.99300 60.67600 41.08500
C  30.95000 62.16900 41.41000
C  29.39700 62.41300 41.70500
C  28.80400 61.02800 41.39000
C  32.07300 62.61300 42.41500
C  28.82200 63.57500 40.87600
C  28.71200 64.96200 41.60700
N  27.29800 58.47700 40.84400
C  26.66700 59.70500 41.22200
C  25.22400 59.52500 41.21100
C  25.04600 58.17100 40.66700
C  26.33600 57.64900 40.36400
C  24.22000 60.53500 41.69100
C  24.08700 57.26500 40.12900
O  22.84100 57.29900 40.11900
C  24.88600 56.10000 39.36900
C  24.45500 54.82600 40.05000
O  23.82700 54.00200 39.42700
O  24.95200 54.60000 41.27500
C  24.94200 53.21700 41.78200
H  31.71000 54.74000 38.74000
H  33.06600 60.70700 40.63100
H  26.85500 61.71000 41.87700
H  26.94600 53.67100 39.04800
H  29.35700 53.99400 37.41500
H  28.68900 52.22600 39.65600
H  30.29100 52.89900 40.02600
H  29.95200 51.92900 38.51200
H  25.89900 54.18200 37.28800
H  27.39100 53.77600 36.46000
H  28.01100 56.24400 36.68500
H  26.29300 56.47600 36.77000
H  33.73100 54.69300 38.63500
H  35.03400 55.61500 39.49000
H  34.63100 56.04100 37.90800
H  34.73200 59.80200 41.79500
H  35.54300 60.59200 40.38000
H  36.49100 59.51300 41.41900
H  31.22100 62.63600 40.46300
H  29.19300 62.64800 42.75000
H  31.55400 62.92800 43.32100
H  32.65700 63.49300 42.14900
H  32.74800 61.84600 42.79400
H  27.91800 63.25500 40.35600
H  29.52800 63.74900 40.06400
H  27.79700 64.96400 42.20000
H  28.70200 65.71800 40.82200
H  29.58500 64.98500 42.26000
H  24.23400 61.49500 41.17400
H  24.49100 60.81200 42.70900
H  23.20700 60.13500 41.73000
H  24.59900 56.22800 38.32600
H  24.34900 53.30400 42.69200
H  25.96200 52.92000 42.02600
H  24.42300 52.41300 41.26000
Mg -5.93200 25.22900 26.23100
C  -4.88900 26.82300 29.12000
C  -7.68600 23.03100 28.16100
C  -6.83500 23.68800 23.35000
C  -3.98300 27.52100 24.37400
N  -6.26400 25.06100 28.39400
C  -5.79400 25.85500 29.36900
C  -6.38100 25.43000 30.70200
C  -7.14200 24.10200 30.37900
C  -7.07300 24.06700 28.93800
C  -6.47800 22.93700 31.24100
C  -7.29900 26.51200 31.27200
C  -7.04900 27.05000 32.64800
H  -6.66000 26.08300 33.70600
N  -6.99400 23.52600 25.77500
C  -7.67100 22.78100 26.70000
C  -8.49800 21.78700 25.98000
C  -8.12700 21.92200 24.55000
C  -7.33600 23.08600 24.50000
C  -9.49900 20.89400 26.69200
C  -8.57700 21.09400 23.43300
O  -8.15900 21.18200 22.29100
C  -9.64300 20.19600 23.65900
N  -5.43400 25.55500 24.19000
C  -5.94200 24.79200 23.17600
C  -5.51700 25.22500 21.85800
C  -4.75400 26.48900 22.12400
C  -4.73100 26.58900 23.62500
C  -4.62700 24.08600 21.14900
C  -5.33400 27.73700 21.51000
C  -5.30300 27.66400 20.01500
N  -4.59900 26.76600 26.58400
C  -3.88200 27.60200 25.77700
C  -3.12800 28.57100 26.54500
C  -3.48100 28.27200 27.86500
C  -4.31800 27.12100 27.86100
C  -2.39100 29.73100 26.12500
C  -3.30400 28.79800 29.21100
O  -2.73100 29.75000 29.72600
C  -4.23000 27.78600 30.11400
C  -3.53400 27.09100 31.23500
O  -2.97900 25.97700 31.09600
O  -3.53900 27.84300 32.36900
C  -2.49400 27.42800 33.33800
H  -8.26200 22.42600 28.86400
H  -7.03900 23.21200 22.38900
H  -3.37700 28.14000 23.70800
H  -5.53600 25.25300 31.36800
H  -8.16400 24.07800 30.75700
H  -7.12600 22.64700 32.06800
H  -5.49600 23.20400 31.63300
H  -6.44100 21.96400 30.75100
H  -8.34300 26.20200 31.22600
H  -7.17200 27.42900 30.69700
H  -8.04400 27.44900 32.84700
H  -6.32600 27.86600 32.65200
H  -9.14900 19.86300 26.74200
H  -10.39400 20.98600 26.07700
H  -9.64600 21.30800 27.68900
H  -9.32600 19.64100 24.54100
H  -9.74400 19.54300 22.79200
H  -10.58700 20.70900 23.84300
H  -6.41300 25.30700 21.24400
H  -3.71800 26.38100 21.80500
H  -4.53600 23.23700 21.82600
H  -3.59400 24.41700 21.04200
H  -4.99400 23.89800 20.14000
H  -4.72500 28.60800 21.75200
H  -6.30200 27.98000 21.94900
H  -6.30500 27.56900 19.59600
H  -4.72600 26.82100 19.63600
H  -4.79200 28.53200 19.59900
H  -1.37400 29.52100 25.79400
H  -2.40800 30.54500 26.84900
H  -2.88700 30.16100 25.25500
H  -5.03000 28.45800 30.42500
H  -2.65000 27.87800 34.31900
H  -1.54400 27.89300 33.07700
H  -2.35800 26.35000 33.41800

