158

Mg 9.27400 48.15500 25.54000
C  6.70700 48.85700 27.97400
C  11.58000 49.07000 27.86800
C  11.66700 47.67400 23.25300
C  6.71500 47.91600 23.18000
N  9.06800 48.85000 27.69900
C  7.98100 48.89200 28.50900
C  8.51800 48.88300 29.99200
C  10.00700 49.33200 29.78800
C  10.25100 49.03100 28.35100
C  10.40700 50.79400 30.14800
C  8.29200 47.54000 30.87600
C  7.79700 47.64300 32.35400
H  8.76100 47.23200 33.48500
N  11.32400 48.47400 25.54500
C  12.09100 48.88100 26.57500
C  13.50600 48.89600 26.10400
C  13.46200 48.23800 24.87700
C  12.09700 48.05400 24.49600
C  14.60200 49.30600 27.04200
C  14.63400 47.65700 24.09600
O  14.49100 47.00900 23.13600
C  16.03900 47.87600 24.59200
N  9.19500 47.97600 23.42900
C  10.31200 47.53700 22.75100
C  9.85800 47.06300 21.39400
C  8.29600 47.47600 21.29800
C  8.04200 47.81500 22.71900
C  10.60800 47.55700 20.23400
C  7.43500 46.30700 20.67700
C  6.81200 46.73600 19.39700
N  7.15300 48.18000 25.53600
C  6.26200 48.09000 24.48400
C  4.85500 48.23000 24.94800
C  5.02600 48.40000 26.36000
C  6.41100 48.50100 26.64200
C  3.54800 48.23800 24.24400
C  4.24600 48.67300 27.58100
O  3.04000 48.72000 27.77100
C  5.34200 49.21600 28.64100
C  5.07000 48.66100 29.98200
O  4.98100 47.44800 30.27900
O  4.79100 49.73200 30.90200
C  4.25900 49.34900 32.22400
H  12.38500 49.31000 28.56600
H  12.32200 47.33200 22.44900
H  5.92600 47.79300 22.43500
H  7.90600 49.55500 30.59300
H  10.69100 48.76800 30.42100
H  11.22100 50.81000 30.87200
H  9.65300 51.28800 30.76100
H  10.67600 51.43000 29.30400
H  9.25400 47.03300 30.94200
H  7.63700 46.90400 30.28100
H  6.82500 47.16400 32.47300
H  7.56600 48.70400 32.45400
H  15.34800 48.55800 27.30900
H  14.34700 49.74300 28.00800
H  15.03600 50.11300 26.45000
H  16.11700 48.93800 24.82300
H  16.67300 47.48100 23.79900
H  16.16000 47.25700 25.48200
H  10.16600 46.03700 21.59300
H  8.10000 48.34100 20.66500
H  9.90800 47.52100 19.39900
H  11.46700 46.93300 19.98900
H  11.05400 48.54700 20.32400
H  6.63900 46.02200 21.36400
H  8.11900 45.48800 20.45500
H  6.60400 45.85600 18.78800
H  7.49000 47.38000 18.83700
H  5.85500 47.25800 19.40600
H  2.70200 47.68400 24.64900
H  3.61800 47.76300 23.26500
H  3.16400 49.25700 24.30300
H  5.44100 50.30000 28.71000
H  5.16400 49.07700 32.76700
H  3.52600 48.55800 32.06100
H  3.69800 50.14000 32.72300
Mg -1.22700 35.08800 26.68700
C  -3.07800 33.28800 29.08800
C  -0.28500 37.36100 29.01900
C  0.55600 36.73000 24.28600
C  -2.56400 32.92000 24.15400
N  -1.77700 35.31700 28.76400
C  -2.45700 34.44100 29.62600
C  -2.41000 34.95400 31.04800
C  -1.53400 36.25500 30.93200
C  -1.20100 36.32700 29.46000
C  -2.22400 37.53400 31.55200
C  -1.99600 33.88200 32.05500
C  -1.50900 34.42600 33.49500
H  -2.28300 33.74600 34.68800
N  -0.02900 36.87400 26.67500
C  0.28700 37.62700 27.74300
C  1.26400 38.62000 27.32800
C  1.54100 38.36000 25.97700
C  0.64100 37.25900 25.58000
C  1.91100 39.66000 28.28700
C  2.63500 38.96300 25.18000
O  2.88700 38.53500 24.05200
C  3.55400 39.98300 25.79600
N  -1.00600 34.83500 24.52000
C  -0.14900 35.61600 23.82700
C  0.01100 35.13600 22.38500
C  -0.91300 33.88400 22.35000
C  -1.50400 33.84400 23.77500
C  -0.22300 36.24100 21.39000
C  -0.18400 32.55100 21.99900
C  -1.12600 31.53600 21.21500
N  -2.53200 33.47800 26.50800
C  -3.03200 32.75300 25.42800
C  -3.94000 31.74200 25.88200
C  -3.93200 31.91600 27.32600
C  -3.06700 33.03500 27.63700
C  -4.74600 30.78800 24.96600
C  -4.45500 31.39700 28.57500
O  -5.11400 30.40700 28.90900
C  -4.02600 32.33200 29.70700
C  -5.25700 32.91900 30.23300
O  -6.06900 33.49200 29.54300
O  -5.33800 32.70100 31.58000
C  -6.43400 33.37800 32.18200
H  0.00200 38.00200 29.85500
H  1.16900 37.22300 23.52800
H  -2.99600 32.27000 23.39100
H  -3.45800 35.21700 31.18900
H  -0.60100 36.14800 31.48400
H  -2.49200 38.17700 30.71400
H  -1.45800 38.01300 32.16100
H  -3.07900 37.31800 32.19300
H  -1.16100 33.33500 31.61700
H  -2.74000 33.11600 32.27400
H  -1.78600 35.48000 33.51600
H  -0.43100 34.27400 33.54300
H  2.93800 39.41200 28.55800
H  1.35200 39.55900 29.21700
H  1.92500 40.68200 27.90900
H  4.36600 40.11800 25.08100
H  4.08500 39.63000 26.68000
H  3.19000 41.01000 25.81100
H  1.03800 34.78000 22.29800
H  -1.68500 34.10400 21.61300
H  -0.77100 37.01400 21.92700
H  -0.87800 35.89900 20.58900
H  0.67300 36.65600 20.92900
H  0.21700 32.06500 22.88900
H  0.67500 32.72500 21.35100
H  -2.02100 31.89400 20.70600
H  -1.44600 30.78800 21.94000
H  -0.41600 31.11300 20.50300
H  -4.06800 30.35300 24.23200
H  -5.44300 31.36800 24.36200
H  -5.28300 30.06700 25.58400
H  -3.47900 31.84000 30.51200
H  -7.02300 32.56300 32.60300
H  -6.90400 34.09300 31.50600
H  -6.18900 33.83000 33.14300

