158

Mg 0.67600 8.20900 27.59400
C  1.45900 10.38900 30.35100
C  0.70400 5.55200 29.72800
C  0.15800 6.30900 24.94900
C  1.29200 11.07000 25.47600
N  1.06100 8.08000 29.66600
C  1.06800 9.05700 30.67900
C  0.90500 8.51600 32.06000
C  1.01700 6.93500 31.79600
C  0.91200 6.80000 30.31600
C  2.34900 6.26700 32.19900
C  -0.48300 9.00300 32.62000
C  -0.71900 8.84900 34.20400
H  0.49300 8.30500 35.06300
N  0.37000 6.12200 27.38400
C  0.44000 5.23200 28.43400
C  0.21200 3.96200 27.80200
C  -0.08800 4.17500 26.40000
C  0.15900 5.57800 26.18400
C  0.47000 2.68100 28.54700
C  -0.50800 3.23600 25.40900
O  -0.60300 3.47000 24.18100
C  -0.88300 1.84500 25.69800
N  0.71500 8.61800 25.55100
C  0.44400 7.62200 24.68800
C  0.41100 8.14900 23.26100
C  0.73900 9.57100 23.39800
C  0.90000 9.81600 24.91400
C  1.31100 7.33700 22.32400
C  -0.17100 10.63200 22.67900
C  -1.62200 10.66800 23.20200
N  1.32400 10.25900 27.80700
C  1.47600 11.27700 26.84200
C  1.95000 12.44300 27.49400
C  1.91900 12.14100 28.85700
C  1.56500 10.83800 29.00400
C  2.15900 13.78100 26.80800
C  2.13200 12.77000 30.16800
O  2.51500 13.91500 30.40200
C  1.72300 11.67300 31.17100
C  2.80000 11.55700 32.12200
O  3.84400 11.00900 31.95000
O  2.43500 12.12700 33.34600
C  3.32800 11.73700 34.46700
H  0.59600 4.71400 30.41900
H  -0.11500 5.78500 24.03100
H  1.38100 11.87600 24.74400
H  1.68700 8.82300 32.75500
H  0.15800 6.53500 32.33500
H  2.31900 5.27800 32.65800
H  2.78100 6.90400 32.97100
H  2.97200 6.19200 31.30800
H  -1.27900 8.36800 32.22900
H  -0.71500 10.03200 32.34500
H  -1.60800 8.23100 34.32700
H  -1.03000 9.77400 34.69000
H  -0.39700 2.02100 28.53600
H  0.77300 2.94700 29.56000
H  1.27200 2.19600 27.99100
H  -0.01800 1.18800 25.78800
H  -1.52900 1.50700 24.88700
H  -1.50700 1.89100 26.59100
H  -0.61900 7.97100 22.95300
H  1.71200 9.71600 22.92900
H  1.91000 7.96600 21.66500
H  0.76700 6.66000 21.66600
H  1.89900 6.66900 22.95300
H  -0.23800 10.48500 21.60100
H  0.28200 11.61700 22.79600
H  -2.27800 10.07500 22.56500
H  -2.00700 11.68700 23.24200
H  -1.71000 10.12900 24.14500
H  2.37100 14.46200 27.63200
H  1.23900 14.06000 26.29400
H  2.93600 13.73800 26.04500
H  0.84600 11.99500 31.73300
H  3.97400 10.89100 34.23300
H  2.72100 11.64500 35.36800
H  3.91900 12.62800 34.67900
Mg 8.39400 3.91200 27.70300
C  9.40700 2.05100 30.36200
C  6.19900 5.67000 29.87200
C  7.01200 5.45400 25.05300
C  9.57200 1.43300 25.45900
N  7.64900 3.68900 29.88400
C  8.54400 3.11200 30.73900
C  8.30300 3.60900 32.22700
C  7.16400 4.65500 32.07300
C  6.93600 4.65400 30.54100
C  5.83000 4.41000 32.94500
C  9.58200 4.09000 32.93000
C  9.47500 5.22100 33.95600
H  10.36100 5.13800 35.26500
N  6.96400 5.46900 27.49600
C  6.25000 6.07500 28.46700
C  5.51000 7.14700 27.93600
C  5.83000 7.20900 26.51500
C  6.65000 6.00600 26.32000
C  4.62000 8.07100 28.76500
C  5.45500 8.19600 25.42800
O  5.93000 8.21700 24.35100
C  4.67800 9.45900 25.85400
N  8.33700 3.56400 25.48400
C  7.69300 4.36700 24.63000
C  7.65700 3.86200 23.16000
C  8.71000 2.64900 23.24300
C  8.81400 2.46500 24.79800
C  6.26500 3.31100 22.66900
C  10.16600 3.06000 22.76400
C  10.82300 1.95400 21.94300
N  9.44300 2.06200 27.75800
C  9.88500 1.22100 26.81800
C  10.63800 0.18100 27.51400
C  10.54500 0.47500 28.89200
C  9.82300 1.66700 29.01700
C  11.24600 -0.93000 26.82000
C  10.95500 0.08000 30.23600
O  11.73300 -0.78100 30.64000
C  10.20200 1.08400 31.22500
C  9.39600 0.24700 32.16200
O  8.32600 -0.30200 31.97300
O  9.99000 0.33700 33.37700
C  9.43700 -0.41700 34.55100
H  5.77500 6.37100 30.59400
H  6.65700 5.92900 24.13600
H  10.06200 0.76200 24.75100
H  7.81300 2.79600 32.76300
H  7.55300 5.64800 32.29700
H  6.13800 4.01000 33.91100
H  5.18400 3.74400 32.37300
H  5.32100 5.34900 33.16200
H  10.24100 4.40000 32.11800
H  10.05200 3.20600 33.36000
H  8.44900 5.32700 34.30800
H  9.82100 6.10800 33.42400
H  4.60300 7.77000 29.81200
H  3.59100 8.02200 28.40900
H  4.88900 9.12600 28.80200
H  5.10700 9.67300 26.83400
H  3.61700 9.24200 25.97100
H  4.81500 10.26300 25.13100
H  8.09500 4.57100 22.45800
H  8.23800 1.78000 22.78400
H  5.48500 3.74700 23.29400
H  6.02500 2.25100 22.75400
H  6.30000 3.74500 21.67000
H  10.82900 3.34900 23.57900
H  10.07000 3.93100 22.11500
H  10.19900 1.06200 21.88100
H  11.82900 1.64200 22.22100
H  10.93500 2.25500 20.90200
H  12.28900 -0.69500 26.60600
H  10.82300 -1.19900 25.85200
H  11.19600 -1.68900 27.60000
H  10.89600 1.63300 31.86200
H  10.19500 -1.07300 34.97900
H  8.52500 -0.98900 34.38200
H  9.15800 0.38600 35.23400

