158

Mg 2.30500 -2.44200 43.38800
C  5.46000 -1.05400 42.68200
C  0.85900 0.18200 41.69600
C  -0.62800 -4.06500 43.74500
C  3.96500 -5.18200 44.73600
N  3.13600 -0.73500 42.15800
C  4.41900 -0.31200 42.13800
C  4.63800 0.99700 41.40400
C  3.17600 1.42400 41.25300
C  2.26200 0.26200 41.79600
C  2.71500 2.81100 41.86200
C  5.42700 0.97900 40.06700
C  5.94000 2.38900 39.58700
H  5.87600 2.82800 38.14100
N  0.43200 -2.05100 42.69700
C  -0.00500 -0.85200 42.13800
C  -1.40100 -0.87000 41.86100
C  -1.86000 -2.14300 42.41400
C  -0.70300 -2.81700 43.01500
C  -2.13800 0.27200 41.15400
C  -3.33800 -2.57000 42.52200
O  -4.29400 -1.93400 42.05400
C  -3.69200 -3.83300 43.19400
N  1.77000 -4.52000 43.94000
C  0.46100 -4.85600 44.13700
C  0.33100 -6.17600 44.89300
C  1.81400 -6.53400 45.22000
C  2.56900 -5.32700 44.59000
C  -0.69900 -6.09600 46.09100
C  2.36500 -7.87800 44.78200
C  2.70400 -7.98100 43.32100
N  4.26300 -3.03600 43.67900
C  4.75600 -4.09400 44.35600
C  6.16000 -3.95900 44.52700
C  6.45800 -2.75700 43.92200
C  5.25700 -2.25000 43.38300
C  7.04900 -4.95800 45.26300
C  7.57400 -1.90800 43.63300
O  8.75900 -2.01600 43.92700
C  6.92700 -0.77300 42.89600
C  7.16700 0.38400 43.74900
O  6.57800 0.74400 44.74300
O  8.19300 1.11500 43.19000
C  8.47600 2.45000 43.81600
H  0.42800 1.06900 41.22600
H  -1.47700 -4.73800 43.88600
H  4.52600 -5.93500 45.29300
H  5.15100 1.65200 42.10800
H  3.06400 1.42100 40.16800
H  2.00700 3.32400 41.21200
H  3.57700 3.46100 42.01200
H  2.21200 2.64900 42.81500
H  4.81900 0.60100 39.24600
H  6.39700 0.51300 40.24400
H  7.00900 2.47200 39.78000
H  5.37400 3.08000 40.21100
H  -1.86400 0.28300 40.09900
H  -1.86700 1.26700 41.50800
H  -3.21800 0.24300 41.30200
H  -3.40900 -4.76500 42.70700
H  -4.77600 -3.88000 43.29800
H  -3.37600 -3.80800 44.23700
H  -0.10200 -6.79600 44.10800
H  1.92400 -6.57500 46.30400
H  -0.23500 -6.15600 47.07500
H  -1.17200 -7.07100 45.97700
H  -1.41200 -5.27100 46.06500
H  1.61800 -8.64700 44.97900
H  3.25300 -8.11200 45.36900
H  2.39600 -7.18400 42.64400
H  2.25200 -8.90400 42.95900
H  3.77300 -8.11300 43.15200
H  6.49100 -5.63100 45.91500
H  7.90800 -4.40300 45.64000
H  7.50900 -5.69200 44.60100
H  7.44900 -0.55300 41.96500
H  7.54300 2.99600 43.96000
H  9.03000 2.94900 43.02100
H  9.05400 2.29200 44.72700
Mg -13.31800 16.41800 41.61700
C  -10.20900 14.84600 40.95600
C  -12.11300 19.22600 40.31200
C  -16.47900 17.64900 41.78500
C  -14.75600 13.22800 42.06600
N  -11.30600 16.96200 40.83900
C  -10.18700 16.22900 40.59800
C  -8.98900 17.07800 40.20500
C  -9.67800 18.54100 40.30500
C  -11.13400 18.22700 40.44000
C  -9.08000 19.41800 41.49600
C  -8.41000 16.62400 38.85100
C  -6.91000 16.37800 38.75200
H  -6.24400 17.31800 37.79300
N  -14.19400 18.18400 41.19100
C  -13.49800 19.21500 40.56100
C  -14.38900 20.35800 40.32200
C  -15.70200 20.00700 40.87600
C  -15.51000 18.54700 41.30200
C  -13.99400 21.62600 39.61600
C  -16.81800 20.94400 40.97100
O  -16.76300 22.12500 40.57400
C  -18.17300 20.54600 41.50900
N  -15.40900 15.47300 41.85100
C  -16.45000 16.27800 42.08600
C  -17.73600 15.43600 42.36500
C  -17.18100 13.98700 42.23200
C  -15.71400 14.21800 42.04400
C  -18.36300 15.79300 43.77500
C  -17.77300 13.22000 41.02800
C  -18.04000 11.71500 41.26400
N  -12.66000 14.38800 41.59300
C  -13.34900 13.22600 41.76000
C  -12.33200 12.14800 41.91000
C  -11.08700 12.75500 41.61400
C  -11.37200 14.12500 41.32200
C  -12.65600 10.66300 42.22500
C  -9.64800 12.55200 41.51900
O  -9.00800 11.49900 41.67400
C  -9.04000 13.88400 40.99000
C  -7.99000 14.33000 41.98300
O  -8.23200 14.55900 43.19200
O  -6.71300 14.28500 41.43300
C  -5.66300 14.78000 42.39200
H  -11.60000 20.11800 39.94600
H  -17.49800 18.03500 41.86200
H  -15.01100 12.19400 42.30700
H  -8.26400 17.00500 41.01500
H  -9.57300 19.14700 39.40600
H  -9.70400 20.27100 41.76400
H  -8.03400 19.71200 41.41300
H  -9.17300 18.72600 42.33200
H  -8.56100 17.47800 38.19100
H  -8.93000 15.78800 38.38300
H  -6.51600 15.38300 38.54400
H  -6.49400 16.66200 39.71900
H  -13.16400 21.56800 38.91300
H  -13.59000 22.26900 40.39800
H  -14.69800 22.17800 38.99400
H  -18.63200 19.78800 40.87300
H  -18.96300 21.29000 41.60200
H  -17.88500 20.07800 42.45000
H  -18.40500 15.65100 41.53200
H  -17.39500 13.37600 43.10900
H  -18.59100 14.82200 44.21500
H  -19.33100 16.25100 43.57200
H  -17.80800 16.45300 44.44100
H  -17.04300 13.34100 40.22800
H  -18.67300 13.73100 40.68500
H  -17.81700 11.50400 42.31000
H  -17.33500 11.15800 40.64800
H  -19.10500 11.55400 41.09200
H  -12.73600 10.14600 41.26900
H  -13.51500 10.59100 42.89200
H  -11.74700 10.27400 42.68200
H  -8.57500 13.64500 40.03400
H  -4.76200 15.20100 41.94400
H  -5.36800 13.95200 43.03700
H  -6.06000 15.58600 43.00900

