158

Mg 23.45600 -4.42700 44.74700
C  25.22100 -1.71100 43.42800
C  20.72500 -3.54100 43.00600
C  22.00400 -7.57500 45.45000
C  26.42800 -5.58600 46.17600
N  23.10700 -2.82500 43.16100
C  23.90700 -1.83400 42.88300
C  23.18700 -0.82200 41.92700
C  21.68100 -1.23200 42.17200
C  21.81800 -2.62300 42.76300
C  20.82200 -0.29000 43.00900
C  23.68700 -1.20200 40.52800
C  23.97000 -0.03900 39.46300
H  24.79800 -0.53100 38.25000
N  21.51500 -5.42400 44.30600
C  20.53400 -4.86200 43.54000
C  19.39800 -5.73900 43.55900
C  19.73000 -6.85300 44.42200
C  21.12800 -6.67700 44.73200
C  18.11100 -5.39100 42.95300
C  18.84100 -8.05500 44.68200
O  17.69300 -8.12700 44.22000
C  19.27300 -9.29400 45.34100
N  24.21400 -6.40600 45.62700
C  23.36800 -7.45700 45.85000
C  24.22000 -8.59900 46.55600
C  25.59100 -7.99000 46.67700
C  25.39500 -6.60300 46.11000
C  23.62200 -9.07600 47.91100
C  26.74200 -8.78200 45.93200
C  28.17000 -8.47200 46.50700
N  25.41800 -3.74200 44.95700
C  26.47800 -4.29300 45.66000
C  27.59900 -3.31300 45.63600
C  27.15100 -2.32900 44.68400
C  25.82100 -2.66200 44.27900
C  28.95200 -3.46900 46.33300
C  27.56500 -1.14400 43.96500
O  28.66200 -0.60700 43.99400
C  26.34200 -0.70100 43.03600
C  26.02300 0.73800 43.22300
O  25.54500 1.36800 44.17600
O  26.60700 1.30900 42.07800
C  26.62800 2.75500 41.91000
H  19.75400 -3.17400 42.66400
H  21.52300 -8.47200 45.84600
H  27.38600 -5.85500 46.62600
H  23.20500 0.26500 42.00300
H  21.09100 -1.37400 41.26600
H  20.43800 0.49500 42.35800
H  21.33700 0.20900 43.83000
H  19.92600 -0.83000 43.31700
H  22.78800 -1.71200 40.18100
H  24.48700 -1.94200 40.55300
H  24.50500 0.67700 40.08600
H  22.97900 0.22600 39.09300
H  17.55500 -6.22300 42.52200
H  18.18800 -4.65400 42.15400
H  17.52200 -4.92300 43.74300
H  18.39700 -9.88800 45.60200
H  19.59900 -9.01900 46.34400
H  20.03200 -9.70900 44.67800
H  24.22100 -9.37700 45.79200
H  25.88900 -7.90800 47.72200
H  24.08000 -8.68300 48.81800
H  23.76400 -10.14600 48.06700
H  22.54500 -8.91400 47.91700
H  26.72300 -8.34500 44.93400
H  26.51100 -9.84300 45.83600
H  28.73700 -9.35600 46.79900
H  28.22100 -7.88600 47.42500
H  28.71100 -7.95400 45.71500
H  28.82000 -3.02300 47.31900
H  29.61200 -2.83600 45.74000
H  29.23800 -4.52000 46.35700
H  26.67300 -1.01200 42.04500
H  25.66900 3.06900 41.49800
H  27.39300 3.05300 41.19300
H  26.84900 3.19000 42.88500
Mg 9.93200 46.68500 26.29200
C  7.64400 47.12100 28.97000
C  12.32400 48.17300 28.31500
C  11.85600 46.80000 23.58100
C  7.19600 46.02300 24.27600
N  10.07200 47.26100 28.41100
C  9.01200 47.29900 29.34400
C  9.47200 47.67600 30.81300
C  10.77800 48.39100 30.41800
C  11.13300 47.82300 29.01200
C  10.58400 49.96200 30.43200
C  9.62400 46.34300 31.65300
C  9.33500 46.42300 33.13700
H  10.06900 45.39100 34.02400
N  11.89600 47.22700 25.97400
C  12.69800 47.85000 26.96000
C  14.01400 47.92500 26.43800
C  13.94600 47.55100 25.06200
C  12.56900 47.21900 24.80000
C  15.20000 48.41500 27.24200
C  15.09800 47.45300 24.02100
O  14.77000 47.12200 22.89500
C  16.47300 47.66900 24.32400
N  9.56700 46.54100 24.17400
C  10.59300 46.49500 23.28400
C  10.05200 46.25000 21.80300
C  8.58500 45.85100 22.10200
C  8.45600 46.01600 23.62600
C  10.32000 47.47200 20.92400
C  7.97900 44.51100 21.51200
C  7.43700 44.60300 20.07100
N  7.84700 46.76000 26.50500
C  6.86600 46.41100 25.62300
C  5.55900 46.44900 26.23100
C  5.79700 46.68900 27.61000
C  7.19400 46.90700 27.68600
C  4.20400 46.22900 25.52600
C  5.17100 46.88200 28.87500
O  3.97900 46.81900 29.21200
C  6.29500 47.34400 29.77300
C  6.10400 46.52700 31.04500
O  6.47900 45.35900 31.15900
O  5.43700 47.21400 32.01900
C  5.17400 46.35400 33.16400
H  13.05300 48.71100 28.92400
H  12.42300 46.94700 22.65900
H  6.32700 45.66300 23.72100
H  8.74800 48.35200 31.26900
H  11.58700 48.15100 31.10800
H  10.40200 50.32100 29.41900
H  11.47700 50.42400 30.85200
H  9.79600 50.28000 31.11500
H  10.64400 45.96700 31.57200
H  8.91400 45.66100 31.18600
H  8.27700 46.19200 33.26100
H  9.48500 47.45200 33.46300
H  15.03400 48.42200 28.32000
H  15.72200 49.28300 26.84100
H  15.94900 47.62300 27.24600
H  16.89600 46.86700 24.92900
H  16.69000 48.47500 25.02400
H  16.95000 47.84800 23.36000
H  10.55300 45.43300 21.28500
H  7.86600 46.56700 21.70400
H  10.99900 48.17100 21.41300
H  9.38800 47.96100 20.64200
H  10.71900 47.12900 19.96900
H  7.11800 44.21900 22.11300
H  8.78200 43.78300 21.63400
H  8.15100 44.11000 19.41100
H  7.36400 45.57600 19.58500
H  6.42400 44.22300 19.93900
H  3.84000 45.25200 25.84200
H  4.25200 46.31000 24.44000
H  3.42600 46.91900 25.85200
H  6.22600 48.39100 30.06700
H  4.29400 46.82700 33.59900
H  6.07800 46.24700 33.76500
H  4.82100 45.33100 33.03300

