158

Mg 47.75300 15.79400 28.68300
C  45.60900 15.44200 31.53100
C  49.79000 17.47700 30.58400
C  49.63100 16.18300 25.98700
C  45.23100 14.41000 26.81100
N  47.61600 16.42900 30.81300
C  46.81200 16.08600 31.80200
C  47.28900 16.69800 33.11100
C  48.60400 17.41400 32.69800
C  48.64000 17.07000 31.27700
C  48.73500 18.82400 33.06800
C  47.42500 15.60000 34.27400
C  47.10500 16.09200 35.63300
H  46.82000 17.62800 35.87000
N  49.48400 16.64300 28.34300
C  50.21000 17.33400 29.25600
C  51.47700 17.81500 28.63400
C  51.45700 17.41400 27.24400
C  50.13500 16.74400 27.14000
C  52.44500 18.70900 29.42100
C  52.54800 17.53000 26.12600
O  52.44700 17.00700 25.03400
C  53.88100 18.23600 26.50800
N  47.36800 15.48300 26.60500
C  48.35200 15.60000 25.69200
C  47.96800 14.96700 24.29300
C  46.54100 14.39300 24.61100
C  46.31500 14.80200 26.06900
C  47.96100 16.05200 23.11800
C  46.13400 12.93200 24.21400
C  46.42500 11.87700 25.34800
N  45.73800 15.05700 29.05300
C  44.85900 14.46500 28.16100
C  43.70100 13.97300 28.80700
C  43.94900 14.39300 30.17600
C  45.22500 14.99900 30.22400
C  42.46400 13.23600 28.26200
C  43.41800 14.38400 31.65300
O  42.39400 13.95400 32.10800
C  44.52400 15.05100 32.52200
C  43.91400 16.17300 33.24100
O  44.06200 17.35600 32.97400
O  43.30200 15.65200 34.40100
C  42.74300 16.64800 35.30200
H  50.61300 17.83800 31.20500
H  50.23900 16.29400 25.08700
H  44.47900 13.83300 26.26700
H  46.48500 17.38700 33.37000
H  49.50600 16.91700 33.05300
H  48.94500 19.48300 32.22600
H  49.49300 18.79900 33.85200
H  47.81300 19.17700 33.53000
H  48.46200 15.27200 34.20900
H  46.69900 14.83500 34.00000
H  47.81500 15.83500 36.41900
H  46.18300 15.65000 36.01200
H  53.08200 19.33600 28.79800
H  53.15600 18.03300 29.89700
H  51.92500 19.33000 30.15100
H  54.51200 18.06400 25.63600
H  54.36500 17.76400 27.36200
H  53.77900 19.30200 26.71000
H  48.67600 14.17800 24.03600
H  45.81000 15.00700 24.08500
H  47.06100 15.86200 22.53200
H  48.75500 15.94700 22.37900
H  47.86000 17.05700 23.52800
H  46.69900 12.65700 23.32300
H  45.07000 12.95300 23.97800
H  47.01000 12.26600 26.18200
H  47.06200 11.13700 24.86400
H  45.49300 11.44900 25.71600
H  42.75700 12.69900 27.35900
H  41.64300 13.91100 28.02100
H  42.10800 12.50700 28.98900
H  44.76000 14.32100 33.29700
H  41.67600 16.73500 35.09600
H  43.34700 17.55100 35.20900
H  42.83400 16.37600 36.35300
Mg 47.06000 24.46900 27.48800
C  48.09800 26.71100 29.99100
C  46.29500 22.34800 30.00300
C  46.29500 22.25700 25.23800
C  48.57400 26.40600 25.21400
N  47.06700 24.54800 29.71500
C  47.46900 25.58700 30.50700
C  47.16100 25.30600 32.02800
C  46.76600 23.81300 31.95100
C  46.73600 23.55700 30.45800
C  47.78700 22.90800 32.61400
C  46.21700 26.42700 32.67600
C  45.60100 26.01300 33.94100
H  45.70600 26.90900 35.15800
N  46.35100 22.58700 27.55400
C  46.12600 21.84300 28.69000
C  45.55000 20.56500 28.33300
C  45.41900 20.57700 26.90800
C  46.04000 21.83900 26.51500
C  45.28600 19.47300 29.41900
C  44.79800 19.47400 25.99100
O  44.89600 19.51300 24.77500
C  44.11900 18.27100 26.54600
N  47.46700 24.38500 25.50300
C  46.85500 23.43900 24.74500
C  47.18500 23.64400 23.23400
C  47.82000 25.09800 23.25700
C  47.94400 25.34500 24.74800
C  48.08600 22.53200 22.59800
C  46.88400 26.17700 22.58600
C  47.10200 26.37200 21.01200
N  48.19500 26.18500 27.55200
C  48.67600 26.90500 26.50700
C  49.23600 28.14800 27.01200
C  49.04400 28.15700 28.38100
C  48.42300 26.94600 28.63800
C  49.55300 29.36800 26.09300
C  49.10900 28.91500 29.56500
O  49.49000 30.05600 29.75800
C  48.58100 27.94600 30.66800
C  49.51200 27.84900 31.76300
O  50.44400 27.09000 31.82400
O  49.02000 28.62300 32.80800
C  49.77400 28.52700 34.06700
H  45.85400 21.69000 30.75500
H  45.77900 21.74900 24.42100
H  49.02400 27.04900 24.45500
H  48.13200 25.36300 32.51900
H  45.75100 23.62200 32.29900
H  48.40700 23.40700 33.36000
H  48.48100 22.39400 31.95000
H  47.26200 22.13200 33.17100
H  45.41200 26.60700 31.96400
H  46.71900 27.34100 32.99500
H  45.86500 25.00000 34.24400
H  44.56500 26.05600 33.60400
H  44.39000 18.88300 29.23100
H  45.09700 19.86800 30.41800
H  46.16700 18.83600 29.50400
H  43.23800 18.60200 27.09600
H  44.80700 17.80000 27.24800
H  43.91400 17.54900 25.75600
H  46.26500 23.72800 22.65500
H  48.77000 25.20900 22.73500
H  48.31400 21.84500 23.41200
H  49.07900 22.89200 22.32700
H  47.54600 22.04100 21.78900
H  46.89900 27.16200 23.05500
H  45.85500 25.81900 22.60000
H  46.41200 25.59600 20.68100
H  48.17200 26.33400 20.80800
H  46.77900 27.32500 20.59400
H  49.89000 29.11000 25.08900
H  50.42100 29.85500 26.53700
H  48.59300 29.88000 26.04200
H  47.63500 28.42700 30.91600
H  49.67400 27.46000 34.27100
H  49.25800 28.97600 34.91600
H  50.77400 28.94400 33.94900

