158

Mg 47.77800 14.94500 28.18800
C  45.79600 15.00700 31.03500
C  49.89500 17.25900 29.82900
C  49.55200 15.08700 25.33800
C  45.63300 12.82500 26.63000
N  47.82300 16.15300 30.14700
C  47.03800 15.74600 31.21100
C  47.41700 16.34900 32.59200
C  48.56900 17.29600 32.14100
C  48.76900 16.93900 30.60400
C  48.42100 18.81500 32.38700
C  47.82900 15.29900 33.69000
C  46.93700 15.19500 34.89800
H  47.37400 15.95000 36.16000
N  49.49500 16.03600 27.67500
C  50.26800 16.86100 28.49500
C  51.47200 17.24300 27.73800
C  51.33700 16.67200 26.42600
C  50.07400 15.91100 26.40500
C  52.54700 18.07000 28.35800
C  52.30100 16.81200 25.15800
O  52.11600 16.26000 24.06000
C  53.61800 17.57500 25.29500
N  47.56100 14.22500 26.21100
C  48.44900 14.34700 25.19900
C  48.01300 13.43400 24.00700
C  46.85300 12.52800 24.51100
C  46.69100 13.21200 25.87800
C  47.79400 14.21600 22.65900
C  47.19500 10.98100 24.47500
C  48.23000 10.37700 25.48400
N  45.93000 14.25900 28.52600
C  45.21000 13.31900 27.84300
C  43.96100 13.08700 28.56500
C  44.17700 13.74700 29.80800
C  45.40500 14.35700 29.76600
C  42.80500 12.26400 28.04700
C  43.51500 13.95100 31.09000
O  42.48600 13.56200 31.58400
C  44.66600 14.68800 31.93900
C  43.98200 15.91200 32.45300
O  44.13500 17.02600 32.01200
O  43.39400 15.59300 33.68000
C  42.78400 16.64600 34.44900
H  50.54600 17.99600 30.30400
H  50.15000 15.01300 24.42700
H  44.94100 12.02600 26.35800
H  46.56400 16.88500 33.00900
H  49.49900 17.11000 32.67800
H  48.09800 19.34200 31.49000
H  49.36800 19.21000 32.75700
H  47.56400 18.99400 33.03700
H  48.87600 15.41300 33.97000
H  47.75300 14.38600 33.10000
H  46.90200 14.16000 35.23700
H  45.88600 15.35600 34.66000
H  53.53100 17.76200 28.00600
H  52.48100 18.00800 29.44500
H  52.38500 19.09900 28.03600
H  53.32900 18.60500 25.50300
H  54.04200 17.44600 24.29900
H  54.36900 17.11000 25.93400
H  48.89600 12.81400 23.85700
H  46.00300 12.68200 23.84700
H  48.08700 15.26100 22.76700
H  46.75800 14.16400 22.32600
H  48.35900 13.86400 21.79600
H  47.66100 10.67800 23.53800
H  46.26100 10.43100 24.59900
H  47.79900 9.44500 25.85100
H  48.48400 11.04400 26.30800
H  49.16900 10.02600 25.05600
H  43.16100 11.24200 27.91200
H  42.41800 12.63400 27.09800
H  41.89900 12.38600 28.64100
H  45.06700 14.10600 32.77000
H  43.28100 16.68700 35.41800
H  41.73200 16.36900 34.52500
H  42.86900 17.65400 34.04400
Mg 47.38600 34.19000 26.48500
C  45.90200 32.69600 29.32800
C  47.99600 36.98900 28.33400
C  48.37500 35.73300 23.63100
C  46.61200 31.24100 24.72400
N  46.84800 34.79200 28.56700
C  46.40000 33.97100 29.51700
C  46.47600 34.67600 30.89800
C  46.72900 36.13200 30.48400
C  47.23900 36.01300 29.06200
C  45.50800 37.15900 30.54800
C  47.68700 34.16500 31.73000
C  47.48300 34.20300 33.29400
H  46.75400 35.40000 33.91600
N  48.30600 35.99900 26.07000
C  48.42700 37.01700 26.97200
C  49.28300 38.06600 26.37800
C  49.34900 37.75400 24.95000
C  48.55600 36.53400 24.82400
C  49.76500 39.28300 27.14900
C  50.04900 38.60900 23.89900
O  50.17200 38.07000 22.81500
C  50.79200 39.92600 24.14500
N  47.26900 33.63300 24.40000
C  47.89500 34.40700 23.46600
C  48.10900 33.56800 22.20900
C  47.86900 32.14500 22.67400
C  47.19900 32.30900 24.01000
C  47.41300 34.21100 20.99900
C  49.04000 31.18500 22.54200
C  49.95100 30.94000 23.72400
N  46.41700 32.32900 26.87100
C  46.23300 31.25900 26.08700
C  45.62500 30.24000 26.83100
C  45.40900 30.78200 28.08300
C  45.95800 32.07900 28.12400
C  45.25500 28.92500 26.28800
C  44.79900 30.44600 29.37100
O  44.38300 29.34600 29.78400
C  45.08100 31.67300 30.22100
C  45.47100 31.32200 31.60200
O  46.58700 31.12700 32.06000
O  44.30600 31.25800 32.42400
C  44.36300 30.83900 33.84800
H  48.27400 37.80300 29.00600
H  48.82500 36.18700 22.74600
H  46.61000 30.31400 24.14700
H  45.51700 34.50200 31.38500
H  47.45600 36.62600 31.12800
H  44.61400 36.59600 30.81600
H  45.26700 37.58000 29.57200
H  45.58700 38.05900 31.15700
H  48.60500 34.73300 31.57600
H  48.00500 33.16200 31.44700
H  48.46000 34.12400 33.77100
H  46.97300 33.32000 33.67800
H  50.80400 39.51900 26.91400
H  49.98000 39.15400 28.21000
H  49.05000 40.07000 26.90900
H  50.19800 40.71500 24.60600
H  51.17500 40.31900 23.20300
H  51.70700 39.70300 24.69300
H  49.17600 33.78300 22.16600
H  47.06000 31.73400 22.07000
H  46.74200 35.02900 21.26000
H  46.88400 33.42300 20.46200
H  48.15200 34.56500 20.28100
H  49.67800 31.67200 21.80400
H  48.66900 30.24900 22.12400
H  49.72100 31.34600 24.70900
H  50.99000 31.17600 23.49300
H  49.91900 29.85300 23.80500
H  44.67500 28.29900 26.96600
H  46.12300 28.30500 26.06200
H  44.68600 29.03900 25.36500
H  44.09300 32.11600 30.34200
H  44.57700 31.53900 34.65600
H  44.98300 29.94800 33.95100
H  43.37900 30.48300 34.15100

