158

Mg 53.04700 23.19100 44.34200
C  50.44400 25.37600 43.33900
C  51.42100 20.61300 42.97600
C  55.87400 21.47300 44.68400
C  54.76100 25.94900 45.79700
N  51.23800 23.04600 43.19500
C  50.29400 24.04700 42.95000
C  48.98000 23.41700 42.43100
C  49.28500 21.89900 42.49400
C  50.77100 21.81000 42.87700
C  48.38800 21.15800 43.48800
C  48.67600 23.86100 40.89900
C  49.78100 23.82400 39.90000
H  49.55600 24.35000 38.48600
N  53.57900 21.25600 43.82300
C  52.73600 20.31900 43.32200
C  53.45300 19.06000 43.21600
C  54.81200 19.32900 43.67100
C  54.82300 20.79000 44.05500
C  52.80200 17.84900 42.65500
C  55.97200 18.29200 43.59400
O  55.90400 17.25100 42.98600
C  57.24100 18.61900 44.32200
N  55.23900 23.78100 44.75000
C  56.09500 22.81200 44.98000
C  57.32500 23.20200 45.83500
C  56.91400 24.71100 46.11400
C  55.52700 24.82700 45.57400
C  57.83100 22.37800 46.95500
C  57.85900 25.82900 45.57100
C  58.58800 26.57700 46.69400
N  52.75000 25.29900 44.65000
C  53.45800 26.19400 45.36400
C  52.61600 27.37900 45.54600
C  51.41000 27.11400 44.78500
C  51.64600 25.87200 44.13800
C  52.98300 28.56700 46.27600
C  50.13800 27.73500 44.35200
O  49.65900 28.82100 44.58400
C  49.51400 26.56100 43.40100
C  49.20000 27.08400 42.02900
O  49.88500 26.97500 41.03700
O  47.94100 27.70900 42.04200
C  47.36000 28.07000 40.73200
H  50.87000 19.73200 42.63900
H  56.66000 20.87700 45.15200
H  55.29000 26.74200 46.33000
H  48.19600 23.76800 43.10200
H  49.15700 21.33300 41.57200
H  47.96400 20.31800 42.93800
H  47.59800 21.80000 43.87800
H  48.75600 20.69200 44.40300
H  48.30700 24.88500 40.94900
H  47.84400 23.20500 40.64500
H  50.29200 22.87100 40.03600
H  50.51300 24.56800 40.21400
H  53.50000 17.01700 42.56100
H  52.55300 18.00200 41.60500
H  52.13500 17.32100 43.33500
H  57.09700 18.86900 45.37300
H  57.68000 19.43400 43.74600
H  57.97500 17.81600 44.25300
H  58.15400 23.28500 45.13200
H  56.81800 24.82600 47.19400
H  57.79400 23.09300 47.77600
H  58.86300 22.04800 46.83700
H  57.15800 21.54300 47.15100
H  57.37700 26.40300 44.77900
H  58.66400 25.31100 45.04800
H  59.59800 26.27000 46.96600
H  57.97000 26.67900 47.58500
H  58.57100 27.62500 46.39400
H  52.02900 28.94100 46.64800
H  53.46500 29.30700 45.63700
H  53.53400 28.42600 47.20600
H  48.60300 26.21800 43.89200
H  47.14900 29.11700 40.51600
H  46.40500 27.54400 40.73600
H  47.92100 27.58900 39.93200
Mg 6.91100 54.49800 40.73100
C  6.49600 50.96000 41.20200
C  10.17700 54.00400 40.02500
C  6.92400 57.61700 39.83000
C  3.36400 54.65100 41.43300
N  8.08400 52.65300 40.42100
C  7.75300 51.34300 40.72100
C  8.87600 50.39200 40.53400
C  10.12400 51.40000 40.43700
C  9.44200 52.76700 40.26000
C  11.20700 51.33200 41.53500
C  8.76100 49.35200 39.33300
C  8.81300 49.83900 37.93900
H  7.41200 49.79100 37.24200
N  8.36600 55.67400 39.89700
C  9.69100 55.30300 39.77800
C  10.41500 56.44200 39.43000
C  9.54200 57.57200 39.32400
C  8.19000 56.98100 39.58000
C  11.91600 56.35200 39.21600
C  9.99400 59.00900 38.99000
O  11.17800 59.31600 38.88300
C  9.06000 60.10300 38.81700
N  5.37500 55.89700 40.47700
C  5.65500 57.14700 40.17200
C  4.49000 58.06700 40.55600
C  3.35200 57.02400 40.81900
C  4.09200 55.72000 40.95900
C  4.77600 58.94500 41.82800
C  2.27000 57.02800 39.65400
C  1.15200 58.00100 39.75000
N  5.18700 53.13100 41.16300
C  3.85900 53.33300 41.52900
C  3.24200 52.20900 42.06900
C  4.28800 51.20400 41.96300
C  5.38100 51.82500 41.39500
C  1.83800 51.98300 42.61300
C  4.58300 49.86700 42.42100
O  3.87500 48.97600 42.94100
C  5.96600 49.57200 41.67900
C  5.68600 48.58100 40.51200
O  5.11600 48.82900 39.46200
O  6.14700 47.36200 40.87400
C  5.90200 46.30600 39.89900
H  11.25700 53.84300 40.04600
H  6.86700 58.70100 39.71300
H  2.33400 54.69500 41.79400
H  8.94200 49.87300 41.49100
H  10.71400 51.24300 39.53500
H  11.19200 52.23400 42.14600
H  12.19900 51.06900 41.16800
H  10.90700 50.49000 42.15900
H  7.93200 48.64700 39.39000
H  9.71300 48.82600 39.40600
H  9.44800 49.27400 37.25700
H  9.11300 50.88700 37.93600
H  12.45000 56.63100 40.12400
H  12.09600 56.89500 38.28800
H  12.22900 55.33800 38.97000
H  8.68000 60.43500 39.78300
H  8.19700 59.75100 38.25100
H  9.47200 60.95600 38.27900
H  4.26300 58.71000 39.70500
H  2.87900 57.22300 41.78100
H  4.27100 58.60300 42.73100
H  4.51400 59.97800 41.60000
H  5.85000 58.89800 42.00700
H  1.84500 56.03500 39.50800
H  2.80100 57.16800 38.71200
H  1.21300 58.71300 38.92700
H  1.08800 58.34300 40.78300
H  0.15500 57.58000 39.61500
H  1.41800 51.06400 42.20500
H  1.25100 52.75000 42.10900
H  1.75500 51.95700 43.70000
H  6.65300 49.04900 42.34300
H  4.91300 46.34300 39.44100
H  6.12700 45.33900 40.34700
H  6.60900 46.46000 39.08400

