158

Mg 47.48400 24.03500 28.21000
C  48.45600 26.32600 30.64900
C  46.65700 21.88200 30.56900
C  46.86800 21.90100 25.67100
C  48.89800 26.35000 25.73600
N  47.82300 24.13500 30.39900
C  47.87700 25.19800 31.21600
C  47.60700 24.85600 32.68700
C  47.10600 23.38200 32.54900
C  47.18800 23.10900 31.03300
C  47.72300 22.36300 33.48700
C  46.55700 25.72300 33.43600
C  47.11600 26.59500 34.59400
H  46.12900 26.82200 35.80100
N  46.87400 22.11400 28.15000
C  46.56700 21.34700 29.25700
C  46.10700 20.10300 28.80200
C  46.23300 20.15500 27.31400
C  46.76300 21.42600 26.98300
C  45.43900 19.07800 29.63900
C  45.84800 19.08200 26.37000
O  46.07600 19.12600 25.17100
C  45.23300 17.81100 26.93400
N  47.95000 24.09400 26.00500
C  47.32700 23.15000 25.19200
C  47.51700 23.47100 23.66300
C  48.10500 24.92500 23.68800
C  48.34100 25.16300 25.23300
C  48.45000 22.47500 22.92200
C  47.10600 25.97200 23.19300
C  47.62700 27.16400 22.38400
N  48.45300 25.96800 28.14000
C  48.97000 26.75700 27.10700
C  49.52600 28.03600 27.66500
C  49.25100 27.95100 29.06000
C  48.71100 26.62700 29.30900
C  49.95200 29.14600 26.87700
C  49.34400 28.67000 30.31900
O  49.75100 29.81800 30.55700
C  48.81100 27.63600 31.39200
C  49.86700 27.45800 32.40100
O  50.59500 26.45700 32.44300
O  49.90500 28.48300 33.29900
C  50.39600 28.10300 34.56000
H  46.23100 21.34200 31.41700
H  46.84600 21.23700 24.80500
H  49.14800 27.02500 24.91500
H  48.61000 24.77100 33.10600
H  46.02700 23.30700 32.69000
H  48.23200 21.60600 32.89000
H  47.00800 21.83700 34.12000
H  48.40800 22.89600 34.14700
H  45.81400 25.10100 33.93400
H  46.01700 26.35800 32.73300
H  47.42900 27.57600 34.23500
H  47.97400 26.14100 35.08900
H  45.49700 19.45300 30.66100
H  46.08600 18.20800 29.53200
H  44.40100 18.78000 29.49300
H  45.75100 17.30500 27.74900
H  45.28300 17.06900 26.13800
H  44.21400 17.96700 27.28800
H  46.51800 23.40800 23.23100
H  49.04000 25.02100 23.13700
H  49.14800 21.96200 23.58300
H  48.95600 22.97200 22.09400
H  47.85400 21.65400 22.52300
H  46.49500 26.30000 24.03400
H  46.44300 25.51400 22.45800
H  47.54500 27.02200 21.30600
H  48.68000 27.25400 22.65000
H  47.19000 28.14600 22.56100
H  49.09600 29.38700 26.24700
H  50.75800 28.86200 26.20000
H  50.20800 29.99900 27.50600
H  47.97500 28.09000 31.92400
H  51.40200 27.69100 34.47300
H  49.68200 27.44800 35.05900
H  50.44700 28.98400 35.19900
Mg 9.44100 48.03200 25.08900
C  7.28300 48.58300 27.74100
C  12.02100 48.94300 27.19300
C  11.55200 47.65100 22.64100
C  6.73000 47.76500 22.92300
N  9.63600 48.57800 27.28400
C  8.58900 48.67300 28.18400
C  9.10000 48.94500 29.53900
C  10.56200 49.42900 29.26400
C  10.79500 48.96100 27.81900
C  10.72000 50.96200 29.43300
C  8.98600 47.82800 30.57200
C  9.47700 48.13800 31.97600
H  8.94900 47.20700 33.10500
N  11.56400 48.26100 25.00200
C  12.43800 48.65300 25.90400
C  13.81600 48.50200 25.37600
C  13.73000 47.93100 24.03100
C  12.25400 47.92600 23.83900
C  14.95400 48.73400 26.19700
C  14.77900 47.44900 23.07200
O  14.45300 47.00000 21.94900
C  16.17400 47.41400 23.54600
N  9.20400 47.69500 23.13500
C  10.21600 47.61700 22.24200
C  9.76600 47.11700 20.85200
C  8.20200 47.30100 20.89700
C  7.99800 47.54100 22.39900
C  10.52700 47.69100 19.57500
C  7.44500 46.03000 20.34500
C  6.53100 46.34600 19.11400
N  7.34500 48.22900 25.23300
C  6.36100 47.98300 24.27200
C  5.04700 48.39700 24.89700
C  5.42200 48.43300 26.22400
C  6.82600 48.34600 26.38400
C  3.65900 48.33700 24.30800
C  4.83900 48.59900 27.54300
O  3.66500 48.73400 27.85500
C  6.02100 48.65500 28.62400
C  5.83200 47.43300 29.42500
O  6.02600 46.29800 28.95700
O  5.45600 47.72800 30.69800
C  5.30400 46.56800 31.54800
H  12.72100 49.38300 27.90700
H  12.25800 47.47700 21.82700
H  5.97900 47.83200 22.13300
H  8.46700 49.76200 29.88500
H  11.30200 48.90800 29.87300
H  9.76300 51.39700 29.72200
H  11.21600 51.46600 28.60300
H  11.37500 51.16100 30.28000
H  9.35600 46.97200 30.00800
H  7.95000 47.60300 30.82700
H  9.06200 49.12300 32.18900
H  10.56200 48.13600 31.86800
H  14.66000 48.75300 27.24700
H  15.35900 49.68200 25.84200
H  15.73000 48.00400 25.96700
H  16.62900 46.71600 22.84300
H  16.33200 46.95200 24.52100
H  16.65500 48.37700 23.37600
H  9.98700 46.05300 20.93700
H  7.85600 48.20100 20.38900
H  9.73100 47.91500 18.86600
H  11.08400 46.88700 19.09500
H  11.20300 48.50700 19.83300
H  6.89100 45.54300 21.14700
H  8.16700 45.33300 19.92100
H  5.53700 45.91200 19.22500
H  6.92200 45.89100 18.20500
H  6.35600 47.42000 19.03800
H  3.25300 49.31300 24.57300
H  3.08600 47.51300 24.73400
H  3.46900 48.50500 23.24800
H  5.83400 49.47600 29.31500
H  4.26900 46.24200 31.64900
H  5.70500 46.76200 32.54300
H  5.90400 45.69100 31.30500

