158

Mg 47.49700 17.34500 29.01800
C  45.56300 16.73700 31.82600
C  50.09500 18.42600 31.13200
C  49.56700 17.64800 26.33100
C  45.07600 15.82000 27.02900
N  47.65400 17.78600 31.15500
C  46.78100 17.37100 32.13900
C  47.38800 17.56200 33.55700
C  48.68100 18.35000 33.38200
C  48.85800 18.18500 31.80600
C  48.78200 19.81300 33.89000
C  47.44500 16.19800 34.38500
C  47.19900 16.25600 35.93100
H  47.11000 17.66900 36.63000
N  49.54800 17.94700 28.76900
C  50.43200 18.39100 29.72600
C  51.67900 18.84900 29.16900
C  51.63200 18.53400 27.77300
C  50.18900 18.01100 27.50100
C  52.83100 19.47600 29.97800
C  52.68300 18.67000 26.66100
O  52.40500 18.46000 25.50700
C  54.15400 19.07200 27.01900
N  47.30700 16.83100 26.98300
C  48.28700 17.17200 26.03500
C  47.90500 16.66200 24.63200
C  46.51900 15.86500 24.94300
C  46.23800 16.19700 26.37400
C  47.75100 17.72200 23.56600
C  46.65700 14.32200 24.76100
C  46.22400 13.84600 23.38900
N  45.63900 16.56400 29.21000
C  44.71600 16.04900 28.34900
C  43.49900 15.66100 29.00600
C  43.83800 15.92500 30.36500
C  45.13700 16.52300 30.44200
C  42.18600 15.09500 28.42500
C  43.27400 15.85900 31.76500
O  42.12500 15.38700 32.00700
C  44.35200 16.29300 32.71300
C  43.91200 17.42600 33.48500
O  43.91900 18.55900 33.05300
O  43.51300 17.14200 34.71700
C  43.16100 18.14300 35.75300
H  50.92700 18.63500 31.80600
H  50.25000 17.56300 25.48300
H  44.33400 15.24200 26.47400
H  46.79700 18.24400 34.16800
H  49.47200 17.83200 33.92500
H  49.08500 20.41500 33.03400
H  49.55100 19.88700 34.65900
H  47.85800 20.16700 34.34800
H  48.45700 15.82200 34.23500
H  46.83700 15.47700 33.83800
H  47.93800 15.60900 36.40300
H  46.24800 15.75300 36.11200
H  53.58000 18.73500 30.25600
H  52.43900 19.91400 30.89600
H  53.30800 20.25000 29.37600
H  54.12100 20.14100 27.23100
H  54.69500 18.76600 26.12400
H  54.51900 18.37400 27.77300
H  48.65900 15.93100 24.34200
H  45.71800 16.30300 24.34900
H  48.44900 17.52700 22.75200
H  47.96400 18.68700 24.02500
H  46.77800 17.68900 23.07600
H  46.14300 13.74600 25.53000
H  47.71200 14.06100 24.85500
H  46.91500 13.14400 22.92200
H  46.04800 14.69500 22.72900
H  45.22700 13.41100 23.44300
H  42.25100 14.06000 28.76000
H  42.15500 15.25700 27.34800
H  41.37900 15.67700 28.87200
H  44.60100 15.45300 33.36100
H  42.20500 18.66100 35.67000
H  43.91800 18.92600 35.79200
H  43.13200 17.63300 36.71600
Mg 27.67100 49.95400 26.08600
C  25.51300 51.06300 28.76200
C  29.90500 48.89800 28.43100
C  29.49800 49.16600 23.54000
C  25.42700 51.58900 23.99000
N  27.74200 50.07000 28.34800
C  26.75600 50.49800 29.21000
C  27.11500 50.16700 30.70900
C  28.53800 49.58100 30.52700
C  28.69800 49.41200 28.96200
C  29.76300 50.46600 31.04200
C  25.99900 49.23400 31.43100
C  25.34100 49.92400 32.61900
H  26.35300 50.34000 33.76200
N  29.47400 49.09400 25.99800
C  30.29200 48.70700 27.02900
C  31.49700 48.08300 26.51800
C  31.39100 48.25700 25.12800
C  30.08300 48.81500 24.79300
C  32.55300 47.39000 27.40200
C  32.50700 47.87300 24.14300
O  32.34700 47.98800 22.97400
C  33.90100 47.38500 24.56800
N  27.52400 50.37300 24.05300
C  28.37400 49.85700 23.20100
C  28.08100 50.25800 21.75100
C  26.60500 50.73900 21.81900
C  26.40600 50.79400 23.42100
C  29.19800 51.13000 21.08200
C  25.56100 49.85500 21.11800
C  24.34000 50.67400 20.62600
N  25.95600 51.22200 26.29600
C  25.14800 51.78800 25.33200
C  23.96700 52.28700 25.95200
C  24.04500 52.08000 27.28900
C  25.25900 51.40100 27.44800
C  22.71300 52.84300 25.21800
C  23.37900 52.28500 28.57100
O  22.30400 52.78100 28.89800
C  24.42000 51.78300 29.60000
C  24.76300 52.93800 30.48500
O  25.67200 53.73100 30.32400
O  23.95200 52.87600 31.53000
C  24.29200 53.83300 32.64300
H  30.59200 48.63600 29.23800
H  30.12000 48.86200 22.69500
H  24.66800 51.98600 23.31300
H  27.15800 51.09800 31.27300
H  28.61900 48.60700 31.00900
H  30.44800 50.85700 30.28900
H  30.31200 49.82500 31.73100
H  29.39500 51.35300 31.55800
H  26.51000 48.32600 31.75300
H  25.25300 48.95300 30.68800
H  24.56100 49.21300 32.89400
H  24.74000 50.78800 32.33300
H  32.19400 47.37300 28.43100
H  33.57300 47.77500 27.38100
H  32.55400 46.37800 26.99800
H  34.37700 48.17900 25.14300
H  34.43900 47.04900 23.68200
H  33.75800 46.43500 25.08300
H  28.07700 49.36900 21.12100
H  26.68100 51.72800 21.36700
H  29.76900 50.58200 20.33200
H  29.85900 51.53200 21.85000
H  28.73200 51.98900 20.59900
H  25.07600 49.12700 21.77000
H  26.06700 49.33500 20.30500
H  23.45700 50.27700 21.12600
H  24.36400 50.56000 19.54200
H  24.35200 51.71300 20.95500
H  21.87100 53.02500 25.88600
H  22.41200 52.01200 24.58000
H  22.92700 53.62300 24.48800
H  23.87300 51.02700 30.16300
H  25.26900 53.47600 32.96800
H  23.55700 53.75400 33.44400
H  24.47200 54.84600 32.28300

