158

Mg 54.71000 22.88900 44.67900
C  52.84900 25.63800 43.75700
C  52.09900 20.97100 43.54900
C  56.78200 20.27500 44.86300
C  57.48500 25.03700 45.40400
N  52.72900 23.26900 43.57900
C  52.16500 24.48400 43.46300
C  50.66700 24.34000 42.98600
C  50.32400 22.86200 43.41600
C  51.79800 22.36800 43.55900
C  49.43700 22.80500 44.62000
C  50.55200 24.49300 41.45800
C  49.17400 24.77800 41.01800
H  48.73400 24.03100 39.70300
N  54.49500 20.88400 44.26800
C  53.36600 20.34100 43.75800
C  53.66900 18.88300 43.60900
C  55.03400 18.61100 43.79500
C  55.49900 19.93200 44.35800
C  52.67100 17.84900 43.11600
C  55.77900 17.40300 43.67700
O  55.29800 16.41900 43.16000
C  57.33300 17.23900 43.96200
N  56.87100 22.75900 44.94600
C  57.45800 21.49600 45.09200
C  58.93400 21.59000 45.54700
C  59.11200 23.16700 45.81400
C  57.72100 23.67700 45.39800
C  59.46900 20.64000 46.62500
C  60.31400 23.78100 44.97800
C  61.48400 22.92900 44.60300
N  55.16300 24.91700 44.61500
C  56.26500 25.62700 44.96700
C  55.90900 27.03700 44.92500
C  54.58800 27.12100 44.43800
C  54.18700 25.81200 44.24100
C  56.80800 28.13800 45.06900
C  53.46000 27.98200 44.21000
O  53.32100 29.20300 44.22900
C  52.31900 27.07600 43.63600
C  52.16300 27.39100 42.21100
O  52.96500 27.13000 41.35800
O  51.03700 28.12400 42.03800
C  50.62700 28.41000 40.69700
H  51.20400 20.37300 43.36500
H  57.51700 19.48100 45.00500
H  58.35500 25.67800 45.56300
H  50.09500 25.12800 43.47500
H  49.79500 22.20200 42.72900
H  48.58500 22.14900 44.44200
H  48.95000 23.75500 44.83700
H  50.08500 22.53500 45.45300
H  50.92100 23.59600 40.95900
H  51.24600 25.28000 41.16300
H  48.95600 25.83600 40.87100
H  48.52700 24.45000 41.83100
H  52.78400 17.64000 42.05200
H  51.65600 18.16300 43.35500
H  52.88100 16.93600 43.67400
H  57.63500 17.34800 45.00400
H  57.72300 18.06200 43.36400
H  57.62800 16.26100 43.58200
H  59.46800 21.19800 44.68200
H  59.35900 23.47600 46.83000
H  60.15600 21.13600 47.31100
H  60.09300 19.92900 46.08300
H  58.66600 20.20600 47.22000
H  60.66700 24.61900 45.57900
H  59.87600 24.17900 44.06300
H  61.36100 22.52800 43.59700
H  61.57700 22.19500 45.40400
H  62.40900 23.49900 44.67800
H  56.78500 28.62500 44.09500
H  57.83100 27.93000 45.38400
H  56.33300 28.78000 45.81100
H  51.37300 27.34900 44.10400
H  49.56000 28.60900 40.59400
H  50.85400 27.57300 40.03700
H  51.12500 29.34600 40.44500
Mg -1.59600 35.19600 27.28200
C  -3.73600 33.12600 29.33000
C  -0.80900 36.97600 30.10900
C  0.24500 37.20500 25.26800
C  -2.59600 33.30200 24.58400
N  -2.23900 35.03400 29.44500
C  -2.86500 33.97300 30.04200
C  -2.71000 34.02300 31.57600
C  -2.04200 35.45200 31.84700
C  -1.59200 35.78600 30.43500
C  -2.95700 36.57000 32.35400
C  -1.92600 32.84500 32.23500
C  -2.65600 32.10200 33.37500
H  -1.96600 31.86300 34.75600
N  -0.60700 36.92500 27.61100
C  -0.32600 37.48000 28.87600
C  0.53300 38.62700 28.67000
C  0.85600 38.72700 27.28500
C  0.17800 37.59100 26.69900
C  0.89000 39.55000 29.83800
C  1.64300 39.81100 26.46900
O  1.68300 39.82400 25.25700
C  2.37100 40.96200 27.12000
N  -1.20200 35.22400 25.20500
C  -0.38600 36.15600 24.61900
C  -0.37800 35.93700 23.05200
C  -1.11500 34.57400 22.93300
C  -1.74200 34.36100 24.30000
C  -1.02100 37.11800 22.07300
C  -0.09800 33.43500 22.41700
C  0.51300 32.49900 23.44800
N  -2.93800 33.57300 26.94200
C  -3.24300 32.90800 25.77200
C  -4.21000 31.84800 26.04400
C  -4.40100 31.93100 27.42700
C  -3.61400 32.99400 27.95400
C  -4.94800 30.97200 25.06300
C  -5.02800 31.24500 28.49100
O  -5.81800 30.32300 28.51900
C  -4.55500 31.97200 29.79300
C  -5.74800 32.38600 30.57100
O  -6.75800 32.93000 30.19400
O  -5.59800 32.00600 31.85300
C  -6.67700 32.20100 32.86000
H  -0.42000 37.40400 31.03500
H  0.88000 37.80500 24.61200
H  -2.79000 32.84400 23.61100
H  -3.73100 34.05800 31.95400
H  -1.24300 35.35600 32.58200
H  -2.59000 36.89900 33.32600
H  -3.92600 36.11200 32.55400
H  -3.03600 37.45600 31.72400
H  -0.96800 33.31900 32.45000
H  -1.73900 32.12500 31.43800
H  -2.67800 31.04900 33.09300
H  -3.70300 32.39900 33.43700
H  1.95800 39.58100 30.05100
H  0.49500 39.25800 30.81100
H  0.63700 40.59200 29.64200
H  1.70300 41.46800 27.81700
H  2.67400 41.62200 26.30700
H  3.22700 40.65700 27.72100
H  0.65900 35.85100 22.72900
H  -1.95500 34.64900 22.24300
H  -1.45400 37.87200 22.73200
H  -1.88500 36.87700 21.45400
H  -0.21600 37.59100 21.51000
H  0.81700 33.96900 22.16200
H  -0.50600 32.91600 21.55000
H  1.55500 32.78300 23.59600
H  0.38600 31.47000 23.11000
H  -0.13800 32.57900 24.31800
H  -5.90200 30.66700 25.49400
H  -4.23900 30.16700 24.86600
H  -5.15200 31.63700 24.22300
H  -3.84700 31.30800 30.29000
H  -7.43500 32.84800 32.41900
H  -6.25000 32.71900 33.71800
H  -7.03300 31.20600 33.12600

