158

Mg 25.85800 0.83600 29.15700
C  27.92500 0.01100 31.85900
C  23.36600 1.20600 31.46000
C  23.84600 1.67000 26.63900
C  28.41300 0.13700 26.91300
N  25.67500 0.63600 31.54800
C  26.69000 0.43300 32.39300
C  26.13300 0.53200 33.81200
C  24.63300 0.94000 33.69700
C  24.50900 0.85500 32.18900
C  23.67000 0.09200 34.47000
C  26.99800 1.49300 34.67600
C  26.41000 2.39000 35.80700
H  27.18600 2.41600 37.11300
N  23.86500 1.28800 29.04300
C  23.00300 1.38600 30.10100
C  21.71500 1.72100 29.54800
C  21.77900 1.96700 28.11800
C  23.20200 1.64500 27.87800
C  20.45600 1.73500 30.46200
C  20.66800 2.32300 27.06800
O  20.87300 2.21300 25.88300
C  19.27900 2.78400 27.45600
N  26.15000 1.08200 26.98200
C  25.10900 1.35800 26.20600
C  25.54000 1.31500 24.71500
C  27.00500 0.85900 24.85900
C  27.20900 0.65900 26.32500
C  24.63300 0.53800 23.76300
C  28.06700 1.80800 24.23300
C  28.14000 3.19200 24.86100
N  27.74400 0.19700 29.30500
C  28.61900 -0.10400 28.29300
C  29.85300 -0.43800 28.95200
C  29.67700 -0.44700 30.29700
C  28.30300 -0.02300 30.49700
C  31.15400 -0.85600 28.20900
C  30.27300 -0.62300 31.62500
O  31.40500 -0.72600 31.97300
C  29.13900 -0.38900 32.62600
C  28.92000 -1.63100 33.35000
O  28.45400 -2.62300 32.88700
O  29.14400 -1.36400 34.71900
C  28.55500 -2.37400 35.61500
H  22.51100 1.41400 32.10800
H  23.12400 1.94900 25.86900
H  29.23900 -0.05300 26.22500
H  26.21900 -0.45300 34.26900
H  24.42700 1.99200 33.89800
H  23.52800 -0.82300 33.89500
H  22.71800 0.53000 34.77000
H  24.13300 -0.21200 35.40900
H  27.31000 2.31400 34.03100
H  27.71800 0.94000 35.27900
H  25.38200 2.06300 35.96500
H  26.33300 3.42500 35.47200
H  20.60900 1.18600 31.39100
H  19.64000 1.22600 29.95000
H  20.17500 2.76800 30.67000
H  19.32900 3.24800 28.44100
H  18.64700 1.90000 27.54100
H  18.97800 3.50800 26.69900
H  25.65600 2.36900 24.46500
H  27.06000 -0.14300 24.43400
H  25.01700 -0.43400 23.45500
H  24.61800 1.16400 22.87100
H  23.68700 0.20000 24.18500
H  27.75000 1.86900 23.19200
H  28.99600 1.27500 24.03500
H  27.51700 3.76500 24.17500
H  29.16200 3.56900 24.89500
H  27.71600 3.28800 25.86100
H  31.42900 -0.12500 27.44900
H  30.93500 -1.78800 27.68700
H  31.89600 -1.15700 28.94900
H  29.40400 0.45500 33.26200
H  29.21000 -2.68200 36.43000
H  28.39800 -3.33600 35.12600
H  27.55000 -2.03900 35.86900
Mg 8.85100 47.68900 27.20700
C  7.29000 46.99300 30.13100
C  11.87100 47.99200 28.97000
C  10.45000 48.56400 24.29700
C  5.93400 47.74500 25.43700
N  9.61600 47.17400 29.34400
C  8.69200 47.07900 30.34800
C  9.42700 47.37000 31.74600
C  10.91500 47.62000 31.38900
C  10.84800 47.59300 29.85600
C  11.35900 48.99300 31.99500
C  9.36100 46.18100 32.73300
C  9.28000 46.59400 34.23800
H  9.96800 45.64700 35.26900
N  10.89900 48.11600 26.67400
C  11.97000 48.17700 27.57800
C  13.20500 48.60800 26.81200
C  12.82400 48.74500 25.48700
C  11.33600 48.40300 25.41500
C  14.47100 48.86700 27.46800
C  13.65800 49.16500 24.29300
O  13.15500 49.16400 23.16800
C  15.04900 49.79000 24.49900
N  8.24900 48.03300 25.17200
C  9.15300 48.36600 24.19900
C  8.46800 48.59000 22.80400
C  6.99700 48.21600 23.16700
C  7.02500 48.09800 24.70100
C  8.71900 50.01200 22.24800
C  6.55600 46.78800 22.51200
C  5.13100 46.66600 21.99800
N  6.92000 47.48700 27.66000
C  5.81400 47.44100 26.84300
C  4.69000 47.13200 27.71700
C  5.23400 47.02000 29.01700
C  6.58200 47.20600 28.90500
C  3.24200 47.06700 27.29700
C  4.78000 46.78900 30.38200
O  3.65300 46.65300 30.88300
C  6.16300 46.78000 31.18800
C  6.21400 45.43500 31.82700
O  6.36300 44.37400 31.23700
O  6.03300 45.55100 33.25100
C  6.50700 44.35100 33.96700
H  12.74800 48.24800 29.56800
H  10.85900 48.98000 23.37300
H  5.08100 47.67600 24.75800
H  8.90500 48.27400 32.05900
H  11.68500 46.93800 31.74800
H  12.39400 48.71400 32.19600
H  10.87300 49.17900 32.95300
H  11.19200 49.77300 31.25200
H  10.27700 45.59100 32.72300
H  8.49600 45.57100 32.47100
H  8.22200 46.58200 34.50300
H  9.56300 47.64500 34.28400
H  14.60000 49.94900 27.42100
H  15.23700 48.32300 26.91500
H  14.58300 48.69000 28.53700
H  14.90000 50.50100 25.31200
H  15.30600 50.29300 23.56700
H  15.81500 49.04000 24.69300
H  8.96900 47.92400 22.10100
H  6.32600 49.01300 22.84600
H  9.17100 50.50100 23.11100
H  7.82900 50.48000 21.82800
H  9.38900 50.01800 21.38900
H  6.56300 45.99300 23.25800
H  7.29300 46.62300 21.72600
H  5.05000 46.39300 20.94600
H  4.76200 47.69000 22.04500
H  4.41200 46.05600 22.54500
H  2.76800 46.20600 27.76800
H  3.12000 47.05800 26.21300
H  2.69000 47.86800 27.79000
H  6.22400 47.45700 32.04000
H  6.42700 44.55200 35.03500
H  7.55700 44.08300 33.85100
H  5.90800 43.50300 33.63300

