158

Mg 2.19900 -3.38200 45.33000
C  5.53700 -2.75500 44.54500
C  1.36500 -0.71700 43.25200
C  -0.97400 -4.53400 45.30700
C  3.12100 -6.20000 46.96600
N  3.32600 -2.02600 43.99100
C  4.70200 -1.95000 43.85700
C  5.08500 -0.88600 42.92200
C  3.80900 0.01300 42.87000
C  2.74600 -0.95700 43.36300
C  3.85900 1.21300 43.80100
C  5.64900 -1.40100 41.50700
C  6.99000 -1.01500 41.10300
H  7.18700 -0.47400 39.66800
N  0.45400 -2.68400 44.40900
C  0.31000 -1.53500 43.59000
C  -1.00900 -1.45100 43.11700
C  -1.72900 -2.48200 43.74000
C  -0.72600 -3.33500 44.54700
C  -1.39200 -0.42900 42.09400
C  -3.19700 -2.73200 43.50100
O  -3.89200 -1.98800 42.81200
C  -3.88600 -3.83300 44.04100
N  1.21000 -5.09800 46.04300
C  -0.09200 -5.35000 45.91500
C  -0.55000 -6.57500 46.64100
C  0.77500 -7.17500 47.19000
C  1.79300 -6.12800 46.71300
C  -1.65200 -6.29300 47.68400
C  1.07500 -8.63400 46.60300
C  0.06900 -9.78500 46.85500
N  3.97200 -4.28000 45.82600
C  4.21200 -5.39600 46.54600
C  5.60900 -5.68200 46.68800
C  6.22600 -4.64400 45.88500
C  5.16900 -3.81700 45.38900
C  6.09300 -6.90400 47.30300
C  7.46300 -4.15200 45.34000
O  8.59000 -4.47800 45.56700
C  7.03400 -2.94500 44.40200
C  7.93500 -1.87200 44.75300
O  8.93500 -1.58000 44.07000
O  7.45600 -1.09700 45.79500
C  8.03900 0.24700 45.96100
H  1.07100 0.13900 42.64200
H  -2.00400 -4.87100 45.44200
H  3.38300 -7.10500 47.51900
H  5.83400 -0.39100 43.54000
H  3.71800 0.43600 41.87000
H  3.93100 2.14100 43.23500
H  4.54700 1.10300 44.64000
H  2.85800 1.25300 44.23100
H  4.91400 -1.18200 40.73300
H  5.70800 -2.48100 41.64400
H  7.62400 -1.85700 41.38000
H  7.39400 -0.24800 41.76400
H  -2.05600 -0.83400 41.33000
H  -0.65900 0.14900 41.53100
H  -1.90400 0.35000 42.66000
H  -3.33600 -4.77200 43.98500
H  -4.88000 -4.02900 43.64000
H  -3.96800 -3.54600 45.08900
H  -0.95200 -7.16200 45.81600
H  0.86400 -7.07800 48.27200
H  -1.19000 -6.38000 48.66700
H  -2.49100 -6.97900 47.57000
H  -2.00900 -5.26400 47.62800
H  2.10700 -8.94600 46.76500
H  1.10600 -8.48100 45.52500
H  0.58500 -10.58100 47.38900
H  -0.17300 -10.16300 45.86100
H  -0.85700 -9.55800 47.38300
H  5.65100 -7.78000 46.82700
H  5.88700 -6.91400 48.37300
H  7.17500 -6.91700 47.17000
H  7.25900 -3.27400 43.38700
H  7.39700 0.89900 46.55200
H  8.07400 0.73800 44.98800
H  9.07600 0.27400 46.29500
Mg 48.21200 36.38600 28.52600
C  46.03200 34.80700 30.54400
C  48.36900 38.97500 30.72200
C  49.78900 38.30900 26.05200
C  47.92200 33.77800 26.09600
N  47.39300 36.73400 30.46500
C  46.58800 35.90300 31.15400
C  46.54600 36.31000 32.61500
C  46.92100 37.85700 32.52900
C  47.64000 37.86100 31.16600
C  45.68100 38.75700 32.47900
C  47.43600 35.41200 33.55500
C  48.88500 35.93600 33.72500
H  49.29800 36.20400 35.16300
N  49.17700 38.26800 28.54200
C  49.09200 39.19600 29.52500
C  49.72600 40.41800 29.16900
C  50.29100 40.17600 27.86600
C  49.77200 38.82400 27.43400
C  49.79300 41.60500 29.98100
C  51.13100 41.17900 26.96900
O  51.56600 40.83800 25.89300
C  51.40200 42.59500 27.48200
N  48.80100 36.07500 26.36200
C  49.34300 37.05500 25.59700
C  49.60500 36.59100 24.16200
C  49.08800 35.06500 24.21700
C  48.56700 34.89800 25.69600
C  48.75400 37.36500 23.12700
C  49.98800 33.96300 23.77000
C  50.87800 34.12200 22.54800
N  47.21800 34.63700 28.28000
C  47.20300 33.59200 27.30600
C  46.24200 32.57800 27.75400
C  45.77700 33.01900 28.98900
C  46.31900 34.26200 29.25900
C  45.73800 31.42400 27.00200
C  44.79300 32.75600 30.06000
O  44.02700 31.84800 30.07100
C  44.95000 33.88300 31.13800
C  45.18900 33.22200 32.41800
O  46.03900 32.33700 32.58000
O  44.36900 33.75800 33.37200
C  44.64400 33.10800 34.66000
H  48.20100 39.81200 31.40300
H  50.32500 38.76500 25.21700
H  47.97300 32.89200 25.46100
H  45.57900 36.18900 33.10300
H  47.55800 38.13000 33.37000
H  45.41900 39.00200 33.50900
H  44.90700 38.27000 31.88600
H  45.88300 39.66200 31.90700
H  47.44900 34.40700 33.13400
H  46.87600 35.24500 34.47500
H  49.14200 36.83000 33.15700
H  49.47100 35.10400 33.33400
H  49.16400 42.34500 29.48600
H  50.82400 41.93400 30.10900
H  49.41600 41.43300 30.98900
H  50.47400 43.10100 27.74900
H  51.90500 43.23400 26.75600
H  52.00300 42.40700 28.37200
H  50.60200 36.66200 23.72700
H  48.11300 35.03500 23.73000
H  48.01000 37.95400 23.66500
H  48.17200 36.89000 22.33800
H  49.40600 38.15800 22.76000
H  49.45300 33.01300 23.77400
H  50.64500 33.79700 24.62400
H  50.72200 33.26200 21.89700
H  51.95900 34.09900 22.68200
H  50.59400 35.04100 22.03500
H  45.48000 31.66100 25.97000
H  44.87300 31.03200 27.53800
H  46.53000 30.67600 26.97300
H  44.00700 34.40200 31.31000
H  45.67500 33.17500 35.00800
H  44.54200 32.05200 34.41000
H  43.82700 33.25500 35.36700

