158

Mg 8.04900 2.92700 27.68900
C  9.48200 1.30400 30.54600
C  6.42100 4.92800 29.85200
C  6.73300 4.28100 25.04800
C  9.86000 0.59300 25.73000
N  7.88700 3.04800 30.00200
C  8.67600 2.36200 30.94600
C  8.46300 2.93200 32.34800
C  7.37400 4.03100 32.11000
C  7.14000 3.94500 30.55900
C  6.07400 3.78600 32.85600
C  9.81900 3.35300 33.09300
C  9.59900 4.35400 34.28900
H  10.49100 4.38600 35.51800
N  6.66700 4.34700 27.48300
C  6.11300 5.06800 28.45300
C  5.35400 6.20600 27.88400
C  5.46100 6.00500 26.48000
C  6.25800 4.78200 26.24400
C  4.62500 7.26800 28.68200
C  4.92100 6.98900 25.44100
O  5.13000 6.83000 24.23500
C  3.97000 8.23800 25.76800
N  8.10200 2.29300 25.69800
C  7.60200 3.14300 24.79000
C  7.98000 2.85000 23.38000
C  8.99200 1.72400 23.55800
C  9.01200 1.53200 25.06500
C  6.71900 2.44500 22.61900
C  10.36900 1.93900 22.94000
C  10.99700 0.68300 22.24200
N  9.27900 1.19500 28.04400
C  10.01100 0.37200 27.14900
C  10.90700 -0.50400 27.81600
C  10.63100 -0.15300 29.15200
C  9.69500 0.88900 29.24400
C  11.97800 -1.34100 27.21600
C  11.04900 -0.55100 30.45900
O  11.84300 -1.39400 30.91100
C  10.29100 0.46200 31.37000
C  9.58300 -0.32400 32.43100
O  8.49500 -0.85800 32.24300
O  10.41000 -0.45300 33.55000
C  9.72700 -1.07800 34.68400
H  6.00600 5.76600 30.41600
H  6.46100 4.87100 24.17100
H  10.50200 0.11600 24.98600
H  7.97700 2.18700 32.97900
H  7.80000 5.03200 32.17900
H  5.45500 3.03000 32.37400
H  5.49700 4.71000 32.81900
H  6.22300 3.36800 33.85200
H  10.42000 3.83400 32.32100
H  10.43400 2.59200 33.57400
H  8.54600 4.31600 34.56600
H  9.71100 5.32400 33.80500
H  5.08300 8.24700 28.54500
H  4.46900 7.15700 29.75500
H  3.62500 7.23400 28.24800
H  4.46500 8.92200 26.45700
H  3.03500 7.86600 26.18600
H  3.80100 8.82900 24.86800
H  8.44100 3.72200 22.91600
H  8.53700 0.76700 23.30400
H  5.79000 2.71400 23.12200
H  6.70100 1.42800 22.22500
H  6.63600 3.06100 21.72400
H  11.05300 2.27400 23.72100
H  10.41700 2.75200 22.21500
H  11.15800 0.82000 21.17300
H  10.34900 -0.16400 22.46900
H  12.00400 0.49700 22.61500
H  12.81400 -1.23200 27.90700
H  12.23200 -1.01800 26.20700
H  11.59200 -2.36000 27.19600
H  11.00900 1.08800 31.89900
H  9.08100 -1.91400 34.41300
H  9.14700 -0.31800 35.20700
H  10.53800 -1.54000 35.24700
Mg 16.76400 -1.99500 27.67200
C  15.55600 0.16100 30.19900
C  18.43900 -3.78300 29.87400
C  17.73000 -3.90900 25.12600
C  15.05200 0.17000 25.45500
N  16.88700 -1.84800 29.71500
C  16.38800 -0.87000 30.56300
C  16.84900 -1.19500 31.99700
C  17.89100 -2.29700 31.87000
C  17.85600 -2.67100 30.39700
C  19.33900 -1.84800 32.22500
C  15.64800 -1.58400 32.92900
C  15.64100 -1.15000 34.36700
H  16.91200 -0.82800 35.18500
N  18.00900 -3.63900 27.46200
C  18.52000 -4.33200 28.52800
C  19.24900 -5.47100 28.09100
C  19.05700 -5.57600 26.70000
C  18.20200 -4.36700 26.33200
C  20.00700 -6.38700 29.07000
C  19.55400 -6.54900 25.69300
O  19.26500 -6.54700 24.50300
C  20.45500 -7.67900 26.15800
N  16.43800 -1.86400 25.64600
C  16.96700 -2.74000 24.78800
C  16.90900 -2.17600 23.36200
C  15.63600 -1.19700 23.48300
C  15.74600 -0.90500 24.96100
C  18.19600 -1.47800 22.91400
C  14.32900 -1.85700 22.94500
C  13.34500 -2.59600 23.86700
N  15.53900 -0.10600 27.76200
C  14.89600 0.62800 26.72900
C  13.99600 1.66700 27.32600
C  14.33400 1.50400 28.68500
C  15.24400 0.46600 28.86400
C  12.96900 2.54400 26.62400
C  14.04700 2.11100 29.97300
O  13.36100 3.04900 30.21800
C  14.78600 1.17300 31.01900
C  15.58400 2.11900 31.84400
O  16.51500 2.79600 31.39700
O  15.19300 2.14300 33.14100
C  15.95000 2.91000 34.07900
H  19.06800 -4.35000 30.56200
H  18.18300 -4.34200 24.23100
H  14.58900 0.78300 24.67900
H  17.23300 -0.27400 32.43600
H  17.64000 -3.18900 32.44400
H  19.34700 -0.95800 32.85400
H  19.93400 -1.60700 31.34400
H  19.78700 -2.61100 32.86200
H  15.49600 -2.66200 32.87500
H  14.76400 -1.10200 32.51100
H  15.23600 -2.00000 34.91600
H  14.86800 -0.43900 34.65900
H  19.97500 -6.04800 30.10600
H  21.01500 -6.59000 28.70800
H  19.52000 -7.36100 29.02000
H  20.02400 -8.30400 26.94000
H  21.29400 -7.26200 26.71400
H  20.77000 -8.31000 25.32700
H  16.83700 -3.03700 22.69700
H  15.90300 -0.29800 22.92700
H  19.05600 -1.56000 23.57900
H  18.10900 -0.45600 22.54400
H  18.55100 -2.02200 22.03900
H  14.68500 -2.53600 22.17000
H  13.71300 -1.01600 22.62800
H  12.68600 -1.86800 24.34000
H  13.90100 -3.10400 24.65500
H  12.87900 -3.28500 23.16200
H  12.09800 2.07000 27.07600
H  12.92300 2.44600 25.54000
H  12.99200 3.57900 26.96600
H  13.98900 0.76800 31.64200
H  15.24000 3.44800 34.70800
H  16.58900 3.75000 33.80800
H  16.39600 2.12800 34.69400

