158

Mg 16.81000 -3.33500 28.49400
C  16.09400 -1.06100 31.11200
C  18.31500 -5.38000 30.70800
C  18.07700 -5.02100 25.89800
C  15.52000 -0.86400 26.26300
N  17.24200 -3.11900 30.64300
C  16.85900 -2.20200 31.53700
C  17.18400 -2.68200 32.98700
C  18.08100 -3.96100 32.73200
C  17.87800 -4.14800 31.28600
C  19.62600 -3.81300 33.09000
C  15.89800 -3.03100 33.86300
C  15.70200 -2.27400 35.16500
H  16.83300 -1.87800 35.95700
N  17.87300 -5.04200 28.25500
C  18.36500 -5.76300 29.35200
C  18.88800 -7.03600 28.86300
C  18.82800 -6.94200 27.42000
C  18.25500 -5.64700 27.12500
C  19.36200 -8.18800 29.70100
C  19.35200 -7.96000 26.34700
O  19.32000 -7.70200 25.17300
C  19.97000 -9.23900 26.78900
N  16.61400 -3.08800 26.40400
C  17.30500 -3.89300 25.54500
C  17.11500 -3.46600 24.12900
C  16.17900 -2.23200 24.17000
C  16.03400 -2.03300 25.70700
C  18.50700 -3.25100 23.37500
C  14.84300 -2.35100 23.33500
C  13.55800 -2.04600 24.04700
N  15.84500 -1.42200 28.60800
C  15.37200 -0.53100 27.63400
C  14.76300 0.70600 28.29500
C  14.99700 0.45800 29.62600
C  15.67100 -0.81900 29.74500
C  14.15600 1.80900 27.53900
C  14.96200 1.12800 30.96800
O  14.48500 2.22000 31.20600
C  15.55600 0.09400 31.97900
C  16.53300 0.83100 32.75900
O  17.67100 1.09500 32.39700
O  15.93300 1.38700 33.82400
C  16.55000 2.45200 34.59000
H  18.70600 -6.15000 31.37800
H  18.43500 -5.58300 25.03300
H  15.08200 -0.13800 25.57500
H  17.78900 -1.90700 33.45800
H  17.61100 -4.83000 33.19200
H  20.17300 -3.65700 32.16000
H  20.01500 -4.74800 33.49200
H  19.72900 -3.03800 33.85000
H  15.68000 -4.05800 34.15700
H  15.06700 -2.76000 33.21200
H  14.90600 -2.70400 35.77300
H  15.23800 -1.35300 34.80900
H  18.76100 -9.02800 29.35500
H  19.05700 -8.05100 30.73900
H  20.42100 -8.43500 29.62200
H  20.85500 -9.24300 27.42600
H  20.26500 -9.83700 25.92600
H  19.14900 -9.79800 27.23800
H  16.60000 -4.37200 23.81300
H  16.65600 -1.37000 23.70300
H  18.67800 -2.17900 23.27300
H  18.51800 -3.70000 22.38100
H  19.30400 -3.50800 24.07200
H  14.79600 -3.33500 22.86900
H  14.88000 -1.70300 22.45900
H  13.37400 -2.60900 24.96200
H  12.78600 -2.29200 23.31800
H  13.58600 -0.97100 24.22200
H  14.47100 1.64000 26.50900
H  14.51000 2.80600 27.79900
H  13.07100 1.70500 27.53400
H  14.86900 -0.32800 32.71300
H  15.96000 3.36600 34.65800
H  17.58300 2.65700 34.30600
H  16.43900 2.18700 35.64100
Mg 47.31200 14.39400 28.18600
C  45.14700 14.41000 30.84200
C  49.40900 16.43900 29.87300
C  49.13500 14.77500 25.32900
C  44.97800 12.39200 26.30600
N  47.24600 15.36600 30.17100
C  46.35500 15.11600 31.16600
C  46.83900 15.70200 32.48400
C  48.06400 16.61800 32.08100
C  48.29400 16.09000 30.63700
C  47.86600 18.20400 32.24800
C  47.09000 14.58400 33.54800
C  47.04000 15.09000 35.02500
H  48.34300 15.06400 35.86200
N  49.17900 15.31700 27.74600
C  49.86800 16.06200 28.59100
C  51.14400 16.43500 27.95900
C  51.01800 16.05600 26.61400
C  49.77100 15.33600 26.46800
C  52.21800 17.19800 28.72400
C  51.92000 16.21400 25.43300
O  51.65700 15.82500 24.29100
C  53.23000 16.88300 25.69900
N  47.17400 13.59400 26.20100
C  47.92400 14.07000 25.20100
C  47.55000 13.42000 23.80100
C  46.34900 12.53500 24.10500
C  46.16800 12.74800 25.67600
C  47.32600 14.38100 22.61000
C  46.51400 11.06000 23.70500
C  47.04300 10.03100 24.76300
N  45.47200 13.54700 28.45600
C  44.61300 12.79300 27.64900
C  43.41800 12.46700 28.29400
C  43.58800 13.06000 29.55800
C  44.86800 13.65700 29.64400
C  42.24700 11.52400 27.86000
C  42.98000 13.23800 30.81300
O  41.94000 12.82000 31.24200
C  43.98100 14.09400 31.76000
C  43.36400 15.29500 32.09900
O  43.06400 16.12900 31.25200
O  43.13800 15.33600 33.48100
C  42.84300 16.66900 33.97900
H  50.11800 17.08300 30.39600
H  49.49400 14.97300 24.31700
H  44.21600 11.92900 25.67400
H  45.99800 16.31800 32.80200
H  48.82900 16.21700 32.74700
H  48.56500 18.79400 31.65400
H  48.12100 18.34000 33.29900
H  46.85500 18.55100 32.03700
H  48.07100 14.15000 33.35300
H  46.31200 13.82400 33.48700
H  46.31100 14.42000 35.48100
H  46.55700 16.06700 34.99700
H  53.20900 16.81400 28.48300
H  52.10500 17.10700 29.80400
H  52.22400 18.22900 28.37200
H  52.99600 17.85400 26.13400
H  53.74300 17.10200 24.76300
H  53.85300 16.45700 26.48600
H  48.34800 12.74700 23.48600
H  45.50800 12.94500 23.54400
H  46.35800 14.37200 22.11000
H  48.05200 14.16500 21.82600
H  47.43100 15.43600 22.86100
H  47.06400 10.91100 22.77500
H  45.46600 10.81900 23.52900
H  47.18100 10.50500 25.73500
H  47.92800 9.54800 24.34900
H  46.32700 9.21700 24.86800
H  41.82800 11.59700 26.85700
H  41.52400 11.82200 28.61900
H  42.55600 10.48500 27.98100
H  44.26200 13.59300 32.68600
H  43.73800 17.25300 34.19200
H  42.33300 16.52300 34.93100
H  42.17600 17.16900 33.27800

