158

Mg 10.04900 47.00300 26.16600
C  8.24400 46.99300 29.11200
C  12.78500 48.11900 27.86900
C  11.70400 47.10100 23.28200
C  6.94800 46.57800 24.39900
N  10.41300 47.49500 28.24500
C  9.56100 47.40000 29.28000
C  10.21000 47.76700 30.55500
C  11.43300 48.62300 29.96500
C  11.58400 48.00500 28.60800
C  11.10800 50.14400 29.91500
C  10.71800 46.54400 31.26900
C  10.89500 46.72400 32.76200
H  10.49400 45.62000 33.72200
N  11.94600 47.61700 25.60800
C  12.95000 47.95700 26.46900
C  14.22700 47.97300 25.82000
C  13.94300 47.60700 24.48700
C  12.47600 47.49600 24.34400
C  15.52000 48.35800 26.44100
C  15.03000 47.28400 23.45500
O  14.66200 47.14500 22.30000
C  16.51500 47.35400 23.77300
N  9.40100 47.07700 24.10700
C  10.39500 47.10100 23.12000
C  9.72400 46.83300 21.75200
C  8.20800 46.46200 22.13000
C  8.14100 46.81100 23.66900
C  9.87800 47.95700 20.78700
C  7.90700 45.02100 21.87300
C  8.68100 43.93700 22.69100
N  7.99000 46.79400 26.56300
C  6.86700 46.69900 25.79700
C  5.74900 46.47300 26.66600
C  6.21000 46.63900 28.00900
C  7.60500 46.78400 27.85400
C  4.37900 46.00100 26.28800
C  5.78200 46.65500 29.34900
O  4.63000 46.56500 29.84400
C  7.10800 46.85300 30.19100
C  7.33800 45.66800 31.05800
O  7.77000 44.59700 30.69000
O  6.80800 45.93500 32.32800
C  6.72900 44.75300 33.20900
H  13.68700 48.42700 28.40200
H  12.23700 46.98800 22.33500
H  6.05000 46.44000 23.79300
H  9.43400 48.13300 31.22600
H  12.34100 48.36500 30.51000
H  10.03800 50.28100 30.07200
H  11.27600 50.32400 28.85300
H  11.71600 50.71300 30.61800
H  11.65900 46.24500 30.80800
H  10.06600 45.69900 31.04400
H  10.54700 47.67200 33.17200
H  11.97800 46.73700 32.87900
H  15.48100 48.62900 27.49600
H  16.04000 49.22400 26.03100
H  16.09900 47.43500 26.47100
H  16.67500 46.50900 24.44400
H  16.89800 48.26600 24.23100
H  17.13900 47.11900 22.91100
H  10.29500 46.01300 21.31600
H  7.48300 47.10400 21.63100
H  10.38500 47.69100 19.85900
H  10.40000 48.74600 21.32800
H  8.87300 48.22200 20.45900
H  8.03700 44.74800 20.82600
H  6.81900 45.00800 21.94100
H  9.24400 44.37000 23.51800
H  9.53500 43.71600 22.05200
H  8.04100 43.09300 22.94800
H  4.33900 45.38100 25.39200
H  3.65600 46.81200 26.20200
H  4.01500 45.37200 27.10100
H  6.86500 47.72500 30.79900
H  7.54700 44.03300 33.18100
H  5.74300 44.28700 33.21900
H  6.86000 45.12000 34.22700
Mg -5.55400 25.09900 25.91800
C  -3.96000 26.46600 28.73000
C  -7.23600 22.96300 27.88100
C  -6.94700 23.76700 23.17800
C  -3.62500 27.43600 23.88000
N  -5.44700 24.71300 28.07500
C  -4.87200 25.47300 28.97100
C  -5.37400 25.08400 30.38300
C  -6.12500 23.72900 30.14200
C  -6.28700 23.76300 28.61800
C  -5.29100 22.50100 30.65000
C  -6.31000 26.10500 30.96000
C  -6.36000 26.35900 32.51400
H  -5.66500 25.27600 33.36400
N  -6.90600 23.53900 25.59300
C  -7.44700 22.83700 26.54600
C  -8.48200 21.98600 26.00500
C  -8.49200 22.17800 24.58200
C  -7.37000 23.15700 24.34600
C  -9.35700 21.05400 26.74700
C  -9.53100 21.58000 23.52000
O  -9.41000 21.82600 22.36900
C  -10.70900 20.72100 23.94000
N  -5.13100 25.29600 23.88100
C  -5.92700 24.75800 22.97500
C  -5.45700 25.15500 21.57400
C  -4.63300 26.45900 21.84500
C  -4.39900 26.38600 23.29100
C  -4.64500 24.04500 20.89000
C  -5.41500 27.76900 21.37100
C  -4.53700 28.81000 20.62400
N  -4.01200 26.53600 26.17700
C  -3.32300 27.37500 25.26100
C  -2.43100 28.16300 26.04600
C  -2.60100 27.80600 27.36600
C  -3.62100 26.87100 27.48700
C  -1.38800 29.13300 25.49100
C  -2.18500 28.15400 28.75300
O  -1.22700 28.84900 29.09500
C  -3.12200 27.30800 29.67800
C  -2.31300 26.54000 30.69900
O  -1.98100 25.37900 30.48400
O  -2.19900 27.27800 31.88000
C  -1.35400 26.71300 32.93100
H  -7.90300 22.38200 28.52100
H  -7.41100 23.35500 22.27900
H  -3.02200 28.02900 23.18900
H  -4.52800 24.96800 31.06100
H  -7.08500 23.79100 30.65400
H  -5.81800 21.84500 31.34200
H  -4.34900 22.81500 31.10000
H  -5.00000 21.94200 29.76100
H  -7.35500 25.98500 30.67500
H  -6.02200 27.07200 30.54700
H  -7.39800 26.29000 32.84000
H  -5.89900 27.29700 32.82300
H  -9.26100 20.07500 26.27600
H  -10.34900 21.49600 26.66500
H  -9.08800 20.90200 27.79200
H  -11.46600 21.25200 24.51700
H  -10.33200 19.83600 24.45300
H  -11.23300 20.27900 23.09200
H  -6.25700 25.31800 20.85200
H  -3.65700 26.43600 21.36100
H  -3.73800 24.50700 20.50000
H  -5.22400 23.69300 20.03600
H  -4.53000 23.21100 21.58200
H  -6.01100 28.21700 22.16600
H  -6.15700 27.34700 20.69300
H  -4.63100 29.73600 21.19100
H  -5.03800 29.07800 19.69300
H  -3.47900 28.59800 20.46800
H  -1.71700 30.16200 25.63800
H  -1.32200 28.96900 24.41500
H  -0.37500 29.06500 25.88900
H  -3.79600 27.99700 30.18700
H  -1.95400 26.01500 33.51500
H  -0.90500 27.45400 33.59300
H  -0.58900 26.14500 32.40200

