158

Mg 49.41100 34.89300 26.62400
C  47.32300 33.53800 29.30500
C  50.09700 37.59400 28.66600
C  50.90900 36.26700 24.07000
C  48.76500 31.92600 24.95100
N  48.77900 35.44800 28.73700
C  48.00800 34.71200 29.65700
C  47.99300 35.46100 30.98600
C  48.47100 36.87600 30.58100
C  49.14300 36.64900 29.21000
C  47.37300 38.01600 30.76400
C  48.99700 34.84700 32.00100
C  48.65900 34.99900 33.51200
H  47.43500 35.90000 33.82200
N  50.38500 36.66600 26.32800
C  50.60100 37.65700 27.33800
C  51.34300 38.75000 26.79400
C  51.62500 38.36000 25.45000
C  50.99400 37.01700 25.26800
C  51.72600 40.02000 27.56500
C  52.56100 39.06100 24.34700
O  52.75900 38.57200 23.22200
C  53.32900 40.31400 24.70900
N  49.82400 34.21700 24.79600
C  50.43800 34.98800 23.86900
C  50.63000 34.26200 22.53100
C  50.02800 32.82900 22.77400
C  49.50700 33.01000 24.31100
C  49.95600 35.03500 21.37200
C  50.92200 31.60800 22.75300
C  50.64200 30.75900 21.54300
N  48.31000 33.06900 26.94800
C  48.17000 31.96300 26.20800
C  47.20500 31.03500 26.78500
C  46.85100 31.67600 27.95400
C  47.59000 32.90700 28.08300
C  46.57300 29.74500 26.17700
C  45.93000 31.53900 29.04600
O  45.06500 30.68200 29.18200
C  46.19800 32.80300 29.98000
C  46.41300 32.24000 31.39600
O  47.36800 31.67800 31.77400
O  45.28100 32.43100 32.13200
C  45.03200 31.75600 33.41300
H  50.26700 38.45800 29.31200
H  51.36500 36.62300 23.14400
H  48.65800 31.06600 24.28600
H  46.95400 35.50100 31.31100
H  49.30800 37.14300 31.22700
H  47.59000 38.72700 31.56100
H  46.39200 37.56800 30.92200
H  47.18800 38.68300 29.92200
H  49.96000 35.34900 31.91600
H  49.16300 33.77000 31.98900
H  49.50400 35.38800 34.07900
H  48.27200 34.02000 33.79600
H  50.99600 40.19800 28.35500
H  51.49500 40.83300 26.87700
H  52.79100 40.04400 27.79500
H  52.79200 41.21000 24.39800
H  54.33100 40.21900 24.28900
H  53.44900 40.16000 25.78100
H  51.68200 34.13000 22.27700
H  49.19100 32.74700 22.08100
H  50.09800 34.52100 20.42100
H  50.33900 36.05500 21.35600
H  48.87200 35.04100 21.48100
H  50.87400 31.07300 23.70200
H  51.95900 31.93500 22.68200
H  51.41800 30.94500 20.80000
H  49.62000 30.88900 21.18800
H  50.90700 29.75200 21.86300
H  47.03000 28.94500 26.76000
H  46.85500 29.73700 25.12400
H  45.50000 29.61000 26.31300
H  45.38300 33.51200 30.12900
H  45.02900 32.52500 34.18600
H  45.80300 31.02400 33.65300
H  44.11200 31.17100 33.44100
Mg 42.22800 41.23800 26.91900
C  41.45600 43.63100 29.40300
C  43.15600 39.13500 29.27400
C  42.98600 39.05600 24.55800
C  41.50500 43.66500 24.49300
N  42.40700 41.47000 29.21700
C  41.88100 42.44900 30.03100
C  41.93800 42.01900 31.52200
C  42.63700 40.59700 31.45400
C  42.76700 40.39100 29.90700
C  44.05100 40.39800 32.12800
C  40.55700 41.99000 32.16700
C  40.48100 42.80800 33.53200
H  39.83400 42.05600 34.69700
N  43.04800 39.39600 26.97400
C  43.38300 38.69400 28.02000
C  44.02400 37.38000 27.64200
C  43.87300 37.27600 26.27000
C  43.26200 38.59400 25.85900
C  44.57900 36.38300 28.69100
C  44.27500 36.17200 25.35900
O  43.91000 36.15600 24.17500
C  44.94800 34.89200 25.76200
N  42.42000 41.40500 24.81400
C  42.66300 40.31800 24.08300
C  42.74700 40.73900 22.52000
C  42.02200 42.03900 22.55300
C  42.03700 42.39300 24.00800
C  44.18600 40.73900 22.06100
C  40.65700 41.99500 21.79000
C  39.50100 40.91300 22.08300
N  41.66000 43.23900 26.91000
C  41.38500 44.13400 25.84100
C  40.79000 45.32700 26.35800
C  40.82300 45.16000 27.74600
C  41.39900 43.93400 28.06000
C  40.38700 46.48800 25.54500
C  40.53200 45.86000 28.97800
O  40.06100 46.89100 29.28500
C  40.88000 44.83000 30.07400
C  41.73500 45.48800 31.05300
O  42.85800 45.93700 30.76900
O  41.14400 45.64900 32.25400
C  41.82100 46.59400 33.18300
H  43.33100 38.40900 30.07200
H  43.33000 38.45800 23.71100
H  41.26400 44.39100 23.71400
H  42.60300 42.66200 32.09900
H  41.95200 39.82900 31.81300
H  44.85100 40.41300 31.38800
H  44.09800 39.45000 32.66400
H  44.22800 41.17300 32.87500
H  40.17400 40.98300 32.33200
H  39.86500 42.49000 31.48900
H  39.83400 43.67900 33.42200
H  41.42700 43.24800 33.84500
H  44.08200 35.41300 28.66400
H  44.34100 36.69900 29.70700
H  45.62400 36.13900 28.49800
H  45.91600 35.15200 26.19200
H  45.10900 34.21300 24.92500
H  44.30600 34.23300 26.34500
H  42.22200 39.97400 21.94800
H  42.69300 42.81200 22.17700
H  44.83100 41.08900 22.86700
H  44.29900 41.27400 21.11800
H  44.57100 39.80900 21.64100
H  40.85300 41.66000 20.77200
H  40.16500 42.96700 21.82000
H  38.59200 41.32800 22.51800
H  39.94100 40.04000 22.56400
H  39.14500 40.60900 21.09900
H  39.68100 47.05600 26.15100
H  39.75000 46.18200 24.71500
H  41.17200 47.14900 25.17700
H  39.88400 44.72100 30.50300
H  41.67400 47.60900 32.81500
H  42.90600 46.49700 33.21700
H  41.30700 46.37000 34.11800

