158

Mg 8.43400 3.59700 27.32400
C  9.58400 2.26700 30.36000
C  6.50600 5.72600 29.01600
C  7.12300 4.35700 24.40800
C  10.05300 0.73500 25.69900
N  8.06100 3.94100 29.42100
C  8.82500 3.40700 30.47500
C  8.34600 4.00600 31.79900
C  7.22500 5.00900 31.42800
C  7.25200 4.91900 29.87300
C  5.84600 4.58200 31.94900
C  9.43400 4.63900 32.61300
C  9.16600 4.77100 34.11600
H  10.38900 4.88100 35.09800
N  7.21100 4.98400 26.77500
C  6.47400 5.76800 27.59600
C  5.74900 6.67600 26.79900
C  5.85300 6.29700 25.48600
C  6.77400 5.17000 25.48200
C  4.95600 7.76900 27.50300
C  5.21100 6.87800 24.32600
O  5.45700 6.42000 23.20500
C  4.40400 8.07200 24.41900
N  8.76100 2.74700 25.32600
C  8.11300 3.31600 24.28500
C  8.31700 2.49700 22.98300
C  9.19600 1.30400 23.34800
C  9.36700 1.61500 24.87000
C  6.97900 2.13800 22.27900
C  10.61900 1.15200 22.66400
C  10.68900 0.10700 21.53000
N  9.67700 1.94100 27.84000
C  10.28400 0.91000 27.08900
C  11.12300 0.05900 27.94200
C  10.89300 0.59500 29.22800
C  10.00300 1.68300 29.11200
C  11.93900 -1.06600 27.32500
C  11.22600 0.45500 30.65200
O  11.92000 -0.31500 31.27200
C  10.40600 1.58300 31.48400
C  9.72900 0.89700 32.51300
O  8.84800 0.06200 32.24300
O  10.27900 1.16500 33.72300
C  9.72600 0.39600 34.84600
H  5.88700 6.47000 29.52300
H  6.91500 4.61600 23.36800
H  10.59400 -0.07200 25.20000
H  7.84700 3.18200 32.30900
H  7.46900 6.01800 31.75900
H  5.22800 4.10300 31.18900
H  5.22800 5.42300 32.26500
H  5.88700 3.93700 32.82600
H  9.49200 5.68200 32.30200
H  10.43300 4.26500 32.38900
H  8.66900 3.81600 34.28800
H  8.48400 5.57700 34.38900
H  4.93600 8.68200 26.91000
H  5.17300 7.94700 28.55700
H  3.93300 7.39100 27.50100
H  3.96000 8.27800 23.44500
H  5.08200 8.86900 24.72800
H  3.64700 7.79800 25.15400
H  8.72300 3.21600 22.27100
H  8.60000 0.39400 23.27900
H  6.11300 2.36500 22.90000
H  6.92000 1.05600 22.16800
H  6.96400 2.59100 21.28800
H  11.41600 0.90500 23.36600
H  10.82000 2.08900 22.14500
H  9.72000 -0.36800 21.37500
H  11.39500 -0.70000 21.72500
H  10.93600 0.61800 20.60000
H  12.70400 -1.49300 27.97300
H  12.40700 -0.62100 26.44700
H  11.24500 -1.87700 27.10100
H  11.20600 2.18500 31.91600
H  9.36200 -0.60700 34.62200
H  8.89100 0.84900 35.38200
H  10.48700 0.22100 35.60700
Mg 49.33400 45.62600 43.32400
C  45.77900 45.68300 42.40200
C  49.36100 42.38300 42.57100
C  52.60300 45.92900 43.32200
C  49.00400 49.16100 43.64200
N  47.75300 44.24600 42.42900
C  46.35300 44.43400 42.27700
C  45.70300 43.11100 41.98800
C  46.81700 42.07100 42.25200
C  48.08900 42.89300 42.36200
C  46.46900 41.31600 43.59300
C  45.12200 43.00500 40.55100
C  46.01300 43.56800 39.37000
H  45.87400 42.86000 38.04000
N  50.84100 44.30200 43.04300
C  50.61600 42.98900 42.73900
C  51.86500 42.28500 42.79800
C  52.86000 43.25100 43.10000
C  52.14100 44.54800 43.20900
C  52.04300 40.72000 42.71800
C  54.36100 42.99800 43.27300
O  54.85600 41.86400 43.19300
C  55.31500 44.09400 43.56900
N  50.59900 47.34200 43.32400
C  51.91800 47.18400 43.38200
C  52.68000 48.49100 43.56600
C  51.52700 49.49500 43.67800
C  50.31700 48.63200 43.56700
C  53.47600 48.48600 44.87100
C  51.52700 50.63000 42.60900
C  52.17300 52.04200 42.84700
N  47.72800 47.12000 43.24300
C  47.76800 48.51500 43.37600
C  46.46100 49.10700 43.37900
C  45.70500 48.00900 42.91600
C  46.46800 46.85900 42.84900
C  45.93700 50.34900 43.69700
C  44.29800 47.60000 42.49500
O  43.28000 48.24200 42.46400
C  44.40500 46.11100 41.88300
C  43.26700 45.30700 42.46300
O  42.45300 44.71200 41.83300
O  43.22200 45.38100 43.84100
C  42.14300 44.58100 44.48700
H  49.37800 41.29300 42.51500
H  53.68500 45.91600 43.17500
H  48.93100 50.24300 43.77400
H  44.83700 42.99700 42.64000
H  46.97400 41.36900 41.43400
H  45.56600 41.66600 44.09400
H  47.27300 41.35500 44.32700
H  46.24400 40.30000 43.26800
H  44.13200 43.45500 40.47500
H  45.00600 41.96800 40.23600
H  47.06800 43.43300 39.60800
H  45.92200 44.65100 39.28500
H  51.22200 40.32600 42.11800
H  51.90100 40.32800 43.72500
H  53.07000 40.42400 42.50800
H  54.97600 44.66800 44.43200
H  55.41900 44.80700 42.75200
H  56.29700 43.70300 43.83600
H  53.31900 48.60900 42.69000
H  51.46700 49.86100 44.70200
H  54.51300 48.61100 44.56000
H  53.31400 47.52400 45.35800
H  53.10900 49.20300 45.60500
H  50.52800 50.98600 42.35700
H  51.92200 50.11500 41.73300
H  53.03300 52.33700 42.24500
H  52.66100 51.91500 43.81300
H  51.48000 52.88100 42.91200
H  45.30000 50.76500 42.91600
H  46.74200 51.07400 43.81700
H  45.36600 50.26300 44.62100
H  44.21000 46.17200 40.81200
H  42.28900 43.52000 44.28500
H  41.22200 45.02900 44.11400
H  42.24100 44.74400 45.56000

