158

Mg -1.94000 16.82200 27.40600
C  -2.55100 14.76800 30.26200
C  -2.15500 19.41300 29.34100
C  -1.78800 18.53700 24.52400
C  -1.75500 13.76200 25.52400
N  -2.15000 16.92900 29.56700
C  -2.24800 16.01700 30.58600
C  -2.11700 16.73300 31.98500
C  -1.97000 18.27300 31.57600
C  -2.07000 18.19500 30.04600
C  -2.83200 19.26800 32.33200
C  -0.92200 16.33800 32.94100
C  -0.41300 17.29700 34.06600
H  -0.37700 16.84200 35.57700
N  -2.03600 18.77700 26.99900
C  -2.14900 19.77100 27.94500
C  -2.12400 21.07200 27.29600
C  -2.10500 20.75200 25.91800
C  -1.97000 19.26200 25.74300
C  -2.17500 22.40300 27.95300
C  -2.13200 21.78600 24.80600
O  -2.19200 21.52100 23.63700
C  -2.20900 23.27200 25.05200
N  -1.72900 16.19300 25.30600
C  -1.69800 17.15700 24.34900
C  -1.71700 16.52000 22.94800
C  -1.36300 15.02700 23.27300
C  -1.49800 14.96100 24.81700
C  -3.12400 16.70300 22.23500
C  0.13600 14.81500 22.79500
C  1.18300 15.84100 23.26000
N  -2.22500 14.68800 27.72000
C  -2.09500 13.59000 26.88000
C  -2.53500 12.44600 27.60600
C  -2.65800 12.83100 28.96200
C  -2.41800 14.21700 28.95100
C  -2.71300 11.07200 26.99500
C  -2.91100 12.33800 30.27600
O  -3.17300 11.26800 30.78100
C  -2.69900 13.59900 31.23800
C  -1.37000 13.33100 31.84800
O  -0.35700 13.27700 31.15400
O  -1.39700 12.93800 33.22100
C  -0.16300 12.58400 33.92200
H  -2.17000 20.32600 29.93900
H  -1.79900 19.14800 23.61900
H  -1.44800 12.85900 24.99200
H  -3.03400 16.56600 32.54900
H  -0.90800 18.51400 31.62000
H  -3.71900 19.69100 31.86000
H  -2.20300 20.07500 32.70900
H  -3.21900 18.85500 33.26300
H  -0.02500 16.14900 32.35200
H  -1.21900 15.42200 33.45100
H  -1.07200 18.15800 33.94900
H  0.60900 17.49800 33.74200
H  -1.38500 23.06400 27.59500
H  -2.16100 22.28800 29.03700
H  -3.09900 22.90100 27.66000
H  -2.08100 23.77600 24.09400
H  -1.49900 23.78800 25.69800
H  -3.25300 23.51900 25.24400
H  -0.95900 16.93200 22.28100
H  -1.96700 14.25700 22.79200
H  -3.82000 17.23400 22.88400
H  -3.54100 15.75800 21.88800
H  -3.02100 17.36500 21.37600
H  0.06400 14.87000 21.70900
H  0.51600 13.80400 22.94400
H  1.55300 16.24800 22.31900
H  1.95500 15.31700 23.82300
H  0.91500 16.67100 23.91300
H  -3.70100 10.96100 26.54800
H  -2.60700 10.36800 27.82100
H  -1.97200 10.90800 26.21200
H  -3.48200 13.66700 31.99300
H  0.73800 12.75700 33.33300
H  -0.16600 11.50900 34.10200
H  -0.09400 13.02700 34.91500
Mg 36.53800 49.49900 24.93100
C  36.62400 47.52200 28.01900
C  35.01900 52.07400 26.78800
C  35.76600 50.90700 22.07000
C  37.60600 46.54000 23.27100
N  35.79700 49.71700 27.13700
C  36.10900 48.84800 28.21600
C  35.81700 49.60900 29.51700
C  35.19800 50.95000 29.06100
C  35.26000 50.91400 27.52300
C  33.66400 51.18400 29.45800
C  37.02700 49.77200 30.45700
C  36.82100 49.42600 32.02200
H  35.37900 49.17500 32.54900
N  35.65300 51.29900 24.46500
C  35.13600 52.22000 25.36000
C  34.81200 53.38800 24.64300
C  34.90800 53.09400 23.23000
C  35.43600 51.74800 23.14400
C  34.38300 54.66200 25.41000
C  34.53800 53.94600 21.98900
O  34.62900 53.48400 20.86900
C  34.13000 55.33900 22.17400
N  36.62600 48.73300 22.98900
C  36.32700 49.60600 21.96500
C  36.59600 48.96300 20.57200
C  37.36600 47.59100 20.98100
C  37.15700 47.58500 22.52000
C  35.28800 48.65300 19.76000
C  38.83300 47.52500 20.53000
C  39.77300 48.42200 21.41500
N  37.16400 47.48200 25.49800
C  37.55500 46.43100 24.67500
C  37.74600 45.19000 25.46600
C  37.43500 45.65400 26.80500
C  37.08900 47.03200 26.77100
C  38.16300 43.80500 24.99000
C  37.47600 45.24300 28.23000
O  37.94300 44.20300 28.71600
C  36.90800 46.43400 29.04700
C  35.75700 46.11900 29.99300
O  34.65500 46.62600 29.92100
O  36.13800 45.17600 30.94100
C  35.09800 44.81000 32.01200
H  34.69500 52.89900 27.42700
H  35.57100 51.24800 21.05100
H  38.07000 45.71400 22.72800
H  35.11500 49.04400 30.13100
H  35.77800 51.79000 29.44300
H  33.37000 50.26000 29.95600
H  33.05300 51.42200 28.58800
H  33.55200 52.01300 30.15700
H  37.38500 50.79300 30.31800
H  37.87600 49.23700 30.03000
H  37.23600 50.31200 32.50400
H  37.48500 48.61800 32.32600
H  33.31000 54.53200 25.55700
H  34.47700 55.52300 24.74900
H  34.88900 54.82900 26.36100
H  33.96000 55.80100 21.20200
H  35.00100 55.91000 22.49600
H  33.22800 55.47000 22.77200
H  37.20500 49.60100 19.93200
H  36.79600 46.76300 20.55900
H  34.44100 49.04900 20.31900
H  35.18900 47.58300 19.57700
H  35.32500 49.13600 18.78300
H  39.01700 47.98000 19.55700
H  39.20000 46.49900 20.52500
H  39.24900 48.99000 22.18400
H  40.28500 49.19700 20.84500
H  40.54400 47.79700 21.86600
H  39.22700 43.82200 24.75000
H  37.53000 43.42600 24.18800
H  37.94700 43.14000 25.82600
H  37.72300 46.72000 29.71200
H  35.17900 43.80400 32.42500
H  34.11400 44.93100 31.56000
H  35.23400 45.46500 32.87300

