158

Mg 2.11100 -1.37200 46.42900
C  5.34000 -0.17300 45.45900
C  0.83900 1.07800 44.28900
C  -0.87900 -2.78200 46.70600
C  3.71500 -4.31700 47.51100
N  2.97000 0.25900 45.04500
C  4.28300 0.51400 44.88300
C  4.52500 1.64300 43.90800
C  3.03100 2.35200 43.87900
C  2.20500 1.20400 44.49100
C  2.75200 3.74000 44.65800
C  5.11100 1.25800 42.44800
C  6.33100 2.05500 41.97800
H  7.38100 1.31500 41.13800
N  0.21000 -0.82800 45.71500
C  -0.12500 0.11900 44.81500
C  -1.49700 0.18400 44.67300
C  -2.08300 -0.81200 45.46600
C  -0.94500 -1.50200 46.04600
C  -2.17200 1.12800 43.74200
C  -3.57800 -0.94600 45.67900
O  -4.49000 -0.21700 45.29600
C  -4.13200 -2.17900 46.42100
N  1.49400 -3.27100 46.88000
C  0.16900 -3.60100 46.99800
C  0.01600 -4.98700 47.70200
C  1.48900 -5.54300 47.58500
C  2.32500 -4.29200 47.30600
C  -0.34400 -4.91900 49.16500
C  1.72900 -6.47400 46.34800
C  1.46900 -7.96300 46.64000
N  4.15500 -2.02000 46.80600
C  4.65300 -3.25500 47.19100
C  6.01000 -3.24600 47.24100
C  6.34200 -1.98600 46.61400
C  5.18100 -1.38800 46.24100
C  6.78700 -4.43800 47.69800
C  7.41200 -1.13500 46.18800
O  8.65800 -1.23400 46.37600
C  6.79100 0.12400 45.46300
C  7.19800 1.41000 46.14200
O  6.93800 1.70300 47.29400
O  7.74900 2.22400 45.20000
C  8.17000 3.56100 45.73600
H  0.37700 1.92300 43.77400
H  -1.79700 -3.30300 46.98600
H  4.12400 -5.25700 47.88600
H  5.17700 2.38900 44.36200
H  2.75400 2.55800 42.84500
H  3.59900 3.96400 45.30600
H  1.78700 3.71400 45.16300
H  2.95900 4.51800 43.92200
H  4.36400 1.51400 41.69600
H  5.15800 0.16900 42.47600
H  6.79800 2.56400 42.82200
H  6.04300 2.91900 41.37900
H  -3.23000 0.97900 43.52900
H  -1.53500 1.16200 42.85800
H  -2.01100 2.15300 44.07900
H  -3.59100 -2.43900 47.33100
H  -4.12200 -3.04300 45.75600
H  -5.15800 -1.98900 46.73700
H  -0.72000 -5.54900 47.12900
H  1.80900 -5.99500 48.52400
H  -0.54400 -3.86500 49.35400
H  0.35200 -5.40500 49.84900
H  -1.32500 -5.35900 49.34600
H  2.61300 -6.38600 45.71600
H  0.93400 -6.20200 45.65400
H  2.35800 -8.59300 46.63600
H  0.90100 -8.42900 45.83500
H  0.98100 -8.14400 47.59800
H  7.25400 -4.84900 46.80200
H  6.25200 -5.19500 48.27000
H  7.49900 -4.08700 48.44500
H  7.15500 0.10700 44.43600
H  7.27200 4.02700 46.14200
H  8.59500 4.11600 44.89900
H  8.87900 3.39400 46.54600
Mg 43.30100 41.93000 26.65100
C  42.24900 44.17000 29.01800
C  44.20100 39.72200 29.01200
C  44.08400 39.85800 24.18200
C  42.97900 44.55500 24.22200
N  43.24000 41.96400 28.73200
C  42.62400 42.96000 29.53300
C  42.68900 42.56900 31.06000
C  43.51300 41.23400 31.02500
C  43.66100 40.95900 29.50500
C  44.90300 41.31200 31.67900
C  41.25100 42.37800 31.71200
C  40.97300 43.28100 32.94100
H  40.20100 42.70200 34.08200
N  44.04600 40.03200 26.57000
C  44.38100 39.25500 27.72800
C  44.84000 38.03500 27.31400
C  44.93000 38.04400 25.87800
C  44.31900 39.33300 25.46900
C  45.12400 36.91100 28.20900
C  45.46700 36.93500 24.93500
O  45.46100 37.12900 23.72600
C  45.96700 35.59200 25.33700
N  43.60500 42.21900 24.51000
C  43.82400 41.11100 23.73700
C  43.85800 41.51400 22.26600
C  43.38200 43.01100 22.21200
C  43.34800 43.30500 23.71900
C  45.28900 41.35900 21.67900
C  42.00400 43.23400 21.45300
C  42.16000 43.99400 20.07700
N  42.76300 43.94900 26.58800
C  42.71500 44.86100 25.54800
C  42.22600 46.12100 26.09900
C  42.00200 45.90200 27.40100
C  42.34600 44.57100 27.66900
C  41.99400 47.29600 25.35800
C  41.50200 46.47000 28.59000
O  40.93000 47.51500 28.81800
C  41.68000 45.41800 29.67600
C  42.62100 45.91000 30.79400
O  43.82900 46.11600 30.64600
O  41.98700 46.08700 32.01600
C  42.92900 46.46000 33.16400
H  44.41100 38.99300 29.79800
H  44.46500 39.16900 23.42500
H  42.67200 45.34100 23.52900
H  43.12800 43.42900 31.56500
H  42.88600 40.39200 31.31800
H  45.70500 41.39500 30.94500
H  44.89600 40.31200 32.11300
H  44.97500 42.08200 32.44600
H  40.96700 41.34700 31.91900
H  40.43500 42.69800 31.06400
H  40.55000 44.21600 32.57300
H  41.91200 43.47800 33.45900
H  44.53500 36.02600 27.96800
H  44.82500 37.09700 29.24000
H  46.17900 36.66200 28.09500
H  46.65800 35.17700 24.60300
H  45.19900 34.82400 25.42700
H  46.61000 35.51100 26.21400
H  43.14400 40.95300 21.66300
H  44.18400 43.59800 21.76500
H  45.68200 42.25200 21.19400
H  45.40800 40.51600 20.99900
H  46.05200 41.13700 22.42500
H  41.33600 43.69600 22.18000
H  41.62100 42.23400 21.25300
H  41.25300 44.57200 19.89900
H  42.41600 43.44600 19.17000
H  42.97500 44.69900 20.23800
H  41.22300 47.08700 24.61700
H  42.91200 47.60200 24.85500
H  41.76900 48.09900 26.06100
H  40.72800 45.19200 30.15700
H  42.69800 47.41500 33.63500
H  43.98200 46.52100 32.88700
H  42.75000 45.71300 33.93700

