158

Mg 40.06400 9.56700 29.56400
C  42.17300 11.03200 32.03700
C  37.92800 8.61600 32.17600
C  38.22300 8.07800 27.29500
C  42.51000 10.36900 27.10100
N  40.14100 9.77800 31.85600
C  41.01900 10.50000 32.58100
C  40.64000 10.40600 34.07800
C  39.36800 9.47400 34.13100
C  39.12300 9.23400 32.63900
C  39.63700 8.20800 35.05000
C  40.34500 11.88700 34.64600
C  39.53400 11.95100 35.99500
H  40.13200 12.83800 37.13100
N  38.43500 8.41000 29.74000
C  37.61400 8.20500 30.80900
C  36.51200 7.39700 30.43200
C  36.49000 7.33700 29.01900
C  37.72000 8.02600 28.66300
C  35.56800 6.67600 31.43300
C  35.42700 6.67200 28.03500
O  35.51200 6.64300 26.80300
C  34.16300 6.13200 28.70900
N  40.55500 8.97300 27.55200
C  39.45100 8.53300 26.82500
C  39.69500 8.73200 25.32700
C  41.04300 9.48000 25.18200
C  41.45800 9.62300 26.65300
C  39.61100 7.42700 24.46100
C  40.98700 10.76100 24.37100
C  40.60600 12.08000 25.05700
N  41.92600 10.55200 29.45500
C  42.83100 10.74400 28.42800
C  43.99100 11.57100 28.86200
C  43.74900 11.65900 30.26000
C  42.49000 11.05000 30.58100
C  45.18300 12.03500 28.08600
C  44.33100 12.17900 31.46700
O  45.43100 12.67600 31.69000
C  43.47700 11.66900 32.69800
C  44.15200 10.63200 33.58400
O  44.08800 9.44000 33.44000
O  44.78700 11.24700 34.65900
C  45.34600 10.27100 35.62300
H  37.20100 8.51800 32.98400
H  37.62400 7.69500 26.46600
H  43.04300 10.95200 26.34600
H  41.36700 9.89700 34.71100
H  38.47600 9.96400 34.51900
H  38.68100 8.09300 35.56100
H  40.37700 8.50600 35.79200
H  39.99800 7.32200 34.52800
H  40.05400 12.64300 33.91700
H  41.32100 12.35500 34.77700
H  39.17200 11.00400 36.39500
H  38.67600 12.49200 35.59600
H  36.03300 6.61700 32.41700
H  35.35800 5.62400 31.23700
H  34.63400 7.22600 31.54600
H  33.86600 6.98600 29.31700
H  34.40400 5.25100 29.30500
H  33.42000 5.96400 27.93000
H  38.97700 9.49800 25.03300
H  41.78100 8.81200 24.73900
H  39.81700 6.56100 25.09100
H  40.32700 7.38900 23.63900
H  38.64700 7.33900 23.96100
H  40.21800 10.65500 23.60600
H  41.96700 10.88500 23.91000
H  40.47300 12.03000 26.13800
H  39.69800 12.48300 24.60900
H  41.44700 12.73700 24.83300
H  45.08900 13.07800 27.78100
H  45.23500 11.38600 27.21100
H  46.02200 11.98800 28.78000
H  43.19700 12.47200 33.38000
H  44.50900 9.70600 36.03400
H  45.94000 10.86800 36.31500
H  45.95300 9.57200 35.04700
Mg -11.20200 39.51700 41.47000
C  -10.15400 36.20800 40.94000
C  -8.27100 40.49900 39.64500
C  -12.37900 42.58700 41.00300
C  -14.25500 38.33000 42.47700
N  -9.42400 38.44000 40.37400
C  -9.25600 37.06300 40.27800
C  -7.93700 36.68200 39.59500
C  -7.23900 38.12500 39.47200
C  -8.34300 39.08400 39.80000
C  -5.97600 38.37100 40.33400
C  -8.14400 35.96000 38.21000
C  -7.24000 34.79200 37.88100
H  -6.21600 35.03800 36.78800
N  -10.42300 41.32700 40.49000
C  -9.24700 41.51100 39.84800
C  -9.07200 42.94200 39.56900
C  -10.27500 43.55000 39.91700
C  -11.14000 42.47100 40.46600
C  -7.94200 43.42300 38.79100
C  -10.58400 45.00500 39.73700
O  -9.79900 45.74600 39.14000
C  -11.95600 45.66400 40.09100
N  -13.05400 40.31000 41.64900
C  -13.28500 41.64500 41.50500
C  -14.75500 42.01000 41.87200
C  -15.43400 40.59400 42.06200
C  -14.16500 39.68600 42.11400
C  -14.86100 42.83700 43.23200
C  -16.54100 40.11300 41.07000
C  -17.74700 39.25900 41.52100
N  -12.07400 37.66500 41.88000
C  -13.26700 37.36200 42.40800
C  -13.36300 35.88900 42.64100
C  -12.11300 35.34900 42.08500
C  -11.35500 36.47900 41.71600
C  -14.58700 35.12500 43.23800
C  -11.37800 34.14300 41.72800
O  -11.63000 32.99700 41.98700
C  -10.09900 34.65500 40.93100
C  -8.84000 34.05300 41.55100
O  -8.21800 33.03000 41.23900
O  -8.23900 34.94500 42.51500
C  -6.96800 34.44900 43.09500
H  -7.28400 40.71100 39.22800
H  -12.79300 43.59100 41.12200
H  -15.22300 37.99700 42.85800
H  -7.42900 36.05400 40.32700
H  -6.96300 38.26700 38.42700
H  -5.84100 37.66300 41.15100
H  -6.05500 39.30900 40.88300
H  -5.15400 38.26300 39.62600
H  -7.99900 36.74000 37.46300
H  -9.18500 35.63900 38.16700
H  -7.95700 34.04100 37.55000
H  -6.67900 34.41800 38.73800
H  -7.30200 42.60200 38.47000
H  -7.43400 43.93500 39.60900
H  -8.20000 44.16200 38.03200
H  -12.77100 45.19600 39.53800
H  -11.90300 46.72800 39.86000
H  -12.16100 45.57100 41.15800
H  -15.14300 42.50600 40.98200
H  -15.93700 40.43100 43.01500
H  -15.35300 43.79400 43.06500
H  -13.84400 42.96000 43.60500
H  -15.48100 42.45300 44.04200
H  -15.93700 39.72000 40.25300
H  -17.03900 41.05900 40.85700
H  -18.00300 38.72000 40.60900
H  -18.48700 39.89600 42.00500
H  -17.45700 38.59300 42.33500
H  -15.10900 35.87500 43.83200
H  -14.30700 34.29300 43.88400
H  -15.30400 34.77600 42.49500
H  -10.18600 34.29900 39.90500
H  -6.62800 34.86900 44.04200
H  -6.16200 34.69400 42.40300
H  -7.10300 33.40000 43.35800

