158

Mg 49.19800 35.66200 28.46800
C  47.05500 34.16400 30.73000
C  49.44800 38.44100 30.63700
C  50.86400 37.29900 26.18200
C  48.63500 33.04100 26.24400
N  48.37500 36.16600 30.46900
C  47.61800 35.35800 31.30300
C  47.46900 36.01400 32.63900
C  47.79900 37.52900 32.41400
C  48.59300 37.38500 31.07200
C  46.58600 38.43300 32.33600
C  48.11200 35.18600 33.72100
C  49.51600 35.62400 34.33700
H  49.64700 36.38400 35.60900
N  50.26900 37.52300 28.45600
C  50.20400 38.48600 29.47800
C  50.99400 39.61800 29.01000
C  51.55600 39.27800 27.73300
C  50.86100 38.03000 27.37800
C  51.17100 40.80600 29.85800
C  52.57200 39.99300 26.79800
O  52.86800 39.54000 25.73400
C  53.27400 41.35000 27.24800
N  49.54700 35.28300 26.43400
C  50.33400 36.10700 25.68500
C  50.50200 35.55400 24.26300
C  49.83300 34.14600 24.31400
C  49.39600 34.11300 25.76100
C  49.88600 36.47100 23.15300
C  50.68500 32.86500 23.97800
C  51.38500 32.60200 22.64700
N  48.13400 33.89900 28.46500
C  48.04100 32.93300 27.50700
C  47.16100 31.87400 28.03400
C  46.66100 32.38400 29.28100
C  47.34600 33.58400 29.49100
C  46.73000 30.59100 27.45300
C  45.75200 32.06000 30.36800
O  45.06700 31.09100 30.58300
C  45.97000 33.23000 31.35500
C  46.23500 32.74500 32.72200
O  47.14300 32.05100 33.04800
O  45.18900 33.04300 33.51500
C  45.19700 32.61800 34.92700
H  49.56200 39.30100 31.30000
H  51.52800 37.64000 25.38500
H  48.37100 32.26600 25.52200
H  46.41400 35.90300 32.88800
H  48.52800 37.96400 33.09800
H  45.72700 37.80800 32.09700
H  46.77200 39.14800 31.53400
H  46.36800 38.86900 33.31100
H  48.33200 34.22700 33.25200
H  47.47600 35.03100 34.59200
H  50.00200 36.26900 33.60500
H  50.13700 34.72800 34.31900
H  52.18400 40.70800 30.24900
H  50.60900 40.89600 30.78700
H  51.11500 41.68800 29.22000
H  53.42800 41.17300 28.31300
H  52.58100 42.18400 27.13900
H  54.26400 41.44900 26.80400
H  51.56800 35.42600 24.07900
H  48.84000 34.12000 23.86500
H  50.71200 36.86300 22.56000
H  49.21100 37.23700 23.53500
H  49.26400 35.96800 22.41300
H  49.97600 32.04500 24.09000
H  51.51300 32.66800 24.66000
H  52.46100 32.59000 22.82300
H  51.24600 33.46800 22.00100
H  51.08300 31.69600 22.12200
H  47.68100 30.06000 27.40900
H  46.38700 30.77900 26.43500
H  45.99300 30.12500 28.10700
H  45.00800 33.73400 31.44600
H  44.25200 32.87000 35.40900
H  46.04800 33.05300 35.45100
H  45.27000 31.53100 34.94800
Mg 27.98300 49.97600 26.24100
C  25.87700 50.84600 28.90500
C  30.33300 49.32100 28.65900
C  30.12400 49.21900 23.81600
C  25.39500 50.66200 24.12400
N  28.09500 50.20100 28.50600
C  27.13200 50.45500 29.39900
C  27.51200 50.31700 30.82300
C  29.02500 49.92300 30.74800
C  29.13200 49.80000 29.22200
C  29.97300 50.88300 31.57300
C  26.53000 49.40200 31.65700
C  25.93400 50.00600 32.91700
H  26.01200 49.17900 34.20700
N  29.87600 49.29300 26.19700
C  30.67000 48.99300 27.31100
C  31.97200 48.46700 26.84100
C  31.92700 48.50900 25.41600
C  30.59600 49.02100 25.06400
C  33.10400 48.07800 27.77900
C  33.04600 48.12000 24.45300
O  32.94700 48.34900 23.28500
C  34.30700 47.55000 24.94000
N  27.80900 50.08100 24.27900
C  28.82900 49.56100 23.45600
C  28.29900 49.54500 21.99300
C  26.74600 49.67500 22.20500
C  26.56400 50.07800 23.67800
C  28.97200 50.65600 21.12000
C  26.02800 48.25800 21.92300
C  25.17200 48.12400 20.59200
N  26.07700 50.76400 26.46500
C  25.10500 51.02100 25.49200
C  23.88400 51.57000 26.06000
C  24.18700 51.47300 27.41400
C  25.47700 50.97500 27.60300
C  22.68600 52.02700 25.37800
C  23.68300 51.76000 28.71700
O  22.57300 52.08500 29.06500
C  24.71100 51.41700 29.69200
C  25.03100 52.64300 30.48200
O  25.83400 53.49200 30.13100
O  24.29900 52.70700 31.62200
C  24.65200 53.81400 32.52900
H  31.03300 49.07400 29.46000
H  30.79200 48.82300 23.04800
H  24.57900 50.60500 23.40000
H  27.40000 51.31900 31.23700
H  29.17600 48.88200 31.03100
H  30.86800 51.11100 30.99600
H  30.35500 50.36300 32.45200
H  29.47600 51.77400 31.95700
H  27.01400 48.46900 31.94600
H  25.66700 49.04800 31.09500
H  24.88000 50.26400 32.81100
H  26.36600 50.98400 33.12900
H  33.87600 48.82900 27.61000
H  33.37700 47.05000 27.54100
H  32.75600 48.26400 28.79500
H  34.83000 48.17100 25.66800
H  34.91800 47.52000 24.03800
H  34.11600 46.54000 25.30300
H  28.52100 48.55000 21.60500
H  26.29900 50.48800 21.63500
H  29.64800 51.37700 21.57900
H  28.19400 51.17900 20.56400
H  29.46600 50.08800 20.33300
H  25.54900 48.08300 22.88600
H  26.78200 47.47300 21.98300
H  25.21200 48.95500 19.88800
H  24.15300 47.99600 20.95500
H  25.49000 47.24600 20.03000
H  22.24500 51.38300 24.61800
H  23.03300 52.96600 24.94500
H  21.93300 52.09200 26.16300
H  24.20800 50.75400 30.39600
H  25.45800 53.53200 33.20600
H  23.76200 53.97300 33.13800
H  24.74900 54.73000 31.94600

