158

Mg 54.52400 24.10300 45.33900
C  52.21700 26.37100 43.96300
C  52.94800 21.68400 43.32300
C  57.24500 22.23600 45.52300
C  56.20200 26.87600 46.67100
N  52.87800 24.10300 43.62800
C  52.03300 25.10000 43.34200
C  50.86000 24.62100 42.43400
C  50.93200 23.10400 42.64100
C  52.36500 22.93800 43.29900
C  49.84900 22.52100 43.61400
C  51.24100 25.04300 40.95700
C  50.12300 24.83600 39.95400
H  50.35000 25.21300 38.47600
N  54.99900 22.13600 44.61100
C  54.17200 21.28700 43.93200
C  54.82900 19.99200 43.75600
C  56.12600 20.12500 44.39500
C  56.14600 21.54600 44.92300
C  54.18800 18.88000 42.97300
C  57.19700 19.09800 44.48500
O  57.06800 18.07700 43.78500
C  58.38000 19.14400 45.29200
N  56.52900 24.52500 45.82400
C  57.45400 23.56000 45.91100
C  58.79800 24.17400 46.40900
C  58.39200 25.63000 46.81700
C  56.93400 25.76300 46.44500
C  59.33700 23.34600 47.60400
C  59.29900 26.84600 46.40500
C  60.70200 26.61600 45.91600
N  54.20500 26.17600 45.50200
C  54.94900 27.16200 46.16100
C  54.17500 28.33800 46.29600
C  53.11600 28.04900 45.41600
C  53.18700 26.76600 44.90200
C  54.63500 29.52700 47.00500
C  51.95800 28.60700 44.95300
O  51.37600 29.64400 45.30000
C  51.28100 27.54900 43.93200
C  50.83400 28.13300 42.70300
O  51.60400 28.62200 41.84500
O  49.49600 27.93100 42.56600
C  48.89200 28.42800 41.32400
H  52.35900 20.85500 42.92400
H  58.07900 21.53100 45.53400
H  56.61400 27.62800 47.34700
H  49.88700 25.06200 42.65400
H  50.86300 22.54400 41.70800
H  50.36900 21.93700 44.37400
H  49.15400 21.96600 42.98400
H  49.25600 23.27900 44.12700
H  52.16000 24.51900 40.69400
H  51.50600 26.10000 40.94400
H  49.21600 25.32500 40.30900
H  49.93800 23.76200 39.93700
H  54.49800 18.92100 41.92800
H  53.13500 19.12900 43.10900
H  54.36600 17.91700 43.45100
H  58.85100 18.16300 45.36300
H  58.00700 19.41400 46.28000
H  59.00500 19.92600 44.86100
H  59.51400 24.13500 45.58800
H  58.36100 25.64000 47.90700
H  59.70300 23.97700 48.41400
H  60.16600 22.73100 47.25400
H  58.51600 22.74300 47.99100
H  59.30200 27.66100 47.12900
H  58.80100 27.25800 45.52700
H  61.25500 27.36000 46.48900
H  60.81500 26.80300 44.84800
H  61.05800 25.62100 46.18300
H  55.17100 30.26600 46.40900
H  55.20400 29.27700 47.90000
H  53.76400 30.08200 47.35200
H  50.38400 27.19400 44.44100
H  48.79600 29.51200 41.37600
H  47.90800 27.96900 41.22800
H  49.59900 28.16400 40.53700
Mg -11.29200 36.84800 42.54100
C  -8.95400 34.32900 41.79800
C  -9.14400 38.99900 40.87000
C  -13.73700 39.01400 42.37900
C  -13.50000 34.32000 43.46200
N  -9.41700 36.55400 41.17700
C  -8.66900 35.45500 41.08100
C  -7.31400 35.77900 40.31200
C  -7.23800 37.32900 40.51400
C  -8.64900 37.67400 41.01200
C  -6.08900 37.79100 41.41700
C  -7.23100 35.08200 38.93400
C  -6.08000 34.12800 38.57300
H  -5.01800 34.65100 37.58800
N  -11.43600 38.78700 41.72000
C  -10.45300 39.52400 41.09300
C  -10.98200 40.81600 40.72700
C  -12.36500 40.77700 41.01700
C  -12.55200 39.50400 41.81300
C  -10.19300 41.80500 39.95900
C  -13.37800 41.80100 40.62900
O  -13.02700 42.80100 40.00900
C  -14.83400 41.68000 40.95200
N  -13.36600 36.71900 42.73500
C  -14.12500 37.75000 42.82200
C  -15.53400 37.35200 43.24100
C  -15.48100 35.77400 43.36800
C  -13.98700 35.55900 43.16100
C  -15.86800 38.11500 44.57200
C  -16.42500 34.84300 42.40500
C  -17.60700 34.10100 43.00400
N  -11.27500 34.75400 42.76800
C  -12.21800 33.87100 43.17700
C  -11.55800 32.52100 43.13900
C  -10.23000 32.74600 42.80000
C  -10.13900 34.07700 42.43100
C  -12.23100 31.16900 43.46200
C  -8.96400 32.07100 42.59900
O  -8.70000 30.92600 42.67000
C  -8.06200 33.11200 41.97000
C  -6.82800 33.26700 42.75400
O  -6.69600 33.97000 43.81800
O  -5.79900 32.53900 42.25800
C  -4.69500 32.18300 43.20300
H  -8.38700 39.69600 40.50400
H  -14.63200 39.63200 42.47300
H  -14.11400 33.50600 43.85200
H  -6.59600 35.16400 40.85500
H  -7.13700 37.89000 39.58500
H  -5.29500 37.04700 41.46600
H  -6.45500 37.89400 42.43800
H  -5.61200 38.74200 41.17900
H  -6.98500 35.90400 38.26200
H  -8.20900 34.69500 38.64800
H  -6.46400 33.16200 38.24400
H  -5.60200 33.89200 39.52300
H  -10.65100 41.62500 38.98700
H  -9.13600 41.54200 39.96500
H  -10.38100 42.79900 40.36500
H  -15.35000 42.54900 40.54300
H  -14.99400 41.80000 42.02300
H  -15.18400 40.74200 40.52200
H  -16.01500 37.58900 42.29200
H  -15.50900 35.48800 44.42000
H  -16.13000 39.15400 44.37300
H  -14.97300 38.14800 45.19300
H  -16.65700 37.67900 45.18600
H  -15.78400 34.11000 41.91400
H  -16.75300 35.51400 41.61100
H  -17.42700 33.02600 43.00400
H  -18.48000 34.23900 42.36600
H  -17.82400 34.32300 44.04900
H  -11.53400 30.66400 44.13100
H  -12.45800 30.67200 42.51900
H  -13.13000 31.41200 44.02700
H  -7.87000 32.70600 40.97700
H  -3.85000 32.85100 43.03800
H  -4.38400 31.14800 43.06100
H  -5.03200 32.35600 44.22500

