158

Mg 43.09800 4.46600 47.89100
C  40.97100 7.21300 48.08100
C  40.15600 2.50100 47.29900
C  44.97300 2.05400 46.86500
C  45.91500 6.71000 47.98800
N  40.82200 4.87200 47.67000
C  40.26600 6.03500 48.02100
C  38.71100 5.90300 48.00100
C  38.47000 4.39100 47.89400
C  39.90100 3.85500 47.61100
C  37.66500 3.70500 49.08500
C  37.93200 6.72700 46.89600
C  38.62800 7.16300 45.58000
H  38.25100 6.50400 44.20300
N  42.61200 2.48800 47.35500
C  41.36200 1.85700 47.24100
C  41.66700 0.49600 46.88200
C  43.03600 0.39100 46.46400
C  43.61700 1.68000 46.85400
C  40.53300 -0.56300 46.65700
C  43.79300 -0.72900 45.68400
O  43.07100 -1.60100 45.29200
C  45.27400 -0.73900 45.20600
N  45.16500 4.42300 47.39700
C  45.67600 3.23200 47.20300
C  47.22300 3.29200 47.25200
C  47.54200 4.81000 47.41000
C  46.13700 5.33400 47.70000
C  47.90100 2.41900 48.31800
C  48.26900 5.50600 46.22800
C  49.76900 5.24600 46.19800
N  43.46400 6.51700 47.98400
C  44.65500 7.34000 48.00600
C  44.29800 8.63700 48.23300
C  42.83700 8.74500 48.20000
C  42.37200 7.36200 48.07800
C  45.20100 9.83400 48.44100
C  41.72000 9.55800 48.26900
O  41.60000 10.74800 48.37300
C  40.43700 8.61200 48.19500
C  39.55800 8.80700 49.32800
O  39.64500 8.27500 50.38400
O  38.54100 9.74000 49.09500
C  37.40000 9.99000 49.97100
H  39.32400 1.84600 47.03300
H  45.64700 1.23200 46.61400
H  46.78900 7.29700 48.27800
H  38.19700 6.19500 48.91700
H  37.92200 4.23200 46.96500
H  36.85500 4.36400 49.39600
H  38.43600 3.64200 49.85200
H  37.34300 2.68100 48.89200
H  37.47700 7.57300 47.41200
H  37.11100 6.12700 46.50400
H  39.70200 7.06100 45.73600
H  38.30300 8.20400 45.55900
H  40.11300 -0.57000 45.65100
H  39.63800 -0.45300 47.26900
H  41.04200 -1.51300 46.81400
H  45.93000 -0.87100 46.06600
H  45.48400 0.24200 44.77900
H  45.54500 -1.52600 44.50100
H  47.68700 3.05200 46.29500
H  48.16800 5.00100 48.28100
H  48.43300 1.59300 47.84500
H  47.12200 2.02400 48.97000
H  48.70600 2.97000 48.80400
H  48.10000 6.58200 46.27300
H  47.88200 5.10000 45.29300
H  50.37100 6.14500 46.06400
H  50.10300 4.55100 45.42800
H  50.05700 4.71800 47.10700
H  44.69200 10.50100 47.74500
H  46.25900 9.80500 48.17700
H  45.13600 10.11800 49.49100
H  39.89200 8.93400 47.30800
H  37.57800 9.47100 50.91300
H  36.65700 9.38400 49.45100
H  37.10600 11.03400 50.08000
Mg 37.21500 50.49500 24.96400
C  37.57800 48.55000 27.94400
C  35.59000 52.88800 26.78900
C  36.26000 52.14000 22.01500
C  38.21100 47.73700 23.10900
N  36.57100 50.59000 27.09800
C  36.88700 49.79500 28.13400
C  36.64600 50.49200 29.47000
C  35.78300 51.66200 29.07200
C  35.92300 51.74400 27.53100
C  34.36100 51.60300 29.70400
C  37.98700 50.75700 30.14900
C  37.98700 50.25700 31.56100
H  36.75400 50.44400 32.42900
N  36.22300 52.33300 24.46300
C  35.65200 53.16300 25.38100
C  34.95500 54.25200 24.73100
C  35.21400 54.09100 23.33300
C  35.90100 52.82800 23.20900
C  34.16300 55.17900 25.47700
C  34.78900 54.96700 22.14800
O  35.17200 54.70600 21.00300
C  33.82900 56.20800 22.30600
N  37.17500 49.98200 22.87200
C  36.75800 50.80900 21.90500
C  37.03900 50.18200 20.53200
C  37.97800 48.93300 20.87800
C  37.73800 48.84300 22.39100
C  35.71900 49.98400 19.71900
C  39.48900 49.05000 20.54600
C  40.08200 47.87700 19.66300
N  37.96600 48.61800 25.35700
C  38.27800 47.57800 24.55400
C  38.58900 46.39600 25.24000
C  38.46000 46.77200 26.62700
C  37.95700 48.10800 26.69200
C  38.89400 45.11800 24.65200
C  38.44900 46.30100 27.96900
O  38.81300 45.19700 28.38000
C  38.10200 47.43800 28.95000
C  36.98400 46.86600 29.70200
O  35.79700 46.78100 29.35600
O  37.48400 46.48700 30.95200
C  36.54300 45.81300 31.86900
H  35.03600 53.63900 27.35600
H  36.06900 52.50500 21.00400
H  38.75800 47.01200 22.50300
H  36.07300 49.76400 30.04600
H  36.25500 52.51300 29.56300
H  33.70200 51.66100 28.83800
H  34.12700 52.51600 30.25200
H  34.09400 50.76100 30.34300
H  38.28600 51.79200 29.97700
H  38.68600 50.18800 29.53600
H  38.67300 50.90000 32.11300
H  38.21800 49.19100 31.54100
H  34.00600 56.07300 24.87400
H  34.66500 55.48900 26.39400
H  33.21100 54.75800 25.80100
H  33.51600 56.51800 21.30900
H  34.42300 57.05800 22.64200
H  33.00600 56.06600 23.00600
H  37.59700 50.91300 19.94600
H  37.48400 48.07000 20.43300
H  34.87400 49.94100 20.40600
H  35.77100 49.05900 19.14400
H  35.54300 50.79200 19.01000
H  40.10200 49.14300 21.44300
H  39.52700 49.89800 19.86200
H  41.08100 48.11800 19.30000
H  39.44700 47.87100 18.77700
H  40.21200 46.92300 20.17300
H  38.37100 44.27100 25.09400
H  39.95700 44.87700 24.67200
H  38.72800 45.06400 23.57600
H  38.88700 47.83300 29.59400
H  35.96700 45.11400 31.26200
H  36.00400 46.44500 32.57500
H  37.18300 45.12800 32.42500

