158

Mg 9.10100 3.40100 27.59600
C  10.33400 1.58400 30.31900
C  7.37000 5.32400 29.84200
C  7.52900 4.84600 24.91300
C  10.18200 0.80800 25.40900
N  8.88300 3.41100 29.79800
C  9.58300 2.68000 30.73200
C  9.58500 3.28400 32.17900
C  8.42600 4.45900 31.95200
C  8.15500 4.36400 30.47600
C  7.15800 4.26800 32.83600
C  10.94900 3.69800 32.79100
C  10.76800 4.67400 33.94600
H  11.55800 4.36100 35.23100
N  7.60400 4.86400 27.41900
C  7.08900 5.58900 28.42600
C  6.29200 6.65300 27.91200
C  6.18300 6.48100 26.50100
C  7.15700 5.35000 26.22800
C  5.56800 7.65800 28.91900
C  5.46300 7.28000 25.46700
O  5.63500 7.12000 24.24800
C  4.53500 8.43000 25.96300
N  9.00200 2.96600 25.45400
C  8.32900 3.73900 24.57000
C  8.28100 3.08500 23.12500
C  9.21900 1.84000 23.31900
C  9.42400 1.81200 24.83100
C  6.90600 2.70200 22.44400
C  10.61600 2.04300 22.66300
C  11.16900 0.78200 22.06200
N  9.99700 1.56000 27.78100
C  10.44900 0.68900 26.79100
C  11.17900 -0.32600 27.51100
C  11.21700 -0.00300 28.86000
C  10.48400 1.18700 28.97000
C  11.88200 -1.55800 26.87100
C  11.68800 -0.38900 30.15000
O  12.30400 -1.40300 30.48600
C  11.14200 0.62200 31.22800
C  10.25900 0.06000 32.24100
O  9.09400 -0.32600 32.03000
O  10.84600 0.17200 33.46700
C  9.94800 -0.16500 34.60400
H  6.79600 5.83900 30.61600
H  6.99200 5.21500 24.03700
H  10.67300 0.08500 24.75500
H  9.18300 2.51000 32.83100
H  8.83500 5.46900 31.91900
H  6.26900 4.10200 32.22700
H  6.92000 5.01600 33.59200
H  7.27400 3.31500 33.35300
H  11.69500 4.14900 32.13800
H  11.45100 2.79200 33.13200
H  9.69600 4.65000 34.14000
H  11.07000 5.66400 33.60300
H  5.40100 7.31600 29.94100
H  4.56600 7.86900 28.54400
H  6.19900 8.54300 28.99700
H  5.19300 9.00600 26.61400
H  3.70100 8.17800 26.61800
H  4.16000 9.02500 25.13100
H  8.77800 3.79100 22.46000
H  8.78600 0.86700 23.08500
H  6.17700 2.99300 23.20100
H  6.79100 1.62500 22.32500
H  6.71400 3.14900 21.46900
H  11.39200 2.27000 23.39400
H  10.58700 2.81600 21.89400
H  10.32800 0.25000 21.61900
H  11.71200 0.29500 22.87200
H  11.90500 0.96500 21.27900
H  11.28800 -1.79400 25.98800
H  11.78500 -2.36600 27.59600
H  12.91100 -1.28100 26.64400
H  11.90500 1.15900 31.79100
H  9.66800 0.81300 34.99600
H  10.44400 -0.77400 35.35900
H  9.01700 -0.68800 34.38700
Mg 26.20600 -0.60900 29.57000
C  28.16000 -0.52600 32.53700
C  23.49700 -0.08400 31.49000
C  24.43300 -0.99200 26.79200
C  29.19200 -1.14900 27.84200
N  25.93300 -0.42700 31.82700
C  26.87800 -0.27900 32.79600
C  26.14400 0.02400 34.18700
C  24.60300 -0.00200 33.82800
C  24.61900 -0.15900 32.28800
C  23.70900 -0.94100 34.72800
C  26.65600 1.34400 34.89000
C  27.03000 1.10300 36.37100
H  26.53200 2.13000 37.33300
N  24.21400 -0.56600 29.15800
C  23.23600 -0.27900 30.10900
C  21.93800 -0.40800 29.45500
C  22.23700 -0.47800 28.03900
C  23.66800 -0.74600 27.99300
C  20.71900 -0.32100 30.22800
C  21.27600 -0.54700 26.94500
O  21.68700 -0.60100 25.79100
C  19.87700 -0.37700 27.15700
N  26.69200 -1.16400 27.59300
C  25.80200 -1.20400 26.63700
C  26.40500 -1.25800 25.17300
C  27.92900 -1.17700 25.53100
C  27.99500 -1.11100 27.05700
C  25.90700 -2.43100 24.26100
C  28.67200 0.08400 24.87400
C  28.65400 1.44700 25.60400
N  28.22000 -0.86900 30.03300
C  29.29800 -1.18700 29.24100
C  30.55700 -1.20100 30.01700
C  30.10900 -1.03600 31.31700
C  28.68000 -0.81500 31.28000
C  31.98700 -1.33700 29.49600
C  30.59600 -0.85800 32.70300
O  31.71800 -0.91500 33.13100
C  29.29600 -0.41100 33.51800
C  29.28100 -1.46700 34.66000
O  29.08300 -2.64600 34.52500
O  29.57900 -0.82200 35.82600
C  29.52200 -1.64000 37.07700
H  22.59500 0.11100 32.07500
H  23.97400 -1.17900 25.81900
H  30.10400 -1.22600 27.24700
H  26.45700 -0.81900 34.80200
H  24.14700 0.94700 34.10900
H  23.13700 -1.68000 34.16700
H  22.91600 -0.45700 35.29700
H  24.28100 -1.35600 35.55800
H  25.86700 2.08900 34.78900
H  27.60300 1.69900 34.48300
H  28.05900 1.23300 36.70800
H  26.73100 0.10700 36.69900
H  20.17100 0.57200 29.92800
H  20.89500 -0.19100 31.29600
H  20.10600 -1.21400 30.10500
H  19.36200 -0.24600 26.20500
H  19.61100 0.48000 27.77600
H  19.49100 -1.34000 27.49000
H  26.06100 -0.36400 24.65100
H  28.52600 -2.05200 25.27300
H  25.17100 -3.02300 24.80500
H  26.67700 -3.14300 23.96300
H  25.49300 -2.02600 23.33800
H  28.29500 0.17400 23.85500
H  29.67800 -0.21000 24.57400
H  29.55900 2.04300 25.48800
H  28.52200 1.45000 26.68600
H  27.89900 2.09700 25.16200
H  32.13300 -2.40500 29.66000
H  32.63600 -0.62500 30.00500
H  31.96600 -1.09100 28.43400
H  29.54600 0.60700 33.81500
H  30.40800 -1.34000 37.63700
H  29.46000 -2.72000 36.94000
H  28.61500 -1.31100 37.58300

