158

Mg 24.50500 -5.74400 46.05500
C  26.51900 -3.52800 44.25100
C  21.83500 -4.73700 44.12100
C  22.77800 -8.43900 47.17200
C  27.36500 -6.75700 47.91100
N  24.31700 -4.35500 44.30800
C  25.22300 -3.54400 43.77400
C  24.56300 -2.68700 42.66100
C  23.02600 -3.00300 42.84200
C  23.03400 -4.11500 43.81900
C  21.99700 -1.90100 43.32800
C  25.13800 -3.02000 41.24400
C  25.71000 -1.83100 40.37000
H  25.21100 -1.69800 38.89800
N  22.57900 -6.50600 45.62900
C  21.65700 -5.96400 44.83300
C  20.44100 -6.79500 44.91800
C  20.76400 -7.93400 45.71300
C  22.05900 -7.62000 46.25000
C  19.30600 -6.58900 44.05800
C  19.85500 -9.14400 45.93600
O  18.75600 -9.25200 45.34600
C  20.38000 -10.35600 46.74700
N  24.97200 -7.33200 47.40600
C  24.02900 -8.31600 47.72500
C  24.62800 -9.27200 48.77400
C  26.08300 -8.83100 48.92900
C  26.18800 -7.56900 48.06000
C  23.81600 -9.25200 50.11300
C  27.07900 -10.00600 48.63200
C  27.56800 -10.75300 49.88800
N  26.58000 -5.15000 46.21800
C  27.59100 -5.72300 46.98900
C  28.79900 -5.07000 46.63300
C  28.46300 -4.22600 45.56500
C  27.09100 -4.32200 45.33700
C  30.13300 -5.20300 47.29400
C  28.89000 -3.28300 44.56900
O  30.05300 -2.87000 44.41000
C  27.68300 -2.83400 43.71300
C  27.51500 -1.33400 43.81400
O  26.84500 -0.65600 44.58000
O  28.30500 -0.85000 42.80600
C  28.56300 0.57800 42.63400
H  20.98800 -4.36600 43.54100
H  22.39000 -9.39800 47.52200
H  28.22500 -7.14600 48.46000
H  24.72000 -1.61400 42.76600
H  22.65200 -3.41800 41.90500
H  21.17800 -1.78200 42.61800
H  22.48600 -0.92700 43.31700
H  21.62800 -2.10300 44.33300
H  24.37500 -3.40200 40.56600
H  25.87100 -3.81400 41.38200
H  26.77800 -2.01000 40.24500
H  25.68200 -0.88200 40.90500
H  19.20300 -5.54000 43.78000
H  18.41900 -6.92400 44.59400
H  19.40800 -7.25600 43.20200
H  20.54800 -9.95400 47.74600
H  21.35900 -10.63100 46.35300
H  19.67500 -11.18800 46.77000
H  24.45300 -10.27900 48.39600
H  26.20900 -8.35400 49.90100
H  24.45300 -8.99200 50.95800
H  23.42900 -10.24000 50.36400
H  22.95400 -8.59500 49.99000
H  27.92600 -9.59900 48.07900
H  26.55500 -10.66700 47.94200
H  26.95100 -11.63600 50.05300
H  27.51300 -10.12300 50.77600
H  28.55900 -11.12000 49.62200
H  30.84200 -4.65700 46.67200
H  30.26900 -6.28200 47.21700
H  30.13600 -4.82000 48.31400
H  27.78700 -3.17400 42.68300
H  29.64400 0.68800 42.54600
H  28.13100 1.32100 43.30500
H  28.22700 0.84900 41.63300
Mg 47.29900 15.91800 29.07800
C  45.36100 15.27400 31.93900
C  49.50600 17.53200 31.04500
C  48.81000 16.90100 26.16900
C  44.64800 14.71000 27.08600
N  47.28200 16.38900 31.22100
C  46.52900 15.92800 32.26500
C  47.03700 16.38500 33.62200
C  48.16900 17.35500 33.22300
C  48.30900 17.04900 31.74900
C  48.00400 18.85300 33.42500
C  47.49700 15.20900 34.51800
C  48.18900 15.43400 35.90100
H  47.82600 16.64600 36.72900
N  48.94000 16.91800 28.71400
C  49.82100 17.44100 29.65300
C  51.03800 17.92400 28.98300
C  50.73200 17.91400 27.62900
C  49.41900 17.23600 27.42300
C  52.18800 18.49200 29.78400
C  51.63700 18.41000 26.51500
O  51.34800 18.25300 25.29500
C  52.90900 19.19200 26.84800
N  46.78800 15.82700 26.86300
C  47.57400 16.33000 25.89300
C  46.88100 16.09100 24.46400
C  45.54500 15.33900 24.85100
C  45.68900 15.24300 26.32200
C  46.73000 17.42900 23.66000
C  45.35300 13.98200 24.12500
C  46.31700 12.79700 24.36100
N  45.41300 15.08600 29.38900
C  44.43800 14.61700 28.53200
C  43.36300 14.03600 29.35400
C  43.65800 14.28800 30.73200
C  44.92500 14.91400 30.60300
C  42.29000 13.18600 28.69300
C  43.26900 14.05600 32.06900
O  42.29700 13.46500 32.57100
C  44.33100 14.73800 32.96400
C  43.56600 15.75200 33.76800
O  42.88200 16.65900 33.38800
O  43.88500 15.56700 35.12700
C  43.16300 16.47600 36.07700
H  50.15900 18.03400 31.76200
H  49.42600 17.27600 25.34900
H  43.77100 14.40700 26.51000
H  46.17100 16.80800 34.13100
H  49.05000 17.08800 33.80700
H  47.70800 19.12000 34.43900
H  47.24200 19.07800 32.67800
H  48.71600 19.65100 33.21200
H  48.22500 14.64500 33.93400
H  46.68000 14.52100 34.73300
H  49.26500 15.56400 35.78300
H  48.02500 14.58200 36.56100
H  52.42900 19.50200 29.45500
H  53.00900 17.83400 29.49800
H  52.08300 18.60200 30.86400
H  53.48800 18.45600 27.40600
H  52.66500 20.01300 27.52200
H  53.31000 19.56000 25.90300
H  47.48200 15.36300 23.92000
H  44.69400 15.92300 24.50200
H  47.10400 18.33300 24.14100
H  45.70800 17.70200 23.39700
H  47.33900 17.36900 22.75800
H  45.33200 14.28200 23.07700
H  44.40000 13.63100 24.52100
H  46.73700 12.39000 23.44100
H  45.89400 11.89500 24.80300
H  47.10400 13.20200 24.99900
H  41.30700 13.49400 29.04900
H  42.53000 12.12400 28.75600
H  42.28200 13.50200 27.65000
H  44.74200 14.03300 33.68700
H  42.55500 15.92800 36.79700
H  42.76100 17.41400 35.69500
H  44.02700 16.60500 36.73000

