158

Mg 52.74800 23.90300 44.76200
C  49.77800 25.85800 44.01200
C  51.11900 21.10500 43.86000
C  55.67400 22.36800 44.76600
C  54.23900 26.93000 45.56900
N  50.64300 23.62500 43.83900
C  49.58400 24.47600 43.73500
C  48.23800 23.67200 43.47200
C  48.67000 22.19500 43.64200
C  50.22400 22.25800 43.86500
C  47.99900 21.40700 44.79800
C  47.66500 24.00000 42.10700
C  48.69600 23.81500 40.87900
H  48.03700 23.25700 39.54200
N  53.36800 22.01000 44.27900
C  52.57300 20.98400 43.89500
C  53.32200 19.76800 43.72000
C  54.74300 20.13800 43.88900
C  54.70200 21.53800 44.34200
C  52.62900 18.52200 43.28600
C  55.95000 19.18700 43.70900
O  55.73400 18.00000 43.50800
C  57.37700 19.58900 43.79400
N  54.73900 24.58800 45.15100
C  55.80100 23.75200 45.04500
C  57.09600 24.52600 45.13100
C  56.68400 26.00900 45.50700
C  55.13000 25.88900 45.37300
C  58.17900 23.85900 46.08700
C  57.22500 27.17300 44.58000
C  58.25500 28.20400 45.13100
N  52.16000 25.93700 44.96500
C  52.85000 27.02800 45.38600
C  52.04800 28.26200 45.48700
C  50.80300 27.79200 44.93900
C  50.94900 26.37300 44.59500
C  52.42300 29.59500 45.91300
C  49.51700 28.23200 44.57900
O  48.95400 29.34600 44.62200
C  48.75400 26.96800 43.99700
C  48.35200 27.33100 42.58300
O  49.13100 27.31000 41.59500
O  47.01400 27.68800 42.50800
C  46.52200 27.88400 41.18900
H  50.59200 20.14900 43.89300
H  56.68000 21.95900 44.65100
H  54.71300 27.89000 45.78700
H  47.52700 23.88800 44.27000
H  48.39800 21.64200 42.74300
H  48.66100 20.62300 45.16500
H  47.12100 20.92800 44.36500
H  47.75900 22.09900 45.60500
H  47.00900 24.86900 42.06600
H  46.87000 23.26100 42.01300
H  49.43100 23.04500 41.11000
H  49.21700 24.75800 40.70900
H  51.55500 18.60900 43.12300
H  52.80000 17.70900 43.99200
H  53.07800 18.12600 42.37600
H  57.59400 20.28400 42.98300
H  57.94200 18.67300 43.62100
H  57.67000 20.00200 44.75900
H  57.56900 24.64200 44.15600
H  56.91800 26.09100 46.56800
H  57.85800 22.88400 46.45300
H  58.46400 24.47100 46.94300
H  59.01400 23.77900 45.39100
H  56.39200 27.78000 44.22200
H  57.65800 26.75700 43.67000
H  58.87700 27.72000 45.88500
H  57.74900 29.11200 45.45900
H  58.71100 28.53800 44.19900
H  52.79300 30.31900 45.18700
H  53.06900 29.41700 46.77200
H  51.49600 29.99100 46.32800
H  47.89100 26.72600 44.61700
H  46.79900 27.17600 40.40800
H  46.91700 28.83100 40.82200
H  45.43700 27.95500 41.26200
Mg 6.70100 56.63600 40.98300
C  5.50400 53.53900 40.96900
C  9.60400 55.59600 39.41100
C  7.54600 59.90700 40.25500
C  3.64700 57.78200 42.39900
N  7.50900 54.79000 40.42500
C  6.81700 53.57600 40.45200
C  7.61600 52.45600 39.86400
C  9.04600 53.06700 39.84900
C  8.73100 54.58200 39.86600
C  10.01700 52.72100 41.14200
C  7.04600 52.09500 38.41900
C  7.43400 50.66100 38.06400
H  7.61600 50.31500 36.52800
N  8.34200 57.61000 39.98600
C  9.48600 56.99700 39.46800
C  10.32900 57.94700 38.85400
C  9.80900 59.25100 39.17400
C  8.49300 58.95200 39.80300
C  11.62300 57.62300 38.19100
C  10.47900 60.63900 39.01500
O  11.53600 60.74400 38.40900
C  9.89500 61.88500 39.52200
N  5.57600 58.50200 41.09100
C  6.27300 59.73500 40.87200
C  5.45300 60.95300 41.27500
C  4.18500 60.25800 41.94900
C  4.46100 58.75400 41.79600
C  6.17700 62.07100 42.10800
C  2.84000 60.79600 41.46300
C  1.76800 60.94900 42.67200
N  4.93600 55.79800 41.71800
C  3.82500 56.37400 42.23400
C  2.89600 55.38300 42.63900
C  3.56600 54.20200 42.24000
C  4.70000 54.54400 41.53700
C  1.50300 55.63300 43.19000
C  3.48200 52.72400 42.11800
O  2.57800 51.94100 42.47000
C  4.68800 52.25100 41.26200
C  4.18700 51.64600 40.04900
O  3.40000 52.18500 39.34200
O  4.64800 50.40300 39.89300
C  4.09700 49.82500 38.68200
H  10.47900 55.11900 38.96400
H  7.77900 60.95500 40.05200
H  2.76800 58.22900 42.86700
H  7.48200 51.53500 40.43100
H  9.53800 52.80700 38.91100
H  9.59000 51.85900 41.65500
H  10.15000 53.58800 41.78800
H  11.00800 52.57600 40.71300
H  7.45600 52.73600 37.63800
H  5.95900 52.17300 38.41000
H  6.64800 49.99400 38.41900
H  8.32200 50.31100 38.59000
H  12.48900 58.16200 38.57500
H  11.55600 58.01400 37.17600
H  11.77200 56.55200 38.06200
H  9.54800 61.79800 40.55100
H  9.07100 62.14900 38.85800
H  10.65300 62.66800 39.48900
H  5.16500 61.40700 40.32700
H  4.36100 60.38600 43.01700
H  7.22800 61.89500 42.33500
H  5.62700 62.24500 43.03400
H  6.10800 63.05800 41.65100
H  2.47000 60.14900 40.66800
H  2.83200 61.80900 41.06000
H  1.42300 61.95500 42.91000
H  2.18200 60.51600 43.58300
H  0.92900 60.27300 42.50600
H  1.00500 56.42500 42.63000
H  1.52100 55.97600 44.22400
H  0.91000 54.71800 43.18200
H  5.35600 51.49600 41.67600
H  4.64300 48.89400 38.52800
H  4.17500 50.43000 37.77900
H  3.05000 49.60000 38.88500

