158

Mg 47.96200 16.41900 29.42100
C  45.48100 15.64400 31.70300
C  49.78000 17.84200 31.75800
C  49.88600 17.26800 26.95100
C  45.66800 15.08200 26.89400
N  47.55700 16.77500 31.45600
C  46.59100 16.20500 32.23000
C  46.82600 16.45300 33.76100
C  48.21700 17.18200 33.75600
C  48.52200 17.29600 32.20800
C  48.17200 18.61000 34.46400
C  46.75200 15.23000 34.73700
C  47.53500 15.31100 36.07000
H  47.45100 16.65200 36.76800
N  49.58500 17.48900 29.30800
C  50.20000 18.00700 30.42400
C  51.48800 18.67000 29.96100
C  51.51000 18.56800 28.55000
C  50.31000 17.73100 28.19900
C  52.47600 19.37900 30.97600
C  52.57800 18.96600 27.63000
O  52.56900 18.55700 26.43600
C  53.70700 19.82600 28.01500
N  47.70600 16.22600 27.20400
C  48.78600 16.59300 26.47600
C  48.62000 16.19700 25.03400
C  47.30700 15.34300 24.99000
C  46.89100 15.42100 26.46900
C  48.62000 17.27600 23.88600
C  47.40600 13.84400 24.47600
C  47.11800 13.71700 22.91200
N  45.91800 15.55900 29.24600
C  45.11300 15.15200 28.22600
C  43.85300 14.59200 28.78200
C  43.90300 14.86800 30.18500
C  45.18000 15.46200 30.31700
C  42.72400 13.96400 27.97800
C  43.20600 14.77100 31.45800
O  42.13000 14.33200 31.81700
C  44.24800 15.25400 32.48300
C  43.68900 16.36400 33.36000
O  43.53300 17.55800 33.07900
O  43.27100 15.73800 34.57000
C  42.57400 16.68500 35.46600
H  50.47500 18.11800 32.55500
H  50.60400 17.38200 26.13600
H  45.02100 14.65000 26.12800
H  46.05800 17.17700 34.03200
H  49.04400 16.59200 34.15200
H  47.21300 18.79700 34.94700
H  48.32000 19.26200 33.60300
H  49.04000 18.76600 35.10400
H  47.20900 14.39700 34.20300
H  45.68500 15.08700 34.91300
H  48.59900 15.12400 35.92400
H  47.10800 14.50800 36.67000
H  53.11600 18.69500 31.53400
H  51.78900 19.73800 31.74200
H  53.03300 20.29200 30.76200
H  53.32600 20.78600 28.36100
H  54.43300 19.85500 27.20200
H  54.20500 19.35300 28.86100
H  49.44800 15.51300 24.84900
H  46.43600 15.72500 24.45900
H  48.52900 18.21300 24.43500
H  47.78600 17.15700 23.19500
H  49.54900 17.16200 23.32700
H  46.70900 13.29500 25.11000
H  48.38000 13.47300 24.79500
H  46.97500 14.66200 22.38800
H  46.23100 13.08700 22.83800
H  47.94800 13.23900 22.39200
H  42.70600 12.87600 28.03200
H  42.93300 14.30600 26.96400
H  41.72400 14.37300 28.12100
H  44.51800 14.32900 32.99200
H  41.69100 17.10600 34.98400
H  43.31400 17.40900 35.80600
H  42.31200 16.15600 36.38300
Mg 0.20400 44.03100 25.67000
C  1.93300 43.74200 28.77500
C  -2.67100 43.28200 27.58000
C  -1.31400 43.58400 22.86600
C  3.28600 44.30800 24.08800
N  -0.29900 43.75000 27.97600
C  0.57100 43.69100 29.04300
C  -0.16100 43.56900 30.34400
C  -1.66200 43.27200 29.94100
C  -1.55700 43.49400 28.37700
C  -2.26600 41.92100 30.32800
C  0.01800 44.93500 31.19600
C  0.33000 44.62500 32.70000
H  -0.33900 43.46800 33.42800
N  -1.77800 43.72800 25.26800
C  -2.78600 43.37100 26.16000
C  -3.96500 43.21100 25.42400
C  -3.70000 43.46500 24.06500
C  -2.17000 43.54200 23.96500
C  -5.30100 42.90900 26.04000
C  -4.55600 43.51100 22.78000
O  -4.12200 43.74000 21.67400
C  -6.07300 43.55100 22.91400
N  0.94600 43.91100 23.82400
C  0.03600 43.89000 22.78600
C  0.76000 43.67100 21.42800
C  2.21300 44.13400 21.83600
C  2.17300 44.27900 23.34000
C  0.69800 42.19900 21.00700
C  2.73900 45.35800 21.09900
C  2.86500 46.72900 21.75000
N  2.27300 44.02400 26.24400
C  3.35200 44.21300 25.48300
C  4.51900 44.29900 26.38500
C  4.02200 43.95100 27.68500
C  2.61000 43.91300 27.53700
C  5.92900 44.66300 25.98600
C  4.36600 43.85200 29.10800
O  5.44800 43.83900 29.67100
C  3.01400 43.64800 29.80900
C  3.08300 42.53100 30.77100
O  2.71300 41.35000 30.62500
O  3.51200 43.01400 31.97000
C  3.63500 42.10900 33.12800
H  -3.54700 42.98000 28.15700
H  -1.67900 43.48700 21.84200
H  4.22200 44.38800 23.53000
H  0.24500 42.68300 30.83300
H  -2.27900 44.07700 30.34000
H  -2.16300 41.19600 29.52100
H  -3.29600 42.07000 30.65200
H  -1.75500 41.59400 31.23400
H  -0.87500 45.55700 31.25900
H  0.82000 45.60500 30.88800
H  0.11600 45.53400 33.26200
H  1.39500 44.46100 32.86100
H  -6.10200 43.63700 25.91400
H  -5.15400 42.59600 27.07400
H  -5.67100 42.01600 25.53700
H  -6.55600 42.58200 23.04100
H  -6.39300 43.91900 21.93900
H  -6.34700 44.27700 23.68000
H  0.36800 44.30500 20.63200
H  2.85700 43.29000 21.58700
H  0.42600 41.61600 21.88700
H  1.55200 41.87000 20.41500
H  -0.24800 42.04100 20.48800
H  2.09400 45.57000 20.24700
H  3.68700 45.04400 20.66200
H  2.34400 46.64000 22.70300
H  2.29300 47.42200 21.13300
H  3.91500 47.01100 21.82900
H  6.42400 44.51300 26.94500
H  6.10900 45.71500 25.76500
H  6.23600 44.00500 25.17200
H  3.03200 44.52000 30.46300
H  4.68400 41.81300 33.12200
H  2.91300 41.29900 33.22700
H  3.51200 42.71000 34.02900

