158

Mg 26.17000 0.53100 28.31200
C  28.13000 0.29000 31.31300
C  23.47600 1.30000 30.33100
C  24.50700 0.89400 25.60600
C  29.00300 -0.50300 26.54900
N  25.84300 0.64000 30.61000
C  26.83500 0.75500 31.56300
C  26.17900 0.90800 32.93300
C  24.72100 1.31200 32.64900
C  24.64400 1.00900 31.10500
C  23.69600 0.67700 33.63100
C  26.86300 2.00300 33.78400
C  27.33800 1.70000 35.21500
H  27.53200 2.84900 36.26200
N  24.21300 0.90900 27.99800
C  23.26200 1.17100 28.93700
C  22.02400 1.41300 28.20000
C  22.30200 1.38800 26.83700
C  23.70600 0.90700 26.75400
C  20.67700 1.63000 28.97300
C  21.37500 1.72300 25.71000
O  21.69700 1.68500 24.50700
C  19.95800 2.11500 26.03300
N  26.70800 0.21300 26.32800
C  25.82100 0.61400 25.39100
C  26.39500 0.28000 23.99600
C  27.85300 -0.20500 24.28100
C  27.93600 -0.11800 25.85300
C  25.55500 -0.68000 23.12500
C  28.80100 0.67000 23.54600
C  29.00100 2.08300 24.05700
N  28.18500 0.00500 28.76800
C  29.17100 -0.47500 27.92500
C  30.36600 -0.81800 28.74800
C  30.00100 -0.58200 30.07100
C  28.65300 0.02500 30.04500
C  31.61600 -1.47700 28.19300
C  30.44400 -0.70800 31.46900
O  31.45500 -1.17400 31.97200
C  29.26900 -0.09100 32.29700
C  28.77900 -1.07200 33.28900
O  27.91100 -1.92300 33.08100
O  29.46900 -0.96600 34.47700
C  29.00500 -1.71100 35.59300
H  22.62200 1.69300 30.88700
H  23.96800 1.15800 24.69400
H  29.91500 -0.94300 26.14000
H  26.25500 -0.05100 33.44600
H  24.53100 2.37500 32.79600
H  22.85500 0.22400 33.10600
H  23.38600 1.39100 34.39500
H  24.25900 -0.08400 34.17100
H  26.20700 2.87300 33.81000
H  27.76300 2.37100 33.29200
H  28.37000 1.35800 35.14100
H  26.95100 0.76300 35.61600
H  20.56300 1.15400 29.94700
H  19.91700 1.07100 28.42600
H  20.31400 2.65700 28.99800
H  19.41600 1.25700 26.43000
H  19.40100 2.34200 25.12400
H  20.12000 2.94900 26.71500
H  26.39100 1.22600 23.45600
H  28.08800 -1.23100 23.99700
H  25.73000 -0.35000 22.10100
H  24.48400 -0.57700 23.30200
H  25.89300 -1.70000 23.30900
H  28.33200 0.74000 22.56500
H  29.72300 0.08800 23.56100
H  29.18200 2.74000 23.20700
H  29.83600 2.11400 24.75700
H  28.12000 2.32900 24.65000
H  31.96500 -1.26400 27.18200
H  31.43800 -2.54900 28.28500
H  32.49400 -1.18200 28.76800
H  29.69000 0.76700 32.82200
H  27.93000 -1.67300 35.76800
H  29.59600 -1.53000 36.49100
H  29.13200 -2.72700 35.22100
Mg 54.02100 24.92500 45.31100
C  51.15600 26.67200 44.11600
C  52.94400 22.12300 43.70400
C  57.10500 23.57900 45.72200
C  55.18600 27.95400 46.65800
N  52.27800 24.55200 44.04900
C  51.25700 25.35600 43.63600
C  50.47400 24.69500 42.50500
C  50.77400 23.15200 42.85900
C  52.08800 23.28700 43.63500
C  49.66700 22.39500 43.73300
C  50.97700 25.17500 41.09400
C  49.83500 25.25500 40.02700
H  50.24400 25.68300 38.69000
N  54.82600 23.03000 44.96200
C  54.22000 22.00900 44.36900
C  55.02900 20.85600 44.42500
C  56.21200 21.19600 45.15200
C  56.09400 22.67700 45.31600
C  54.74700 19.41300 44.05000
C  57.31700 20.23500 45.78200
O  57.31400 19.02200 45.47500
C  58.50100 20.78900 46.54200
N  55.90100 25.72400 45.92800
C  56.97300 24.96800 45.98100
C  58.18700 25.77000 46.28400
C  57.58800 27.18600 46.71900
C  56.12300 26.95500 46.46200
C  59.29500 25.14800 47.18300
C  58.19000 28.34000 45.91400
C  58.20200 29.79900 46.56500
N  53.32800 26.82700 45.57700
C  53.86400 27.92700 46.21000
C  52.93900 29.00400 46.30400
C  51.90400 28.59900 45.42100
C  52.19100 27.21900 45.04300
C  52.99900 30.22700 47.17900
C  50.64700 29.01500 44.73300
O  50.01600 30.07400 44.80600
C  50.09000 27.76500 43.92700
C  49.78000 28.14800 42.56000
O  50.47500 28.80900 41.83800
O  48.49800 27.74000 42.32400
C  47.79900 28.46800 41.18400
H  52.69900 21.21900 43.14300
H  58.08300 23.10200 45.81700
H  55.48000 28.94200 47.01700
H  49.43800 24.97000 42.70600
H  50.78900 22.60900 41.91400
H  48.68900 22.87500 43.76400
H  50.00600 22.53300 44.76000
H  49.54100 21.37100 43.38300
H  51.73000 24.51100 40.66900
H  51.57700 26.08300 41.15900
H  49.21800 25.97300 40.56700
H  49.43100 24.25300 39.88700
H  55.44100 19.21900 43.23200
H  53.72400 19.16900 43.76300
H  54.95500 18.81500 44.93700
H  58.12100 21.54800 47.22700
H  59.15100 21.40100 45.91700
H  59.06600 20.09200 47.16100
H  58.54100 25.90900 45.26200
H  57.66200 27.40100 47.78500
H  58.87800 24.45300 47.91200
H  59.77100 25.83500 47.88200
H  60.08600 24.78700 46.52600
H  57.65100 28.48500 44.97800
H  59.16900 28.10300 45.49700
H  57.68500 29.77500 47.52400
H  57.81300 30.61400 45.95500
H  59.22500 30.03100 46.86000
H  52.04200 30.74900 47.13600
H  53.80800 30.78800 46.71200
H  53.13300 30.02200 48.24200
H  49.14900 27.51800 44.41700
H  48.39000 28.28100 40.28700
H  47.73300 29.54700 41.32900
H  46.81800 27.99400 41.14500

