158

Mg 49.35500 46.73100 42.35900
C  46.05000 47.15000 41.14800
C  49.39000 43.59800 40.92900
C  52.60100 46.66800 42.96800
C  49.06600 50.05000 43.61400
N  47.82500 45.41400 41.14300
C  46.56600 45.89800 40.71000
C  45.89600 44.85500 39.83200
C  46.94100 43.63200 39.85000
C  48.13600 44.19000 40.72900
C  46.41800 42.31100 40.37600
C  45.47200 45.41600 38.41800
C  44.10900 45.02500 37.92800
H  43.98100 44.83300 36.45400
N  50.75700 45.31000 42.14500
C  50.56900 44.10000 41.54100
C  51.72700 43.25800 41.74800
C  52.69200 44.08900 42.33900
C  52.04800 45.41900 42.52500
C  51.70000 41.77500 41.31000
C  54.12400 43.58600 42.75400
O  54.53700 42.46000 42.60600
C  55.02500 44.50800 43.59000
N  50.59500 48.16800 43.19700
C  51.90900 47.89700 43.27900
C  52.70100 49.17100 43.67400
C  51.52900 50.14300 44.15800
C  50.30700 49.42600 43.64500
C  53.77900 48.94300 44.76900
C  51.69900 51.56900 43.65600
C  51.79600 52.70200 44.64500
N  47.93800 48.24200 42.42600
C  47.89400 49.43400 43.03200
C  46.70400 50.17400 42.85900
C  45.88300 49.25500 42.16300
C  46.75400 48.14200 41.86800
C  46.33100 51.49900 43.32700
C  44.52500 49.07900 41.64000
O  43.49700 49.77500 41.60600
C  44.60200 47.64000 40.96400
C  43.58000 46.80200 41.64000
O  43.48300 46.72700 42.83400
O  42.64000 46.21000 40.77900
C  41.37900 45.84400 41.36000
H  49.46500 42.63400 40.42100
H  53.68800 46.59200 43.03900
H  49.02600 51.11200 43.86500
H  45.06600 44.54200 40.46500
H  47.29400 43.51600 38.82500
H  45.49200 42.49500 40.92100
H  47.11400 41.74000 40.99100
H  46.21500 41.64100 39.54100
H  46.14800 44.90300 37.73400
H  45.58100 46.49900 38.35300
H  43.41300 45.80900 38.22500
H  43.92000 44.16100 38.56600
H  51.60200 41.66800 40.23000
H  50.73400 41.29800 41.47600
H  52.44200 41.09300 41.72400
H  55.44000 45.26000 42.91900
H  55.88800 44.03200 44.05600
H  54.45400 45.03500 44.35400
H  53.17600 49.56700 42.77600
H  51.38400 50.12800 45.23900
H  53.65400 49.58100 45.64400
H  54.82800 49.00700 44.48000
H  53.63000 47.96000 45.21700
H  50.95200 51.74100 42.88100
H  52.59900 51.74600 43.06800
H  51.78800 52.26300 45.64200
H  51.03200 53.47300 44.53600
H  52.75200 53.21600 44.54400
H  45.25900 51.30500 43.36100
H  46.64700 52.14800 42.51100
H  46.86800 51.82600 44.21700
H  44.17900 47.69200 39.96000
H  40.76100 45.48200 40.53900
H  40.94600 46.65600 41.94400
H  41.50100 44.95300 41.97600
Mg -5.40300 25.09200 25.91100
C  -3.82800 26.21200 28.91200
C  -7.33100 22.99300 28.00800
C  -6.46100 23.33600 23.20700
C  -3.06200 26.78600 24.05400
N  -5.48800 24.66900 28.19700
C  -4.84800 25.32000 29.23500
C  -5.31000 24.85400 30.62300
C  -6.25700 23.65700 30.24300
C  -6.42400 23.79900 28.74600
C  -5.91200 22.25300 30.71800
C  -6.02700 25.96900 31.44800
C  -5.68900 26.16100 32.94800
H  -5.10800 25.00100 33.76800
N  -6.82300 23.48200 25.64700
C  -7.57600 22.84800 26.63900
C  -8.56000 22.01800 26.00300
C  -8.24200 21.99600 24.60700
C  -7.13100 22.95700 24.44100
C  -9.71500 21.38600 26.77600
C  -8.94200 21.12700 23.49800
O  -8.66200 21.25100 22.31300
C  -9.90100 20.00600 23.81800
N  -4.80800 24.97700 23.85800
C  -5.48300 24.26000 22.98800
C  -4.75200 24.51900 21.64800
C  -3.80200 25.69200 21.84100
C  -3.87300 25.85500 23.34500
C  -4.21400 23.17100 21.08100
C  -4.06300 27.02800 21.08600
C  -3.10400 27.34000 19.98600
N  -3.86100 26.34700 26.30100
C  -3.08000 26.96200 25.44200
C  -2.15700 27.85600 26.14000
C  -2.39900 27.54500 27.55500
C  -3.44700 26.63800 27.56500
C  -1.16400 28.85000 25.62000
C  -2.02300 27.90900 28.95100
O  -1.12000 28.70400 29.32200
C  -3.00800 27.16300 29.85300
C  -2.15000 26.34300 30.93700
O  -1.59600 25.29100 30.78000
O  -2.00200 27.11400 32.04300
C  -1.18500 26.53400 33.16400
H  -7.87400 22.22300 28.56100
H  -6.79100 22.74800 22.34800
H  -2.34500 27.38600 23.49000
H  -4.43000 24.43200 31.11000
H  -7.17800 23.82300 30.80100
H  -5.99900 21.65800 29.80900
H  -6.62500 21.90500 31.46600
H  -4.88300 22.30000 31.07400
H  -7.09700 25.80100 31.33000
H  -5.75400 26.84900 30.86600
H  -6.52900 26.57200 33.50700
H  -4.99000 26.99600 32.98300
H  -9.87900 21.85900 27.74400
H  -9.39000 20.39800 27.10500
H  -10.67100 21.41200 26.25300
H  -9.73300 19.35900 22.95700
H  -10.89500 20.36000 24.09200
H  -9.66100 19.51300 24.76000
H  -5.46100 24.89600 20.91100
H  -2.78100 25.33200 21.71100
H  -4.99700 22.42500 21.21700
H  -3.34100 22.76000 21.58700
H  -3.91600 23.36600 20.05100
H  -3.95600 27.86500 21.77600
H  -5.03900 26.96000 20.60600
H  -2.35200 28.06300 20.30200
H  -3.56100 27.77200 19.09600
H  -2.58200 26.41500 19.74200
H  -0.35900 28.79300 26.35200
H  -1.61200 29.83700 25.73600
H  -0.80400 28.70900 24.60100
H  -3.62400 27.87500 30.40300
H  -0.15300 26.88400 33.13900
H  -1.17700 25.44500 33.10200
H  -1.65300 26.72400 34.13000

