158

Mg 30.07700 60.27400 40.37400
C  26.90200 59.13800 39.46500
C  31.36800 57.29000 39.05900
C  33.03300 61.69300 40.50600
C  28.54600 63.59600 40.91700
N  29.16200 58.43300 39.23600
C  27.87600 58.16900 39.11700
C  27.71500 56.88800 38.32700
C  29.00600 56.16100 38.58100
C  29.96700 57.37200 38.92300
C  29.09600 54.95600 39.53100
C  27.20400 57.24800 36.81500
C  25.90400 56.56000 36.36700
H  26.09100 55.58200 35.18800
N  32.01700 59.48600 39.97100
C  32.33400 58.25500 39.48500
C  33.73000 58.19800 39.48300
C  34.27300 59.47400 39.84400
C  33.05000 60.31300 40.17400
C  34.57600 57.00900 39.05700
C  35.74500 59.75300 39.90000
O  36.61500 58.90400 39.57600
C  36.30900 61.01800 40.37400
N  30.71400 62.46700 40.64200
C  32.01300 62.65900 40.74200
C  32.28800 64.18600 41.00400
C  30.86700 64.80700 41.21100
C  29.98400 63.58400 40.95900
C  33.26500 64.46400 42.18000
C  30.47200 65.96400 40.23700
C  30.04900 67.30300 40.96400
N  28.22800 61.19100 40.33500
C  27.76000 62.47000 40.64000
C  26.27300 62.38000 40.70500
C  25.93100 61.11500 40.17200
C  27.11100 60.42700 40.07300
C  25.40000 63.54900 41.15800
C  24.81000 60.32200 39.76500
O  23.62700 60.51800 39.83500
C  25.45500 58.96300 39.26100
C  24.81300 57.76600 39.84600
O  24.97500 57.44200 41.01100
O  23.92500 57.20000 39.00500
C  23.43300 55.85700 39.40800
H  31.92300 56.36700 38.88200
H  34.01200 62.16900 40.59100
H  28.14900 64.59800 41.09400
H  26.95500 56.24000 38.76500
H  29.45300 55.82000 37.64700
H  28.27300 54.24600 39.60700
H  29.20900 55.35900 40.53700
H  30.00300 54.42100 39.25000
H  28.02700 56.90400 36.18800
H  27.06400 58.32900 36.83200
H  25.19400 57.32400 36.05100
H  25.50100 55.95200 37.17600
H  35.07800 57.17400 38.10300
H  33.89500 56.17500 38.89200
H  35.27900 56.64000 39.80400
H  37.38600 60.97800 40.53500
H  35.89400 61.13200 41.37500
H  36.10400 61.84300 39.69300
H  32.66400 64.61500 40.07600
H  30.71900 65.03000 42.26800
H  33.51900 63.51700 42.65600
H  32.72800 65.00200 42.96100
H  34.14500 65.03000 41.87700
H  29.68100 65.59900 39.58100
H  31.25700 66.26600 39.54500
H  30.52900 67.33200 41.94200
H  28.96600 67.19100 41.02300
H  30.36800 68.23200 40.49100
H  24.78300 63.98600 40.37300
H  26.07600 64.30800 41.55100
H  24.64500 63.24300 41.88200
H  25.27200 59.02400 38.18800
H  22.40600 55.86100 39.77400
H  24.11400 55.36000 40.09900
H  23.38600 55.30300 38.47000
Mg -8.91000 40.17100 43.60900
C  -7.88200 36.90100 42.44400
C  -6.34000 41.37700 41.67700
C  -10.07500 43.18800 44.28200
C  -11.89500 38.73600 44.81700
N  -7.33600 39.21600 42.23600
C  -7.10300 37.89100 41.94800
C  -5.76600 37.76000 41.18600
C  -5.36700 39.22100 40.93300
C  -6.41200 40.00700 41.66400
C  -3.87900 39.63200 41.24800
C  -5.87200 36.88100 39.87000
C  -4.96500 37.22500 38.63100
H  -4.52100 36.18300 37.65400
N  -8.21100 42.08900 43.16000
C  -7.19800 42.37800 42.33800
C  -7.07700 43.82900 42.13100
C  -7.95100 44.36100 43.10800
C  -8.75000 43.19900 43.71100
C  -6.02100 44.49100 41.19100
C  -8.13800 45.84600 43.32800
O  -7.62600 46.69900 42.60000
C  -8.82300 46.32300 44.58000
N  -10.81400 40.90400 44.33200
C  -10.99400 42.19600 44.66100
C  -12.28100 42.43900 45.23300
C  -12.89700 41.03400 45.29400
C  -11.79100 40.11300 44.83100
C  -12.28900 43.15300 46.65900
C  -14.38400 40.85100 44.76500
C  -14.48300 40.16600 43.42600
N  -9.83600 38.28600 43.63100
C  -11.00800 37.86100 44.14300
C  -11.04600 36.46300 44.04800
C  -9.84900 36.01000 43.36800
C  -9.14700 37.21700 43.11100
C  -12.21900 35.62600 44.54700
C  -9.10600 34.89400 42.91400
O  -9.38700 33.67900 42.88600
C  -7.77500 35.39300 42.27600
C  -6.56300 34.83400 42.98700
O  -6.31900 34.98900 44.18600
O  -5.71700 34.12400 42.10500
C  -4.50900 33.63300 42.68900
H  -5.56400 41.90300 41.11700
H  -10.39500 44.16800 44.64200
H  -12.84300 38.46900 45.28800
H  -5.09400 37.20700 41.84200
H  -5.46600 39.45200 39.87200
H  -3.44700 40.18700 40.41500
H  -3.25200 38.74900 41.36900
H  -3.80800 40.31200 42.09700
H  -6.84100 37.17300 39.46500
H  -6.02200 35.82700 40.10400
H  -4.03100 37.61900 39.03200
H  -5.51600 38.00200 38.10100
H  -6.36500 45.50100 40.97100
H  -5.88100 43.87500 40.30200
H  -5.12000 44.54000 41.80200
H  -8.39100 47.28700 44.84600
H  -8.79600 45.64000 45.42900
H  -9.88100 46.44200 44.34500
H  -12.83200 43.05600 44.52300
H  -12.82800 40.84000 46.36500
H  -11.38100 42.88100 47.19700
H  -13.10000 42.79600 47.29500
H  -12.37100 44.22900 46.50600
H  -14.93300 41.78400 44.88800
H  -14.89400 40.08100 45.34400
H  -13.56800 40.12600 42.83500
H  -15.20200 40.78900 42.89300
H  -14.87700 39.14900 43.41500
H  -12.26400 34.74000 43.91400
H  -13.14600 36.18800 44.65700
H  -11.92800 35.38200 45.56800
H  -7.70900 35.21300 41.20300
H  -4.47900 33.18000 43.68000
H  -3.71700 34.38200 42.68200
H  -4.19500 32.91000 41.93700

