158

Mg 47.38600 34.19000 26.48500
C  45.90200 32.69600 29.32800
C  47.99600 36.98900 28.33400
C  48.37500 35.73300 23.63100
C  46.61200 31.24100 24.72400
N  46.84800 34.79200 28.56700
C  46.40000 33.97100 29.51700
C  46.47600 34.67600 30.89800
C  46.72900 36.13200 30.48400
C  47.23900 36.01300 29.06200
C  45.50800 37.15900 30.54800
C  47.68700 34.16500 31.73000
C  47.48300 34.20300 33.29400
H  46.75400 35.40000 33.91600
N  48.30600 35.99900 26.07000
C  48.42700 37.01700 26.97200
C  49.28300 38.06600 26.37800
C  49.34900 37.75400 24.95000
C  48.55600 36.53400 24.82400
C  49.76500 39.28300 27.14900
C  50.04900 38.60900 23.89900
O  50.17200 38.07000 22.81500
C  50.79200 39.92600 24.14500
N  47.26900 33.63300 24.40000
C  47.89500 34.40700 23.46600
C  48.10900 33.56800 22.20900
C  47.86900 32.14500 22.67400
C  47.19900 32.30900 24.01000
C  47.41300 34.21100 20.99900
C  49.04000 31.18500 22.54200
C  49.95100 30.94000 23.72400
N  46.41700 32.32900 26.87100
C  46.23300 31.25900 26.08700
C  45.62500 30.24000 26.83100
C  45.40900 30.78200 28.08300
C  45.95800 32.07900 28.12400
C  45.25500 28.92500 26.28800
C  44.79900 30.44600 29.37100
O  44.38300 29.34600 29.78400
C  45.08100 31.67300 30.22100
C  45.47100 31.32200 31.60200
O  46.58700 31.12700 32.06000
O  44.30600 31.25800 32.42400
C  44.36300 30.83900 33.84800
H  48.27400 37.80300 29.00600
H  48.82500 36.18700 22.74600
H  46.61000 30.31400 24.14700
H  45.51700 34.50200 31.38500
H  47.45600 36.62600 31.12800
H  44.61400 36.59600 30.81600
H  45.26700 37.58000 29.57200
H  45.58700 38.05900 31.15700
H  48.60500 34.73300 31.57600
H  48.00500 33.16200 31.44700
H  48.46000 34.12400 33.77100
H  46.97300 33.32000 33.67800
H  50.80400 39.51900 26.91400
H  49.98000 39.15400 28.21000
H  49.05000 40.07000 26.90900
H  50.19800 40.71500 24.60600
H  51.17500 40.31900 23.20300
H  51.70700 39.70300 24.69300
H  49.17600 33.78300 22.16600
H  47.06000 31.73400 22.07000
H  46.74200 35.02900 21.26000
H  46.88400 33.42300 20.46200
H  48.15200 34.56500 20.28100
H  49.67800 31.67200 21.80400
H  48.66900 30.24900 22.12400
H  49.72100 31.34600 24.70900
H  50.99000 31.17600 23.49300
H  49.91900 29.85300 23.80500
H  44.67500 28.29900 26.96600
H  46.12300 28.30500 26.06200
H  44.68600 29.03900 25.36500
H  44.09300 32.11600 30.34200
H  44.57700 31.53900 34.65600
H  44.98300 29.94800 33.95100
H  43.37900 30.48300 34.15100
Mg -0.99100 43.89600 26.85900
C  1.71100 43.73100 29.16400
C  -2.98900 43.04200 29.37500
C  -3.26500 43.45500 24.47100
C  1.46100 44.20500 24.39000
N  -0.65300 43.23800 29.02200
C  0.45600 43.53200 29.76700
C  0.14400 43.41200 31.28300
C  -1.33900 42.86400 31.28000
C  -1.69700 43.12400 29.81000
C  -1.57500 41.35600 31.65700
C  0.36600 44.80600 31.88000
C  0.69000 44.78100 33.44900
H  0.45100 43.52800 34.26400
N  -2.92000 43.32300 26.95800
C  -3.56500 42.92900 28.06300
C  -4.92600 42.52000 27.69600
C  -4.95300 42.54200 26.23700
C  -3.65200 43.07700 25.78300
C  -5.99900 42.16100 28.75500
C  -6.10300 42.14000 25.28800
O  -5.89300 42.24400 24.10800
C  -7.53300 41.56000 25.74600
N  -0.84400 43.98700 24.75600
C  -1.97800 43.78600 24.01600
C  -1.66900 43.82900 22.50000
C  -0.20000 44.33500 22.47500
C  0.16000 44.22300 23.97700
C  -1.81100 42.44900 21.86600
C  0.16800 45.74700 22.01200
C  1.57900 45.98000 21.34100
N  1.16800 43.97900 26.78300
C  1.98900 44.11400 25.64300
C  3.35300 44.36200 26.12400
C  3.28500 44.13800 27.49700
C  1.91200 43.98700 27.85000
C  4.46700 44.64500 25.32900
C  4.06100 44.04000 28.71300
O  5.28300 43.90400 28.92600
C  3.00600 43.97600 29.87000
C  3.45800 42.73000 30.57900
O  3.40000 41.65100 30.05100
O  4.05500 42.88700 31.80500
C  4.36300 41.77700 32.73700
H  -3.64800 42.81100 30.21400
H  -3.99400 43.26400 23.68000
H  2.21600 44.30800 23.60800
H  0.79000 42.66100 31.73600
H  -1.87900 43.55600 31.92600
H  -2.60800 41.30600 31.99900
H  -0.97100 41.02300 32.50100
H  -1.49000 40.70600 30.78600
H  -0.57500 45.34800 31.78900
H  1.09500 45.40600 31.33500
H  0.23800 45.62900 33.96500
H  1.76800 44.93500 33.40400
H  -5.52300 41.97300 29.71700
H  -6.44100 41.20500 28.47600
H  -6.71500 42.95600 28.96500
H  -7.45000 40.47800 25.65200
H  -8.32500 41.95700 25.11100
H  -7.96800 41.86700 26.69700
H  -2.30100 44.56600 22.00300
H  0.40900 43.64900 21.88700
H  -0.86200 42.05000 21.50800
H  -2.52500 42.53600 21.04700
H  -2.13000 41.71300 22.60400
H  0.13300 46.52400 22.77500
H  -0.58100 46.00400 21.26300
H  2.15100 45.05600 21.42100
H  2.17600 46.69000 21.91300
H  1.59600 46.30900 20.30200
H  4.21400 45.25300 24.46100
H  4.84200 43.73700 24.85700
H  5.25800 45.06900 25.94700
H  3.21200 44.91900 30.37600
H  4.61100 40.92500 32.10400
H  3.46000 41.69300 33.34100
H  5.28700 42.00200 33.27000

