158

Mg 26.02600 0.55700 29.36100
C  28.08000 0.12900 32.15500
C  23.41200 1.12800 31.32600
C  24.28900 0.82200 26.56800
C  28.83000 -0.47700 27.39100
N  25.77600 0.52000 31.50900
C  26.71600 0.43800 32.47200
C  26.16600 0.79000 33.83600
C  24.65100 0.95600 33.55200
C  24.62800 0.88300 32.00400
C  23.59500 -0.02000 34.20900
C  26.79700 2.05500 34.55600
C  27.35400 1.73400 36.03000
H  27.18200 2.84400 37.07200
N  24.04900 1.01600 28.98900
C  23.13900 1.21100 30.01400
C  21.86900 1.57800 29.25700
C  22.10900 1.39600 27.84600
C  23.54800 1.01500 27.70700
C  20.60800 1.96800 29.97500
C  21.13900 1.57200 26.76600
O  21.48400 1.46400 25.58700
C  19.71300 1.76600 27.04000
N  26.43000 0.09300 27.23800
C  25.57100 0.44200 26.28200
C  26.19700 0.41800 24.87300
C  27.68200 0.20900 25.18300
C  27.64200 -0.16600 26.67600
C  25.70100 -0.76700 23.97200
C  28.43600 1.58800 24.94800
C  29.92500 1.31600 24.37100
N  28.07200 -0.04900 29.63600
C  29.02100 -0.45300 28.78600
C  30.25800 -0.65300 29.47600
C  29.96000 -0.45000 30.80200
C  28.63200 -0.07800 30.87100
C  31.66700 -0.95900 28.81800
C  30.50500 -0.41900 32.13900
O  31.61200 -0.80400 32.55000
C  29.29900 0.05100 33.07700
C  29.11000 -0.96000 34.18100
O  28.59700 -2.06200 33.99800
O  29.73900 -0.59300 35.34700
C  29.56200 -1.50900 36.46100
H  22.52800 1.30900 31.94100
H  23.72900 1.10900 25.67600
H  29.74300 -0.64700 26.81600
H  26.21200 -0.15500 34.37700
H  24.32100 1.98100 33.72300
H  24.11600 -0.29400 35.12700
H  23.52500 -0.84200 33.49700
H  22.60300 0.29400 34.53300
H  26.09700 2.89000 34.56600
H  27.72000 2.27500 34.01900
H  28.42200 1.57600 35.88000
H  26.82000 0.81900 36.28600
H  19.98000 2.74800 29.54500
H  20.93300 2.49900 30.87000
H  19.87500 1.17200 30.10800
H  19.10800 1.68600 26.13800
H  19.59200 2.80500 27.34900
H  19.29600 1.15800 27.84300
H  25.97500 1.33600 24.32800
H  28.09200 -0.59400 24.57100
H  25.70300 -0.48800 22.91800
H  24.68600 -1.00900 24.28900
H  26.24700 -1.69500 24.14100
H  28.51400 2.00400 25.95200
H  27.88500 2.32000 24.35700
H  30.05100 1.57500 23.32000
H  30.27300 0.30200 24.57000
H  30.54900 2.07300 24.84700
H  32.36500 -0.99300 29.65400
H  31.80100 -0.10500 28.15400
H  31.68400 -1.79100 28.11400
H  29.50800 1.02100 33.52900
H  30.19500 -1.10100 37.24900
H  29.87600 -2.53900 36.28900
H  28.54500 -1.58300 36.84700
Mg 47.46500 24.85300 27.74900
C  48.09300 27.26400 30.16300
C  46.65400 22.76900 30.36400
C  46.47400 22.59100 25.55600
C  48.67900 26.98100 25.24700
N  47.22300 25.07600 29.99800
C  47.51500 26.17500 30.74600
C  47.26500 25.96500 32.26700
C  47.05100 24.41500 32.32900
C  47.07900 24.04800 30.81700
C  48.07200 23.56400 33.19100
C  46.18100 26.91000 33.02300
C  45.48200 26.40000 34.31000
H  45.55400 27.37900 35.45300
N  46.81300 22.91600 27.95700
C  46.54100 22.14000 29.09400
C  46.10100 20.76800 28.80400
C  45.89900 20.84000 27.38000
C  46.44300 22.11400 26.90000
C  45.79000 19.67900 29.82600
C  45.24800 19.70100 26.49800
O  45.15700 19.82000 25.26200
C  44.60600 18.54000 27.16800
N  47.67900 24.73800 25.67900
C  47.02000 23.79500 24.99600
C  47.33700 24.02600 23.51800
C  47.83400 25.46800 23.46600
C  48.07700 25.76400 24.86400
C  48.19400 22.96900 22.74500
C  46.91900 26.50900 22.63500
C  47.64900 27.30500 21.58100
N  48.38000 26.64300 27.71300
C  48.81600 27.42500 26.59600
C  49.35900 28.70800 27.05900
C  49.04900 28.68600 28.48400
C  48.45800 27.44800 28.77400
C  50.23400 29.77400 26.24400
C  49.26200 29.43900 29.73000
O  49.90900 30.40200 29.98500
C  48.52900 28.53300 30.91300
C  49.51600 28.22500 32.01900
O  50.56100 27.67400 31.93000
O  49.07800 28.89600 33.08700
C  49.72600 28.60200 34.37000
H  46.49300 22.15500 31.25300
H  46.15800 21.99700 24.69600
H  48.99500 27.74200 24.53100
H  48.18200 26.16200 32.82300
H  46.05000 24.29900 32.74600
H  47.56700 22.96400 33.94900
H  48.82100 24.23400 33.61200
H  48.56200 22.88500 32.49300
H  45.39600 27.15000 32.30600
H  46.64600 27.85200 33.31300
H  46.00200 25.49300 34.61700
H  44.46500 26.13400 34.02000
H  46.35600 18.75300 29.72100
H  44.71100 19.52100 29.83800
H  45.86500 20.12500 30.81700
H  43.80400 18.84700 27.83900
H  45.40700 18.09400 27.75700
H  44.27500 17.83300 26.40700
H  46.29500 24.02000 23.19700
H  48.85000 25.48000 23.07000
H  48.70600 22.26500 23.40000
H  48.89500 23.43300 22.05100
H  47.63200 22.38200 22.01900
H  46.45500 27.28100 23.24900
H  46.12900 25.88100 22.22300
H  47.72900 26.80600 20.61500
H  48.66200 27.40400 21.96900
H  47.09800 28.24500 21.56100
H  49.83300 29.97200 25.25000
H  51.23100 29.35500 26.10500
H  50.24500 30.62600 26.92400
H  47.75100 29.21100 31.26400
H  49.37500 27.64100 34.74500
H  49.56200 29.42400 35.06700
H  50.79900 28.45100 34.25500

