158

Mg 41.09600 9.00900 29.35900
C  42.88500 10.09600 32.20600
C  38.78100 7.57900 31.36900
C  39.54800 7.94800 26.56000
C  43.72100 10.21100 27.39100
N  40.88400 8.84400 31.63100
C  41.68600 9.41400 32.59900
C  41.12600 9.19300 34.02200
C  39.91800 8.25700 33.69500
C  39.86700 8.15000 32.15800
C  40.15000 6.88200 34.34600
C  40.70600 10.54400 34.73700
C  40.33700 10.37700 36.19500
H  41.02700 11.26300 37.25100
N  39.38300 7.89500 28.99200
C  38.52000 7.46200 29.98400
C  37.41600 6.82100 29.31900
C  37.58300 6.90400 27.85200
C  38.88300 7.65400 27.72200
C  36.32400 6.15100 30.09300
C  36.72700 6.44900 26.69600
O  36.93800 6.59000 25.52600
C  35.49300 5.84000 27.01800
N  41.67200 8.96100 27.35300
C  40.82400 8.53000 26.36800
C  41.38400 8.70700 24.90000
C  42.62800 9.64700 25.19600
C  42.70000 9.55200 26.76200
C  41.58100 7.44400 24.04900
C  42.55600 11.06100 24.60000
C  41.61400 11.98400 25.40400
N  42.96600 9.85400 29.74200
C  43.89300 10.41200 28.79200
C  44.85600 11.14000 29.45200
C  44.54900 11.00100 30.83700
C  43.38900 10.23700 30.88900
C  46.10900 11.83000 28.90200
C  45.05700 11.32100 32.12700
O  46.07400 11.91300 32.48900
C  43.89000 10.86400 33.12700
C  44.45300 9.94900 34.18100
O  45.33100 9.17700 34.04500
O  43.76700 10.16300 35.39200
C  44.03200 9.10800 36.42300
H  38.07600 7.19200 32.10800
H  39.05200 7.73500 25.61100
H  44.42300 10.75900 26.75900
H  41.77100 8.54600 34.61700
H  38.96400 8.63400 34.06300
H  40.33100 6.19200 33.52200
H  39.29600 6.55300 34.93800
H  40.95000 6.76700 35.07900
H  39.78000 10.81800 34.23100
H  41.43800 11.34000 34.60500
H  40.56600 9.33500 36.41700
H  39.27500 10.61900 36.23800
H  36.47000 5.09300 29.87700
H  35.32100 6.44800 29.78700
H  36.37100 6.38300 31.15700
H  34.87100 6.59600 27.49800
H  35.70600 4.99100 27.66600
H  35.01200 5.52800 26.09100
H  40.53400 9.22400 24.45400
H  43.59000 9.17800 24.98900
H  42.60500 7.46000 23.67600
H  40.93400 7.46900 23.17200
H  41.27500 6.54600 24.58600
H  42.10200 10.85900 23.63000
H  43.55500 11.44600 24.39500
H  41.63200 11.81600 26.48100
H  40.58100 11.85300 25.08200
H  41.78200 13.01600 25.09300
H  45.87400 12.22900 27.91500
H  46.96800 11.17400 29.04200
H  46.25900 12.66500 29.58500
H  43.28700 11.70800 33.46000
H  45.09800 9.20200 36.62800
H  43.88500 8.06700 36.13700
H  43.54800 9.40800 37.35300
Mg 49.39300 45.09200 43.81700
C  46.42300 46.05100 42.13200
C  49.09300 41.98400 42.36000
C  52.76600 44.74900 44.13800
C  49.73300 48.54600 44.66800
N  48.04200 44.24700 42.26900
C  46.85400 44.74100 41.87700
C  46.07200 43.76700 40.99000
C  46.86900 42.46100 41.08800
C  48.03900 42.84600 42.03300
C  46.08200 41.20900 41.58800
C  45.73900 44.28600 39.48600
C  44.26500 44.32500 39.07500
H  43.67000 43.43200 37.97600
N  50.72500 43.49400 43.43600
C  50.43100 42.30100 42.83500
C  51.62200 41.49800 42.76600
C  52.69100 42.28600 43.29000
C  52.09300 43.59200 43.64000
C  51.67200 40.09900 42.15100
C  54.11000 41.80200 43.64400
O  54.45700 40.70200 43.29900
C  55.11200 42.54400 44.42000
N  51.00400 46.48900 44.34000
C  52.22700 46.01300 44.59200
C  53.18600 47.07700 45.18500
C  52.13400 48.12200 45.55700
C  50.89100 47.72700 44.79000
C  54.16200 46.54000 46.34800
C  52.53900 49.69400 45.48800
C  52.71300 50.34000 46.86900
N  48.30900 46.92600 43.64200
C  48.54600 48.14800 44.11900
C  47.43900 49.02300 43.74600
C  46.55200 48.23700 43.08500
C  47.19200 46.98100 42.94000
C  47.32500 50.54300 43.94400
C  45.30000 48.20600 42.44300
O  44.48100 49.12000 42.40100
C  45.15100 46.80400 41.72400
C  43.98700 46.07200 42.16100
O  43.83200 45.38300 43.14000
O  43.03900 46.37000 41.21700
C  41.65800 45.84800 41.36500
H  49.00800 41.01800 41.85700
H  53.85100 44.69200 44.24400
H  49.87300 49.56100 45.04400
H  45.07900 43.55900 41.39100
H  47.14300 42.27100 40.05000
H  46.29700 41.01100 42.63800
H  46.49100 40.37900 41.01200
H  45.00900 41.27300 41.40800
H  46.19900 43.66100 38.72100
H  46.32700 45.19200 39.33900
H  44.19600 45.37600 38.79400
H  43.60700 44.25900 39.94100
H  50.64900 39.73600 42.04500
H  52.19900 39.27400 42.63100
H  52.05700 40.18000 41.13500
H  54.78200 42.98600 45.36000
H  55.71200 43.09600 43.69700
H  55.76600 41.75300 44.78900
H  53.76700 47.55400 44.39600
H  51.64500 48.02200 46.52600
H  53.95300 46.95900 47.33300
H  55.18100 46.73000 46.01100
H  54.09400 45.49200 46.64000
H  51.79300 50.28900 44.96200
H  53.45900 49.94300 44.96000
H  53.75300 50.66600 46.84300
H  52.53100 49.60500 47.65300
H  52.15600 51.26300 47.03400
H  47.89100 50.96400 43.11300
H  47.73000 50.83200 44.91400
H  46.28700 50.83600 43.79100
H  45.09700 46.86500 40.63800
H  41.67200 44.78100 41.58700
H  41.02600 45.92700 40.48000
H  41.06600 46.33100 42.14200

