158

Mg 16.98000 -2.44000 28.39500
C  16.10100 -0.25900 31.13300
C  18.98600 -4.24100 30.73300
C  18.30600 -4.23400 25.90400
C  15.35900 -0.41000 26.25000
N  17.48700 -2.22300 30.60600
C  16.90100 -1.33700 31.50800
C  17.27400 -1.63600 32.96300
C  18.26100 -2.94100 32.77500
C  18.31100 -3.13300 31.25700
C  19.63400 -2.82800 33.39300
C  16.03900 -1.73400 34.04400
C  16.20300 -0.89800 35.26400
H  17.55500 -0.70100 35.85000
N  18.40500 -4.01600 28.35300
C  19.05600 -4.61800 29.39500
C  19.75500 -5.84900 28.89800
C  19.64200 -5.81300 27.46600
C  18.67400 -4.74900 27.19100
C  20.56900 -6.76700 29.87700
C  20.23900 -6.74100 26.47600
O  19.96700 -6.68800 25.30400
C  21.19100 -7.81400 26.98000
N  16.82000 -2.38100 26.40400
C  17.51000 -3.16700 25.55200
C  17.35300 -2.64300 24.08700
C  16.29700 -1.54300 24.21300
C  16.04000 -1.41800 25.68700
C  18.75000 -2.11100 23.51200
C  15.07000 -1.72700 23.37500
C  14.50000 -0.38800 22.84300
N  15.95200 -0.61200 28.53000
C  15.27100 0.04000 27.58900
C  14.66600 1.16300 28.18100
C  15.02400 1.10900 29.58400
C  15.77800 -0.01600 29.76600
C  13.97000 2.30100 27.53400
C  14.83000 1.80100 30.84800
O  14.35900 2.88300 31.01600
C  15.50100 0.91000 31.90500
C  16.51800 1.71000 32.64900
O  17.72700 1.76800 32.33500
O  16.02800 2.35200 33.81700
C  17.02700 3.10000 34.60800
H  19.54000 -4.83200 31.46500
H  18.70800 -4.72300 25.01400
H  14.68500 0.24800 25.69800
H  17.95100 -0.83100 33.24800
H  17.79600 -3.76400 33.31900
H  19.63900 -3.50000 34.25100
H  19.82500 -1.80500 33.71900
H  20.37700 -3.18200 32.67900
H  16.10500 -2.76100 34.40200
H  15.14500 -1.53400 33.45300
H  15.63000 -1.39400 36.04800
H  15.70600 0.06500 35.14700
H  21.62600 -6.64100 29.63900
H  20.26300 -7.71900 29.44400
H  20.22200 -6.79000 30.91000
H  21.78300 -7.35200 27.76900
H  21.77900 -8.07200 26.09900
H  20.57700 -8.68100 27.22500
H  16.93400 -3.47000 23.51200
H  16.70800 -0.56200 23.97500
H  18.83200 -1.02500 23.57100
H  18.83500 -2.44600 22.47900
H  19.59100 -2.53900 24.05700
H  14.19900 -2.25600 23.76200
H  15.32300 -2.13700 22.39700
H  14.96500 -0.09300 21.90200
H  14.58200 0.45000 23.53600
H  13.41900 -0.51900 22.88700
H  12.93200 2.11000 27.26300
H  14.59200 2.64000 26.70600
H  14.11000 3.12000 28.24000
H  14.75100 0.65100 32.65200
H  16.92700 4.17900 34.48900
H  18.06600 2.89000 34.35500
H  16.98600 2.96800 35.68900
Mg 30.62600 59.23600 39.52300
C  27.75400 57.52300 38.56400
C  32.54900 56.65200 38.37200
C  33.31500 61.16300 39.88600
C  28.52300 62.02100 40.15300
N  30.20800 57.41600 38.42100
C  28.92900 56.90900 38.04100
C  29.12400 55.64500 37.16200
C  30.66300 55.23800 37.35700
C  31.20000 56.44300 38.18200
C  30.88700 53.75200 38.04800
C  28.60700 55.73000 35.64200
C  27.70700 54.55000 35.23000
H  26.44400 54.93300 34.40800
N  32.69600 58.86800 39.20900
C  33.29000 57.75600 38.77800
C  34.72400 57.94700 38.71300
C  35.02100 59.21800 39.15100
C  33.67600 59.82400 39.44400
C  35.64900 56.83100 38.25200
C  36.40200 59.80700 39.37400
O  37.38900 59.08600 39.02400
C  36.69900 61.17800 39.94100
N  30.79600 61.24900 39.98900
C  32.09000 61.81700 40.13400
C  32.05000 63.31700 40.54100
C  30.54700 63.64400 40.37500
C  29.85900 62.24500 40.18300
C  32.66500 63.60100 41.95800
C  30.21600 64.55300 39.16900
C  29.68300 65.95000 39.53000
N  28.54400 59.70500 39.53600
C  27.78300 60.83900 39.88500
C  26.35700 60.50800 39.71700
C  26.34700 59.22300 39.25500
C  27.64000 58.77200 39.13300
C  25.12700 61.42400 39.91200
C  25.42700 58.22600 38.85500
O  24.21500 58.21200 38.74600
C  26.33000 57.05000 38.35600
C  25.96700 55.79800 39.00800
O  26.26000 55.36000 40.10600
O  25.10400 55.09000 38.19200
C  24.70600 53.76100 38.67600
H  33.17300 55.85600 37.96100
H  34.14800 61.86400 39.98100
H  27.87500 62.88700 40.30900
H  28.63200 54.77100 37.58800
H  31.20400 55.15800 36.41400
H  31.00200 53.02200 37.24600
H  30.02400 53.56600 38.68700
H  31.81200 53.83000 38.61900
H  29.43500 55.80500 34.93800
H  28.05200 56.64200 35.42200
H  27.37200 54.21400 36.21100
H  28.21600 53.77000 34.66300
H  36.64000 57.14300 37.92200
H  35.18500 56.29800 37.42300
H  35.86200 56.09900 39.03200
H  37.78800 61.20200 39.92100
H  36.42900 61.27900 40.99300
H  36.26400 61.94400 39.30000
H  32.64200 63.96700 39.89600
H  30.03100 64.06800 41.23700
H  33.06000 62.66900 42.36400
H  31.93400 64.03500 42.64000
H  33.43100 64.35700 41.78500
H  29.46300 64.08200 38.53700
H  31.09600 64.64600 38.53400
H  30.22000 66.74400 39.01100
H  29.87400 66.08000 40.59500
H  28.60400 65.97900 39.37900
H  24.16500 60.97900 39.65700
H  25.29700 62.34600 39.35600
H  25.05700 61.72000 40.95900
H  26.23900 56.88000 37.28300
H  24.27600 53.02500 37.99600
H  23.89600 54.10800 39.31800
H  25.39700 53.17200 39.27900

