158

Mg -1.55500 17.28900 26.35100
C  -2.59900 15.25100 29.02700
C  -2.78400 20.04600 28.02000
C  -1.09700 19.01200 23.50000
C  -1.20500 14.30300 24.32800
N  -2.50600 17.61300 28.33800
C  -2.85800 16.61600 29.21800
C  -3.32500 17.31400 30.48500
C  -3.88700 18.64900 29.85900
C  -2.96800 18.85800 28.69000
C  -5.38000 18.65300 29.48100
C  -2.13300 17.53000 31.39300
C  -2.36600 17.09600 32.88700
H  -1.21400 16.67000 33.74100
N  -1.71700 19.25300 25.88300
C  -2.15100 20.23900 26.75300
C  -1.95100 21.48000 26.04700
C  -1.45100 21.20200 24.74100
C  -1.39500 19.79800 24.66600
C  -2.42700 22.81500 26.68800
C  -1.12900 22.12600 23.59300
O  -0.78800 21.75100 22.47500
C  -1.19400 23.53000 23.82500
N  -1.42100 16.66400 24.20000
C  -1.09400 17.65100 23.34500
C  -0.98500 17.07200 21.87400
C  -0.61800 15.54500 22.24100
C  -1.16600 15.46900 23.67900
C  -2.18000 17.32800 21.00400
C  0.89600 15.08100 22.20600
C  1.90700 15.86200 23.01300
N  -1.76700 15.25300 26.57900
C  -1.53500 14.14400 25.75800
C  -1.90800 12.97300 26.47000
C  -2.19500 13.32200 27.78300
C  -2.12900 14.71800 27.76000
C  -1.76300 11.59500 25.87200
C  -2.47400 12.78900 29.10900
O  -2.52400 11.63100 29.46400
C  -2.89800 14.01300 29.93800
C  -2.18000 13.94300 31.23800
O  -1.03300 14.18800 31.39700
O  -3.06700 13.55500 32.20400
C  -2.46800 12.99400 33.42600
H  -3.21100 20.94800 28.46200
H  -1.15700 19.48200 22.51700
H  -1.17300 13.47500 23.61700
H  -4.08200 16.65300 30.90800
H  -3.71800 19.48700 30.53600
H  -5.78200 17.64700 29.35600
H  -5.40700 19.17100 28.52300
H  -5.98100 19.03800 30.30600
H  -1.75200 18.55000 31.33500
H  -1.18500 17.12600 31.03800
H  -3.02800 16.23500 32.79600
H  -2.92400 17.90300 33.36100
H  -2.87800 22.80700 27.68000
H  -3.19300 23.20100 26.01600
H  -1.47800 23.34900 26.74400
H  -2.21600 23.76300 24.12500
H  -0.84000 24.09800 22.96500
H  -0.60200 23.73600 24.71700
H  -0.09300 17.50000 21.41700
H  -1.25200 14.89500 21.63700
H  -2.79800 18.05700 21.52900
H  -2.75700 16.40300 21.01400
H  -1.84200 17.58400 20.00000
H  1.03100 15.30300 21.14800
H  0.86000 14.00100 22.35400
H  1.45200 16.64900 23.61300
H  2.64000 16.28600 22.32700
H  2.36300 15.04900 23.57900
H  -2.12900 11.63800 24.84600
H  -2.19700 10.78400 26.45700
H  -0.71000 11.42900 25.64600
H  -3.95700 13.83900 30.13000
H  -1.72800 13.73200 33.73500
H  -1.90000 12.07600 33.27900
H  -3.16000 12.84700 34.25600
Mg 35.73800 0.99800 29.93400
C  33.34600 1.92500 32.28500
C  38.12800 0.95400 32.40400
C  38.03800 0.34500 27.50400
C  33.32000 1.57800 27.36000
N  35.74300 1.51300 32.06900
C  34.62800 1.72300 32.77800
C  35.05300 1.78500 34.31700
C  36.60600 1.83600 34.27400
C  36.86000 1.43400 32.80000
C  37.23600 3.23000 34.67100
C  34.33300 0.59000 35.13700
C  34.43700 0.63000 36.66900
H  34.66900 2.03500 37.27800
N  37.73700 0.45900 29.98500
C  38.54400 0.48500 31.14500
C  39.81600 -0.03100 30.75800
C  39.89200 -0.09700 29.31600
C  38.47200 0.24200 28.80700
C  40.82900 -0.44700 31.84900
C  41.07700 -0.42600 28.45800
O  40.95800 -0.54000 27.26400
C  42.45000 -0.68900 29.03400
N  35.67800 1.15600 27.70100
C  36.75900 0.68600 27.01100
C  36.50100 0.83200 25.50400
C  34.93200 1.15600 25.39300
C  34.58500 1.31300 26.88600
C  37.42800 1.79600 24.65400
C  33.93800 0.07900 24.79300
C  33.10600 0.57700 23.51500
N  33.76700 1.55900 29.78900
C  32.93800 1.72500 28.71200
C  31.65000 2.02600 29.16800
C  31.71800 2.13500 30.53100
C  33.04600 1.88500 30.91000
C  30.38100 2.17000 28.38200
C  30.96200 2.46900 31.74400
O  29.79900 2.80500 32.01500
C  31.99700 2.24200 32.96400
C  32.02800 3.58400 33.60400
O  32.72000 4.56100 33.28000
O  31.30700 3.65100 34.77800
C  31.23300 4.86700 35.67000
H  38.83100 0.99300 33.23900
H  38.77300 0.16500 26.71700
H  32.50900 1.77200 26.65400
H  34.60600 2.68300 34.74300
H  36.96000 1.02200 34.90500
H  37.76600 3.05500 35.60700
H  36.49700 4.02200 34.79000
H  37.96100 3.47500 33.89400
H  34.88800 -0.33400 34.98000
H  33.31000 0.54100 34.76300
H  35.24800 0.06900 37.13400
H  33.49000 0.17600 36.96200
H  41.14700 -1.46500 31.62600
H  40.60300 -0.46500 32.91500
H  41.72400 0.17000 31.76700
H  43.08700 -1.02500 28.21600
H  42.31300 -1.49100 29.75900
H  42.75800 0.26100 29.47200
H  36.61300 -0.17700 25.10900
H  34.78400 2.12000 24.90500
H  37.80800 1.27000 23.77800
H  38.26900 2.07100 25.29200
H  37.02200 2.76100 24.35100
H  33.19100 -0.17400 25.54500
H  34.32300 -0.91700 24.57600
H  33.29400 1.63600 23.33700
H  32.06100 0.36100 23.73600
H  33.47600 -0.01200 22.67500
H  30.67100 2.35000 27.34700
H  29.94700 3.07800 28.80100
H  29.69000 1.33700 28.51100
H  31.59400 1.49300 33.64600
H  31.07400 5.70600 34.99200
H  32.21200 4.93000 36.14400
H  30.40900 4.70900 36.36600

