158

Mg 46.83000 24.32600 27.35800
C  47.82200 26.27800 30.02400
C  46.12800 21.87900 29.69500
C  46.26500 22.16900 24.78700
C  47.91800 26.67300 25.13000
N  46.96100 24.09900 29.60200
C  47.32800 25.07700 30.49400
C  46.93900 24.68100 31.94000
C  46.64000 23.14600 31.81600
C  46.53800 23.03500 30.26800
C  47.68900 22.33300 32.40700
C  45.89400 25.52300 32.65200
C  45.48900 25.01600 34.06000
H  46.02300 25.76200 35.29500
N  46.23800 22.30100 27.29800
C  46.02400 21.42300 28.35500
C  45.87900 20.14100 27.79700
C  45.90400 20.20300 26.39800
C  46.03900 21.60500 26.09400
C  45.64500 18.88500 28.78200
C  45.99100 19.05500 25.46600
O  46.05500 19.18900 24.24100
C  45.99400 17.57100 26.03200
N  46.97000 24.40900 25.26500
C  46.69800 23.39200 24.45000
C  46.95100 23.82300 22.96100
C  47.36200 25.23600 23.04100
C  47.37500 25.49300 24.53800
C  48.00100 22.89200 22.24900
C  46.31400 26.12000 22.29900
C  44.93200 26.21800 22.90700
N  47.67100 26.16800 27.47300
C  48.06000 27.05500 26.44600
C  48.64100 28.20700 27.05700
C  48.53500 27.98000 28.47800
C  47.96300 26.70000 28.67800
C  49.31200 29.32700 26.43300
C  48.83000 28.51400 29.78200
O  49.38000 29.52300 30.10700
C  48.22400 27.47900 30.81000
C  49.25100 27.15300 31.74900
O  50.05600 26.25100 31.79200
O  49.08400 27.95700 32.84400
C  49.79100 27.55500 34.09200
H  45.83800 21.12600 30.43000
H  46.14100 21.45100 23.97400
H  48.17600 27.40400 24.36000
H  47.89000 24.78400 32.46200
H  45.71700 22.80600 32.28600
H  48.10700 22.78400 33.30700
H  48.51300 22.16100 31.71400
H  47.25900 21.36000 32.64200
H  45.02200 25.64000 32.00800
H  46.32000 26.52400 32.72200
H  45.78800 23.97900 34.21300
H  44.41200 25.17100 34.12500
H  46.44300 18.14300 28.73700
H  44.69600 18.43200 28.49300
H  45.43100 19.13400 29.82100
H  45.04100 17.48700 26.55400
H  46.88400 17.33500 26.61400
H  45.93100 16.93500 25.14900
H  46.02500 23.79700 22.38700
H  48.34700 25.45000 22.62700
H  47.57500 22.51300 21.32000
H  48.34300 22.01800 22.80200
H  48.83700 23.52000 21.93900
H  46.29700 25.85100 21.24300
H  46.71900 27.12700 22.20100
H  44.23200 25.99900 22.10100
H  44.69500 27.25400 23.14900
H  44.75400 25.50400 23.71200
H  49.18600 30.20500 27.06600
H  48.76100 29.45700 25.50200
H  50.38200 29.18900 26.28000
H  47.41800 28.07900 31.23200
H  49.71800 26.46900 34.14800
H  49.19300 27.99800 34.89000
H  50.83700 27.86100 34.11200
Mg 8.63300 47.59200 27.52100
C  7.06900 47.44900 30.60300
C  11.62000 48.12100 29.01500
C  10.08700 48.37000 24.44900
C  5.56200 47.83200 26.05600
N  9.21700 47.97400 29.61600
C  8.46900 47.67200 30.70700
C  9.30900 47.64900 32.02300
C  10.66600 48.10500 31.41200
C  10.54300 48.02600 29.90300
C  11.08700 49.52400 31.85300
C  9.43200 46.19700 32.70200
C  8.99500 45.96000 34.13100
H  10.01900 45.31500 35.07100
N  10.56900 48.01100 26.80800
C  11.68400 48.16800 27.61100
C  12.88900 48.42600 26.75700
C  12.45300 48.53200 25.45900
C  11.00200 48.25500 25.48800
C  14.24200 48.69400 27.35200
C  13.25000 48.96900 24.16500
O  12.76500 48.78900 23.04100
C  14.67000 49.45500 24.29000
N  7.94400 47.94600 25.50300
C  8.69300 48.26100 24.40600
C  7.85800 48.65600 23.15700
C  6.47600 48.29800 23.74900
C  6.63400 47.85100 25.17300
C  7.88100 50.18100 22.72000
C  5.82900 47.12500 22.90300
C  5.65000 47.45500 21.44300
N  6.64500 47.39400 28.10400
C  5.49000 47.56200 27.44000
C  4.25100 47.47000 28.24300
C  4.85500 47.41400 29.55700
C  6.27500 47.36500 29.42100
C  2.83700 47.45400 27.88800
C  4.59600 47.29200 30.98400
O  3.53900 47.18900 31.60600
C  6.02900 47.30100 31.77200
C  6.09700 46.06300 32.45900
O  6.40000 45.00900 31.95700
O  5.56700 46.09600 33.73400
C  5.15900 44.82000 34.31500
H  12.59500 48.10700 29.50700
H  10.48200 48.73500 23.49900
H  4.57100 47.95700 25.61500
H  8.89800 48.38900 32.71000
H  11.56900 47.57300 31.71200
H  10.79000 50.25300 31.09900
H  12.15600 49.60100 32.05100
H  10.59500 49.63100 32.82000
H  10.47300 45.88200 32.63600
H  8.90300 45.47200 32.08300
H  8.16500 45.25400 34.15600
H  8.77200 46.87700 34.67600
H  14.96400 47.97000 26.97600
H  14.37100 48.51000 28.41900
H  14.58600 49.70100 27.11600
H  14.61200 50.47600 24.66700
H  15.06200 49.54400 23.27700
H  15.35000 48.91000 24.94400
H  8.26400 47.96500 22.41800
H  5.83500 49.16600 23.59300
H  7.77300 50.41700 21.66100
H  8.88100 50.44500 23.06600
H  7.16600 50.83500 23.21700
H  4.85500 46.96100 23.36300
H  6.43000 46.22000 22.99500
H  5.94600 46.62200 20.80600
H  6.14700 48.39900 21.21700
H  4.58400 47.64500 21.32300
H  2.24400 47.27800 28.78600
H  2.60600 46.84500 27.01400
H  2.51700 48.48500 27.73900
H  6.09700 48.11900 32.49000
H  6.01400 44.15200 34.20600
H  4.32000 44.39100 33.76700
H  5.04000 44.95200 35.39000

