158

Mg 37.02700 48.96500 24.97500
C  37.30400 47.04100 27.83900
C  35.18300 51.25800 26.62300
C  36.29000 50.51900 21.97000
C  38.36600 46.27500 23.10600
N  36.19200 48.99300 26.96000
C  36.66900 48.28800 27.97500
C  36.15800 48.84100 29.28100
C  35.24000 50.04900 28.89700
C  35.44700 50.07400 27.39200
C  33.72300 50.02400 29.32400
C  37.39200 49.23200 30.15500
C  37.01500 49.72800 31.52900
H  35.62600 49.64500 32.12300
N  36.08800 50.75700 24.47300
C  35.40800 51.59000 25.30100
C  35.14000 52.80200 24.63300
C  35.21600 52.51500 23.23100
C  35.84200 51.19300 23.17200
C  34.61600 54.05400 25.37200
C  34.92000 53.43900 22.02600
O  34.95500 53.02300 20.89700
C  34.66700 54.87900 22.27500
N  37.09400 48.32800 22.79000
C  36.86400 49.24500 21.80600
C  37.33800 48.65100 20.46300
C  38.20700 47.43900 20.86500
C  37.86100 47.32600 22.38100
C  36.20500 48.30700 19.40800
C  39.71700 47.45700 20.52800
C  40.20400 46.92300 19.19300
N  37.79100 47.12700 25.37300
C  38.24600 46.11400 24.49100
C  38.69600 44.98600 25.33800
C  38.38900 45.33600 26.67700
C  37.70900 46.58900 26.60500
C  39.36200 43.68500 24.82700
C  38.36400 44.82600 28.05800
O  38.70900 43.78200 28.56800
C  37.78400 45.98900 28.87800
C  36.57800 45.50000 29.67000
O  35.41300 45.40600 29.30400
O  36.90000 45.66000 30.97900
C  35.89600 45.08600 31.92800
H  34.64800 52.02700 27.18500
H  36.30500 51.16700 21.09000
H  38.87000 45.60200 22.40800
H  35.64000 47.96500 29.67100
H  35.64500 51.01800 29.19000
H  33.46200 50.90900 29.90400
H  33.67200 49.16900 29.99800
H  33.10600 49.77400 28.46000
H  38.07200 49.97000 29.73000
H  37.95600 48.31600 30.32900
H  37.33500 50.76900 31.47400
H  37.68400 49.14600 32.16300
H  33.77500 54.57300 24.91100
H  35.42700 54.78100 25.39700
H  34.27600 53.80700 26.37800
H  33.70700 55.05200 22.76200
H  34.78600 55.43600 21.34500
H  35.44300 55.14400 22.99400
H  38.02400 49.43100 20.13200
H  37.69000 46.54300 20.52000
H  35.19200 48.28100 19.80800
H  36.63200 47.41300 18.95200
H  36.15100 49.02900 18.59300
H  40.28900 47.02000 21.34600
H  40.19300 48.43600 20.59000
H  39.32500 46.54500 18.67100
H  41.09000 46.29600 19.29500
H  40.47800 47.81600 18.63300
H  39.63600 43.88800 23.79200
H  38.65800 42.85300 24.84300
H  40.33900 43.49000 25.27000
H  38.62100 46.30400 29.50000
H  35.85700 45.56500 32.90700
H  36.24700 44.10100 32.23600
H  34.90400 44.94900 31.49700
Mg -6.13600 25.38900 26.16500
C  -4.43300 26.34000 28.93900
C  -8.05800 23.33300 28.21100
C  -7.15000 23.75700 23.34400
C  -3.94500 27.33100 24.17600
N  -6.18200 24.85800 28.30800
C  -5.45200 25.46500 29.28300
C  -6.09800 25.29700 30.67100
C  -7.04300 24.09100 30.39200
C  -7.11100 24.04700 28.87300
C  -6.63500 22.78900 31.17700
C  -6.83300 26.58300 31.18500
C  -7.04500 26.56000 32.82400
H  -6.50500 25.44400 33.75800
N  -7.52800 23.99500 25.84100
C  -8.23000 23.23600 26.78600
C  -9.20000 22.45000 26.13200
C  -8.98500 22.59200 24.74100
C  -7.88500 23.42300 24.57300
C  -10.36600 21.66100 26.88500
C  -9.72200 21.88200 23.61600
O  -9.53700 22.09800 22.40500
C  -10.68500 20.75300 23.88100
N  -5.57400 25.53800 24.06100
C  -6.15200 24.66500 23.13200
C  -5.54800 24.96400 21.68700
C  -4.57600 26.16800 21.88300
C  -4.72900 26.37100 23.43200
C  -5.02400 23.65100 21.07900
C  -5.05500 27.40800 21.07600
C  -4.13100 28.08400 20.07600
N  -4.57600 26.66600 26.44000
C  -3.81000 27.46100 25.55200
C  -2.78600 28.12100 26.29700
C  -2.91700 27.66200 27.67000
C  -4.07800 26.84500 27.67600
C  -1.75000 28.98000 25.71200
C  -2.47800 27.76200 29.04700
O  -1.49300 28.36200 29.51100
C  -3.48100 27.07900 29.95000
C  -2.80400 26.21400 30.82800
O  -2.20700 25.25700 30.48800
O  -2.86900 26.79900 32.10200
C  -2.20200 25.95500 33.20100
H  -8.76600 22.70500 28.75500
H  -7.53100 23.27800 22.44000
H  -3.30000 27.88600 23.49200
H  -5.29900 25.06800 31.37500
H  -8.04400 24.18000 30.81500
H  -7.22800 22.82300 32.09100
H  -5.58400 22.84800 31.46000
H  -6.90300 21.91300 30.58600
H  -7.81100 26.56800 30.70600
H  -6.34100 27.39300 30.64600
H  -8.13400 26.57800 32.85500
H  -6.69400 27.51000 33.22800
H  -11.36500 21.74800 26.45900
H  -10.43700 22.01500 27.91300
H  -10.18700 20.58500 26.88600
H  -11.62500 21.06400 24.33700
H  -10.18700 20.02300 24.51900
H  -11.01900 20.27200 22.96200
H  -6.45600 25.23700 21.15000
H  -3.56400 25.91800 21.56500
H  -5.22800 22.78000 21.70100
H  -3.98700 23.74400 20.75500
H  -5.64900 23.51400 20.19600
H  -5.26800 28.19200 21.80200
H  -5.93800 27.12300 20.50300
H  -4.51100 28.25900 19.07000
H  -3.22700 27.50000 19.90300
H  -3.78700 29.09300 20.30700
H  -2.15300 29.59500 24.90700
H  -0.89400 28.46800 25.27200
H  -1.28000 29.54000 26.52000
H  -4.11000 27.75000 30.53600
H  -2.69000 24.98800 33.32000
H  -2.32100 26.51700 34.12700
H  -1.15800 25.85300 32.90500

