158

Mg 26.00700 1.49700 29.78500
C  27.97400 1.08700 32.68000
C  23.27200 2.02100 31.90900
C  24.08900 1.30800 27.17900
C  28.75400 0.45100 27.84200
N  25.63900 1.48000 32.11100
C  26.69400 1.47600 33.03200
C  26.16700 1.79400 34.38500
C  24.59800 1.95800 34.25700
C  24.44600 1.84400 32.65200
C  23.81800 0.83200 34.95300
C  26.87100 3.07600 35.03700
C  27.71000 2.90700 36.30900
H  27.22500 3.85800 37.44600
N  23.93300 1.79200 29.54800
C  22.98000 1.90000 30.50600
C  21.68700 2.07400 29.83500
C  21.95100 1.97900 28.47600
C  23.37700 1.67000 28.34600
C  20.37300 2.35800 30.62600
C  20.95300 2.23500 27.34300
O  21.17900 2.36700 26.11600
C  19.51700 1.98900 27.67400
N  26.44600 1.02100 27.73300
C  25.42800 1.08800 26.85800
C  25.91500 0.75400 25.46600
C  27.43900 0.46500 25.59900
C  27.61500 0.63100 27.12900
C  25.31600 -0.48600 24.78400
C  28.32900 1.46600 24.75200
C  29.04400 0.80900 23.52300
N  28.05700 0.87300 30.14000
C  28.98900 0.46500 29.23900
C  30.24800 0.25300 29.98100
C  29.94700 0.43400 31.35000
C  28.59500 0.79900 31.34400
C  31.50000 -0.19600 29.38700
C  30.44900 0.42200 32.64700
O  31.64100 0.27900 33.01600
C  29.21700 0.85400 33.59600
C  28.85700 -0.13400 34.65300
O  28.45500 -1.25900 34.39600
O  29.22700 0.32800 35.85600
C  29.22800 -0.67900 36.96600
H  22.42000 2.26500 32.54800
H  23.49400 1.30700 26.26300
H  29.56700 -0.01500 27.28000
H  26.34500 0.88900 34.96500
H  24.28900 2.96300 34.54300
H  23.88200 -0.06500 34.33700
H  22.78500 1.17800 34.92000
H  24.16500 0.54100 35.94500
H  26.03600 3.71000 35.33600
H  27.43900 3.46800 34.19300
H  28.73700 3.19200 36.08300
H  27.61100 1.89100 36.69200
H  20.02300 3.27100 30.14500
H  20.50300 2.49400 31.70000
H  19.72700 1.48900 30.49300
H  18.98100 1.93800 26.72600
H  19.08500 2.86000 28.16600
H  19.40700 1.08800 28.27900
H  25.56700 1.55700 24.81600
H  27.62500 -0.58000 25.35100
H  26.04100 -1.13100 24.28800
H  24.67300 -0.09900 23.99300
H  24.81500 -1.09500 25.53700
H  29.09500 1.96300 25.34800
H  27.68700 2.27900 24.41500
H  28.81400 1.34800 22.60300
H  28.61000 -0.18900 23.45700
H  30.12400 0.93800 23.58300
H  31.72000 0.23400 28.40900
H  31.32600 -1.26900 29.30100
H  32.39600 -0.17900 30.00800
H  29.44000 1.82800 34.03000
H  28.28900 -0.42300 37.45800
H  30.10000 -0.51500 37.59900
H  29.23200 -1.72900 36.67300
Mg -1.90200 34.96600 26.86800
C  -3.74600 33.10900 29.11700
C  -1.30500 37.19300 29.51100
C  -0.08300 36.86300 24.78100
C  -3.05100 33.03600 24.23500
N  -2.48900 35.14100 29.08600
C  -3.08400 34.12600 29.72100
C  -3.17100 34.44700 31.19800
C  -2.56400 35.90400 31.41100
C  -2.11500 36.13700 29.97600
C  -3.54200 37.05000 31.81300
C  -2.36000 33.32600 31.99600
C  -3.10300 32.75700 33.16800
H  -2.32200 32.62600 34.48500
N  -0.93500 36.86500 27.13000
C  -0.69400 37.53700 28.30200
C  0.31600 38.61400 28.09000
C  0.62400 38.64900 26.67500
C  -0.14900 37.45900 26.14200
C  0.86200 39.62100 29.18700
C  1.59200 39.49200 25.97600
O  1.86100 39.30200 24.82700
C  2.11000 40.71000 26.59500
N  -1.77800 35.08900 24.70900
C  -0.79500 35.85700 24.14300
C  -0.48000 35.53600 22.65100
C  -1.39900 34.23300 22.53700
C  -2.26800 34.16800 23.84700
C  -0.84000 36.73800 21.73200
C  -0.60300 32.96900 22.34500
C  0.16400 32.31300 23.51200
N  -3.19800 33.37400 26.66700
C  -3.54500 32.68900 25.51600
C  -4.51500 31.68800 25.82100
C  -4.61700 31.82900 27.19900
C  -3.70900 32.81500 27.67600
C  -5.26100 30.75500 24.86100
C  -5.28400 31.27800 28.36700
O  -6.20200 30.48300 28.48200
C  -4.64600 31.95600 29.69600
C  -5.79600 32.49600 30.53800
O  -6.71700 33.18800 30.10600
O  -5.64700 32.02100 31.79500
C  -6.75500 32.35500 32.72200
H  -0.88600 37.87500 30.25300
H  0.70600 37.45000 24.30500
H  -3.28700 32.49200 23.31800
H  -4.23900 34.44900 31.41800
H  -1.73000 35.89400 32.11300
H  -4.45000 36.58300 32.19400
H  -3.79000 37.78100 31.04400
H  -2.99300 37.50600 32.63700
H  -1.37300 33.74700 32.18800
H  -2.03300 32.56100 31.29200
H  -3.30300 31.75100 32.79800
H  -3.97100 33.38400 33.37300
H  1.94900 39.55500 29.21800
H  0.54200 39.36400 30.19700
H  0.51000 40.63700 29.01100
H  2.88900 40.47500 27.32000
H  1.28100 41.27500 27.02100
H  2.60300 41.33100 25.84700
H  0.56500 35.25500 22.52300
H  -2.16800 34.24600 21.76500
H  -0.86200 37.64800 22.33300
H  -1.74100 36.57300 21.14000
H  -0.03800 36.92300 21.01800
H  0.14600 33.11200 21.56600
H  -1.14100 32.16800 21.83800
H  -0.27600 32.66100 24.44600
H  1.21000 32.61400 23.45200
H  0.14500 31.22400 23.55900
H  -4.79000 30.66100 23.88300
H  -6.23400 31.22100 24.70600
H  -5.31900 29.79100 25.36600
H  -4.02000 31.25000 30.24200
H  -7.05600 33.39900 32.63200
H  -6.42100 32.30500 33.75800
H  -7.57100 31.65000 32.56000

