158

Mg 47.38000 25.41700 29.02200
C  47.91000 28.00900 31.35200
C  46.00800 23.58000 31.51100
C  47.01600 23.10100 26.77700
C  48.94500 27.51600 26.53300
N  47.01500 25.73700 31.20200
C  47.35000 26.88500 31.96500
C  46.83100 26.76800 33.38300
C  46.42500 25.28100 33.44700
C  46.47800 24.81400 31.96600
C  47.16900 24.38500 34.48500
C  45.72600 27.85400 33.81900
C  45.89900 28.33500 35.30400
H  46.73100 27.49400 36.31500
N  46.58100 23.61800 29.11600
C  46.10000 23.00100 30.26100
C  45.65900 21.66800 29.92000
C  45.95300 21.45300 28.49400
C  46.57800 22.70300 28.09700
C  44.96700 20.71800 30.91200
C  45.75500 20.27400 27.62200
O  46.24800 20.19200 26.50000
C  44.94600 19.13900 28.15800
N  47.77300 25.41100 26.85500
C  47.53100 24.24800 26.14900
C  48.02000 24.26700 24.64800
C  48.42400 25.85300 24.63800
C  48.40000 26.32400 26.04400
C  49.22600 23.30000 24.43500
C  47.60300 26.72100 23.62500
C  48.45600 27.40900 22.57500
N  48.23600 27.41400 28.82900
C  48.82600 28.13400 27.80300
C  49.18600 29.50400 28.25600
C  48.75700 29.52000 29.63300
C  48.25000 28.19900 29.96200
C  49.97100 30.67100 27.49900
C  48.68700 30.30600 30.85500
O  49.07200 31.45300 31.08900
C  48.34300 29.29700 32.06100
C  49.67600 29.12000 32.74800
O  50.70000 28.91000 32.15100
O  49.45300 29.05700 34.13000
C  50.55900 28.70900 34.88600
H  45.61000 22.94400 32.30500
H  46.91300 22.30900 26.03200
H  49.14700 28.23700 25.73800
H  47.73100 27.02800 33.94000
H  45.36600 25.33600 33.70000
H  46.42200 23.90800 35.12000
H  47.91500 24.96600 35.02700
H  47.69000 23.56400 33.99400
H  44.72000 27.48000 33.62600
H  45.76700 28.76600 33.22400
H  44.90600 28.29000 35.75100
H  46.30600 29.34300 35.22200
H  43.90900 20.58300 30.68500
H  44.90600 21.09600 31.93200
H  45.43300 19.73400 30.87900
H  45.27500 18.80800 29.14300
H  45.07700 18.24400 27.55000
H  43.89300 19.40800 28.23800
H  47.19400 24.11400 23.95400
H  49.49400 25.93400 24.45100
H  49.28600 22.66200 25.31600
H  50.14400 23.88600 24.48600
H  49.15000 22.76800 23.48600
H  47.16100 27.54000 24.19300
H  46.88500 25.97600 23.28100
H  49.51300 27.14100 22.56700
H  48.46200 28.48700 22.73000
H  48.19400 27.18500 21.54000
H  49.49100 31.56500 27.89700
H  49.94300 30.52400 26.41900
H  50.98600 30.86100 27.84700
H  47.62700 29.76200 32.73900
H  50.97600 29.63200 35.29000
H  51.42000 28.26100 34.39100
H  50.31500 27.99100 35.66800
Mg 30.71500 58.71200 40.23400
C  28.00900 56.86800 39.18500
C  32.92600 56.22800 39.10700
C  33.22500 60.77700 40.70100
C  28.31600 61.32400 41.13500
N  30.51000 56.88900 39.23000
C  29.29200 56.31800 38.98300
C  29.46600 54.94600 38.31000
C  30.95100 54.58100 38.58300
C  31.51200 55.98100 38.90500
C  31.21400 53.56700 39.74200
C  29.22500 55.00700 36.73200
C  28.12600 54.13200 36.23400
H  27.69600 54.30000 34.77200
N  32.87700 58.50200 39.89600
C  33.54400 57.47700 39.36600
C  34.97500 57.73500 39.48600
C  35.09600 59.02200 40.06700
C  33.68400 59.52200 40.20800
C  36.02300 56.67000 39.18000
C  36.37700 59.62900 40.62500
O  37.47000 59.10900 40.37900
C  36.57100 61.00000 41.48400
N  30.71500 60.82000 40.73800
C  31.95900 61.35000 40.97900
C  31.82300 62.82100 41.42500
C  30.26900 62.93600 41.82500
C  29.67100 61.64400 41.12700
C  32.80100 63.29900 42.57000
C  29.50900 64.17400 41.39700
C  28.52700 64.58400 42.51300
N  28.53500 59.07800 40.23200
C  27.76300 60.09700 40.69000
C  26.36100 59.77700 40.57800
C  26.35500 58.49700 39.95500
C  27.72800 58.13700 39.81500
C  25.21400 60.65000 40.82300
C  25.52200 57.39400 39.43100
O  24.34600 57.14900 39.27000
C  26.65600 56.31300 38.95000
C  26.40200 55.00100 39.71400
O  26.90800 54.62800 40.76800
O  25.39800 54.37300 39.13500
C  25.19400 52.98400 39.61000
H  33.47800 55.29300 38.98700
H  34.08300 61.44500 40.80100
H  27.69400 62.10600 41.57400
H  28.76400 54.22300 38.72400
H  31.48800 54.16100 37.73200
H  30.40600 52.90200 40.04700
H  31.54900 54.17200 40.58500
H  31.96200 52.85700 39.39100
H  30.07900 54.77100 36.09600
H  28.96600 56.04000 36.49900
H  27.17600 54.28200 36.74600
H  28.38500 53.08800 36.41300
H  37.00300 57.14200 39.10400
H  35.83500 56.12000 38.25700
H  36.12200 56.02400 40.05200
H  35.63600 61.01000 42.04400
H  36.71000 61.89900 40.88400
H  37.33100 60.89000 42.25800
H  31.89600 63.35400 40.47700
H  30.38400 62.81100 42.90200
H  33.68500 63.73800 42.10800
H  33.01600 62.42100 43.17900
H  32.16600 64.03300 43.06800
H  28.89000 64.08400 40.50400
H  30.23000 64.98900 41.34700
H  28.71900 65.60500 42.84300
H  28.43700 63.89500 43.35300
H  27.55600 64.62500 42.02000
H  25.45200 61.61800 41.26400
H  24.49100 60.19400 41.50000
H  24.66700 60.84900 39.90200
H  26.42700 56.15800 37.89600
H  24.35800 52.64900 38.99700
H  24.80800 52.93000 40.62800
H  25.99800 52.28000 39.39400

