158

Mg 8.84800 3.09500 28.48700
C  10.24300 1.94600 31.47900
C  6.83200 5.33100 30.43100
C  7.19800 4.02300 25.70700
C  10.37400 0.46900 26.77200
N  8.58000 3.48700 30.72700
C  9.32000 2.92100 31.72100
C  8.99800 3.51100 33.11600
C  7.69100 4.43500 32.77300
C  7.69300 4.47100 31.25400
C  6.25700 3.94900 33.31700
C  10.14500 4.10400 33.83400
C  10.37000 3.69300 35.36400
H  9.20800 3.28600 36.31800
N  7.28100 4.51600 28.12300
C  6.59600 5.35000 29.02900
C  5.69600 6.27200 28.32900
C  5.84900 5.92700 26.94300
C  6.87600 4.77300 26.85600
C  4.66500 7.17200 28.99100
C  5.10400 6.42900 25.74100
O  5.32400 6.09900 24.57500
C  4.08000 7.39300 25.91900
N  8.90600 2.48400 26.50700
C  8.06100 2.92500 25.56600
C  8.12700 1.99700 24.26200
C  9.46200 1.21300 24.51900
C  9.66300 1.37700 26.02600
C  6.87600 1.09100 24.09800
C  10.68200 1.70400 23.76900
C  10.62500 1.35900 22.28200
N  10.04400 1.54600 28.98200
C  10.59700 0.51000 28.21900
C  11.33900 -0.38200 28.99600
C  11.31300 0.18300 30.31000
C  10.48300 1.36300 30.22000
C  12.15400 -1.51900 28.40500
C  11.68500 -0.06800 31.69900
O  12.44000 -0.93900 32.16200
C  11.06800 1.12400 32.44600
C  10.37600 0.47400 33.54300
O  9.27800 -0.00300 33.39200
O  11.17300 0.20900 34.58100
C  10.52300 -0.37600 35.72200
H  6.30200 6.09000 31.01000
H  6.69700 4.23500 24.76000
H  10.78000 -0.32000 26.13600
H  8.61200 2.67100 33.69400
H  7.85800 5.44800 33.14000
H  5.49600 4.25800 32.60100
H  6.08200 4.40500 34.29100
H  6.37100 2.87100 33.43900
H  10.07200 5.18100 33.67800
H  11.05800 3.71700 33.38100
H  10.79500 4.51900 35.93400
H  11.22100 3.01700 35.28000
H  3.60900 6.90400 28.96000
H  4.89400 8.16200 28.59700
H  4.86400 7.26000 30.05900
H  3.68800 7.56100 24.91600
H  4.54400 8.28400 26.34100
H  3.26500 6.99300 26.52200
H  8.13900 2.71300 23.44000
H  9.31400 0.14100 24.39600
H  6.38900 0.96800 25.06500
H  7.19600 0.14100 23.66900
H  6.11100 1.42300 23.39600
H  11.52200 1.20800 24.25500
H  10.86600 2.75000 24.01400
H  10.82800 2.22600 21.65300
H  9.71300 0.81200 22.04700
H  11.38300 0.58400 22.16300
H  12.21400 -1.26400 27.34700
H  11.56100 -2.43100 28.34300
H  13.04200 -1.63500 29.02600
H  11.98800 1.64400 32.71200
H  9.67000 0.23200 36.02400
H  11.21100 -0.36500 36.56800
H  10.35600 -1.42700 35.48800
Mg 46.49200 24.72400 27.88800
C  47.53800 26.71900 30.71300
C  45.35200 22.34600 30.18700
C  46.35300 22.50300 25.34500
C  48.12200 26.97200 25.85400
N  46.23500 24.60000 30.24100
C  46.77800 25.59300 31.11400
C  46.30300 25.30400 32.54700
C  45.60400 23.80500 32.40100
C  45.75100 23.55600 30.88300
C  46.19700 22.69200 33.33200
C  45.41500 26.37800 33.26700
C  45.94100 26.98000 34.59300
H  44.88900 27.09100 35.74500
N  45.73100 22.84100 27.74200
C  45.34900 22.06100 28.84900
C  44.94100 20.73200 28.31000
C  45.23500 20.80500 26.88700
C  45.75200 22.11100 26.61900
C  44.54700 19.57200 29.18700
C  44.97900 19.61200 25.83700
O  45.27500 19.67500 24.66500
C  44.45100 18.18100 26.37700
N  47.12700 24.71200 25.85200
C  46.92600 23.76200 24.99200
C  47.36700 24.14200 23.52500
C  47.86100 25.66500 23.77700
C  47.75500 25.75800 25.28200
C  48.54300 23.26900 22.98700
C  46.93200 26.73700 23.08600
C  47.59700 27.97500 22.46400
N  47.61000 26.44400 28.17300
C  48.16300 27.29200 27.25000
C  48.90900 28.39100 27.92100
C  48.61900 28.17800 29.22700
C  47.93400 26.95600 29.36700
C  49.79100 29.52700 27.34500
C  48.82300 28.78900 30.54300
O  49.38900 29.82000 30.84500
C  48.04000 27.84800 31.56700
C  48.92500 27.33700 32.65600
O  49.67500 26.41400 32.37900
O  48.80100 27.97000 33.88300
C  49.80200 27.54100 34.91100
H  45.00600 21.66200 30.96500
H  46.34600 21.75800 24.54700
H  48.58100 27.76600 25.26200
H  47.23300 25.13000 33.08800
H  44.54700 23.79300 32.66700
H  45.38600 22.01600 33.60600
H  46.55600 23.05100 34.29600
H  47.06500 22.17800 32.92100
H  44.46000 25.92600 33.53200
H  45.14000 27.12000 32.51800
H  46.28500 27.99200 34.38200
H  46.85500 26.47300 34.90500
H  43.48200 19.36300 29.08400
H  44.65000 19.85000 30.23600
H  45.16100 18.69800 28.96900
H  45.12400 17.78100 27.13600
H  44.63100 17.63300 25.45300
H  43.39600 18.10400 26.64100
H  46.47200 24.03300 22.91300
H  48.88400 25.80400 23.42900
H  49.28100 23.71100 22.31700
H  48.14300 22.45600 22.38100
H  49.02300 22.72800 23.80200
H  46.23400 27.04400 23.86500
H  46.36800 26.25100 22.29000
H  47.25200 28.90700 22.91300
H  47.29000 28.07400 21.42300
H  48.67400 27.83300 22.54900
H  49.13400 30.03900 26.64200
H  50.70800 29.10400 26.93500
H  49.99500 30.21500 28.16600
H  47.35100 28.47100 32.13800
H  49.62100 27.92100 35.91700
H  50.76000 27.95700 34.60200
H  49.86800 26.45300 34.87400

