158

Mg -0.30100 43.88900 26.13100
C  1.81800 43.77100 28.81000
C  -2.91400 43.14000 28.41700
C  -2.41600 43.23600 23.61400
C  2.44900 44.42400 23.93200
N  -0.40500 43.27700 28.40600
C  0.51900 43.55200 29.27000
C  0.03400 43.50000 30.71600
C  -1.46100 43.15400 30.55200
C  -1.60800 43.17300 29.04800
C  -1.86300 41.85000 31.14900
C  0.31200 44.84400 31.47200
C  0.77900 44.77300 32.96700
H  0.51200 43.55600 33.82200
N  -2.37000 43.30900 26.02300
C  -3.28000 43.08700 27.06000
C  -4.51600 42.68500 26.50700
C  -4.35700 42.56300 25.10900
C  -3.01800 43.04200 24.83200
C  -5.73500 42.34500 27.38200
C  -5.33000 41.93600 24.14000
O  -5.07900 41.98900 22.94800
C  -6.64100 41.38700 24.48500
N  -0.01200 43.93500 24.10100
C  -1.07000 43.63700 23.27200
C  -0.54000 43.57600 21.86300
C  0.94300 44.05700 21.95100
C  1.15000 44.10900 23.41900
C  -0.69700 42.13600 21.16200
C  1.21800 45.38000 21.14100
C  1.10600 46.79900 21.77900
N  1.75600 44.18400 26.24300
C  2.70100 44.45600 25.32400
C  3.98100 44.54700 25.97300
C  3.67800 44.21000 27.35200
C  2.33000 44.02600 27.45900
C  5.34300 44.79600 25.25600
C  4.27300 43.92000 28.64200
O  5.41700 43.80800 29.08000
C  3.03300 43.80900 29.63900
C  3.18500 42.63400 30.44700
O  3.18400 41.53900 29.95000
O  3.52400 42.87400 31.78300
C  4.13700 41.78400 32.54600
H  -3.77400 42.90900 29.04900
H  -3.04000 42.96800 22.75900
H  3.25300 44.56400 23.20700
H  0.53500 42.63600 31.15400
H  -2.06200 43.95600 30.98200
H  -0.93800 41.47100 31.58200
H  -2.38100 41.22600 30.42100
H  -2.55200 41.92100 31.99100
H  -0.59300 45.45100 31.47100
H  1.06800 45.35900 30.87900
H  0.10300 45.50400 33.41100
H  1.81900 45.09100 33.03800
H  -6.67300 42.35000 26.82600
H  -5.88900 42.77800 28.37100
H  -5.45500 41.33200 27.67200
H  -6.62600 40.55000 25.18300
H  -6.97700 40.95800 23.54100
H  -7.52800 41.96800 24.73600
H  -1.08200 44.27900 21.23000
H  1.54300 43.21500 21.60500
H  0.25100 41.64600 20.94200
H  -1.31700 42.24600 20.27200
H  -1.32200 41.50800 21.79700
H  0.44400 45.29100 20.37800
H  2.17900 45.41300 20.62700
H  0.25600 47.30200 21.31700
H  1.98800 47.35000 21.45100
H  0.91500 46.85800 22.85100
H  5.38600 44.60900 24.18300
H  6.05500 44.17700 25.80300
H  5.61000 45.84400 25.39000
H  3.06800 44.78200 30.12800
H  4.45600 42.28200 33.46100
H  5.05600 41.41800 32.08600
H  3.40000 41.00800 32.75000
Mg -2.21900 34.97300 26.36500
C  -3.69400 33.27000 28.94400
C  -0.83300 37.15200 28.70700
C  -1.07200 36.92400 23.84300
C  -4.07200 33.13500 24.09600
N  -2.23500 35.21900 28.61200
C  -2.95100 34.36500 29.43400
C  -2.71800 34.72900 30.93000
C  -1.85400 36.07300 30.82000
C  -1.59000 36.16000 29.29700
C  -2.58000 37.36000 31.30100
C  -1.95700 33.56100 31.69900
C  -2.67600 33.20000 33.01800
H  -1.69300 33.05100 34.21400
N  -1.05300 36.78700 26.23800
C  -0.51400 37.46100 27.34400
C  0.22000 38.59400 26.89900
C  0.19900 38.54500 25.46400
C  -0.70000 37.39100 25.09200
C  0.73800 39.67700 27.79500
C  0.83400 39.46100 24.38600
O  0.78000 39.22500 23.15700
C  1.71700 40.61200 24.83400
N  -2.48100 35.10200 24.33100
C  -1.85600 35.91400 23.43800
C  -2.20200 35.60600 21.99000
C  -2.85900 34.16800 22.15100
C  -3.21600 34.12600 23.62200
C  -3.20700 36.66000 21.31800
C  -1.85800 33.01700 21.75500
C  -1.00600 32.26000 22.89400
N  -3.59400 33.57600 26.43500
C  -4.27500 32.83600 25.50700
C  -4.80700 31.61100 26.08100
C  -4.71100 31.80200 27.44300
C  -3.94800 32.99400 27.58900
C  -5.54800 30.58200 25.34400
C  -5.06200 31.25000 28.70100
O  -5.75500 30.28900 28.96200
C  -4.51000 32.20900 29.73100
C  -5.58800 32.72000 30.66000
O  -6.29800 33.64800 30.28500
O  -5.62000 32.15000 31.93500
C  -6.48100 32.71400 32.98500
H  -0.52100 37.80400 29.52500
H  -0.78900 37.54100 22.98900
H  -4.61200 32.51500 23.37700
H  -3.65000 34.95500 31.44900
H  -1.02600 35.97800 31.52300
H  -3.61900 37.15900 31.56600
H  -2.67500 38.09800 30.50500
H  -2.08900 37.92800 32.09100
H  -0.95700 33.93500 31.91600
H  -1.80600 32.66700 31.09300
H  -3.14100 32.21500 32.99900
H  -3.43900 33.94300 33.25300
H  1.80000 39.63000 27.55400
H  0.47900 39.52100 28.84200
H  0.31600 40.57400 27.34300
H  2.53900 40.22800 25.43800
H  1.02600 41.34100 25.25700
H  2.20900 41.05500 23.96900
H  -1.31100 35.55500 21.36300
H  -3.84700 34.11600 21.69400
H  -4.10800 36.25300 20.85900
H  -2.78600 37.39600 20.63200
H  -3.75900 37.26900 22.03400
H  -1.16500 33.44000 21.02700
H  -2.36900 32.24800 21.17500
H  -0.89400 32.98900 23.69600
H  0.04100 32.25000 22.59300
H  -1.35400 31.26600 23.17400
H  -5.03900 30.33100 24.41300
H  -6.53800 30.96700 25.10200
H  -5.64600 29.69300 25.96700
H  -3.81100 31.56500 30.26500
H  -7.10100 31.84000 33.18000
H  -6.97500 33.62800 32.65200
H  -5.94100 32.97100 33.89600

