158

Mg 17.52500 -2.98500 28.75600
C  16.38400 -0.59100 30.94600
C  19.24900 -4.52700 31.28900
C  18.98500 -5.14100 26.50800
C  16.15900 -1.17800 26.05700
N  17.78300 -2.48300 30.84800
C  17.23400 -1.48300 31.62800
C  17.49000 -1.62100 33.13300
C  18.61800 -2.74300 33.07800
C  18.53600 -3.34600 31.63000
C  20.00300 -2.07800 33.44900
C  16.25400 -1.99200 34.02400
C  16.33900 -1.30700 35.39200
H  17.71300 -0.60600 35.74600
N  18.86200 -4.71600 28.88600
C  19.46400 -5.10600 30.03600
C  20.26600 -6.34800 29.77700
C  20.19100 -6.50400 28.32900
C  19.32800 -5.41700 27.84700
C  20.81600 -7.22900 30.84300
C  20.75700 -7.57600 27.45200
O  20.48400 -7.77200 26.23400
C  21.74400 -8.57300 28.06700
N  17.66600 -3.07100 26.64400
C  18.31900 -4.04500 25.91100
C  18.02500 -3.92100 24.46800
C  17.25500 -2.58500 24.29200
C  16.89200 -2.33600 25.71500
C  19.29600 -4.05300 23.40800
C  16.05700 -2.58900 23.28700
C  16.26900 -1.60000 22.02100
N  16.41200 -1.29600 28.46600
C  15.91800 -0.67100 27.37200
C  15.08700 0.45400 27.77800
C  15.21400 0.54800 29.14700
C  16.04900 -0.53300 29.52400
C  14.17800 1.31500 26.92600
C  14.83400 1.28500 30.35100
O  14.09000 2.25900 30.50600
C  15.66300 0.60600 31.59600
C  16.64000 1.56200 32.05100
O  17.75100 1.71800 31.59600
O  15.95400 2.35100 32.92900
C  16.74800 3.58100 33.29700
H  19.83200 -4.98000 32.09300
H  19.28500 -5.81000 25.69800
H  15.79200 -0.57000 25.22700
H  17.92700 -0.65900 33.40100
H  18.43400 -3.57500 33.75700
H  19.99100 -1.20100 34.09700
H  20.34700 -1.61800 32.52200
H  20.68700 -2.80100 33.89400
H  16.11900 -3.06500 34.15700
H  15.44900 -1.57400 33.42000
H  15.97800 -1.86300 36.25700
H  15.60600 -0.51800 35.22100
H  20.60500 -8.25100 30.52700
H  20.44500 -7.03200 31.84900
H  21.87500 -7.05100 31.03000
H  21.23800 -9.40200 28.56200
H  22.37500 -7.94800 28.69800
H  22.27600 -8.91300 27.17800
H  17.30700 -4.72300 24.29500
H  18.07900 -1.91100 24.05400
H  19.56000 -3.11600 22.91800
H  19.22100 -4.80300 22.62000
H  20.20200 -4.42000 23.89000
H  15.09900 -2.42300 23.78100
H  15.94700 -3.57800 22.84300
H  15.86300 -2.07100 21.12600
H  17.32000 -1.32400 21.94200
H  15.64900 -0.70400 22.05900
H  14.42600 2.37600 26.94500
H  13.11700 1.22700 27.16100
H  14.25400 0.99700 25.88600
H  14.95800 0.18200 32.31100
H  17.00600 4.16300 32.41300
H  17.59600 3.32800 33.93500
H  16.26300 4.26400 33.99400
Mg 42.40700 42.04200 27.00300
C  41.57600 44.30100 29.64400
C  43.29300 39.71000 29.40600
C  43.88100 40.19900 24.58100
C  41.95200 44.74000 24.69000
N  42.35100 42.03600 29.29400
C  42.06100 43.07000 30.15300
C  42.21100 42.62800 31.65200
C  42.70800 41.21600 31.46700
C  42.84600 40.97300 29.96800
C  43.96200 40.71700 32.31600
C  40.96900 42.88800 32.59800
C  40.92000 42.06900 33.86700
H  40.92400 42.75800 35.24600
N  43.27900 40.18100 26.99600
C  43.48600 39.38800 28.06800
C  44.15000 38.22900 27.60100
C  44.41400 38.30800 26.21200
C  43.89700 39.61400 25.83200
C  44.49500 37.07500 28.42200
C  45.05200 37.38100 25.17800
O  44.97900 37.50800 23.96700
C  45.98200 36.24100 25.70600
N  42.98200 42.43000 24.98400
C  43.47300 41.44100 24.21100
C  43.65200 41.93600 22.78800
C  42.63900 43.18600 22.74900
C  42.53000 43.51900 24.26200
C  45.08800 42.35500 22.39100
C  41.34700 42.96400 21.94900
C  40.28900 42.04800 22.62900
N  41.78700 44.04000 27.08100
C  41.69300 45.02400 26.05500
C  41.30000 46.28000 26.66000
C  41.20300 46.01400 28.09900
C  41.54100 44.66600 28.23900
C  41.00600 47.55900 25.94900
C  40.94600 46.68400 29.39500
O  40.62600 47.83800 29.61900
C  41.17400 45.53800 30.47200
C  42.02900 46.13100 31.42900
O  43.17000 46.44000 31.15900
O  41.37000 46.52700 32.58800
C  41.95200 47.38200 33.62100
H  43.69700 38.94900 30.07700
H  44.20900 39.63800 23.70300
H  41.84100 45.60500 24.03400
H  42.93400 43.29600 32.12000
H  42.01000 40.51800 31.92900
H  44.10200 41.52500 33.03500
H  44.79500 40.58400 31.62600
H  43.79000 39.79300 32.86800
H  40.03300 42.63200 32.10200
H  41.06900 43.90500 32.97600
H  41.79500 41.42700 33.97300
H  40.03100 41.43900 33.90100
H  44.01400 37.01800 29.39900
H  45.55300 36.91100 28.63100
H  44.00700 36.22000 27.95400
H  46.59700 35.96000 24.85100
H  45.45000 35.31700 25.93200
H  46.70900 36.61200 26.42900
H  43.40400 41.26900 21.96200
H  43.16200 44.06600 22.37600
H  45.48700 41.85600 21.50800
H  45.76900 42.26700 23.23700
H  45.10100 43.38100 22.02300
H  41.57900 42.65400 20.93000
H  40.81800 43.91200 21.85000
H  40.89100 41.55000 23.38900
H  39.70800 41.38200 21.99200
H  39.58700 42.73900 23.09600
H  41.76100 47.89100 25.23500
H  40.86200 48.42500 26.59500
H  40.00500 47.47500 25.52600
H  40.20200 45.34400 30.92600
H  42.45800 46.63800 34.23700
H  41.11500 47.72400 34.23000
H  42.60900 48.01700 33.02600

