158

Mg 43.99800 3.36200 48.26200
C  42.04300 6.27500 47.75300
C  41.07300 1.49500 47.70300
C  45.89000 0.79900 48.08600
C  46.81500 5.47300 48.21600
N  41.77300 3.88400 47.94000
C  41.20500 5.13700 47.69500
C  39.75600 4.97700 47.21700
C  39.42900 3.47800 47.53200
C  40.85200 2.90200 47.77400
C  38.38600 3.17100 48.70000
C  39.50100 5.29300 45.78000
C  38.23500 6.12600 45.44500
H  38.12400 6.78600 44.13400
N  43.58200 1.37000 48.02200
C  42.33700 0.78500 47.71400
C  42.56700 -0.61300 47.64900
C  43.94700 -0.84300 47.72400
C  44.54000 0.44700 48.05700
C  41.41300 -1.55700 47.38600
C  44.62600 -2.18600 47.46300
O  43.93400 -3.18800 47.20400
C  46.06400 -2.36200 47.52800
N  46.09800 3.15000 47.89000
C  46.64100 1.90200 48.07700
C  48.24900 1.95600 48.06200
C  48.47000 3.46100 48.22400
C  47.05100 4.10200 48.06000
C  48.92200 1.05700 49.19400
C  49.48900 4.15600 47.21800
C  50.76200 4.75900 47.83300
N  44.38800 5.38900 48.18900
C  45.58600 6.13800 48.16500
C  45.29000 7.55800 48.12400
C  43.94300 7.58400 47.87900
C  43.44300 6.27000 47.95500
C  46.25500 8.69700 48.17100
C  42.83900 8.54000 47.73100
O  42.86500 9.78200 47.66800
C  41.54700 7.67900 47.60800
C  40.60300 8.02700 48.70600
O  40.89300 8.08700 49.91800
O  39.31800 8.15900 48.16100
C  38.24000 8.49600 49.16100
H  40.18300 0.93600 47.40600
H  46.64100 0.01400 47.97500
H  47.71900 6.08500 48.24500
H  39.19700 5.56400 47.94700
H  39.03700 3.09000 46.59200
H  38.03600 4.12500 49.09400
H  38.83000 2.55200 49.47900
H  37.56800 2.72100 48.13700
H  39.57000 4.40800 45.14600
H  40.35200 5.81400 45.34200
H  38.04200 6.88900 46.19900
H  37.43500 5.38600 45.45300
H  41.55000 -2.15700 46.48700
H  40.47900 -1.02200 47.21700
H  41.30200 -2.30000 48.17700
H  46.65900 -1.83900 46.77900
H  46.34800 -3.40900 47.42700
H  46.36000 -2.04900 48.52900
H  48.70200 1.68600 47.10800
H  48.70100 3.77300 49.24300
H  49.52600 0.24200 48.79600
H  48.15500 0.64600 49.85000
H  49.52000 1.70700 49.83300
H  48.93900 4.85500 46.58800
H  49.86400 3.46600 46.46200
H  51.57700 4.10500 47.52300
H  50.74200 4.74600 48.92300
H  50.94900 5.80200 47.57600
H  47.06700 8.32500 48.79500
H  45.84100 9.56500 48.68600
H  46.68700 8.86900 47.18600
H  40.99100 7.80600 46.67900
H  38.52500 8.17600 50.16400
H  37.27000 8.10600 48.85100
H  38.15700 9.58000 49.22700
Mg 6.50400 54.32400 40.99500
C  5.57200 50.90100 40.37200
C  9.53900 53.70900 39.93500
C  6.79100 57.69500 40.90700
C  2.87400 54.90400 41.49100
N  7.48600 52.48400 40.38100
C  6.94600 51.22900 40.15500
C  8.04700 50.26900 39.68700
C  9.32600 51.13900 39.82900
C  8.80800 52.56900 40.12900
C  10.39800 50.65900 40.91200
C  7.87900 49.44900 38.33500
C  7.84400 50.20300 37.03600
H  6.62500 50.08900 36.09200
N  7.97400 55.52100 40.46600
C  9.22700 55.08700 40.08200
C  10.10600 56.20400 40.04900
C  9.36400 57.32600 40.35500
C  7.96600 56.90700 40.60700
C  11.58300 56.14600 39.77000
C  9.88500 58.68000 40.52700
O  10.95500 58.88900 40.06200
C  9.17300 59.84700 41.19100
N  4.99700 56.01400 41.16400
C  5.46400 57.29800 41.26600
C  4.35600 58.34100 41.42300
C  3.11100 57.45100 41.38400
C  3.65700 56.01200 41.48000
C  4.53200 59.14600 42.71300
C  2.23700 57.70500 40.11600
C  0.69800 58.06200 40.32200
N  4.59900 53.15800 41.05400
C  3.28000 53.51000 41.29600
C  2.47500 52.31300 41.48200
C  3.31100 51.28900 41.11200
C  4.57100 51.82600 40.73400
C  1.00100 52.16500 41.74500
C  3.40700 49.88700 40.94400
O  2.52100 49.04000 41.15500
C  4.82100 49.55300 40.40400
C  4.57400 49.04900 39.06000
O  4.04500 49.60200 38.10100
O  4.76900 47.68900 39.09900
C  3.85900 46.98100 38.08600
H  10.51500 53.63800 39.45100
H  6.88900 58.77400 41.04200
H  1.81000 55.14300 41.55100
H  8.19600 49.60300 40.53700
H  9.68700 51.17900 38.80100
H  11.30300 50.52400 40.31800
H  10.14500 49.70100 41.36700
H  10.61000 51.39100 41.69100
H  6.96900 48.85300 38.39700
H  8.74300 48.78500 38.30000
H  8.61800 49.74500 36.42000
H  8.14000 51.24600 37.14200
H  11.62600 56.79900 38.89800
H  11.92500 55.23800 39.27300
H  12.20800 56.38000 40.63200
H  8.46100 60.30800 40.50600
H  9.87500 60.59800 41.55500
H  8.69700 59.46200 42.09300
H  4.49100 58.92200 40.51100
H  2.46800 57.53700 42.26100
H  5.42200 58.89600 43.29000
H  3.71000 59.18600 43.42700
H  4.67700 60.18600 42.42200
H  2.29400 56.76400 39.56800
H  2.64800 58.53900 39.54800
H  0.15000 57.17600 40.00000
H  0.33000 58.83500 39.64700
H  0.44600 58.25700 41.36400
H  0.64000 53.02600 42.30800
H  0.81200 51.27600 42.34700
H  0.44600 52.06900 40.81200
H  5.31200 48.77800 40.99200
H  3.59500 46.01200 38.51000
H  4.41700 46.92800 37.15000
H  2.89000 47.47400 38.01500

