158

Mg 23.49900 -7.38800 46.57200
C  26.10900 -5.21800 45.53100
C  21.45100 -5.78900 44.43700
C  21.41200 -10.04800 46.78000
C  26.00000 -9.22200 48.35800
N  23.89400 -5.78900 45.04300
C  24.89700 -4.89400 44.96900
C  24.59800 -3.81300 43.91700
C  23.05200 -3.87100 43.84800
C  22.73700 -5.25000 44.44400
C  22.36100 -2.70100 44.74700
C  25.35500 -4.14200 42.50000
C  26.11100 -2.96600 41.94400
H  25.78100 -2.64100 40.52200
N  21.62700 -7.85400 45.82600
C  20.90900 -6.93200 45.06800
C  19.58600 -7.59200 44.94500
C  19.70900 -8.95600 45.36000
C  20.92800 -9.02500 45.97700
C  18.40400 -6.93200 44.37800
C  18.70900 -9.93900 45.08300
O  17.70000 -9.78000 44.39100
C  18.87000 -11.40500 45.52100
N  23.69700 -9.34200 47.40300
C  22.67200 -10.19200 47.42900
C  23.05000 -11.57400 48.11300
C  24.45200 -11.29400 48.70100
C  24.71400 -9.81800 48.15100
C  22.10100 -12.11400 49.20600
C  25.54100 -12.29100 48.34500
C  25.74000 -13.39400 49.42800
N  25.56600 -7.20300 47.04500
C  26.40900 -8.00500 47.80000
C  27.77900 -7.42300 47.81600
C  27.69300 -6.36400 46.86500
C  26.34500 -6.31200 46.44100
C  28.99000 -8.06100 48.45800
C  28.39200 -5.26100 46.32200
O  29.54900 -4.87300 46.51400
C  27.40800 -4.52900 45.33300
C  27.37400 -3.08800 45.74200
O  26.78700 -2.74300 46.78200
O  27.97500 -2.21600 44.82700
C  28.01600 -0.78800 45.33800
H  20.69400 -5.20000 43.91500
H  20.82500 -10.93300 47.03600
H  26.72800 -9.68700 49.02500
H  24.94400 -2.85200 44.29700
H  22.56800 -3.76100 42.87800
H  21.86800 -3.19300 45.58500
H  21.63500 -2.15400 44.14600
H  23.08900 -2.09000 45.28100
H  24.52200 -4.28600 41.81200
H  25.97100 -5.03300 42.62100
H  27.17500 -3.20100 41.98900
H  26.02100 -2.14800 42.65800
H  18.82100 -5.93800 44.21700
H  17.58000 -6.88500 45.08900
H  18.02700 -7.27900 43.41600
H  18.71800 -11.49000 46.59700
H  19.82500 -11.81800 45.19500
H  18.16000 -11.99100 44.93700
H  23.00100 -12.30400 47.30400
H  24.45100 -11.18100 49.78500
H  22.67400 -12.24900 50.12400
H  21.73000 -13.08000 48.86400
H  21.34200 -11.37900 49.47700
H  26.47400 -11.75300 48.18100
H  25.40400 -12.87200 47.43300
H  25.03700 -13.24600 50.24800
H  26.76700 -13.37700 49.79200
H  25.74700 -14.43500 49.10400
H  29.83700 -7.37900 48.52800
H  29.29500 -8.98500 47.96600
H  28.73400 -8.35600 49.47600
H  27.84500 -4.53100 44.33500
H  28.90000 -0.64400 45.95800
H  27.07700 -0.50400 45.81300
H  28.11900 -0.04200 44.55100
Mg 30.57500 59.80500 39.67800
C  27.76000 58.07900 38.74200
C  32.44800 56.84900 39.00800
C  33.40300 61.67900 39.65800
C  28.63000 62.64600 39.85900
N  30.10600 57.70800 38.94700
C  28.92200 57.27500 38.59200
C  28.94400 55.83100 38.10000
C  30.43100 55.38200 38.30200
C  31.06500 56.72400 38.84100
C  30.61300 54.15200 39.21700
C  28.55300 55.68900 36.52100
C  27.38300 54.72100 36.06100
H  26.69400 55.06000 34.76500
N  32.66900 59.31100 39.44500
C  33.21200 58.04100 39.20400
C  34.64200 58.16000 39.16100
C  34.90200 59.53500 39.28100
C  33.60100 60.24600 39.35700
C  35.46700 56.94100 38.99400
C  36.31300 60.23200 39.21600
O  37.35600 59.57200 39.02700
C  36.55800 61.68200 39.35700
N  30.98800 62.04000 39.61000
C  32.26100 62.47400 39.75800
C  32.13200 64.03700 39.92700
C  30.64000 64.35800 40.13800
C  30.00500 62.95200 39.90700
C  33.18500 64.62600 40.99500
C  30.01400 65.39900 39.18200
C  29.16800 66.51400 39.78100
N  28.51700 60.27400 39.54500
C  27.89500 61.45200 39.60800
C  26.46500 61.27600 39.52000
C  26.33400 59.91400 39.19300
C  27.59500 59.41300 39.16200
C  25.35100 62.27400 39.49500
C  25.35000 58.90200 38.77400
O  24.12400 59.04500 38.66900
C  26.30600 57.63100 38.45400
C  25.93300 56.47500 39.40300
O  26.42900 56.26000 40.51300
O  24.80900 55.82300 38.87900
C  24.04200 54.98400 39.74700
H  33.04900 55.95800 38.81500
H  34.28900 62.31400 39.58300
H  28.04100 63.51400 40.16200
H  28.26700 55.17100 38.64200
H  30.87200 55.19400 37.32300
H  31.19800 53.43800 38.63800
H  29.66800 53.66900 39.46400
H  31.22400 54.28600 40.11000
H  29.40900 55.28500 35.98100
H  28.42000 56.70700 36.15300
H  26.57300 54.55200 36.77200
H  27.71600 53.68300 36.06800
H  36.54300 57.11500 38.98000
H  35.12200 56.21300 38.25900
H  35.29000 56.36300 39.90100
H  37.63400 61.83100 39.26500
H  36.19500 62.12300 40.28600
H  36.20900 62.21600 38.47300
H  32.37700 64.60500 39.02900
H  30.37100 64.62400 41.16100
H  33.93800 65.22100 40.47800
H  33.64300 63.89400 41.66000
H  32.55600 65.32100 41.55000
H  29.34800 64.83500 38.52900
H  30.73000 65.77800 38.45200
H  29.87900 67.34000 39.78900
H  28.86200 66.16800 40.76800
H  28.32500 66.71000 39.11800
H  24.47900 61.77700 39.92100
H  24.98600 62.43100 38.48000
H  25.62100 63.14300 40.09500
H  26.14500 57.27000 37.43800
H  23.32100 55.65400 40.21400
H  24.72700 54.62600 40.51600
H  23.57600 54.12200 39.27000

