158

Mg 43.75900 4.37500 47.36500
C  41.66600 7.21400 47.17400
C  40.92200 2.54800 46.66600
C  45.73400 1.76800 46.87600
C  46.56000 6.54700 46.98400
N  41.46100 4.95000 46.83900
C  40.88500 6.10900 46.97000
C  39.38300 5.95700 46.85300
C  39.10400 4.42900 46.68700
C  40.57200 3.92000 46.73000
C  38.33000 3.70000 47.84400
C  38.79300 6.82000 45.67400
C  39.41700 6.72600 44.28700
H  38.52900 6.24700 43.09200
N  43.38800 2.39500 46.86400
C  42.17800 1.83800 46.67500
C  42.33100 0.37400 46.58100
C  43.69000 0.10200 46.54900
C  44.37000 1.43700 46.64300
C  41.16800 -0.60500 46.47300
C  44.24700 -1.31700 46.53900
O  43.53200 -2.32400 46.35800
C  45.74600 -1.51300 46.79400
N  45.88800 4.21400 47.09000
C  46.45400 2.93200 47.14100
C  47.99400 2.97500 47.20000
C  48.25600 4.46500 46.81700
C  46.86300 5.18700 46.99500
C  48.73100 2.67200 48.52800
C  48.89800 4.77200 45.41500
C  50.41300 4.58600 45.19300
N  44.10200 6.41600 47.20200
C  45.28300 7.16300 47.14200
C  45.03300 8.55800 47.31900
C  43.64300 8.58800 47.39800
C  43.09800 7.30400 47.32100
C  45.97000 9.69300 47.38000
C  42.53600 9.47700 47.49200
O  42.44500 10.71000 47.40400
C  41.17500 8.62600 47.32400
C  40.29800 8.92100 48.49800
O  40.53600 8.44600 49.57900
O  39.28200 9.69100 48.15600
C  38.13600 9.76300 49.02400
H  40.11200 1.85400 46.43000
H  46.27500 0.82500 46.77200
H  47.40000 7.24400 46.95100
H  38.91800 6.26400 47.79000
H  38.43000 4.27100 45.84600
H  37.56600 4.34500 48.27600
H  39.00100 3.44600 48.66400
H  37.68200 2.89800 47.48900
H  38.75300 7.86100 45.99400
H  37.76300 6.47100 45.59800
H  40.35000 6.16100 44.30300
H  39.81300 7.72500 44.10800
H  40.19000 -0.12600 46.48800
H  41.35500 -1.33600 47.25900
H  41.25300 -1.14600 45.53000
H  46.34400 -1.19800 45.93900
H  46.04300 -2.55800 46.88800
H  45.98700 -1.04400 47.74800
H  48.23600 2.16500 46.51300
H  48.81900 4.95800 47.61000
H  49.11300 1.65300 48.59500
H  48.14500 2.97100 49.39600
H  49.64600 3.26100 48.60800
H  48.78400 5.82500 45.15900
H  48.32700 4.17000 44.70800
H  50.68300 5.46000 44.60000
H  50.65300 3.65400 44.68200
H  50.94900 4.67500 46.13800
H  45.55300 10.53900 46.83400
H  46.85300 9.48300 46.77700
H  46.18500 10.13000 48.35500
H  40.68100 8.94000 46.40400
H  38.30100 10.38500 49.90400
H  37.84600 8.73900 49.26400
H  37.32700 10.21600 48.45100
Mg 53.02300 24.29100 44.98000
C  50.39200 26.39300 43.83300
C  51.47700 21.71500 43.60100
C  55.98500 22.75500 45.14400
C  54.57300 27.34900 45.83900
N  51.25900 24.15200 43.62200
C  50.25000 25.06200 43.36600
C  49.18400 24.44500 42.46300
C  49.26500 22.93100 42.83300
C  50.76000 22.90900 43.39200
C  48.30300 22.38700 43.95200
C  49.52500 24.84600 40.96200
C  48.29600 25.09400 40.10100
H  48.02700 24.15600 38.86800
N  53.64800 22.40800 44.62700
C  52.83600 21.47600 44.03100
C  53.54300 20.23900 44.05700
C  54.89300 20.44700 44.52100
C  54.90700 21.92500 44.79900
C  52.83200 18.93700 43.57100
C  55.96700 19.34500 44.68500
O  55.77400 18.18700 44.35100
C  57.21000 19.64100 45.46900
N  55.04400 25.00200 45.38200
C  56.02300 24.12200 45.57800
C  57.35000 24.80000 46.08800
C  56.85400 26.28000 46.19700
C  55.39600 26.23300 45.79900
C  58.24500 24.15900 47.25900
C  57.62700 27.28100 45.39500
C  58.33500 28.52500 46.04400
N  52.53500 26.38500 45.03900
C  53.22900 27.42100 45.51000
C  52.34200 28.57100 45.68800
C  51.20000 28.26000 44.95800
C  51.39800 26.90000 44.61100
C  52.77100 29.85800 46.31400
C  50.00300 28.71300 44.39700
O  49.51800 29.79400 44.41600
C  49.38500 27.55000 43.65600
C  49.32300 27.97300 42.17700
O  50.20400 28.60500 41.61700
O  48.05200 27.83400 41.72400
C  47.77000 28.55800 40.46800
H  50.91200 20.87000 43.20300
H  56.94200 22.25200 45.29600
H  55.03000 28.29200 46.14900
H  48.19200 24.84000 42.68200
H  49.38800 22.31700 41.94100
H  48.71200 21.82100 44.78900
H  47.69500 21.63300 43.45200
H  47.63000 23.18200 44.27500
H  50.09400 24.04100 40.49700
H  50.23500 25.66800 40.87000
H  48.39200 26.00200 39.50600
H  47.38400 25.19600 40.68800
H  52.75200 19.05800 42.49100
H  51.86300 18.86800 44.06600
H  53.43900 18.07600 43.84700
H  57.89600 20.39200 45.07800
H  57.61000 18.64700 45.66900
H  56.84900 19.91500 46.46000
H  58.04700 24.79300 45.24900
H  56.86600 26.48700 47.26700
H  57.76200 23.23900 47.58700
H  58.41400 24.85300 48.08200
H  59.25700 23.91900 46.93400
H  56.89100 27.71200 44.71500
H  58.35800 26.84500 44.71400
H  58.54700 28.38100 47.10400
H  57.73400 29.42100 45.89100
H  59.28100 28.56200 45.50300
H  53.34700 29.88500 47.23900
H  51.84600 30.38800 46.53800
H  53.36000 30.50900 45.66800
H  48.39100 27.30200 44.02800
H  48.59400 28.95400 39.87400
H  47.13500 29.41500 40.69300
H  47.18300 27.86600 39.86300

