158

Mg 42.84800 41.63900 26.23400
C  41.74100 43.97100 28.62800
C  43.16800 39.31800 28.74000
C  43.81800 39.53300 23.86700
C  42.21400 44.10500 23.76900
N  42.48700 41.70800 28.49600
C  42.04100 42.77500 29.28300
C  41.99400 42.37200 30.78900
C  42.29600 40.84900 30.76500
C  42.73000 40.56700 29.26900
C  43.39200 40.35400 31.79200
C  40.53200 42.55300 31.29400
C  40.26300 41.99400 32.73100
H  39.54000 42.86300 33.80800
N  43.61200 39.69200 26.24900
C  43.58400 38.89100 27.39600
C  44.02600 37.50200 27.00400
C  44.06800 37.57000 25.52800
C  43.81800 38.94800 25.13700
C  44.18000 36.42000 28.00100
C  44.45900 36.44900 24.58500
O  44.57200 36.65300 23.39800
C  44.62700 35.06700 25.07700
N  42.94200 41.72900 24.18200
C  43.47500 40.78600 23.39700
C  43.46400 41.13500 21.89200
C  42.79000 42.53800 21.90500
C  42.66300 42.83800 23.39800
C  44.86800 41.12100 21.21300
C  41.35100 42.73500 21.14200
C  40.10700 42.10600 21.96000
N  42.17200 43.64300 26.15000
C  42.04300 44.54800 25.09300
C  41.41300 45.74900 25.53800
C  41.30300 45.66700 26.91500
C  41.75600 44.31700 27.22400
C  40.88500 46.83200 24.60200
C  40.85100 46.26900 28.15700
O  40.19500 47.29200 28.27800
C  41.11600 45.24800 29.28800
C  41.95800 45.87700 30.32500
O  43.00500 46.44500 30.12500
O  41.33800 45.75500 31.54300
C  42.15700 46.14100 32.72100
H  42.97800 38.42600 29.34000
H  44.17500 38.82000 23.12000
H  41.87700 44.83300 23.02700
H  42.82200 42.93300 31.22100
H  41.34100 40.34500 30.91000
H  44.20300 39.87800 31.24000
H  43.03500 39.59100 32.48400
H  43.72200 41.20500 32.38800
H  39.91200 42.07700 30.53500
H  40.26300 43.60200 31.42100
H  41.23100 41.83600 33.20600
H  39.76500 41.02500 32.69100
H  43.54300 35.54600 27.86000
H  44.11100 36.67200 29.05900
H  45.21100 36.09500 27.86000
H  43.88400 34.73800 25.80400
H  45.64800 35.05400 25.45800
H  44.54800 34.31100 24.29600
H  42.74600 40.55500 21.31200
H  43.55600 43.25100 21.60100
H  45.31800 42.09800 21.38800
H  44.74100 40.98700 20.13900
H  45.52800 40.37400 21.65600
H  41.54200 42.14300 20.24700
H  41.19300 43.79000 20.91800
H  40.34000 41.41400 22.76900
H  39.38500 41.56800 21.34600
H  39.56700 42.91600 22.44900
H  40.43800 47.59500 25.23900
H  40.18600 46.58900 23.80200
H  41.78000 47.31900 24.21300
H  40.13900 45.05700 29.73300
H  42.38800 47.19900 32.59600
H  43.13700 45.67500 32.82900
H  41.52300 46.08600 33.60600
Mg 0.11700 43.75700 26.84000
C  2.48000 43.45300 29.35100
C  -2.29100 42.59900 28.98100
C  -2.00700 43.46500 24.20400
C  2.78600 44.57900 24.58800
N  0.15200 43.12000 28.95500
C  1.17500 43.33600 29.83100
C  0.73000 43.04000 31.30000
C  -0.69800 42.38900 31.05800
C  -1.01000 42.66700 29.56600
C  -0.85200 40.92900 31.33600
C  0.73700 44.38000 32.19000
C  1.22200 44.25400 33.65100
H  0.64300 43.12400 34.46600
N  -1.87400 43.08300 26.58100
C  -2.67800 42.67100 27.62900
C  -3.98700 42.44600 27.11000
C  -3.93600 42.57600 25.66800
C  -2.54700 43.03500 25.39900
C  -5.13900 42.07500 27.97400
C  -5.01500 42.42400 24.67300
O  -4.80900 42.60400 23.50400
C  -6.41000 42.09600 25.08800
N  0.36400 43.91400 24.77700
C  -0.74200 43.91500 23.95800
C  -0.39600 44.29400 22.55700
C  1.10400 44.74100 22.60200
C  1.49800 44.42300 24.10900
C  -0.76400 43.19800 21.49500
C  1.34600 46.23000 22.21400
C  1.14800 47.23500 23.37200
N  2.20500 43.99600 26.90700
C  3.19000 44.26800 25.92000
C  4.52000 44.25200 26.50800
C  4.28400 43.91900 27.78900
C  2.86500 43.79300 28.00900
C  5.88900 44.43900 25.83600
C  4.93400 43.50400 29.05100
O  6.08600 43.23200 29.30800
C  3.81200 43.40500 30.10000
C  3.84200 42.13200 30.84000
O  3.48100 41.04100 30.45100
O  4.31000 42.36700 32.05200
C  4.39500 41.23900 33.01300
H  -3.03100 42.07600 29.59100
H  -2.63700 43.51300 23.31300
H  3.53700 44.90900 23.86800
H  1.41000 42.36700 31.82200
H  -1.48100 42.96100 31.55400
H  -1.41400 40.51300 30.50000
H  -1.49700 40.81600 32.20700
H  0.04300 40.30700 31.35100
H  -0.25700 44.82600 32.19800
H  1.41100 45.03200 31.63300
H  0.84000 45.16100 34.12000
H  2.30600 44.15100 33.60800
H  -4.85900 41.70400 28.96000
H  -5.63000 41.23200 27.48900
H  -5.81000 42.92800 28.07600
H  -6.43200 41.09400 25.51500
H  -7.08200 42.12300 24.23000
H  -6.76300 42.87000 25.77000
H  -1.00800 45.18800 22.43700
H  1.74400 44.09800 21.99700
H  0.21900 42.98200 21.07700
H  -1.55700 43.55300 20.83800
H  -0.99100 42.21100 21.90000
H  0.69900 46.53600 21.39100
H  2.38000 46.39400 21.90800
H  0.57000 48.09100 23.02700
H  2.11000 47.58500 23.74600
H  0.63400 46.80600 24.23200
H  5.71400 44.59600 24.77200
H  6.61500 43.63100 25.92900
H  6.32200 45.36800 26.20600
H  3.93800 44.25800 30.76600
H  3.67500 40.43300 32.86600
H  4.07900 41.61200 33.98800
H  5.37800 40.76700 33.01800

