158

Mg 49.39000 44.55500 42.95700
C  45.99100 45.16300 42.40000
C  48.72900 41.21600 42.29500
C  52.70900 43.97300 42.77200
C  49.94100 47.94500 43.04400
N  47.59300 43.34200 42.29500
C  46.32800 43.80100 42.06600
C  45.44700 42.62400 41.58700
C  46.28000 41.38000 42.16000
C  47.64600 42.04500 42.15100
C  45.86500 40.88500 43.58900
C  45.28800 42.55000 40.03400
C  43.85400 42.27900 39.51100
H  43.44000 42.91700 38.28700
N  50.56800 42.81500 42.73400
C  50.12900 41.52900 42.50700
C  51.19000 40.68800 42.50200
C  52.36200 41.38400 42.72200
C  51.93200 42.74800 42.81600
C  51.03300 39.23500 42.27900
C  53.77100 40.83500 42.66900
O  53.95800 39.64100 42.37000
C  54.97500 41.68600 42.90900
N  51.09400 45.73900 42.75200
C  52.33800 45.28100 42.81800
C  53.37700 46.49200 42.93600
C  52.47300 47.74000 43.03100
C  51.07100 47.13700 42.80800
C  54.34500 46.37700 44.13600
C  52.74900 48.88200 42.09800
C  52.75500 50.34100 42.78800
N  48.23200 46.27800 42.93200
C  48.57200 47.56200 43.00600
C  47.34000 48.33600 43.14700
C  46.27900 47.44900 42.95200
C  46.91200 46.20300 42.76400
C  47.26600 49.89000 43.29000
C  44.91500 47.35600 42.80500
O  44.09900 48.21200 42.97600
C  44.62900 45.81400 42.48900
C  43.88600 45.06800 43.50000
O  44.27800 44.63700 44.54900
O  42.62800 44.67700 43.01500
C  41.70300 43.98700 43.92300
H  48.53200 40.18400 42.00100
H  53.79900 44.01200 42.84000
H  50.13400 48.98200 43.32800
H  44.49500 42.66500 42.11500
H  46.30100 40.50200 41.51500
H  44.77800 40.86200 43.66300
H  46.26400 41.60300 44.30500
H  46.20300 39.87100 43.80500
H  46.03300 41.86400 39.63000
H  45.54500 43.55400 39.69700
H  43.16800 42.55600 40.31100
H  43.86600 41.19500 39.39800
H  51.70300 38.58500 42.84100
H  51.19500 39.04000 41.21900
H  50.02000 38.87200 42.45300
H  55.19400 42.22000 41.98500
H  55.76600 40.93600 42.91700
H  54.83000 42.24500 43.83400
H  53.95700 46.54600 42.01500
H  52.44800 48.14500 44.04300
H  54.18700 47.12600 44.91200
H  55.31300 46.60200 43.68900
H  54.28400 45.37100 44.55000
H  51.96100 48.87700 41.34500
H  53.71600 48.78900 41.60400
H  53.72500 50.82600 42.89800
H  52.26800 50.25700 43.76000
H  52.11000 51.03800 42.25200
H  48.24100 50.33200 43.49300
H  46.61300 50.17100 44.11700
H  46.76700 50.31300 42.41700
H  44.18200 45.65700 41.50700
H  41.86800 44.38100 44.92600
H  41.98200 42.93400 43.88900
H  40.65700 44.14000 43.66000
Mg -10.55200 39.69000 41.50900
C  -9.48300 36.41000 40.86500
C  -7.59100 40.88300 40.17800
C  -11.99700 42.69700 41.36000
C  -13.58400 38.39300 42.70000
N  -8.76100 38.75600 40.71800
C  -8.59700 37.39800 40.45500
C  -7.22700 37.12100 39.70400
C  -6.50000 38.54200 39.71100
C  -7.66800 39.45600 40.23600
C  -5.18300 38.68600 40.49400
C  -7.36700 36.51100 38.24800
C  -6.17700 35.56200 37.87000
H  -5.22900 35.94800 36.74300
N  -9.83400 41.50000 40.96600
C  -8.52900 41.83700 40.54400
C  -8.46100 43.29700 40.43000
C  -9.75300 43.81400 40.71800
C  -10.62300 42.66600 41.03100
C  -7.28800 44.05300 39.83000
C  -9.98500 45.32400 40.92400
O  -9.03600 46.08600 40.83500
C  -11.33600 45.93700 41.25100
N  -12.59900 40.36900 41.79700
C  -12.89800 41.65100 41.72300
C  -14.38400 41.97500 42.07100
C  -14.89300 40.64500 42.65900
C  -13.65700 39.69000 42.30900
C  -14.67700 43.16200 43.00300
C  -16.26300 40.13300 42.08700
C  -17.58100 40.36600 43.00300
N  -11.43000 37.77100 41.79200
C  -12.55700 37.39200 42.41200
C  -12.53900 35.93700 42.53100
C  -11.37200 35.53000 41.92600
C  -10.73600 36.70600 41.47500
C  -13.72500 35.09400 42.95900
C  -10.55200 34.34700 41.64000
O  -10.71000 33.17200 41.92800
C  -9.24300 34.92200 41.01200
C  -8.01800 34.62000 41.82300
O  -7.77900 35.11700 42.92000
O  -7.15900 33.88800 41.14000
C  -5.86500 33.69500 41.72900
H  -6.68200 41.21100 39.67000
H  -12.39500 43.71400 41.32400
H  -14.31400 38.01100 43.41600
H  -6.67000 36.48000 40.38700
H  -6.31700 38.97900 38.73000
H  -4.52900 39.31200 39.88700
H  -4.77100 37.67900 40.57000
H  -5.16700 39.13900 41.48600
H  -7.38700 37.26600 37.46100
H  -8.34900 36.06000 38.10800
H  -6.64900 34.59400 37.69900
H  -5.55600 35.47900 38.76100
H  -6.53900 43.36400 39.44000
H  -6.84100 44.69200 40.59100
H  -7.71400 44.61200 38.99700
H  -11.97600 45.85800 40.37100
H  -11.17100 47.00900 41.35300
H  -11.68800 45.55200 42.20800
H  -14.79300 42.26700 41.10400
H  -14.93900 40.82300 43.73400
H  -13.80700 43.33600 43.63700
H  -15.56700 42.98200 43.60500
H  -14.85000 44.09700 42.47000
H  -16.23700 39.04300 42.08700
H  -16.50800 40.51800 41.09800
H  -18.50600 40.05900 42.51500
H  -17.80400 41.39900 43.26900
H  -17.56600 39.79800 43.93300
H  -13.79800 34.26000 42.26100
H  -14.65800 35.65500 42.91000
H  -13.51000 34.67200 43.94100
H  -9.07100 34.36200 40.09300
H  -6.07800 33.04000 42.57400
H  -5.48000 34.68900 41.95500
H  -5.12600 33.20400 41.09500

