158

Mg 49.59400 45.54200 42.86500
C  46.20700 45.19000 42.09300
C  49.99700 42.23600 41.97300
C  52.93700 45.87600 43.20900
C  49.26300 49.03000 43.00200
N  48.24400 43.91500 42.00100
C  46.87200 43.98300 41.92500
C  46.25000 42.69000 41.53200
C  47.44600 41.72400 41.59100
C  48.68300 42.62600 41.87600
C  47.21200 40.60100 42.64000
C  45.50000 42.69500 40.13800
C  46.08200 43.58000 38.98300
H  46.09400 42.92600 37.56400
N  51.25000 44.24400 42.70200
C  51.18000 42.92700 42.36200
C  52.52700 42.34700 42.47700
C  53.42000 43.43900 42.75000
C  52.53200 44.60500 42.84900
C  52.72200 40.94500 42.10100
C  54.89500 43.41500 42.77000
O  55.45700 42.34700 42.90400
C  55.88200 44.65800 42.78200
N  50.91200 47.18700 43.08300
C  52.25900 47.04500 43.22300
C  53.01700 48.38500 43.46400
C  51.78300 49.48500 43.38500
C  50.62800 48.53300 43.05800
C  53.87200 48.56300 44.71000
C  51.98000 50.54500 42.25100
C  51.96700 50.04600 40.80200
N  48.08000 46.88200 42.64700
C  48.03200 48.22700 42.72500
C  46.68600 48.75100 42.54700
C  45.92100 47.58100 42.26200
C  46.80000 46.46900 42.29400
C  46.24900 50.18500 42.64300
C  44.63100 47.01500 42.08200
O  43.57200 47.55200 42.09700
C  44.74000 45.46000 41.94600
C  43.82700 44.89500 42.96800
O  42.62100 44.71200 42.79400
O  44.43600 44.67400 44.17300
C  43.69000 44.13100 45.32900
H  50.28000 41.19000 41.83900
H  53.98100 46.08800 43.45000
H  49.05600 50.10200 43.01700
H  45.44800 42.52200 42.25200
H  47.57000 41.21500 40.63500
H  46.32700 40.79100 43.24700
H  48.07600 40.42200 43.28000
H  46.96300 39.68500 42.10300
H  44.51500 43.11800 40.33600
H  45.41500 41.64300 39.86700
H  47.06100 44.02500 39.16000
H  45.49200 44.47800 38.79900
H  52.54900 40.74000 41.04500
H  52.18400 40.27100 42.76800
H  53.79200 40.75400 42.18700
H  55.95900 45.01700 43.80900
H  55.43500 45.48200 42.22700
H  56.86900 44.38000 42.41100
H  53.63100 48.41300 42.56400
H  51.51300 49.88900 44.36100
H  54.92800 48.37300 44.51900
H  53.55100 47.92600 45.53500
H  53.73300 49.59200 45.04100
H  52.83400 51.21700 42.33500
H  51.19000 51.28300 42.39000
H  52.27900 49.00500 40.72100
H  52.73000 50.57600 40.23300
H  51.02200 50.21700 40.28600
H  45.23200 50.31300 42.27400
H  46.90400 50.72700 41.96100
H  46.43900 50.57600 43.64300
H  44.32900 45.23400 40.96200
H  43.34500 43.10300 45.21500
H  42.83200 44.76100 45.56300
H  44.38600 44.09500 46.16700
Mg 27.34200 50.52200 26.86700
C  25.05700 51.64800 29.45500
C  29.52000 49.67100 29.20900
C  29.31300 49.78500 24.34600
C  24.89700 51.75200 24.57800
N  27.24900 50.65200 29.05300
C  26.18500 50.94600 29.90500
C  26.59100 50.64400 31.31500
C  28.07300 50.19100 31.20200
C  28.28900 50.11500 29.74000
C  29.04700 51.25200 31.93300
C  25.74300 49.65300 32.15600
C  25.07500 50.08600 33.48600
H  25.91100 50.23800 34.68700
N  29.21600 49.84600 26.77100
C  29.94000 49.42200 27.84000
C  31.18000 48.78300 27.38600
C  31.20600 48.82900 25.96300
C  29.91300 49.52900 25.64000
C  32.10000 48.17500 28.32500
C  32.10300 48.23600 24.93700
O  31.90900 48.39100 23.75100
C  33.22100 47.42200 25.35000
N  27.19600 50.81300 24.77100
C  28.13200 50.31600 23.94100
C  27.68300 50.57800 22.48600
C  26.20700 50.88000 22.59000
C  26.01800 51.14800 24.09100
C  28.42700 51.67000 21.66400
C  25.18500 49.80400 22.07700
C  25.41200 48.34500 22.36600
N  25.50100 51.62900 26.98500
C  24.62500 52.09100 25.98100
C  23.59700 52.89300 26.55500
C  23.76600 52.70100 27.93300
C  24.87700 51.96100 28.12100
C  22.59100 53.71600 25.82100
C  23.11300 52.94900 29.19900
O  22.17000 53.59700 29.53200
C  24.00500 52.29800 30.24700
C  24.52900 53.40800 31.08500
O  25.58800 54.02400 30.90500
O  23.73700 53.46000 32.23800
C  24.03000 54.40000 33.28600
H  30.19000 49.27300 29.97400
H  29.91900 49.44800 23.50300
H  24.07700 52.04600 23.92000
H  26.50500 51.61200 31.80900
H  28.28000 49.17200 31.52800
H  28.54900 52.15100 32.29700
H  29.84800 51.54800 31.25600
H  29.59900 50.75400 32.72900
H  26.26300 48.70400 32.28400
H  24.95800 49.36700 31.45600
H  24.30700 49.40400 33.85200
H  24.70600 51.09100 33.28300
H  32.13500 47.08900 28.23900
H  31.82200 48.15400 29.37800
H  33.04900 48.70900 28.26300
H  33.61800 47.12100 24.38000
H  32.81800 46.49500 25.76000
H  33.93800 48.03700 25.89400
H  27.90200 49.61300 22.02900
H  25.87300 51.76200 22.04300
H  28.89800 51.22100 20.78900
H  29.26700 52.00900 22.27000
H  27.84600 52.57900 21.51300
H  25.17400 49.90500 20.99200
H  24.16900 50.06100 22.37500
H  25.76800 47.78600 21.50000
H  24.45400 47.91200 22.65500
H  26.08700 48.17300 23.20500
H  22.38800 53.17400 24.89700
H  23.00900 54.69700 25.59400
H  21.68800 53.89600 26.40400
H  23.46500 51.51300 30.77600
H  23.09900 54.91500 33.52500
H  24.76000 55.13800 32.95300
H  24.47600 53.87600 34.13200

