158

Mg 34.62000 3.18100 30.52900
C  32.21500 3.73000 33.07200
C  37.07800 3.46600 32.90000
C  36.83700 2.58500 28.16400
C  32.10300 3.54500 28.15600
N  34.57300 3.52400 32.67800
C  33.47500 3.54000 33.56200
C  33.92500 3.78500 35.03300
C  35.53000 3.95100 34.88200
C  35.75500 3.73200 33.37200
C  36.13500 5.20500 35.62000
C  33.48300 2.52000 35.80400
C  32.91800 2.81900 37.28200
H  33.58100 3.86800 38.19100
N  36.66500 2.90600 30.52500
C  37.47100 3.15200 31.63800
C  38.84700 2.87100 31.23600
C  38.82300 2.42000 29.85100
C  37.41900 2.64400 29.46200
C  40.00000 2.99500 32.22000
C  39.97900 1.90100 28.98300
O  39.73400 1.58900 27.84100
C  41.41000 1.69400 29.49500
N  34.40200 3.00700 28.46600
C  35.49900 2.81600 27.70100
C  35.12000 2.94100 26.18500
C  33.60100 3.30700 26.18600
C  33.33500 3.19900 27.65200
C  36.08800 3.92400 25.51900
C  32.72800 2.26600 25.46400
C  32.34500 0.88200 26.14500
N  32.56300 3.32700 30.51900
C  31.67200 3.59000 29.49500
C  30.37800 3.91300 29.98700
C  30.54200 3.92800 31.36900
C  31.92000 3.69800 31.67300
C  29.12400 4.11000 29.22400
C  29.83000 4.18900 32.57200
O  28.67100 4.45200 32.78100
C  30.92600 4.21400 33.69200
C  30.93200 5.58500 34.24900
O  31.36100 6.59200 33.73100
O  30.33900 5.45600 35.47400
C  30.54300 6.58300 36.35100
H  37.76400 3.60200 33.73900
H  37.37800 2.33000 27.25100
H  31.36600 3.93000 27.44800
H  33.45800 4.70700 35.37800
H  36.20600 3.24500 35.36500
H  36.00900 5.03200 36.68800
H  35.73900 6.16300 35.28200
H  37.21200 5.17600 35.45700
H  34.34000 1.89300 36.05000
H  32.73500 2.01600 35.19200
H  33.13800 1.89100 37.81000
H  31.82800 2.84500 37.28000
H  40.96300 3.14200 31.72900
H  39.96500 2.05000 32.76100
H  39.81100 3.87500 32.83500
H  41.90600 2.65000 29.66100
H  41.81700 1.04200 28.72200
H  41.34700 1.22700 30.47800
H  35.45000 2.02000 25.70400
H  33.35700 4.28500 25.77200
H  36.54100 3.38700 24.68500
H  36.75900 4.49400 26.16100
H  35.59600 4.75300 25.01100
H  33.19600 1.93600 24.53700
H  31.74200 2.71100 25.33100
H  31.29400 0.93800 26.42800
H  33.07800 0.69100 26.92900
H  32.26000 0.14900 25.34300
H  28.87700 5.17000 29.29400
H  28.27400 3.73600 29.79600
H  29.14700 3.95000 28.14600
H  30.53000 3.45500 34.36700
H  30.99800 6.20500 37.26600
H  29.55400 7.01500 36.50700
H  31.15300 7.40500 35.97600
Mg 42.66400 42.00700 26.13800
C  42.02800 44.29200 28.83100
C  44.25500 40.07400 28.38100
C  43.54900 40.16100 23.51400
C  41.44000 44.54000 23.95000
N  43.14700 42.28900 28.33700
C  42.72100 43.13600 29.22800
C  43.01800 42.74100 30.67800
C  43.85200 41.41500 30.51400
C  43.78400 41.25700 29.00700
C  45.40700 41.42700 31.07400
C  41.66900 42.54800 31.52400
C  41.55300 43.47000 32.76200
H  40.98800 42.79400 34.00000
N  43.64500 40.23600 26.00900
C  44.11700 39.53500 27.05700
C  44.61900 38.23300 26.55700
C  44.36000 38.25100 25.17900
C  43.76700 39.54800 24.80900
C  45.18900 37.14800 27.46300
C  44.58700 37.12000 24.18100
O  44.16900 37.18800 23.03400
C  45.27500 35.83100 24.65200
N  42.64200 42.35800 24.03400
C  42.94800 41.39300 23.17500
C  42.71200 41.71900 21.69600
C  41.84500 43.02500 21.86000
C  41.96100 43.31900 23.37700
C  44.02600 41.83000 20.86700
C  40.32600 42.77500 21.54400
C  39.64800 41.61300 22.27100
N  41.84900 43.98300 26.30400
C  41.42900 44.88000 25.30000
C  41.03000 46.15400 25.91800
C  41.14900 45.91300 27.31300
C  41.69000 44.62900 27.48900
C  40.68000 47.49500 25.22700
C  40.97100 46.50800 28.61600
O  40.58400 47.61500 28.95400
C  41.55000 45.49000 29.69200
C  42.59300 46.15600 30.45200
O  43.75200 46.14300 30.18300
O  42.08000 46.74200 31.55700
C  42.95800 47.27100 32.53800
H  44.85900 39.39200 28.98300
H  43.98800 39.51800 22.74800
H  40.98200 45.23700 23.24400
H  43.63700 43.50400 31.15000
H  43.44500 40.51000 30.96400
H  46.12600 41.19700 30.28800
H  45.56700 40.71200 31.88100
H  45.62400 42.40100 31.51300
H  41.63100 41.55200 31.96600
H  40.81000 42.72000 30.87500
H  40.89100 44.30100 32.52100
H  42.54500 43.90800 32.86500
H  46.27200 37.04100 27.52000
H  44.80500 36.14100 27.30100
H  44.66900 37.37700 28.39300
H  45.76600 35.46900 23.74900
H  44.59600 35.16700 25.18800
H  46.12900 35.88800 25.32600
H  42.15500 40.92400 21.20100
H  42.28000 43.79300 21.22100
H  44.18100 42.84600 20.50300
H  43.93000 41.16200 20.01100
H  44.91400 41.47200 21.38700
H  40.35200 42.38500 20.52700
H  39.81900 43.73500 21.64100
H  40.31600 41.21300 23.03400
H  39.33600 40.86400 21.54400
H  38.74700 42.04100 22.71000
H  40.04200 47.46600 24.34300
H  41.54400 48.12800 25.02200
H  40.14200 48.12800 25.93300
H  40.69900 45.07900 30.23700
H  43.32400 46.54900 33.26800
H  42.43600 48.07200 33.06100
H  43.74200 47.89400 32.10800

