158

Mg 23.22200 -5.36200 44.58700
C  24.71600 -2.37700 43.45400
C  20.19600 -4.22000 43.33100
C  21.99200 -8.42600 44.96100
C  26.37100 -6.47800 45.67600
N  22.53100 -3.49800 43.47600
C  23.28400 -2.37700 43.11400
C  22.43100 -1.21900 42.60700
C  21.00000 -1.80300 42.81200
C  21.17100 -3.24300 43.27000
C  20.20200 -0.86700 43.77500
C  22.83000 -0.82300 41.16100
C  23.73700 0.41900 40.87900
H  24.74800 0.32300 39.69400
N  21.33500 -6.18400 44.24600
C  20.19000 -5.58600 43.66200
C  19.11000 -6.52500 43.59100
C  19.57200 -7.78100 44.07100
C  21.05400 -7.52700 44.45900
C  17.66700 -6.11000 43.05000
C  18.68100 -9.02800 44.23100
O  17.49500 -8.92500 44.04000
C  19.28800 -10.22700 44.83700
N  24.11100 -7.22000 45.26800
C  23.36300 -8.35600 45.35900
C  24.21100 -9.51300 45.96000
C  25.62200 -8.80000 46.20300
C  25.34300 -7.38700 45.69100
C  23.64300 -10.26700 47.20600
C  26.85600 -9.42700 45.50700
C  28.09600 -9.45800 46.47500
N  25.15100 -4.62900 44.63400
C  26.33000 -5.17800 45.07900
C  27.41800 -4.22800 44.94700
C  26.84000 -3.11400 44.33000
C  25.43000 -3.42000 44.13700
C  28.87600 -4.46200 45.17900
C  27.11000 -1.87800 43.71000
O  28.24200 -1.38400 43.47700
C  25.81500 -1.30800 43.23900
C  25.59600 0.04000 43.90200
O  24.99700 0.24000 44.94800
O  26.26400 1.02900 43.17400
C  26.25300 2.41500 43.60300
H  19.23500 -3.84000 42.97900
H  21.61100 -9.41900 45.21000
H  27.35400 -6.83800 45.98900
H  22.60200 -0.32500 43.20700
H  20.37900 -1.89100 41.92000
H  20.80600 -0.00700 44.06200
H  20.15500 -1.51800 44.64900
H  19.20600 -0.51600 43.50500
H  21.90600 -0.48800 40.68800
H  23.24600 -1.66300 40.60400
H  24.27200 0.66500 41.79600
H  23.04300 1.24700 40.73700
H  17.29100 -6.87400 42.37000
H  17.71600 -5.20600 42.44400
H  16.93300 -6.00100 43.84700
H  18.51300 -10.99000 44.90200
H  19.77100 -10.08800 45.80400
H  20.05400 -10.63300 44.17500
H  24.39900 -10.27500 45.20400
H  25.72900 -8.58900 47.26700
H  24.21100 -9.98800 48.09400
H  23.54400 -11.33200 46.99700
H  22.63000 -9.93300 47.43000
H  27.09100 -8.72100 44.71100
H  26.63400 -10.35400 44.98000
H  28.75700 -10.26600 46.16400
H  27.93300 -9.58800 47.54500
H  28.69100 -8.58300 46.21400
H  29.16900 -5.13600 44.37500
H  29.09100 -5.00000 46.10300
H  29.39200 -3.52600 44.96700
H  25.75500 -1.06000 42.18000
H  25.59400 2.64400 44.44100
H  26.07900 3.07100 42.75000
H  27.29100 2.67300 43.81000
Mg 46.68300 17.17300 29.01500
C  45.09400 16.56700 32.20000
C  49.11900 18.94100 30.93800
C  47.97600 18.33200 26.23500
C  44.06000 15.67300 27.45700
N  47.14100 17.58900 31.37300
C  46.34600 17.18300 32.44900
C  46.85400 17.74200 33.80800
C  48.10700 18.53800 33.35900
C  48.16900 18.32100 31.77900
C  48.05600 20.03900 33.69900
C  47.22200 16.61900 34.86000
C  46.47700 16.87400 36.22300
H  46.30700 18.28900 36.67200
N  48.37600 18.43300 28.64300
C  49.25300 19.04600 29.53700
C  50.28200 19.78900 28.85900
C  50.03600 19.54700 27.42500
C  48.75600 18.76100 27.33500
C  51.43800 20.37300 29.46100
C  50.89800 19.84200 26.18600
O  50.71300 19.32000 25.08700
C  52.04400 20.79600 26.28900
N  46.24400 16.79400 27.16300
C  46.83700 17.51600 26.13200
C  46.14700 17.24400 24.76500
C  45.10200 16.11100 25.12700
C  45.14500 16.15600 26.67700
C  45.62600 18.57500 24.08900
C  45.39800 14.69100 24.60000
C  44.55300 14.38100 23.39700
N  44.98900 16.19300 29.64600
C  43.99300 15.57100 28.85000
C  42.94600 15.02500 29.78600
C  43.35600 15.41500 31.02100
C  44.57700 16.13200 30.97300
C  41.68700 14.42700 29.34300
C  42.96500 15.28800 32.47300
O  41.98200 14.77000 32.97300
C  44.00300 16.19500 33.26500
C  43.39000 17.42600 33.86000
O  42.78600 18.25300 33.23700
O  43.31800 17.25600 35.20100
C  42.36900 18.11200 35.94800
H  49.93400 19.44500 31.46200
H  48.30400 18.68400 25.25500
H  43.17000 15.33400 26.92100
H  46.00600 18.36000 34.10400
H  49.03100 18.12300 33.76300
H  48.00900 20.60300 32.76800
H  48.92400 20.30000 34.30400
H  47.16400 20.18800 34.30700
H  48.29400 16.58000 35.05500
H  46.86200 15.65500 34.50100
H  47.03100 16.40700 37.03700
H  45.49300 16.41800 36.11200
H  51.19700 20.50300 30.51600
H  51.71200 21.34500 29.05100
H  52.37400 19.86900 29.22200
H  52.85300 20.34900 26.86800
H  51.67100 21.68900 26.78900
H  52.42500 21.19900 25.35100
H  46.84600 16.77500 24.07300
H  44.14200 16.44400 24.73300
H  46.25600 19.42400 24.35800
H  44.58400 18.60000 24.40900
H  45.68200 18.51100 23.00200
H  45.20100 13.93000 25.35500
H  46.44000 14.67500 24.28200
H  45.21800 14.21100 22.55100
H  43.91200 15.20200 23.07400
H  43.95900 13.48000 23.54700
H  41.46100 14.78800 28.33900
H  40.93400 14.67000 30.09200
H  41.88600 13.36200 29.46200
H  44.43700 15.54000 34.02100
H  41.35300 17.82700 35.67500
H  42.42100 19.18400 35.75700
H  42.49900 17.93500 37.01500

