158

Mg -12.10300 37.73400 42.05800
C  -9.83200 35.30500 41.31800
C  -10.11900 40.19600 41.04800
C  -14.81200 39.92200 42.32600
C  -14.24000 35.18800 43.49800
N  -10.30100 37.67100 41.05800
C  -9.42900 36.58900 40.95700
C  -8.10300 37.06000 40.43100
C  -8.09600 38.59000 40.74600
C  -9.60200 38.85100 40.96700
C  -7.27100 38.92300 42.03500
C  -8.01700 36.74700 38.88600
C  -6.79000 35.79600 38.40100
H  -5.84700 36.41300 37.26100
N  -12.38400 39.82100 41.70300
C  -11.41500 40.66300 41.26300
C  -11.98700 41.97900 41.22500
C  -13.36900 41.86300 41.37400
C  -13.62600 40.49800 41.79000
C  -11.20100 43.18200 40.81500
C  -14.37400 42.99400 41.23300
O  -13.93300 44.17200 41.05000
C  -15.89500 42.86700 41.41100
N  -14.21500 37.52500 42.77800
C  -15.05600 38.61600 42.82700
C  -16.34100 38.31500 43.56100
C  -16.13900 36.81600 44.00100
C  -14.81600 36.48800 43.44500
C  -16.70400 39.33000 44.69700
C  -17.27000 35.80900 43.44900
C  -18.22300 35.13600 44.48600
N  -12.22100 35.56200 42.16900
C  -13.06600 34.69400 42.90700
C  -12.44500 33.38600 42.88700
C  -11.18400 33.53200 42.22800
C  -11.11400 34.90800 41.80100
C  -13.01300 32.23200 43.65300
C  -9.89200 32.97400 42.00000
O  -9.46300 31.86900 42.26100
C  -8.97500 34.09900 41.35100
C  -7.60500 34.22300 42.04000
O  -6.56300 33.92800 41.42400
O  -7.62500 34.81400 43.27600
C  -6.34500 34.96100 43.94600
H  -9.26400 40.85300 40.87600
H  -15.65600 40.60300 42.45100
H  -14.85300 34.45800 44.03100
H  -7.30700 36.52400 40.94800
H  -7.74000 39.25000 39.95600
H  -7.80400 39.44300 42.83100
H  -6.58700 39.70000 41.69400
H  -6.73200 38.04600 42.39400
H  -7.86800 37.69100 38.36300
H  -8.97600 36.36100 38.54000
H  -7.35300 34.97900 37.95000
H  -6.22700 35.36100 39.22700
H  -11.39000 43.43500 39.77100
H  -10.14000 42.96300 40.93600
H  -11.48700 43.99800 41.47900
H  -16.49800 43.61200 40.89200
H  -16.30200 42.83600 42.42100
H  -16.13600 41.94400 40.88300
H  -17.03300 38.33900 42.71800
H  -16.08500 36.70900 45.08500
H  -17.12800 38.73900 45.51000
H  -17.57000 39.85700 44.29700
H  -15.91700 40.05200 44.91200
H  -16.77300 35.12900 42.75700
H  -17.95700 36.39700 42.84100
H  -19.25500 35.35600 44.21300
H  -17.91200 35.54800 45.44600
H  -18.16100 34.04700 44.47800
H  -13.09000 31.33600 43.03700
H  -13.98700 32.41700 44.10500
H  -12.39300 31.90300 44.48700
H  -8.72400 33.87400 40.31400
H  -5.78600 35.78300 43.49800
H  -5.71300 34.09200 44.13000
H  -6.62500 35.31700 44.93800
Mg -11.91800 16.52700 42.58700
C  -8.58300 15.26400 42.06100
C  -10.94800 19.34900 40.89600
C  -15.05300 17.56100 42.90500
C  -12.70600 13.44800 43.89100
N  -9.99200 17.19500 41.48500
C  -8.75500 16.55100 41.42800
C  -7.76800 17.44800 40.56900
C  -8.67300 18.68700 40.20800
C  -9.91500 18.42900 41.03700
C  -7.96400 20.07600 40.33100
C  -7.25000 16.63300 39.33300
C  -5.74200 16.47700 39.20100
H  -5.08500 17.10000 37.96900
N  -12.91900 18.21100 41.87500
C  -12.36200 19.30300 41.29000
C  -13.31900 20.33700 41.15000
C  -14.47700 19.94000 41.83300
C  -14.24100 18.51900 42.15000
C  -12.99300 21.67100 40.51000
C  -15.73600 20.77000 42.02600
O  -15.86400 21.92400 41.54700
C  -16.88200 20.24400 42.75300
N  -13.68800 15.53400 43.02200
C  -14.80400 16.26800 43.31100
C  -15.77200 15.44400 44.14900
C  -15.01100 14.09400 44.42100
C  -13.68600 14.34300 43.69500
C  -16.36100 16.12300 45.41600
C  -15.76600 12.74300 43.89000
C  -15.61200 11.56800 44.87500
N  -10.88000 14.76800 43.05800
C  -11.33600 13.57400 43.60500
C  -10.25600 12.67500 43.93100
C  -9.10100 13.27200 43.28900
C  -9.58800 14.52400 42.74900
C  -10.40300 11.35600 44.56000
C  -7.65400 13.15700 42.92500
O  -6.82800 12.26700 43.17400
C  -7.25600 14.43600 42.11700
C  -6.18400 15.07000 42.89100
O  -6.31300 15.40800 44.02000
O  -4.94600 14.96800 42.27800
C  -3.67600 15.17200 43.02400
H  -10.77700 20.34900 40.49200
H  -16.09400 17.87800 42.99500
H  -13.07700 12.51000 44.30900
H  -6.96400 17.77000 41.23200
H  -8.90800 18.49900 39.16100
H  -8.24300 20.56300 41.26500
H  -8.23800 20.68600 39.47100
H  -6.88500 19.92000 40.31500
H  -7.72200 16.89500 38.38600
H  -7.58100 15.60400 39.46800
H  -5.44800 15.42800 39.18400
H  -5.31100 16.95100 40.08300
H  -13.82500 22.37300 40.56000
H  -12.80600 21.63000 39.43700
H  -12.13000 22.18500 40.93100
H  -17.64200 20.99500 42.97200
H  -16.61300 19.89100 43.74800
H  -17.32800 19.44000 42.16700
H  -16.56500 15.16500 43.45500
H  -14.86000 14.05700 45.49900
H  -16.13200 17.18200 45.29800
H  -16.03400 15.64900 46.34200
H  -17.44600 16.07600 45.50400
H  -15.21400 12.45400 42.99500
H  -16.81600 12.91800 43.65900
H  -16.53400 11.05600 45.15200
H  -15.27700 11.94200 45.84200
H  -15.01800 10.69300 44.61100
H  -10.36600 11.61100 45.61900
H  -9.61000 10.63500 44.36400
H  -11.36800 10.91400 44.31200
H  -6.97400 14.15600 41.10200
H  -2.90600 14.41300 42.88500
H  -3.93000 14.99400 44.06900
H  -3.23600 16.16800 42.97200

