158

Mg 41.48300 41.83500 26.79900
C  40.84200 44.23100 29.57400
C  42.48100 39.73100 29.24900
C  42.51500 39.81300 24.46600
C  41.18600 44.59000 24.59200
N  41.75700 42.05500 29.19700
C  41.30300 43.01400 30.08400
C  41.24600 42.46600 31.51600
C  41.80500 41.00100 31.34200
C  42.02700 40.90300 29.82100
C  43.14300 40.76600 32.06700
C  39.80600 42.52100 32.05500
C  39.59700 43.24600 33.38800
H  38.75600 42.50600 34.45400
N  42.29300 39.93800 26.78400
C  42.61100 39.26100 27.93800
C  43.13600 37.97300 27.57400
C  42.99900 37.84500 26.13500
C  42.60400 39.21700 25.72400
C  43.56700 36.96700 28.53900
C  43.23500 36.77800 25.13100
O  43.28500 36.94100 23.91500
C  43.53600 35.35900 25.69600
N  41.94700 42.23300 24.85600
C  42.22300 41.12700 24.02600
C  42.23700 41.56300 22.51300
C  41.72400 43.04900 22.63900
C  41.57800 43.31200 24.13600
C  43.57900 41.29900 21.75000
C  40.50600 43.43000 21.87700
C  39.23500 42.97200 22.49900
N  41.04600 43.94100 26.94900
C  40.97000 44.91000 25.99600
C  40.69400 46.15900 26.72800
C  40.51400 45.86700 28.07400
C  40.82500 44.53500 28.18700
C  40.36700 47.37300 25.93500
C  40.08300 46.54800 29.29000
O  39.70100 47.71000 29.48000
C  40.23600 45.43100 30.39300
C  41.11000 46.03200 31.33700
O  42.31800 46.06000 31.25500
O  40.41600 46.60500 32.36800
C  41.20200 47.06500 33.51500
H  42.68400 38.98300 30.01800
H  42.71700 39.18600 23.59600
H  40.96900 45.40500 23.89800
H  41.89200 43.10900 32.11400
H  41.09200 40.30000 31.77600
H  43.93900 40.34900 31.45100
H  42.89600 40.16800 32.94500
H  43.57700 41.72600 32.34700
H  39.40000 41.53900 32.29600
H  39.14400 42.92600 31.29000
H  38.97600 44.12900 33.23600
H  40.51800 43.65200 33.80600
H  44.17800 37.46000 29.29500
H  44.25600 36.24700 28.09800
H  42.69300 36.51900 29.01300
H  42.76800 35.32500 26.46800
H  44.52100 35.33600 26.16200
H  43.45500 34.67900 24.84800
H  41.35600 41.04400 22.13600
H  42.52500 43.60400 22.15000
H  43.34300 40.48300 21.06700
H  44.35900 41.01400 22.45600
H  43.69900 42.21700 21.17500
H  40.68100 42.90500 20.93800
H  40.37100 44.45300 21.52400
H  38.68200 42.46800 21.70500
H  38.54900 43.78700 22.73100
H  39.34600 42.19900 23.26000
H  40.64700 48.27800 26.47500
H  39.36400 47.48900 25.52500
H  41.03400 47.24700 25.08300
H  39.26700 45.18400 30.82800
H  42.09300 47.67900 33.37700
H  41.41100 46.13400 34.04100
H  40.44500 47.59600 34.09100
Mg 27.51400 51.20000 25.78600
C  25.72500 52.30900 28.69100
C  30.15900 50.25500 27.80800
C  29.01000 50.04300 23.09700
C  25.05100 52.73900 23.70900
N  27.86400 51.30900 28.02700
C  26.92800 51.67700 28.97300
C  27.64000 51.61200 30.43300
C  29.04100 50.97800 30.14000
C  29.00300 50.87200 28.52100
C  30.27900 51.80800 30.57000
C  26.82000 50.91300 31.53300
C  26.80500 51.48800 32.98000
H  25.74300 50.92100 33.97900
N  29.30400 50.21100 25.56700
C  30.29800 49.87300 26.48800
C  31.38500 49.11300 25.75700
C  30.99000 49.04300 24.41200
C  29.74100 49.74400 24.29000
C  32.58800 48.52200 26.56400
C  31.72500 48.26200 23.27800
O  31.25100 48.18400 22.16000
C  33.15700 47.76400 23.53900
N  27.10800 51.38800 23.71000
C  27.85700 50.78100 22.82100
C  27.09700 50.68900 21.49100
C  25.68300 51.26500 21.80800
C  25.97900 51.91900 23.12200
C  27.88000 51.43300 20.32400
C  24.58400 50.23400 21.99700
C  23.40400 50.25400 21.01800
N  25.79200 52.33300 26.06900
C  24.95600 52.88700 25.11100
C  23.98100 53.63700 25.85600
C  24.18500 53.36500 27.26500
C  25.30900 52.57800 27.35000
C  22.90200 54.48300 25.32400
C  23.66000 53.61300 28.54300
O  22.64800 54.26000 28.86400
C  24.64800 52.97800 29.52400
C  25.01100 53.98300 30.52200
O  25.99300 54.73900 30.40900
O  24.19100 53.84600 31.59600
C  24.50700 54.74700 32.72200
H  30.98300 49.92000 28.44100
H  29.50800 49.67200 22.19900
H  24.34600 53.20000 23.01300
H  27.75600 52.65400 30.72900
H  29.23500 49.98400 30.54300
H  30.00800 52.42800 31.42500
H  30.85900 52.38100 29.84700
H  30.93700 51.10200 31.07700
H  27.23000 49.91500 31.68600
H  25.85300 50.59500 31.14500
H  26.83900 52.57700 32.95100
H  27.78200 51.22000 33.38200
H  32.53900 48.52800 27.65300
H  33.56400 48.96000 26.35600
H  32.55800 47.47600 26.25600
H  32.91000 46.88300 24.13100
H  33.75800 48.50200 24.07100
H  33.65700 47.48800 22.61100
H  26.92400 49.61600 21.40700
H  25.41800 52.09100 21.14900
H  28.96100 51.53100 20.41900
H  27.47100 52.43100 20.16400
H  27.67500 50.84200 19.43100
H  24.16600 50.30100 23.00100
H  25.03300 49.24700 21.89400
H  23.75100 49.77400 20.10300
H  22.98200 51.24700 20.85700
H  22.69400 49.46100 21.25200
H  23.40100 55.21500 24.68800
H  22.44400 54.97900 26.17900
H  22.11600 53.88100 24.86700
H  24.11100 52.21100 30.08200
H  23.57100 54.72400 33.27900
H  24.83900 55.69700 32.30100
H  25.35800 54.22100 33.15500

