158

Mg 0.04900 7.77700 26.01100
C  1.15400 9.71600 28.56200
C  0.07000 4.98300 28.06300
C  -0.35000 5.85200 23.20500
C  0.60800 10.46500 23.84900
N  0.48200 7.41300 28.07300
C  0.84800 8.39500 28.95200
C  0.86500 7.78500 30.39400
C  0.74800 6.27800 30.10500
C  0.37500 6.20800 28.69900
C  2.07600 5.55000 30.42200
C  -0.42100 8.33800 31.11200
C  -0.40000 8.00800 32.62900
H  0.85700 7.95100 33.38200
N  -0.21200 5.67300 25.70300
C  -0.27300 4.73400 26.68900
C  -0.58700 3.46500 26.07400
C  -0.65500 3.63300 24.64300
C  -0.43100 5.11600 24.46900
C  -0.78500 2.18100 26.90100
C  -0.86200 2.60300 23.51000
O  -1.14600 2.80900 22.32600
C  -0.78200 1.13700 23.81700
N  0.25400 8.07900 23.77300
C  -0.00500 7.14800 22.86900
C  -0.23100 7.71600 21.44900
C  0.12200 9.22400 21.66500
C  0.31300 9.29500 23.15600
C  0.63200 7.12100 20.32500
C  -1.01400 10.23800 21.11900
C  -2.27500 10.43700 22.00400
N  0.68000 9.69300 26.09600
C  0.74800 10.70600 25.19000
C  1.12000 11.99600 25.79600
C  1.34200 11.64300 27.17700
C  1.07000 10.22800 27.29600
C  1.22900 13.30800 25.13900
C  1.64200 12.15800 28.37000
O  2.12000 13.25100 28.65200
C  1.50100 10.94700 29.40000
C  2.66600 10.76500 30.22600
O  3.75100 10.34300 29.86900
O  2.40700 11.21000 31.46000
C  3.52600 11.19900 32.42700
H  -0.07000 4.15800 28.76500
H  -0.51000 5.24900 22.30900
H  0.67500 11.29000 23.13700
H  1.76600 8.06100 30.94200
H  -0.03700 5.87200 30.74200
H  1.94300 5.02600 31.36900
H  2.84200 6.32500 30.44400
H  2.29100 4.84700 29.61800
H  -1.27200 7.86000 30.62700
H  -0.55700 9.41400 31.00100
H  -0.93000 7.06600 32.76900
H  -0.96500 8.74300 33.20200
H  -1.40100 2.36400 27.78200
H  0.18700 1.71400 27.06400
H  -1.30000 1.42800 26.30500
H  -1.61000 0.67400 24.35300
H  0.10700 0.97300 24.42600
H  -0.59500 0.60100 22.88600
H  -1.28000 7.54400 21.20700
H  1.06200 9.36900 21.13100
H  0.03200 6.45500 19.70500
H  1.46500 6.54000 20.72100
H  0.96800 7.80300 19.54300
H  -1.57900 9.91100 20.24600
H  -0.44100 11.16300 21.06200
H  -3.23700 10.38200 21.49500
H  -2.22000 11.40700 22.49900
H  -2.35300 9.67500 22.77900
H  0.60700 14.00300 25.70500
H  0.75700 13.17300 24.16600
H  2.29000 13.55200 25.17400
H  0.60100 11.23100 29.94500
H  3.41600 12.21900 32.79500
H  4.56900 11.12200 32.11800
H  3.35400 10.51500 33.25800
Mg -5.98700 25.02300 25.52200
C  -4.04700 26.23600 28.45100
C  -7.49200 22.75100 27.56600
C  -7.01400 23.33900 22.72800
C  -3.53700 26.63700 23.60300
N  -5.70300 24.55000 27.74900
C  -5.11600 25.33400 28.73500
C  -5.55900 24.89200 30.18800
C  -6.43200 23.61700 29.77700
C  -6.59600 23.63400 28.24900
C  -5.85000 22.25900 30.23500
C  -6.44400 25.90100 31.01600
C  -6.44000 25.72500 32.59300
H  -5.71700 24.58300 33.27000
N  -7.23700 23.38500 25.17100
C  -7.86900 22.62600 26.16900
C  -8.80100 21.76800 25.57200
C  -8.47700 21.70000 24.20600
C  -7.55800 22.84800 23.92700
C  -9.66500 20.75100 26.35100
C  -8.94900 20.73600 23.04500
O  -8.69700 20.96500 21.91000
C  -9.75900 19.57000 23.44400
N  -5.38500 25.05100 23.45700
C  -6.02800 24.27100 22.50200
C  -5.61500 24.74200 21.08500
C  -4.60700 25.88100 21.39100
C  -4.47700 25.88200 22.87900
C  -5.12300 23.61800 20.21500
C  -4.79900 27.36200 20.79100
C  -3.59400 28.09600 20.13800
N  -4.28200 26.30900 25.86400
C  -3.38000 26.81800 24.96400
C  -2.38000 27.54900 25.64500
C  -2.55900 27.37900 27.00100
C  -3.76100 26.62700 27.13000
C  -1.37700 28.45500 25.04600
C  -2.05300 27.77700 28.35500
O  -1.08300 28.42300 28.70200
C  -3.09400 27.09300 29.34600
C  -2.28700 26.16500 30.23700
O  -1.80900 25.06500 30.02000
O  -2.25400 26.80000 31.49200
C  -1.47400 26.08700 32.51300
H  -8.09200 22.09400 28.20000
H  -7.19100 22.66100 21.89000
H  -2.76800 27.06700 22.95900
H  -4.68200 24.67100 30.79600
H  -7.43500 23.75900 30.17900
H  -4.77400 22.38600 30.35700
H  -5.93600 21.56700 29.39700
H  -6.30000 21.90700 31.16300
H  -7.42900 25.79600 30.56100
H  -6.12300 26.92100 30.80500
H  -7.47900 25.96900 32.81500
H  -5.83400 26.56200 32.94100
H  -9.23700 19.77100 26.14000
H  -10.65000 20.96500 25.93400
H  -9.71500 20.93200 27.42400
H  -10.15600 18.94500 22.64400
H  -10.58900 19.90400 24.06600
H  -9.03900 18.86000 23.85100
H  -6.52200 25.25200 20.76200
H  -3.61000 25.67000 21.00400
H  -4.08400 23.76100 19.91600
H  -5.79200 23.57900 19.35600
H  -5.14300 22.70700 20.81400
H  -5.06500 27.96300 21.66100
H  -5.62200 27.32700 20.07800
H  -3.34200 28.93300 20.79000
H  -3.90400 28.44700 19.15400
H  -2.66400 27.52800 20.17000
H  -1.38700 28.50100 23.95700
H  -0.34500 28.25700 25.33500
H  -1.59400 29.44200 25.45500
H  -3.67000 27.90000 29.79900
H  -0.50000 25.93100 32.04800
H  -1.87300 25.20300 33.01000
H  -1.26900 26.78800 33.32200

