158

Mg 40.98000 9.39800 29.83500
C  42.92600 10.31400 32.57000
C  38.57800 8.41400 32.00800
C  39.23200 8.23800 27.33100
C  43.71700 10.07300 27.72200
N  40.87500 9.10500 32.05200
C  41.69000 9.75600 32.92500
C  41.02900 9.86900 34.33800
C  39.76900 8.89600 34.13600
C  39.69400 8.69600 32.66300
C  39.87700 7.58200 34.95800
C  40.75600 11.35700 34.77200
C  40.16000 11.50800 36.19700
H  41.13600 12.03800 37.29300
N  39.18100 8.50400 29.69000
C  38.24800 8.37500 30.65500
C  37.00500 7.75700 30.16600
C  37.35000 7.39700 28.78700
C  38.65100 8.04300 28.54100
C  35.89700 7.45400 31.03600
C  36.60400 6.59500 27.79900
O  37.02700 6.31300 26.68600
C  35.19700 5.91900 28.21100
N  41.37900 9.31800 27.73500
C  40.49200 8.71600 26.91600
C  41.10000 8.75900 25.39300
C  42.52900 9.22500 25.61500
C  42.58000 9.55900 27.11900
C  41.04200 7.35200 24.65800
C  42.98300 10.31600 24.54900
C  42.69700 11.72800 24.98800
N  42.96300 10.08900 30.05200
C  43.95000 10.33500 29.11000
C  45.13300 10.85000 29.77700
C  44.78400 10.89300 31.14400
C  43.44300 10.38900 31.21900
C  46.33200 11.44600 29.17700
C  45.18800 11.33400 32.42700
O  46.19400 11.94900 32.72600
C  44.05500 10.98700 33.35600
C  44.66000 10.07500 34.31900
O  44.75100 8.86700 34.14100
O  45.06800 10.78400 35.38300
C  45.72100 9.90600 36.37800
H  37.73800 8.17500 32.66300
H  38.89000 7.71300 26.43600
H  44.56700 10.20900 27.05000
H  41.69600 9.39800 35.06000
H  38.90100 9.52200 34.34600
H  39.89500 6.84500 34.15400
H  38.97400 7.58400 35.56800
H  40.74500 7.55200 35.61700
H  40.07700 11.76800 34.02500
H  41.64400 11.95900 34.57700
H  39.88600 10.48500 36.45700
H  39.34900 12.22800 36.08600
H  35.79200 8.20800 31.81700
H  35.88600 6.47000 31.50500
H  35.01700 7.58500 30.40600
H  35.37800 5.30700 29.09400
H  34.85600 5.22400 27.44300
H  34.40500 6.66500 28.13800
H  40.45800 9.47500 24.88000
H  43.26200 8.42000 25.57100
H  40.62300 6.58400 25.31000
H  41.96200 7.01500 24.18100
H  40.36800 7.44600 23.80700
H  42.56500 10.02700 23.58500
H  44.05100 10.26500 24.33500
H  41.75300 11.72600 25.53200
H  42.63900 12.40600 24.13700
H  43.50900 12.10100 25.61300
H  45.99500 11.93300 28.26200
H  46.97400 10.58700 28.97900
H  46.75700 12.21900 29.81700
H  43.73700 11.89300 33.87200
H  46.64700 9.45700 36.02000
H  45.03800 9.14500 36.75700
H  46.01000 10.55300 37.20600
Mg 54.84000 24.70500 43.54400
C  52.25100 27.08600 43.11800
C  52.71700 22.33400 42.44700
C  57.45000 22.55100 43.41000
C  57.02200 27.32800 44.25000
N  52.75700 24.71100 42.82200
C  51.88500 25.81300 42.73200
C  50.57600 25.34700 42.18600
C  50.64200 23.73600 42.23500
C  52.11100 23.58900 42.55600
C  49.76900 22.88200 43.13300
C  50.25400 25.89700 40.78500
C  51.41100 26.02400 39.79200
H  51.00800 25.84700 38.28100
N  55.04900 22.65700 43.05100
C  54.04400 21.89300 42.65100
C  54.54800 20.63000 42.52700
C  55.89800 20.58400 42.88100
C  56.21000 21.98400 43.18400
C  53.77000 19.43700 42.18000
C  56.77700 19.27800 43.03200
O  56.36800 18.12800 42.81900
C  58.22400 19.42100 43.44500
N  56.95500 24.94700 43.70400
C  57.76800 23.87600 43.78200
C  59.19700 24.26000 44.04400
C  59.12400 25.78200 44.25800
C  57.59700 26.09400 44.03200
C  59.68000 23.46400 45.29100
C  59.98300 26.78900 43.39400
C  59.53500 26.87800 41.90600
N  54.71700 26.79800 43.49800
C  55.61600 27.70900 44.04100
C  54.93400 28.94700 44.33600
C  53.63500 28.72200 44.00600
C  53.54600 27.46500 43.45300
C  55.58900 30.15200 44.94300
C  52.30700 29.33600 43.98000
O  51.97300 30.38200 44.39700
C  51.38500 28.38700 43.22200
C  50.90200 29.08500 41.96300
O  51.63100 29.34400 41.03400
O  49.53300 29.28900 41.99500
C  48.91600 29.53900 40.72800
H  52.03100 21.53700 42.15400
H  58.31000 21.89800 43.25000
H  57.72600 28.01100 44.73000
H  49.83400 25.77700 42.85800
H  50.46900 23.31100 41.24600
H  50.39300 22.51100 43.94600
H  49.31400 21.98400 42.71700
H  48.87500 23.31300 43.58400
H  49.72600 26.83500 40.95800
H  49.55800 25.19300 40.32900
H  52.28700 25.40700 39.99100
H  51.60700 27.09400 39.72900
H  54.24700 19.10800 41.25700
H  52.69500 19.59400 42.09600
H  53.93300 18.59000 42.84700
H  58.76400 18.49500 43.64100
H  58.38300 20.11300 44.27200
H  58.83000 19.77100 42.61000
H  59.71200 23.90700 43.15000
H  59.47000 26.06400 45.25300
H  60.30600 24.11600 45.89900
H  60.28300 22.66400 44.86000
H  58.96400 23.14200 46.04700
H  61.04500 26.74500 43.63800
H  59.91200 27.79900 43.79700
H  58.64300 27.45800 41.67100
H  59.33700 25.87900 41.51900
H  60.41800 27.12700 41.31600
H  56.58200 30.34800 44.54000
H  55.69300 30.01200 46.01900
H  55.08000 31.09700 44.75500
H  50.59800 28.24500 43.96300
H  48.81500 30.62000 40.63500
H  47.88500 29.20800 40.85400
H  49.37600 29.06200 39.86200

