158

Mg 0.11500 43.03900 26.63000
C  2.18600 42.86400 29.47500
C  -2.65700 42.44400 28.91400
C  -1.88100 42.33200 24.01900
C  2.96400 43.19200 24.61600
N  -0.25200 42.57100 28.91300
C  0.82500 42.73600 29.80900
C  0.28500 42.90700 31.24200
C  -1.17500 42.63200 31.05500
C  -1.39300 42.54600 29.52400
C  -1.75900 41.36600 31.80400
C  0.55300 44.38600 31.63200
C  1.04600 44.61400 33.07600
H  1.07500 43.43500 34.09900
N  -2.03500 42.51000 26.50500
C  -2.92800 42.44800 27.55200
C  -4.18800 42.42900 26.94800
C  -4.02600 42.38900 25.54200
C  -2.62800 42.38000 25.26200
C  -5.46600 42.34700 27.78100
C  -5.11900 42.34800 24.43100
O  -4.90100 42.23300 23.22500
C  -6.60300 42.32400 24.83700
N  0.45500 42.90000 24.68000
C  -0.48300 42.47600 23.79100
C  0.11100 42.37900 22.35900
C  1.48600 42.96600 22.52600
C  1.68600 43.03900 24.04900
C  -0.00100 40.92700 21.96900
C  1.64200 44.43900 21.97300
C  2.51300 44.61200 20.67300
N  2.07600 43.08700 26.95400
C  3.17500 43.13900 26.02000
C  4.43900 43.22900 26.71100
C  4.08600 43.09200 27.97500
C  2.62900 42.94300 28.16500
C  5.77900 43.34600 26.06900
C  4.60600 43.01400 29.31400
O  5.77500 42.96100 29.71700
C  3.42800 42.89400 30.30600
C  3.64900 41.61500 31.08500
O  3.15500 40.48300 30.98800
O  4.40200 42.13000 32.13500
C  4.50400 41.04700 33.13100
H  -3.47300 42.29800 29.62500
H  -2.46600 42.40600 23.10000
H  3.80500 43.10700 23.92400
H  0.87900 42.26400 31.89100
H  -1.83200 43.43300 31.39200
H  -1.32800 41.28800 32.80200
H  -1.39400 40.49800 31.25500
H  -2.83600 41.20000 31.83000
H  -0.38400 44.90500 31.43000
H  1.28200 44.81100 30.94300
H  0.53400 45.54300 33.32900
H  2.09700 44.87200 33.20800
H  -5.85400 43.34800 27.96600
H  -5.23300 41.88500 28.74100
H  -6.19500 41.71900 27.27000
H  -6.87700 41.34000 25.21800
H  -7.10300 42.52200 23.88900
H  -6.83400 43.12200 25.54200
H  -0.62500 42.90300 21.74800
H  2.25000 42.34500 22.05900
H  -0.31900 40.27900 22.78600
H  0.93300 40.48000 21.62800
H  -0.78500 40.92500 21.21200
H  2.01600 45.01100 22.82300
H  0.69800 44.91300 21.70400
H  3.49200 44.88500 21.06700
H  2.11200 45.42000 20.06200
H  2.66200 43.68300 20.12300
H  5.83500 42.56000 25.31700
H  6.66600 43.24300 26.69500
H  5.80500 44.27300 25.49600
H  3.38400 43.74700 30.98500
H  5.31600 40.34500 32.94000
H  3.59900 40.61000 33.55400
H  4.91300 41.56900 33.99600
Mg -12.72500 14.68300 41.88300
C  -9.29300 13.81700 41.63600
C  -11.98200 17.47000 40.15300
C  -15.92800 15.10100 41.62100
C  -13.19600 11.42500 43.39700
N  -10.83100 15.51100 41.04500
C  -9.55000 15.02500 41.02300
C  -8.59000 15.92000 40.15900
C  -9.46500 17.13600 39.85700
C  -10.89000 16.67600 40.37900
C  -8.91300 18.53800 40.37800
C  -8.03600 15.13800 38.87900
C  -6.44500 15.16500 38.76400
H  -6.03400 16.19700 37.60200
N  -13.81000 16.11200 40.97800
C  -13.38800 17.15400 40.27100
C  -14.54000 17.82000 39.65900
C  -15.69400 17.11200 40.06300
C  -15.19900 16.02900 40.93500
C  -14.43400 19.02000 38.68800
C  -17.09800 17.48600 39.65500
O  -17.26900 18.62400 39.23000
C  -18.26000 16.55000 39.79000
N  -14.36400 13.29600 42.30000
C  -15.58100 13.83300 42.17500
C  -16.58900 12.92700 42.95800
C  -15.75200 11.62300 43.22600
C  -14.36800 12.10200 43.01200
C  -17.03800 13.64700 44.25800
C  -16.02500 10.44900 42.28200
C  -16.02100 9.06100 42.85400
N  -11.51400 12.86300 42.42000
C  -11.83000 11.71300 43.06700
C  -10.59900 10.92800 43.26400
C  -9.64200 11.73500 42.73100
C  -10.20900 12.86900 42.21200
C  -10.65100 9.57600 43.90200
C  -8.20500 11.81300 42.46700
O  -7.29500 11.03200 42.73500
C  -7.97500 13.19500 41.73800
C  -7.08500 13.97400 42.58200
O  -7.42200 14.67200 43.54200
O  -5.79600 14.00500 42.01100
C  -4.87500 14.90000 42.74700
H  -11.80200 18.38300 39.58100
H  -17.00800 15.21300 41.73900
H  -13.23600 10.40700 43.79000
H  -7.75600 16.07500 40.84300
H  -9.77400 17.24100 38.81700
H  -8.01400 18.26600 40.93200
H  -9.64600 19.02200 41.02400
H  -8.56500 19.16600 39.55800
H  -8.39800 15.65700 37.99100
H  -8.26100 14.07200 38.83300
H  -6.02200 14.16100 38.74000
H  -6.00300 15.64500 39.63700
H  -14.33000 20.03300 39.07700
H  -15.25600 18.98600 37.97300
H  -13.53900 18.79200 38.10900
H  -17.95800 15.60600 39.33400
H  -19.04500 17.19300 39.39300
H  -18.49100 16.37900 40.84200
H  -17.43600 12.65400 42.32800
H  -15.81300 11.22800 44.24100
H  -16.77700 13.03500 45.12200
H  -18.08700 13.89900 44.41200
H  -16.39900 14.52400 44.35700
H  -15.37600 10.34600 41.41200
H  -17.02100 10.62000 41.87400
H  -17.08400 8.81800 42.84200
H  -15.57700 9.10200 43.84800
H  -15.50900 8.34800 42.20800
H  -11.53800 9.01100 43.61600
H  -10.71000 9.58100 44.99000
H  -9.76800 8.99200 43.64400
H  -7.48600 12.95600 40.79400
H  -5.22300 15.92300 42.60400
H  -3.86000 14.80700 42.36100
H  -4.73200 14.76300 43.81900

