158

Mg 0.89100 7.51200 25.47100
C  1.54800 9.73200 28.08400
C  0.97200 4.92600 27.75800
C  -0.08900 5.34600 23.04800
C  1.10000 10.08100 23.15800
N  1.04200 7.32400 27.64800
C  1.31400 8.41000 28.54400
C  1.32300 7.91200 30.01700
C  1.51800 6.41400 29.79800
C  1.13900 6.18200 28.36900
C  2.94600 5.73000 30.13600
C  0.01200 8.35200 30.78700
C  0.26400 8.40400 32.34500
H  1.29300 7.45700 33.03000
N  0.47800 5.43300 25.42500
C  0.51600 4.55100 26.47400
C  0.29500 3.19300 26.01900
C  -0.04500 3.27200 24.65800
C  0.15900 4.73200 24.32200
C  0.29500 1.93200 26.95700
C  -0.42500 2.18800 23.66700
O  -0.60700 2.40200 22.46900
C  -0.61400 0.77400 24.13200
N  0.65400 7.63400 23.30200
C  0.08500 6.67200 22.60500
C  -0.17400 7.12900 21.09200
C  0.14800 8.64000 21.17600
C  0.69000 8.78200 22.60700
C  0.65900 6.31700 20.03800
C  -1.10700 9.58600 20.93900
C  -0.72700 11.02400 20.57100
N  1.22000 9.50000 25.56400
C  1.39000 10.40500 24.53200
C  1.68300 11.73200 25.06300
C  1.74700 11.54400 26.48000
C  1.46400 10.18600 26.74400
C  1.82100 13.03900 24.27100
C  1.94900 12.18600 27.78100
O  2.12400 13.36000 28.09400
C  1.68800 11.03900 28.84000
C  2.79300 10.97100 29.80000
O  3.89500 10.50900 29.57600
O  2.44200 11.58000 30.97400
C  3.35200 11.51200 32.10700
H  1.23400 4.11900 28.44600
H  -0.47200 4.57200 22.38000
H  1.12700 10.82600 22.36100
H  2.10300 8.53000 30.46100
H  0.75100 5.82700 30.30300
H  3.40100 6.22000 30.99700
H  3.54700 5.73100 29.22700
H  2.66300 4.71900 30.42800
H  -0.83800 7.69000 30.62100
H  -0.36600 9.32000 30.45900
H  -0.71600 8.19200 32.77200
H  0.59000 9.41300 32.59700
H  0.33100 0.96700 26.45200
H  -0.62700 1.83300 27.53000
H  1.12700 1.99900 27.65800
H  0.28500 0.29900 24.52400
H  -0.84300 0.13100 23.28300
H  -1.47000 0.64400 24.79500
H  -1.19300 6.94400 20.75000
H  0.93700 8.86800 20.45800
H  -0.16100 6.13200 19.34300
H  1.00500 5.31600 20.29900
H  1.42300 6.92900 19.55800
H  -1.65300 9.72700 21.87200
H  -1.79500 9.17800 20.19900
H  -0.93300 11.75500 21.35300
H  -1.43200 11.19800 19.75800
H  0.25400 11.19000 20.12700
H  0.97900 13.25700 23.61300
H  2.73200 12.99700 23.67300
H  2.16500 13.90300 24.83900
H  0.77000 11.25200 29.38800
H  2.75900 11.52000 33.02100
H  3.93800 12.42900 32.04500
H  3.85400 10.54800 32.19300
Mg 17.47000 -1.47100 27.22000
C  16.33400 0.58300 29.78100
C  19.47900 -3.15200 29.35800
C  18.77600 -2.95300 24.43100
C  15.96000 0.90900 24.93000
N  17.87200 -1.32700 29.34200
C  17.23600 -0.47500 30.18100
C  17.60100 -0.87200 31.65700
C  18.86400 -1.85200 31.50300
C  18.82900 -2.10300 29.99300
C  20.24800 -1.44300 32.02700
C  16.36300 -1.33600 32.47200
C  16.16200 -0.56400 33.70900
H  17.33600 -0.12800 34.63900
N  18.83200 -3.05800 26.92600
C  19.51800 -3.59800 27.99200
C  20.38700 -4.60300 27.33900
C  20.19200 -4.62900 25.96800
C  19.23000 -3.52700 25.71000
C  21.31400 -5.44400 28.22100
C  20.87800 -5.47700 24.95100
O  20.68700 -5.24100 23.74900
C  21.90700 -6.48900 25.36800
N  17.26200 -1.15900 24.86900
C  17.97300 -1.84100 24.04100
C  17.83300 -1.35500 22.58000
C  16.88500 -0.16100 22.79900
C  16.68300 -0.07800 24.31600
C  19.21900 -0.92500 22.00500
C  15.49200 -0.38200 22.10500
C  15.24100 0.52000 20.88800
N  16.22000 0.18900 27.28400
C  15.71400 1.06700 26.31200
C  14.94300 2.10200 26.94600
C  15.20400 1.93700 28.30500
C  15.94100 0.79600 28.47200
C  14.11800 3.22800 26.38100
C  14.88600 2.52500 29.51600
O  14.07700 3.41500 29.84200
C  15.72500 1.70000 30.59100
C  16.69000 2.44900 31.41000
O  17.89600 2.61200 31.13500
O  15.95800 2.99800 32.45500
C  16.70500 3.87600 33.35700
H  20.03400 -3.62300 30.17200
H  19.13700 -3.50100 23.55800
H  15.54200 1.69300 24.29400
H  18.10300 -0.04000 32.15100
H  18.60600 -2.80800 31.95700
H  21.04500 -1.42000 31.28400
H  20.55800 -2.22000 32.72700
H  20.22900 -0.48800 32.55200
H  16.34300 -2.41400 32.63100
H  15.46100 -1.19500 31.87700
H  15.49400 -1.09900 34.38300
H  15.64600 0.31600 33.32400
H  20.95500 -5.33700 29.24400
H  22.37800 -5.23300 28.11600
H  21.20400 -6.50300 27.98500
H  22.76400 -5.88900 25.67700
H  21.99700 -7.07800 24.45600
H  21.54400 -7.19800 26.11100
H  17.47900 -2.07000 21.83800
H  17.27600 0.82200 22.53700
H  19.45500 0.12300 21.82200
H  19.49200 -1.46600 21.09800
H  19.98700 -1.17600 22.73700
H  14.74700 -0.08000 22.84100
H  15.22900 -1.38500 21.76700
H  15.11000 -0.09400 19.99600
H  16.06100 1.17800 20.60100
H  14.36700 1.13500 21.10300
H  14.85800 3.93400 26.00400
H  13.57200 3.71700 27.18800
H  13.41600 2.85300 25.63700
H  14.91500 1.32500 31.21700
H  16.48300 4.91800 33.12500
H  17.78000 3.84500 33.18500
H  16.54500 3.85100 34.43500

