158

Mg 17.21700 -2.86700 28.01600
C  16.58700 -0.73900 30.82200
C  18.69100 -4.99300 30.26900
C  18.21500 -4.65500 25.27600
C  16.21100 -0.30300 25.87700
N  17.47300 -2.81200 30.44300
C  17.27800 -1.82000 31.31600
C  17.83500 -2.11500 32.70100
C  18.70100 -3.34000 32.28600
C  18.27200 -3.80300 30.93100
C  20.28000 -3.21800 32.37100
C  16.67700 -2.34400 33.73000
C  16.76000 -1.51100 34.98400
H  18.16600 -1.19600 35.58900
N  18.24500 -4.63000 27.80200
C  18.75100 -5.35000 28.86900
C  19.34300 -6.52300 28.32200
C  19.21900 -6.44600 26.91400
C  18.50800 -5.16700 26.58400
C  19.71600 -7.67400 29.22800
C  19.57200 -7.46000 25.89400
O  19.39400 -7.23600 24.67300
C  20.18100 -8.80800 26.13900
N  16.90000 -2.60000 25.72000
C  17.60100 -3.40000 24.86400
C  17.68500 -2.69600 23.50400
C  16.87500 -1.36900 23.69800
C  16.67500 -1.39700 25.19200
C  19.15300 -2.33400 22.99700
C  15.54200 -1.35800 22.86300
C  14.14700 -1.52900 23.59300
N  16.47500 -0.94500 28.20400
C  15.95800 -0.13500 27.25600
C  15.22300 0.96200 27.95000
C  15.50300 0.74300 29.31000
C  16.27400 -0.38700 29.43200
C  14.36900 1.95800 27.29400
C  15.23900 1.25400 30.60100
O  14.72000 2.31600 30.97500
C  15.97900 0.38700 31.63000
C  16.99100 1.31100 32.24400
O  18.06500 1.57800 31.74200
O  16.46600 1.96100 33.27900
C  17.24200 3.09200 33.86400
H  19.15200 -5.69700 30.96500
H  18.63500 -5.15800 24.40300
H  15.96300 0.53800 25.22700
H  18.52000 -1.32400 33.00500
H  18.36100 -4.22900 32.81700
H  20.75600 -3.62300 31.47800
H  20.62100 -3.75700 33.25500
H  20.61100 -2.19500 32.55100
H  16.67200 -3.40600 33.97400
H  15.80600 -2.06800 33.13700
H  16.10700 -2.04700 35.67300
H  16.25200 -0.58100 34.72800
H  20.80200 -7.75800 29.18000
H  19.28400 -8.62200 28.90600
H  19.50400 -7.47600 30.27800
H  20.48300 -9.31500 25.22200
H  19.34400 -9.24600 26.68300
H  21.12200 -8.82600 26.68900
H  17.17400 -3.35000 22.79700
H  17.37800 -0.45400 23.38600
H  19.10700 -1.73500 22.08800
H  19.72200 -3.25200 22.85000
H  19.65000 -1.72600 23.75300
H  15.59100 -1.93000 21.93600
H  15.49100 -0.29600 22.62600
H  13.44000 -1.70800 22.78300
H  13.91900 -0.57400 24.06600
H  14.06600 -2.33500 24.32200
H  14.33400 1.64900 26.25000
H  14.69500 2.99700 27.35000
H  13.39600 1.84000 27.77100
H  15.31200 0.04400 32.42100
H  17.84800 2.67800 34.67000
H  16.52700 3.70300 34.41500
H  17.74400 3.62200 33.05400
Mg -5.61500 24.93900 26.48500
C  -3.75400 26.26200 29.07000
C  -7.09200 22.75500 28.72500
C  -7.09900 23.37100 23.79200
C  -3.77600 27.02700 24.20700
N  -5.45500 24.58200 28.67900
C  -4.67000 25.31800 29.51600
C  -5.14100 25.09000 31.02200
C  -6.02100 23.80400 30.88000
C  -6.22800 23.67200 29.36600
C  -5.38900 22.54500 31.50900
C  -5.74800 26.40200 31.49000
C  -5.31000 26.93200 32.89900
H  -5.06200 25.98600 34.05000
N  -7.02900 23.39500 26.24700
C  -7.45000 22.59400 27.28300
C  -8.42800 21.51400 26.71800
C  -8.44200 21.75200 25.38300
C  -7.50300 22.90000 25.08500
C  -9.10100 20.50700 27.59100
C  -9.24300 21.02800 24.32500
O  -9.30300 21.42700 23.19600
C  -10.19400 19.89500 24.65600
N  -5.59200 25.20900 24.37300
C  -6.19900 24.43200 23.44800
C  -6.00900 24.88700 21.99600
C  -5.28800 26.26200 22.25800
C  -4.81000 26.24400 23.65700
C  -5.12700 23.90300 21.10600
C  -6.19600 27.44400 21.98700
C  -6.17800 27.93500 20.49000
N  -3.93400 26.26600 26.57300
C  -3.33000 27.08600 25.59200
C  -2.24600 27.77800 26.21900
C  -2.43000 27.52400 27.58400
C  -3.46200 26.62300 27.76200
C  -1.25500 28.63700 25.52600
C  -1.91400 27.83300 28.81700
O  -0.95200 28.51100 29.17100
C  -2.84200 27.19500 29.90400
C  -2.06700 26.37100 30.87600
O  -1.82300 25.16600 30.75100
O  -1.67100 27.17000 31.92800
C  -0.79300 26.43100 32.89300
H  -7.58700 22.20400 29.52700
H  -7.43900 22.78100 22.93800
H  -3.46800 27.71200 23.41500
H  -4.26700 24.80500 31.60600
H  -7.03700 23.99000 31.22700
H  -5.08400 22.68300 32.54700
H  -4.44600 22.44200 30.97200
H  -6.02200 21.66100 31.43200
H  -6.83500 26.32500 31.50400
H  -5.52300 27.15300 30.73300
H  -6.00000 27.71400 33.21600
H  -4.37500 27.47800 32.77300
H  -10.13600 20.41900 27.26000
H  -9.00800 20.70900 28.65800
H  -8.60900 19.54900 27.42100
H  -10.53500 19.51900 23.69200
H  -11.07900 20.35800 25.09400
H  -9.81500 19.02300 25.18900
H  -6.99600 24.96000 21.53800
H  -4.37600 26.40600 21.67700
H  -5.58700 23.53600 20.18800
H  -4.94900 22.94000 21.58300
H  -4.15700 24.33000 20.85100
H  -5.79100 28.31100 22.50900
H  -7.22900 27.34400 22.32100
H  -5.58100 28.84000 20.38100
H  -7.23500 27.97800 20.22700
H  -5.81300 27.17200 19.80200
H  -1.79000 29.12200 24.71000
H  -0.44700 27.98800 25.18700
H  -0.67400 29.22900 26.23400
H  -3.40700 27.90300 30.51000
H  0.16200 26.16100 32.44400
H  -1.23900 25.45700 33.09700
H  -0.67700 27.02800 33.79800

