158

Mg 54.08000 23.89000 44.87700
C  51.82400 26.45600 43.74800
C  51.78000 21.60500 43.75400
C  56.41800 21.73600 45.29700
C  56.22200 26.53800 46.04500
N  52.06700 24.04200 43.69800
C  51.38900 25.18800 43.44100
C  50.05600 24.81900 42.75500
C  49.76900 23.42100 43.33200
C  51.30400 22.95800 43.63200
C  48.86800 23.46200 44.57000
C  50.09400 24.81800 41.21400
C  48.77500 25.27300 40.51200
H  48.31600 24.46300 39.29600
N  54.10900 21.90400 44.44200
C  53.06200 21.13300 44.13000
C  53.43400 19.73800 44.32300
C  54.83200 19.67400 44.66000
C  55.22600 21.16400 44.80600
C  52.51400 18.47800 43.85200
C  55.65800 18.40600 44.90400
O  55.17000 17.31000 44.85900
C  57.14100 18.50400 45.06400
N  56.15200 24.15800 45.40300
C  56.84300 23.03300 45.73100
C  58.22700 23.25300 46.28100
C  58.07500 24.80700 46.62200
C  56.70600 25.25100 45.99900
C  58.72200 22.39300 47.37500
C  59.27400 25.53000 45.95900
C  60.53400 25.64900 46.87700
N  54.05300 26.04700 44.99400
C  54.92800 26.90400 45.53600
C  54.26200 28.21500 45.65400
C  53.03900 28.09500 44.96000
C  52.99400 26.76700 44.49900
C  54.87600 29.44700 46.19900
C  51.82300 28.82500 44.46100
O  51.46800 29.99300 44.62100
C  50.98100 27.72900 43.67000
C  50.80200 28.27100 42.26200
O  51.70300 28.27400 41.41700
O  49.50000 28.69700 42.07900
C  49.10600 29.23300 40.76900
H  51.03400 20.84000 43.52700
H  57.12700 21.04600 45.75700
H  56.73900 27.41500 46.43900
H  49.26100 25.48300 43.09100
H  49.10100 22.85000 42.68800
H  48.06600 22.73600 44.43500
H  48.34300 24.38900 44.79700
H  49.38600 23.06000 45.44100
H  50.26700 23.81500 40.82500
H  50.94900 25.44600 40.96400
H  48.97600 26.30300 40.21800
H  47.96500 25.16200 41.23300
H  52.56900 18.41600 42.76500
H  51.48000 18.69200 44.12400
H  52.64300 17.44200 44.16500
H  57.55600 17.50800 44.91200
H  57.29800 18.88000 46.07500
H  57.41700 19.12400 44.21100
H  58.98300 23.03200 45.52700
H  58.22600 25.05900 47.67200
H  59.44500 21.74600 46.87900
H  57.94300 21.77100 47.81600
H  59.13000 23.05000 48.14400
H  59.01500 26.56700 45.74300
H  59.59500 25.06200 45.02800
H  60.52700 25.38000 47.93400
H  60.81400 26.70200 46.85200
H  61.41900 25.17200 46.45600
H  54.15700 30.26700 46.20500
H  55.69900 29.64800 45.51300
H  55.12100 29.19600 47.23100
H  49.98600 27.74600 44.11400
H  49.76200 29.99900 40.35400
H  48.08000 29.59900 40.77000
H  49.14100 28.41500 40.05000
Mg 48.84600 47.06800 42.20600
C  45.44900 47.53500 41.42900
C  48.57200 43.92700 40.70100
C  52.00500 46.66600 42.71300
C  49.00000 50.46500 43.25600
N  47.22600 45.97000 41.00400
C  45.93800 46.29500 40.95200
C  45.14200 45.31600 40.11200
C  46.12600 44.14700 40.00400
C  47.40600 44.71000 40.60800
C  45.51200 42.80700 40.64100
C  44.62500 45.98000 38.85100
C  43.12100 45.83700 38.58700
H  42.65200 45.40500 37.27500
N  50.14300 45.49600 41.67700
C  49.86500 44.29300 41.10800
C  51.02400 43.44500 41.13100
C  52.06800 44.19700 41.76600
C  51.43600 45.50200 42.13300
C  51.04300 42.05200 40.58600
C  53.52700 43.73200 42.09900
O  53.85800 42.64100 41.68900
C  54.51400 44.52900 42.80500
N  50.34800 48.45200 42.55500
C  51.54400 47.96500 42.90500
C  52.47000 49.08000 43.21500
C  51.52200 50.30100 43.49200
C  50.20500 49.75100 43.12300
C  53.37700 48.81000 44.40600
C  51.87900 51.63800 42.75700
C  52.27900 52.81500 43.65200
N  47.54100 48.72400 42.38900
C  47.76300 50.00200 42.90400
C  46.44600 50.69400 43.08200
C  45.53100 49.70100 42.55800
C  46.21900 48.58100 42.08100
C  46.28800 52.09600 43.61400
C  44.10400 49.43800 42.23100
O  43.12600 50.09000 42.50000
C  44.06800 48.11100 41.46000
C  43.13700 47.25600 42.21800
O  43.40500 46.85100 43.38500
O  41.97600 46.87600 41.56700
C  41.13200 45.91900 42.29500
H  48.39900 42.90700 40.35000
H  53.03700 46.44300 42.99400
H  48.94000 51.49800 43.60700
H  44.27500 45.07500 40.72800
H  46.43400 43.84300 39.00400
H  44.53600 42.60500 40.20000
H  45.25500 42.89000 41.69700
H  46.09800 41.91900 40.40400
H  44.99900 45.43300 37.98600
H  45.00000 46.99100 38.68800
H  42.68000 46.80400 38.82700
H  42.85800 45.08800 39.33400
H  51.34900 42.05700 39.54000
H  50.04500 41.64500 40.74800
H  51.75100 41.49600 41.20200
H  54.78700 45.42200 42.24300
H  55.44000 43.96100 42.89100
H  54.19300 44.81100 43.80800
H  53.13700 49.19300 42.36100
H  51.60000 50.59500 44.53900
H  53.43400 49.58800 45.16700
H  54.41100 48.75100 44.06600
H  53.00400 47.91600 44.90500
H  51.09600 52.08800 42.14700
H  52.81800 51.46000 42.23100
H  53.35100 53.01700 43.65500
H  52.01100 52.63300 44.69200
H  51.70600 53.68800 43.34100
H  45.28700 52.47500 43.82100
H  46.78400 52.68600 42.84400
H  46.83300 52.16600 44.55600
H  43.61800 48.25700 40.47900
H  40.19000 46.11400 41.78300
H  41.01800 46.08600 43.36600
H  41.37900 44.87200 42.11500

