158

Mg 16.92400 -1.68000 28.61900
C  15.69200 0.63800 30.95200
C  18.92100 -3.03600 31.08900
C  18.53100 -3.42800 26.17700
C  15.44700 0.30500 26.10800
N  17.38800 -1.00800 30.75200
C  16.59200 -0.20000 31.53200
C  16.97200 -0.26600 33.01700
C  18.07600 -1.43100 32.96000
C  18.16500 -1.87600 31.49700
C  19.51700 -1.11600 33.39400
C  15.74700 -0.55400 33.95600
C  15.98700 -0.99500 35.45200
H  17.17000 -0.60200 36.26400
N  18.43300 -3.19800 28.62000
C  19.11700 -3.58900 29.76900
C  20.08600 -4.59300 29.37900
C  19.98600 -4.70700 27.90600
C  18.92000 -3.77000 27.51700
C  20.96400 -5.34300 30.35900
C  20.68100 -5.60700 26.99400
O  20.61500 -5.56800 25.77800
C  21.67600 -6.62600 27.54800
N  16.96000 -1.52100 26.45900
C  17.75700 -2.33000 25.73200
C  17.58600 -2.04000 24.16300
C  16.41000 -1.10500 24.16600
C  16.21700 -0.74800 25.67900
C  18.85800 -1.49600 23.44600
C  15.11900 -1.73000 23.49900
C  14.12800 -0.73100 22.88400
N  15.61700 0.01700 28.49600
C  15.11200 0.65200 27.44500
C  14.24800 1.72300 27.89600
C  14.34800 1.63100 29.27400
C  15.33400 0.69400 29.57100
C  13.38500 2.74600 27.10600
C  13.97800 2.29400 30.52100
O  13.26600 3.27600 30.73400
C  14.69700 1.51200 31.67800
C  15.39100 2.49800 32.46300
O  16.49000 2.98600 32.15400
O  14.70600 2.81800 33.64300
C  15.46600 3.70100 34.56500
H  19.24800 -3.68400 31.90500
H  18.83800 -3.99700 25.29700
H  14.90200 0.96200 25.42700
H  17.47300 0.66600 33.27800
H  17.78300 -2.35200 33.46200
H  19.59500 -0.91500 34.46300
H  20.04500 -0.29300 32.91200
H  20.10200 -2.01500 33.20100
H  15.20700 -1.39300 33.51600
H  15.10400 0.30700 34.13800
H  16.11100 -2.07200 35.33800
H  15.11100 -0.97900 36.10000
H  21.98200 -4.99200 30.18900
H  21.03000 -6.41200 30.15800
H  20.76900 -5.19100 31.42100
H  22.29900 -7.16100 26.83100
H  21.02700 -7.38500 27.98400
H  22.32500 -6.08000 28.23300
H  17.29700 -3.03100 23.81200
H  16.55100 -0.20900 23.56100
H  18.90300 -0.40900 23.50800
H  18.73300 -1.77400 22.40000
H  19.73500 -2.02400 23.82000
H  14.72500 -2.17100 24.41500
H  15.25700 -2.49000 22.73000
H  14.08000 -0.94100 21.81600
H  14.36700 0.32900 22.97200
H  13.12200 -0.88800 23.27100
H  14.04600 3.05900 26.29800
H  13.18800 3.57900 27.78100
H  12.45900 2.28000 26.76900
H  13.96600 0.88700 32.19200
H  16.53600 3.82900 34.39900
H  15.36900 3.30200 35.57400
H  14.95300 4.66200 34.59900
Mg 35.96400 2.25200 29.60800
C  33.67000 3.15100 32.14200
C  38.37700 2.24600 32.02700
C  38.18200 1.76800 27.19300
C  33.49800 2.73600 27.20100
N  35.92300 2.60700 31.95200
C  34.93100 2.96400 32.75600
C  35.29300 2.88200 34.18600
C  36.87000 2.81400 34.07700
C  37.05800 2.52000 32.57100
C  37.50300 4.18200 34.59800
C  34.58800 1.66100 34.91200
C  34.64600 1.61700 36.44000
H  34.91900 2.96600 37.14400
N  38.00200 2.16500 29.57900
C  38.81700 2.07300 30.70600
C  40.20300 1.76500 30.24500
C  40.14200 1.62200 28.82400
C  38.74800 1.88900 28.45600
C  41.36100 1.59600 31.15900
C  41.25100 1.27200 27.80500
O  41.07800 1.24800 26.56100
C  42.60900 1.07000 28.29300
N  35.75500 2.05700 27.50200
C  36.87700 1.86900 26.67700
C  36.57200 1.96700 25.18700
C  34.99000 1.88300 25.24400
C  34.64400 2.21400 26.73800
C  37.05300 3.28700 24.53300
C  34.31800 0.51400 24.81100
C  33.14600 0.56300 23.82000
N  34.00800 2.71300 29.66100
C  33.11800 2.93000 28.55400
C  31.82400 3.21500 29.07700
C  32.03300 3.34800 30.42900
C  33.37500 3.09600 30.75400
C  30.49900 3.40600 28.37600
C  31.30700 3.61200 31.70300
O  30.09400 3.73600 31.92700
C  32.41800 3.61400 32.83100
C  32.43700 4.88600 33.45400
O  32.93200 5.87500 33.02500
O  31.59400 4.84500 34.53300
C  31.64900 5.87600 35.59600
H  39.19800 2.31600 32.74300
H  38.82300 1.61800 26.32200
H  32.68100 2.88700 26.49200
H  34.92800 3.77100 34.69900
H  37.29500 1.94800 34.58300
H  37.99300 4.79100 33.83800
H  38.25200 3.96000 35.35800
H  36.71300 4.81400 35.00100
H  35.17300 0.83200 34.51500
H  33.57200 1.47100 34.56500
H  35.47500 0.93700 36.63200
H  33.64600 1.26200 36.68800
H  42.32800 1.69300 30.66600
H  41.36600 0.60800 31.62100
H  41.29200 2.35300 31.94000
H  42.87600 2.03600 28.71900
H  43.27900 0.85200 27.46100
H  42.54000 0.27900 29.04000
H  37.19400 1.14000 24.84400
H  34.54300 2.63400 24.59200
H  36.24300 3.95000 24.23000
H  37.58700 3.11600 23.59800
H  37.65400 3.78000 25.29700
H  34.03100 -0.01900 25.71700
H  35.04800 -0.19100 24.41500
H  32.95300 1.51800 23.33100
H  32.23300 0.28500 24.34600
H  33.42100 -0.17600 23.06700
H  30.27000 2.52000 27.78400
H  30.69600 4.24800 27.71100
H  29.78700 3.67700 29.15500
H  32.03400 2.95000 33.60500
H  31.96800 5.41900 36.53300
H  30.62500 6.14400 35.85700
H  32.24000 6.77900 35.43800

