158

Mg 1.41700 8.07500 26.31500
C  1.95200 10.20500 29.00700
C  1.72100 5.45700 28.55300
C  0.83800 6.02600 23.82000
C  1.56300 10.80600 24.09000
N  1.83300 7.89000 28.59100
C  1.78700 8.95000 29.50300
C  1.84900 8.45900 30.98300
C  2.02900 6.86100 30.76900
C  1.80400 6.72300 29.23500
C  3.29900 6.14900 31.38000
C  0.64500 8.95900 31.79900
C  1.15200 9.64500 33.09500
H  2.10100 8.87300 34.02300
N  1.39600 6.05600 26.15800
C  1.55400 5.14900 27.18300
C  1.42600 3.78200 26.66500
C  1.13600 3.96700 25.27000
C  1.10700 5.41800 25.01700
C  1.36400 2.54500 27.61600
C  0.70000 2.84400 24.29700
O  0.28200 3.06300 23.13900
C  0.72300 1.31100 24.67900
N  1.33100 8.38400 24.18600
C  0.95100 7.38200 23.41700
C  0.74200 7.84000 21.98300
C  0.79800 9.38400 22.14800
C  1.33000 9.54200 23.51000
C  1.72600 7.17600 20.97300
C  -0.61500 10.02800 21.91000
C  -1.28300 9.98400 20.53500
N  1.64200 10.08500 26.45700
C  1.73000 11.06600 25.46200
C  2.05100 12.30500 26.14900
C  2.08000 12.00900 27.52200
C  1.88000 10.61500 27.64500
C  2.05600 13.71600 25.51500
C  2.35000 12.59200 28.83800
O  2.59500 13.74900 29.17300
C  2.17600 11.43300 29.78800
C  3.36000 11.43100 30.66500
O  4.43800 10.92800 30.31200
O  3.15000 12.06400 31.82000
C  4.24700 12.05500 32.80100
H  1.78300 4.62700 29.26000
H  0.72600 5.36900 22.95500
H  1.59600 11.62300 23.36600
H  2.73100 8.95800 31.38300
H  1.23000 6.37200 31.32700
H  3.96700 6.92400 31.75600
H  3.82600 5.49500 30.68600
H  2.94700 5.46300 32.15000
H  0.00000 8.17300 32.19300
H  0.05200 9.74400 31.33100
H  0.25500 9.85900 33.67700
H  1.51400 10.65600 32.91100
H  1.76400 1.67200 27.10000
H  0.31800 2.31900 27.82500
H  1.85400 2.71400 28.57500
H  0.08700 1.12700 25.54500
H  1.79300 1.11900 24.75900
H  0.26100 0.88500 23.78900
H  -0.21600 7.43300 21.65900
H  1.46700 9.86700 21.43700
H  1.16700 6.58300 20.25000
H  2.36000 6.49600 21.54200
H  2.32500 7.99400 20.57400
H  -0.57100 11.07500 22.21000
H  -1.26700 9.52600 22.62500
H  -0.64400 9.44200 19.83900
H  -1.44400 10.95800 20.07200
H  -2.20100 9.40700 20.64500
H  2.12000 14.48900 26.28100
H  1.11300 13.66900 24.97100
H  2.92100 13.91800 24.88200
H  1.24400 11.56300 30.33800
H  5.11800 12.59600 32.43200
H  4.52500 11.05500 33.13300
H  3.88000 12.67300 33.62100
Mg 8.60000 47.84700 27.31900
C  7.03100 47.65600 30.32200
C  11.74600 48.22200 29.09100
C  10.34200 48.58200 24.52300
C  5.57900 48.06300 25.68000
N  9.32200 47.98400 29.52700
C  8.45200 47.86400 30.56800
C  9.19100 47.99000 31.87200
C  10.69200 48.36600 31.44900
C  10.62800 48.15000 29.88800
C  11.24900 49.74000 31.94800
C  9.09300 46.76400 32.81300
C  8.96600 47.03600 34.31200
H  9.53300 45.99100 35.26100
N  10.79200 48.06500 26.83000
C  11.86700 48.18100 27.63100
C  13.06400 48.35700 26.83200
C  12.63500 48.26800 25.49600
C  11.15400 48.32800 25.54600
C  14.43900 48.70700 27.55500
C  13.50500 48.25300 24.30600
O  13.11300 48.27100 23.14300
C  15.08200 48.20700 24.48300
N  8.08200 48.20600 25.42200
C  8.95800 48.64200 24.43100
C  8.16000 48.99400 23.21700
C  6.73000 48.31600 23.47700
C  6.77800 48.07100 24.94400
C  8.02200 50.49500 22.92900
C  6.51900 47.05500 22.60400
C  5.40500 47.21200 21.51000
N  6.65000 47.78500 27.79500
C  5.49400 47.86400 27.02000
C  4.32700 47.74000 27.90800
C  4.88800 47.60300 29.19700
C  6.29200 47.69000 29.07000
C  2.83000 47.67000 27.51400
C  4.57100 47.49600 30.58100
O  3.49700 47.42700 31.13900
C  5.92100 47.56900 31.37800
C  5.91800 46.19800 32.04400
O  5.79900 45.12500 31.42100
O  5.95900 46.31800 33.37500
C  6.33900 45.08500 34.10400
H  12.64800 48.45500 29.66100
H  10.82700 48.81600 23.57300
H  4.69500 48.03900 25.03900
H  8.79000 48.89700 32.32600
H  11.35500 47.59900 31.85000
H  11.10500 50.48500 31.16600
H  12.29500 49.53500 32.17700
H  10.75800 50.07600 32.86200
H  9.95300 46.13100 32.59600
H  8.32500 46.07400 32.46300
H  7.90700 47.22100 34.49000
H  9.51600 47.94800 34.54500
H  14.30400 49.10800 28.56000
H  14.90500 49.40100 26.85500
H  14.91500 47.72900 27.63300
H  15.26900 47.44600 25.24000
H  15.51500 49.13900 24.84600
H  15.51100 47.87700 23.53700
H  8.63900 48.47800 22.38500
H  5.87900 48.97300 23.29500
H  8.73800 50.76000 22.15100
H  8.17600 51.07200 23.84100
H  7.03100 50.70300 22.52700
H  6.13100 46.22500 23.19400
H  7.45900 46.65900 22.21900
H  4.49500 46.83300 21.97500
H  5.67400 46.68800 20.59300
H  5.39700 48.26100 21.21400
H  2.35000 47.11500 28.32000
H  2.70000 47.10500 26.59100
H  2.41900 48.67900 27.46600
H  5.93800 48.40100 32.08300
H  6.49900 45.22000 35.17400
H  7.18800 44.52800 33.70900
H  5.44200 44.46800 34.04200

