158

Mg 9.59800 47.09300 26.82200
C  7.52800 47.05400 29.76500
C  12.20600 47.76400 28.96800
C  11.35000 47.76600 24.13000
C  6.58100 47.07100 24.87600
N  9.77900 47.43600 29.10300
C  8.86800 47.22800 30.11200
C  9.49800 47.54400 31.53600
C  10.98400 48.05000 31.25300
C  10.97800 47.76600 29.67400
C  11.25400 49.56200 31.63900
C  9.21200 46.34400 32.57900
C  10.16600 46.23500 33.76100
H  9.61900 45.77900 35.11100
N  11.51900 47.37800 26.61200
C  12.44000 47.69900 27.58000
C  13.72900 48.01500 26.94500
C  13.43300 48.15100 25.55500
C  12.05400 47.68800 25.38500
C  14.96800 48.33000 27.73900
C  14.34900 48.63600 24.37600
O  13.98500 48.74100 23.18400
C  15.80800 48.82900 24.68200
N  9.02100 47.50400 24.75300
C  9.99800 47.63900 23.81500
C  9.27100 47.81700 22.40900
C  7.76300 47.46800 22.64700
C  7.79400 47.28100 24.16100
C  9.63700 49.22800 21.82800
C  7.28100 46.23700 21.78400
C  8.01900 44.91000 22.12900
N  7.48800 47.08000 27.13300
C  6.42900 47.00900 26.27400
C  5.19500 47.09300 27.02500
C  5.63400 46.97700 28.34400
C  6.98000 47.01800 28.40500
C  3.84300 47.05000 26.49800
C  5.08600 46.76600 29.70100
O  3.93800 46.69400 30.15600
C  6.38400 46.85000 30.66700
C  6.38800 45.52000 31.36600
O  6.95500 44.46300 31.02600
O  5.66100 45.61800 32.46400
C  5.54700 44.39700 33.31400
H  13.02600 47.94100 29.66600
H  11.82400 48.08900 23.20100
H  5.65700 46.93300 24.31000
H  8.91200 48.41400 31.83200
H  11.70100 47.39300 31.74500
H  11.98500 49.69500 32.43700
H  10.39400 50.03500 32.11300
H  11.53300 50.06900 30.71600
H  9.30100 45.45400 31.95600
H  8.19900 46.42100 32.97400
H  10.72300 47.15600 33.93100
H  10.79400 45.41200 33.41900
H  15.38300 49.24000 27.30400
H  15.70500 47.53400 27.63200
H  14.82300 48.57300 28.79100
H  15.93000 49.82400 25.11100
H  16.40400 48.67100 23.78300
H  16.12000 48.05100 25.38000
H  9.77800 47.18100 21.68400
H  7.19300 48.37900 22.46100
H  10.12300 49.78000 22.63300
H  8.82700 49.76300 21.33200
H  10.39000 49.14800 21.04300
H  7.32300 46.52600 20.73400
H  6.24900 46.06800 22.09200
H  8.63000 44.46000 21.34700
H  7.34400 44.13000 22.48300
H  8.74800 45.03100 22.93000
H  3.71100 48.01100 26.00200
H  3.19100 46.93900 27.36500
H  3.77100 46.31300 25.69700
H  6.30300 47.59100 31.46200
H  5.50500 43.42200 32.82700
H  4.59700 44.39900 33.84800
H  6.42400 44.38300 33.96100
Mg -5.97900 25.34000 25.70000
C  -3.97100 26.69800 28.17700
C  -7.40900 23.31800 27.94000
C  -7.56800 23.85800 23.15300
C  -3.72900 26.97500 23.32800
N  -5.67900 25.01700 27.78300
C  -4.95500 25.81900 28.68200
C  -5.31300 25.40900 30.15800
C  -6.03100 24.10400 30.02700
C  -6.39900 24.13100 28.52500
C  -5.16500 22.82100 30.33200
C  -6.04100 26.54100 30.89000
C  -5.64000 26.69300 32.33300
H  -5.22900 25.46100 33.08800
N  -7.31100 23.81900 25.57300
C  -7.86200 23.13000 26.61600
C  -8.94700 22.27500 26.12300
C  -9.00300 22.47700 24.72800
C  -7.93000 23.36700 24.41400
C  -9.87600 21.47800 26.99500
C  -9.89100 21.80000 23.62700
O  -9.68000 21.90700 22.37900
C  -11.07600 20.88400 23.91900
N  -5.44900 25.20300 23.54100
C  -6.43500 24.64700 22.77000
C  -6.03000 24.82000 21.30800
C  -4.93000 25.97300 21.27100
C  -4.63700 26.02800 22.79100
C  -5.60600 23.46000 20.74800
C  -5.29600 27.34200 20.67600
C  -4.71800 27.58000 19.22300
N  -4.34400 26.67100 25.67200
C  -3.57400 27.27600 24.68000
C  -2.62400 28.18700 25.23200
C  -2.69500 28.01000 26.62100
C  -3.68500 27.00000 26.79700
C  -1.73500 29.15000 24.52400
C  -2.20600 28.36700 27.90100
O  -1.31800 29.18300 28.12100
C  -2.98800 27.57900 28.93300
C  -2.07200 26.72100 29.75500
O  -1.68900 25.62100 29.59300
O  -1.74900 27.48800 30.84300
C  -1.00800 26.88900 31.97100
H  -7.86100 22.59500 28.62300
H  -8.18000 23.48400 22.32900
H  -3.16400 27.51900 22.56800
H  -4.33100 25.30700 30.62000
H  -6.88300 24.00700 30.70000
H  -5.03200 22.60500 31.39200
H  -4.32000 22.83300 29.64400
H  -5.79900 22.02700 29.93900
H  -7.12800 26.46700 30.89800
H  -5.83200 27.46900 30.35900
H  -6.42000 27.15400 32.93800
H  -4.74100 27.29500 32.20100
H  -9.63300 21.41300 28.05600
H  -9.76300 20.48700 26.55500
H  -10.88000 21.88800 26.88800
H  -11.93800 21.39200 24.35100
H  -10.73700 20.11800 24.61600
H  -11.31900 20.35100 22.99900
H  -6.92800 25.32000 20.94600
H  -3.97000 25.62000 20.89600
H  -5.62000 22.71300 21.54200
H  -4.61100 23.59200 20.32400
H  -6.29800 23.27000 19.92700
H  -5.01100 28.22100 21.25500
H  -6.38600 27.37300 20.70100
H  -5.36700 27.69700 18.35400
H  -4.14800 26.70300 18.91800
H  -4.00000 28.39500 19.31200
H  -0.76900 29.03500 25.01600
H  -2.05800 30.19100 24.54600
H  -1.55900 28.89900 23.47800
H  -3.51900 28.22900 29.62900
H  -0.66500 25.85700 31.90000
H  -1.70600 27.01500 32.79900
H  -0.14300 27.47300 32.28400

