158

Mg 49.62700 45.45500 43.76000
C  46.47400 46.03700 42.52700
C  49.70200 42.50500 41.91700
C  52.91600 45.08800 44.36200
C  49.64500 48.58900 45.24900
N  48.20800 44.46100 42.32800
C  46.98000 44.84600 42.00100
C  46.25400 43.83000 41.06800
C  47.22900 42.56700 41.17000
C  48.50900 43.21300 41.78100
C  46.74500 41.36000 42.00900
C  45.94100 44.37800 39.63200
C  44.45500 44.45000 39.23600
H  44.08700 43.51200 38.07700
N  51.12100 43.90100 43.36600
C  50.84400 42.81300 42.62300
C  51.99800 41.95300 42.71500
C  53.02300 42.71500 43.43700
C  52.39300 43.96400 43.75700
C  52.20200 40.63100 41.90200
C  54.24500 42.11000 43.87600
O  54.71900 41.05900 43.45900
C  55.21800 42.77500 44.90200
N  51.09100 46.73100 44.53600
C  52.34000 46.33700 44.79700
C  53.17600 47.36400 45.54500
C  52.07800 48.38500 45.98300
C  50.85600 47.89200 45.19800
C  54.17100 46.87400 46.69600
C  52.52100 49.80000 45.77600
C  52.70000 50.60700 47.06100
N  48.34800 47.02800 43.92100
C  48.43200 48.20600 44.61300
C  47.25600 48.96400 44.45500
C  46.50700 48.13300 43.57200
C  47.18500 46.98900 43.30900
C  46.84500 50.34400 45.03300
C  45.30400 48.08900 42.84400
O  44.42600 48.98400 42.73900
C  45.17700 46.71800 42.15000
C  43.99200 46.13900 42.76900
O  44.00100 45.57600 43.82700
O  42.83300 46.45000 42.09900
C  41.59700 45.97100 42.54500
H  49.77000 41.46700 41.58700
H  53.98900 45.21300 44.52400
H  49.59200 49.51400 45.82700
H  45.31000 43.80700 41.61200
H  47.47900 42.17000 40.18600
H  45.76400 41.49000 42.46600
H  47.43900 41.11000 42.81200
H  46.60700 40.46900 41.39600
H  46.56000 43.81900 38.93000
H  46.26200 45.42000 39.62900
H  44.14300 45.47500 39.03600
H  43.82700 44.04100 40.02800
H  52.93800 40.73400 41.10500
H  51.34100 40.14500 41.44200
H  52.64000 39.87700 42.55700
H  54.76200 42.46100 45.84200
H  55.49500 43.82900 44.91600
H  56.21600 42.33600 44.90000
H  53.76600 47.84100 44.76200
H  51.73300 48.21600 47.00300
H  53.94300 47.35100 47.64900
H  55.17700 47.20600 46.44100
H  54.24400 45.78700 46.72800
H  51.81200 50.42600 45.23400
H  53.49400 49.81300 45.28500
H  52.03600 51.46600 46.96900
H  53.74800 50.87900 46.93900
H  52.64100 50.05700 48.00100
H  45.78900 50.45300 45.28100
H  47.10900 51.02100 44.22100
H  47.53600 50.58600 45.84000
H  45.11300 46.97600 41.09300
H  41.67800 44.91200 42.78900
H  40.87400 46.14500 41.74700
H  41.31000 46.47500 43.46700
Mg -4.71900 26.44500 25.94100
C  -2.94800 27.43500 28.84800
C  -6.00900 23.87400 27.90000
C  -6.09800 25.21000 23.18700
C  -2.76300 28.64600 24.11200
N  -4.44000 25.75900 28.08900
C  -3.76200 26.36300 29.08700
C  -4.27800 25.87700 30.42300
C  -5.04900 24.53700 30.09300
C  -5.17100 24.71800 28.59900
C  -4.23100 23.26200 30.59400
C  -5.16900 26.92100 31.19100
C  -4.76100 27.07300 32.66000
H  -4.23400 25.88200 33.54000
N  -5.86800 24.76500 25.54400
C  -6.32100 23.87900 26.54100
C  -7.33300 22.97300 25.91800
C  -7.46500 23.41000 24.61200
C  -6.37400 24.44800 24.34800
C  -8.01500 21.90300 26.66100
C  -8.31600 22.81300 23.51700
O  -8.14500 23.16400 22.35600
C  -9.34800 21.77000 23.79800
N  -4.45700 26.84400 23.93600
C  -5.22300 26.26200 23.03200
C  -4.94600 26.89600 21.63500
C  -3.88000 27.94900 21.89300
C  -3.67400 27.84400 23.39200
C  -4.38400 25.94300 20.53700
C  -4.28900 29.40300 21.51000
C  -4.19300 29.65600 19.98300
N  -3.20300 27.76800 26.33400
C  -2.53100 28.63300 25.54400
C  -1.54800 29.35300 26.26000
C  -1.81500 28.99100 27.60000
C  -2.69100 27.92200 27.55600
C  -0.55700 30.33900 25.71300
C  -1.43400 29.23700 28.90100
O  -0.62900 30.07200 29.30900
C  -2.12500 28.24700 29.78400
C  -1.26700 27.53300 30.75900
O  -0.52500 26.53800 30.52900
O  -1.48600 28.10500 31.94900
C  -0.61600 27.43400 32.98500
H  -6.50700 23.09600 28.48300
H  -6.63200 24.94000 22.27300
H  -2.15800 29.34200 23.52700
H  -3.42500 25.60300 31.04400
H  -6.08600 24.44600 30.41800
H  -4.14800 22.49700 29.82200
H  -4.96200 22.79000 31.25100
H  -3.29000 23.55900 31.05700
H  -6.19900 26.57100 31.26600
H  -5.12500 27.91000 30.73600
H  -5.63500 27.43300 33.20300
H  -3.98000 27.83400 32.67000
H  -9.09800 22.01800 26.69100
H  -7.69900 21.75300 27.69300
H  -7.78000 21.01500 26.07400
H  -8.82000 20.82500 23.67400
H  -10.04800 21.89900 22.97300
H  -10.03700 21.81400 24.64200
H  -5.86000 27.32500 21.22600
H  -2.93400 27.69000 21.41800
H  -5.16200 25.29700 20.12900
H  -3.69300 25.23000 20.98500
H  -3.90600 26.30600 19.62700
H  -3.69200 30.21100 21.93300
H  -5.33700 29.59400 21.73900
H  -3.73100 30.64100 19.91600
H  -5.20800 29.75900 19.59900
H  -3.69000 28.90400 19.37400
H  -0.97800 30.95500 24.91900
H  0.34400 29.86300 25.32500
H  -0.26400 30.97000 26.55200
H  -2.87000 28.77600 30.37900
H  0.43800 27.39500 32.71200
H  -1.05000 26.47300 33.26100
H  -0.71600 28.11200 33.83400

