158

Mg 1.03200 42.71100 26.27300
C  3.40300 42.63300 28.98500
C  -1.51700 42.22800 28.48100
C  -1.07500 42.59100 23.58600
C  3.75100 42.85700 24.13400
N  1.05700 42.55700 28.47700
C  2.01000 42.55700 29.37500
C  1.39400 42.47500 30.80000
C  -0.10700 42.11900 30.60900
C  -0.21600 42.23900 29.08200
C  -0.76300 40.84600 31.19900
C  1.68900 43.78100 31.53700
C  1.24400 43.79500 33.06400
H  0.90900 42.44400 33.63000
N  -1.01200 42.44100 26.13800
C  -1.90200 42.41300 27.12100
C  -3.25000 42.36600 26.57400
C  -3.17000 42.40500 25.18400
C  -1.69000 42.49900 24.89500
C  -4.44000 42.31900 27.39400
C  -4.30000 42.57000 24.15700
O  -4.07600 42.94600 23.01900
C  -5.67700 42.35500 24.62600
N  1.33800 42.68500 24.22300
C  0.30200 42.56600 23.32600
C  0.71800 42.69600 21.89600
C  2.25000 42.72800 22.05400
C  2.48600 42.76900 23.54900
C  0.36300 41.44400 21.04800
C  2.86500 43.89000 21.30600
C  3.28900 45.14600 22.08200
N  3.25000 42.81700 26.48800
C  4.13000 42.85600 25.50300
C  5.52800 42.88800 26.06900
C  5.26200 42.77600 27.49800
C  3.86500 42.76300 27.62300
C  6.77800 43.04400 25.31700
C  5.86300 42.69100 28.78800
O  7.01700 42.59400 29.06300
C  4.65800 42.65200 29.84900
C  4.88800 41.53600 30.75200
O  4.85200 40.39100 30.31000
O  5.14000 41.98000 32.02300
C  5.41200 40.87800 32.93800
H  -2.35400 42.10900 29.17300
H  -1.73600 42.54600 22.71800
H  4.47200 43.03600 23.33400
H  1.89600 41.58500 31.17800
H  -0.71700 42.88500 31.08800
H  -1.17700 40.34700 30.32300
H  -1.54700 41.05700 31.92700
H  -0.02500 40.23800 31.72200
H  1.09200 44.57600 31.09000
H  2.75600 43.99300 31.46200
H  0.35500 44.41700 33.17100
H  2.10200 44.11400 33.65500
H  -5.12200 41.49900 27.16700
H  -5.07100 43.16900 27.13300
H  -4.38200 42.53200 28.46200
H  -6.23700 42.39000 23.69200
H  -6.07700 43.11800 25.29500
H  -5.82100 41.35900 25.04700
H  0.30300 43.62500 21.50600
H  2.58500 41.71900 21.81200
H  -0.13000 40.72500 21.70300
H  1.17100 40.94000 20.51800
H  -0.44200 41.78500 20.39700
H  2.14800 44.25500 20.57000
H  3.71900 43.44900 20.79300
H  2.77600 45.27600 23.03500
H  3.07900 46.01000 21.45200
H  4.37400 45.24500 22.11900
H  6.68100 43.97200 24.75300
H  6.88500 42.24500 24.58400
H  7.63700 43.02800 25.98800
H  4.61100 43.57000 30.43500
H  4.94800 41.07400 33.90400
H  6.49200 40.77200 33.04300
H  5.09000 39.90000 32.58200
Mg -10.52600 16.90300 41.18400
C  -7.07200 16.71300 41.09700
C  -10.29700 20.31400 40.64200
C  -13.92900 16.96900 40.78500
C  -10.55400 13.31600 41.21100
N  -8.85100 18.27800 40.87100
C  -7.50900 17.97800 40.94800
C  -6.69700 19.33000 40.70400
C  -7.77600 20.46600 41.02400
C  -9.06700 19.67500 40.77700
C  -7.56900 21.21900 42.38800
C  -6.15500 19.38300 39.22700
C  -4.66200 19.20000 39.05900
H  -4.14600 18.49700 37.78500
N  -11.96300 18.51400 40.74600
C  -11.68900 19.82600 40.61000
C  -12.90300 20.56000 40.40000
C  -13.97000 19.64500 40.41500
C  -13.31900 18.27100 40.59300
C  -12.93700 22.05900 40.16900
C  -15.40400 19.98600 40.29300
O  -15.89000 21.11900 40.11100
C  -16.45100 18.88900 40.33200
N  -12.07400 15.34100 40.79900
C  -13.41900 15.68200 40.89400
C  -14.26200 14.40900 41.13900
C  -13.15500 13.27000 41.24600
C  -11.83500 14.00300 41.17700
C  -15.31200 14.34600 42.27800
C  -13.29100 12.04500 40.36700
C  -12.57200 12.04700 39.02500
N  -9.09400 15.20900 41.07600
C  -9.24700 13.81800 41.22300
C  -7.90100 13.22800 41.51000
C  -7.03700 14.30200 41.35100
C  -7.80100 15.49800 41.13300
C  -7.48100 11.86600 41.87100
C  -5.64600 14.68700 41.49400
O  -4.67100 14.00100 41.81100
C  -5.64300 16.27400 41.23500
C  -4.99600 17.09300 42.39500
O  -3.87500 17.56600 42.22800
O  -5.71800 17.01700 43.63600
C  -5.17200 17.83500 44.67800
H  -10.13000 21.38800 40.53800
H  -15.02000 16.98200 40.81700
H  -10.50000 12.25500 41.46300
H  -5.90400 19.43400 41.44500
H  -7.68200 21.26300 40.28700
H  -7.07400 22.18700 42.30800
H  -7.09300 20.52400 43.07900
H  -8.55200 21.39400 42.82600
H  -6.39500 20.38500 38.87200
H  -6.59100 18.58800 38.62200
H  -4.30100 18.58900 39.88700
H  -4.12800 20.13000 39.25700
H  -13.10400 22.28200 39.11500
H  -11.96500 22.44000 40.48200
H  -13.70000 22.49900 40.81100
H  -16.27000 18.28200 39.44500
H  -17.41700 19.37500 40.19700
H  -16.54400 18.37200 41.28700
H  -14.86500 14.39800 40.23200
H  -13.16100 12.85300 42.25300
H  -16.23100 13.85600 41.95800
H  -15.65600 15.33400 42.58200
H  -14.92500 13.87100 43.18000
H  -14.37000 12.05000 40.20800
H  -13.00700 11.13700 40.89900
H  -13.17500 11.42300 38.36400
H  -11.59000 11.57700 39.06500
H  -12.46500 13.02100 38.54800
H  -6.40100 11.83500 41.72600
H  -7.94800 11.26000 41.09500
H  -7.88100 11.72100 42.87400
H  -5.20200 16.44400 40.25300
H  -5.82400 18.70500 44.74800
H  -4.14100 18.16400 44.54100
H  -5.35800 17.29100 45.60300

