158

Mg 6.68100 53.74700 41.82600
C  6.22600 50.19800 41.58400
C  9.79400 53.13000 40.48800
C  7.21100 57.08200 41.78200
C  3.39600 54.15900 42.50600
N  7.85900 51.81000 41.16400
C  7.49000 50.55800 41.06900
C  8.56800 49.68800 40.47200
C  9.84200 50.60000 40.46700
C  9.09800 51.94100 40.69300
C  10.96200 50.39700 41.52700
C  8.14000 49.03500 39.19100
C  7.52900 49.94700 38.04600
H  6.94700 49.34700 36.75500
N  8.29700 54.94700 41.16800
C  9.44800 54.48400 40.55900
C  10.29700 55.63100 40.17200
C  9.69000 56.79200 40.72300
C  8.34700 56.34800 41.31500
C  11.65000 55.42600 39.36000
C  10.19900 58.17900 40.62400
O  11.28400 58.44400 40.10800
C  9.60400 59.29100 41.33900
N  5.51400 55.37100 42.14400
C  5.93300 56.68400 42.15400
C  4.87100 57.66500 42.65700
C  3.61500 56.70600 42.79800
C  4.20300 55.31700 42.46700
C  5.35700 58.28500 43.98400
C  2.34700 57.20000 41.94700
C  0.92400 56.89300 42.53100
N  5.12200 52.49400 42.27100
C  3.78100 52.75200 42.52300
C  3.09500 51.59300 42.74800
C  4.02600 50.52900 42.52400
C  5.22200 51.11400 42.11400
C  1.68000 51.44200 43.15400
C  4.22700 49.09100 42.48000
O  3.47000 48.23100 42.83700
C  5.57100 48.80300 41.83400
C  5.31200 48.11200 40.50900
O  4.95100 48.68400 39.45100
O  5.48600 46.73000 40.62400
C  5.31800 46.05600 39.37500
H  10.80100 52.96400 40.09700
H  7.46500 58.14400 41.81600
H  2.32600 54.30500 42.66600
H  8.69800 48.93400 41.24800
H  10.19000 50.53600 39.43600
H  10.72700 49.50200 42.10300
H  11.09900 51.23600 42.20800
H  11.94500 50.21400 41.09300
H  7.47100 48.20900 39.43400
H  9.10300 48.62000 38.89300
H  8.37400 50.52500 37.67300
H  6.89200 50.66100 38.56800
H  11.85100 56.28700 38.72200
H  11.66200 54.44800 38.87900
H  12.46800 55.32100 40.07300
H  8.84400 59.48200 40.58000
H  10.30500 60.12400 41.36800
H  9.35500 58.91800 42.33200
H  4.65200 58.48200 41.97000
H  3.39300 56.74600 43.86400
H  4.78100 57.89000 44.82100
H  5.05400 59.33000 44.05900
H  6.38500 58.03900 44.25200
H  2.36800 56.66000 41.00000
H  2.36800 58.26100 41.69500
H  0.42300 57.75900 42.96400
H  1.09000 56.11100 43.27100
H  0.42400 56.41500 41.68900
H  1.36100 52.17400 43.89600
H  1.33400 50.48900 43.55500
H  1.13900 51.74600 42.25800
H  6.24500 48.19800 42.44200
H  6.13900 46.34100 38.71700
H  4.37700 46.12500 38.83000
H  5.39100 44.98900 39.58700
Mg -5.46900 25.21200 25.77900
C  -3.85000 26.52900 28.72800
C  -7.02200 23.04200 27.95300
C  -6.72700 23.84500 23.14800
C  -3.21600 27.06600 23.95600
N  -5.38200 24.87900 28.06800
C  -4.85200 25.59200 29.05400
C  -5.46400 25.30800 30.39500
C  -6.18900 24.00400 30.11200
C  -6.09000 23.80800 28.59000
C  -5.71400 22.79800 30.93300
C  -6.36500 26.53000 30.93300
C  -6.22700 26.94600 32.32600
H  -5.66400 25.88400 33.33500
N  -6.75300 23.68400 25.57400
C  -7.33400 22.95400 26.57300
C  -8.34200 22.01600 25.99800
C  -8.30200 22.22500 24.57500
C  -7.25300 23.29200 24.36500
C  -9.15400 21.02200 26.76000
C  -9.12700 21.69300 23.42800
O  -9.00600 22.03600 22.24200
C  -10.21000 20.77400 23.84300
N  -5.00900 25.47100 23.86200
C  -5.72300 24.78800 22.93100
C  -5.19600 25.08200 21.54800
C  -4.16100 26.31000 21.73000
C  -4.13400 26.27400 23.27600
C  -4.64700 23.85000 20.98300
C  -4.54300 27.68100 21.15900
C  -3.40600 28.37600 20.44000
N  -3.84400 26.51800 26.22200
C  -3.07800 27.20300 25.33600
C  -2.06700 28.08300 26.00900
C  -2.32500 27.85400 27.36000
C  -3.40700 26.86400 27.44300
C  -1.27200 29.16400 25.29700
C  -2.00700 28.23900 28.70300
O  -1.20200 29.09900 29.06800
C  -2.94200 27.41600 29.59900
C  -1.99000 26.57100 30.40500
O  -1.40200 25.58300 30.04700
O  -1.87800 27.13100 31.64500
C  -0.92300 26.43400 32.52000
H  -7.68700 22.46500 28.59800
H  -7.22900 23.46200 22.25700
H  -2.56600 27.68100 23.33000
H  -4.75200 24.95200 31.13900
H  -7.22700 24.22400 30.36100
H  -4.89000 22.27700 30.44500
H  -6.58300 22.14100 30.92600
H  -5.45700 22.89400 31.98800
H  -7.39200 26.20400 30.77300
H  -6.23200 27.45900 30.37800
H  -7.19700 27.29600 32.67900
H  -5.54100 27.78800 32.23000
H  -10.13200 21.41600 27.03800
H  -8.60800 20.73600 27.65900
H  -9.19900 20.08100 26.21300
H  -9.60200 19.94400 24.20300
H  -10.72400 20.38800 22.96300
H  -10.91900 21.16200 24.57300
H  -5.93600 25.33800 20.78900
H  -3.15500 26.01100 21.43500
H  -3.58000 24.03600 20.86500
H  -5.13600 23.57000 20.04900
H  -4.64500 23.06000 21.73400
H  -4.81800 28.23200 22.05800
H  -5.35000 27.56400 20.43700
H  -2.63200 27.66400 20.15500
H  -2.99200 29.14300 21.09400
H  -3.87400 28.79800 19.55000
H  -1.93800 29.92400 24.88800
H  -0.63500 28.67100 24.56300
H  -0.78400 29.75000 26.07600
H  -3.57600 28.10700 30.15500
H  -1.22200 25.38700 32.46500
H  -0.88700 26.62200 33.59300
H  0.05900 26.44900 32.04800

