158

Mg 8.52400 2.02800 27.58500
C  10.19800 0.96500 30.42800
C  6.93000 4.35900 29.56500
C  7.07300 3.09800 24.79400
C  10.16000 -0.46200 25.78000
N  8.60000 2.57800 29.80000
C  9.31800 2.00700 30.73700
C  9.06200 2.67600 32.14300
C  8.05800 3.79200 31.79400
C  7.81000 3.60600 30.28800
C  6.81700 3.99700 32.57100
C  10.28100 3.15900 32.93100
C  10.07700 4.25600 34.07500
H  10.52400 3.89700 35.46400
N  7.23500 3.50700 27.20300
C  6.67300 4.33400 28.20000
C  5.73000 5.17600 27.53500
C  5.83300 4.92300 26.08200
C  6.67400 3.74900 25.99000
C  4.73100 6.14400 28.11700
C  5.03400 5.51600 24.92500
O  5.25300 5.13800 23.78700
C  3.90400 6.60600 25.09500
N  8.60800 1.46300 25.58200
C  7.94600 2.08500 24.60100
C  8.19600 1.49400 23.26100
C  9.10600 0.27700 23.57900
C  9.34300 0.43700 25.03900
C  6.87600 1.08500 22.45300
C  10.37400 0.18200 22.69000
C  10.15300 -0.32200 21.34000
N  9.86300 0.56300 27.97500
C  10.39700 -0.42600 27.14200
C  11.23500 -1.31800 27.87900
C  11.23000 -0.76500 29.20000
C  10.33000 0.33100 29.20100
C  12.03300 -2.54600 27.32600
C  11.71900 -0.87700 30.58800
O  12.51300 -1.66300 31.07800
C  11.06400 0.19300 31.43600
C  10.23500 -0.34900 32.48100
O  9.16000 -0.95300 32.31900
O  10.80400 -0.25500 33.76200
C  9.91000 -0.81600 34.88300
H  6.47800 5.12400 30.20100
H  6.62800 3.40600 23.84600
H  10.70200 -1.20600 25.19300
H  8.51000 2.03300 32.82900
H  8.60400 4.73600 31.78400
H  5.99700 3.54700 32.01000
H  6.59500 5.05200 32.73100
H  6.87700 3.55500 33.56500
H  10.95100 3.57100 32.17600
H  10.79000 2.28900 33.34500
H  9.03400 4.51100 34.26400
H  10.55900 5.15600 33.69200
H  4.98600 7.07800 27.61700
H  4.95000 6.21800 29.18200
H  3.67500 5.89200 28.01700
H  3.42800 6.96500 24.18200
H  4.27800 7.56900 25.44100
H  3.14600 6.21300 25.77300
H  8.74000 2.26800 22.72000
H  8.55700 -0.66500 23.59400
H  6.00800 1.10000 23.11200
H  6.86000 0.06200 22.07800
H  6.79100 1.74200 21.58700
H  11.02300 -0.54600 23.17600
H  10.83000 1.17100 22.63700
H  10.20300 0.45500 20.57700
H  9.14200 -0.70700 21.47300
H  10.85600 -1.10400 21.05200
H  11.34500 -3.33200 27.01400
H  12.65800 -2.76300 28.19300
H  12.74100 -2.14500 26.60000
H  11.79200 0.85600 31.90400
H  9.57300 0.07300 35.41700
H  10.57400 -1.30200 35.59800
H  9.05100 -1.44100 34.63900
Mg 40.41900 8.06700 29.06500
C  41.98200 9.28400 32.04800
C  38.18700 6.57000 31.02800
C  39.07200 6.80800 26.23000
C  43.09200 9.21500 27.26200
N  40.09300 8.13800 31.30700
C  40.73900 8.82500 32.28900
C  39.96200 8.61900 33.62400
C  39.08000 7.35900 33.30100
C  39.07400 7.34400 31.76600
C  39.54800 6.07100 33.91000
C  39.11300 9.89600 33.96700
C  38.81700 10.04300 35.48000
H  39.47700 11.19600 36.19600
N  38.77700 6.89200 28.67000
C  37.96400 6.31800 29.63300
C  36.86300 5.62500 28.95500
C  37.12400 5.72300 27.53200
C  38.33300 6.52100 27.40700
C  35.70000 5.05600 29.70100
C  36.34300 5.05500 26.37900
O  36.69000 5.36600 25.24100
C  35.14300 4.19000 26.66400
N  41.12300 7.82800 27.00500
C  40.29100 7.47000 26.01400
C  40.83300 7.79000 24.52800
C  41.84200 8.87400 25.04300
C  42.14400 8.48200 26.50700
C  41.36600 6.51500 23.79300
C  41.40000 10.38800 24.69300
C  39.96400 10.86700 25.10000
N  42.18000 8.97400 29.45300
C  43.20400 9.37500 28.64300
C  44.29100 9.93800 29.42400
C  43.86100 9.91300 30.75800
C  42.55600 9.34700 30.77200
C  45.63300 10.28700 29.02500
C  44.25900 10.13600 32.10700
O  45.33000 10.55300 32.54800
C  43.00500 9.92200 33.02400
C  43.28700 8.98000 34.16200
O  43.42100 7.75300 34.08000
O  43.43000 9.73100 35.29100
C  43.84700 8.91800 36.54000
H  37.49100 6.02500 31.66900
H  38.57900 6.52800 25.29600
H  43.86400 9.75400 26.70900
H  40.68400 8.40300 34.41100
H  38.12300 7.71700 33.68000
H  40.58300 6.25100 34.20100
H  39.51400 5.23800 33.20900
H  38.97300 5.90700 34.82200
H  38.15800 9.86300 33.44200
H  39.67500 10.73200 33.55100
H  39.02600 9.10200 35.98900
H  37.76300 10.14900 35.73800
H  34.75900 5.46400 29.33400
H  35.91500 5.28400 30.74500
H  35.78100 3.97000 29.75400
H  35.22500 3.48300 27.49000
H  34.99400 3.78700 25.66300
H  34.28100 4.83300 26.83900
H  40.07600 8.22400 23.87500
H  42.60600 8.71800 24.28200
H  40.73000 6.28800 22.93800
H  41.39300 5.63700 24.43800
H  42.37000 6.69900 23.40900
H  41.46800 10.67300 23.64300
H  42.12300 11.02900 25.19800
H  39.39900 10.07100 25.58500
H  39.44900 11.19300 24.19700
H  39.99800 11.74900 25.73900
H  45.83700 9.67600 28.14600
H  46.34200 9.97400 29.79200
H  45.71900 11.35300 28.81200
H  42.66300 10.87900 33.41700
H  42.96600 8.44800 36.97800
H  44.45000 9.46600 37.26300
H  44.51100 8.11000 36.23300

