158

Mg 1.66900 7.99800 27.04500
C  1.66400 10.33200 29.57500
C  2.25600 5.45400 29.28000
C  2.20300 5.89100 24.46500
C  1.59900 10.64900 24.70300
N  1.67600 7.91200 29.17900
C  1.65300 8.98100 30.05900
C  1.56600 8.50000 31.48500
C  1.86800 6.90500 31.35100
C  1.92700 6.69300 29.82400
C  3.15300 6.43500 32.08900
C  0.17600 8.83200 32.19900
C  0.29400 9.07600 33.67700
H  1.43800 8.39600 34.45700
N  2.20300 6.00300 26.92600
C  2.39900 5.11100 27.95500
C  2.95600 3.92800 27.41800
C  2.91100 3.99000 26.01500
C  2.43300 5.33200 25.73800
C  3.42300 2.82600 28.31600
C  3.26900 2.94300 24.97800
O  2.98700 3.18800 23.80000
C  3.79000 1.59400 25.34800
N  1.82300 8.28000 24.85100
C  1.89000 7.21100 24.07100
C  1.88200 7.63800 22.57700
C  1.47700 9.09000 22.61000
C  1.60000 9.38800 24.13900
C  3.22500 7.42800 21.82300
C  0.06800 9.39800 22.11800
C  -0.11600 10.58200 21.22000
N  1.72700 10.04100 27.06700
C  1.73800 11.01000 26.03900
C  1.86200 12.30400 26.66000
C  1.87000 12.05800 28.05900
C  1.66700 10.71400 28.23900
C  1.93300 13.68400 26.01400
C  1.88400 12.69700 29.35200
O  1.93400 13.82300 29.76200
C  1.80200 11.57900 30.42400
C  3.17200 11.65100 31.06200
O  4.20800 11.57500 30.46000
O  3.01800 11.80800 32.45100
C  4.28400 11.82400 33.15300
H  2.32400 4.65100 30.01700
H  2.28100 5.24500 23.58800
H  1.58200 11.45200 23.96400
H  2.42200 8.98700 31.95200
H  0.99400 6.41100 31.77500
H  3.61200 5.56100 31.62700
H  3.21800 6.26500 33.16400
H  3.97400 7.13500 31.93300
H  -0.58800 8.06100 32.10400
H  -0.26400 9.68500 31.68200
H  -0.57800 8.52600 34.03100
H  0.31600 10.14200 33.90600
H  4.49100 2.73500 28.11900
H  2.98300 1.83200 28.24100
H  3.41900 3.09700 29.37200
H  2.97200 1.07000 25.84200
H  4.74700 1.56000 25.86800
H  3.99000 1.09500 24.40000
H  1.12500 7.12300 21.98500
H  2.12700 9.68600 21.96900
H  3.87200 7.28500 22.68800
H  3.55000 8.32600 21.29700
H  3.31100 6.61400 21.10400
H  -0.45300 9.66800 23.03600
H  -0.41100 8.49500 21.73800
H  -0.40500 10.28100 20.21300
H  0.78100 11.20000 21.17800
H  -0.92300 11.18300 21.63900
H  0.96600 14.15100 25.82800
H  2.04000 13.47400 24.94900
H  2.72700 14.36200 26.32600
H  1.03600 11.74100 31.18300
H  4.63900 12.85400 33.20700
H  5.16800 11.30600 32.78200
H  4.00100 11.47500 34.14600
Mg 35.02000 49.51700 25.76600
C  35.02000 47.93600 28.87100
C  33.95700 52.36200 27.29400
C  34.90800 51.13000 22.71000
C  35.69600 46.51700 24.15900
N  34.33800 50.01800 27.85000
C  34.62500 49.23300 28.98000
C  34.47600 49.98900 30.27000
C  34.16800 51.48400 29.71600
C  34.14000 51.27700 28.16500
C  32.93400 52.14200 30.24500
C  35.69200 50.06100 31.16500
C  35.42300 49.68900 32.69400
H  33.95000 49.52200 33.20500
N  34.50000 51.45300 25.05900
C  34.05200 52.50500 25.86100
C  33.58600 53.58300 25.02400
C  33.91300 53.24400 23.65200
C  34.49500 51.93000 23.76600
C  32.86600 54.82600 25.64500
C  33.77500 54.06700 22.37300
O  34.04800 53.61400 21.26500
C  33.12900 55.44400 22.55600
N  35.15000 48.90700 23.77700
C  35.19700 49.77200 22.68800
C  35.92600 49.13300 21.47400
C  36.20600 47.70500 21.95500
C  35.64000 47.68900 23.39100
C  35.01800 49.06000 20.21700
C  37.79600 47.32100 21.89800
C  38.08500 46.46200 20.63200
N  35.41300 47.54400 26.31700
C  35.62500 46.35100 25.59300
C  35.90100 45.29500 26.48100
C  35.68200 45.87600 27.72800
C  35.35300 47.22600 27.58800
C  36.32300 43.88600 26.06600
C  35.56800 45.53900 29.16600
O  35.74400 44.52100 29.72100
C  35.17600 46.89600 30.00200
C  33.95000 46.52900 30.75500
O  32.80500 46.88100 30.52100
O  34.28500 45.77000 31.86600
C  33.24900 45.23000 32.78900
H  33.58400 53.27700 27.75900
H  35.12000 51.56300 21.73000
H  35.96800 45.58100 23.66700
H  33.59700 49.64500 30.81500
H  35.03700 52.11100 29.91500
H  32.14500 51.44500 30.52800
H  32.53100 52.91900 29.59500
H  33.31500 52.63100 31.14100
H  36.14900 51.05000 31.14900
H  36.46900 49.40500 30.77400
H  35.89100 50.48900 33.26900
H  35.94300 48.75700 32.91200
H  33.48900 55.11700 26.49000
H  31.92000 54.42700 26.01000
H  32.84100 55.70100 24.99500
H  33.03800 55.90900 21.57400
H  33.76000 56.14200 23.10600
H  32.08600 55.36900 22.86200
H  36.83400 49.72400 21.34500
H  35.65300 46.97900 21.35900
H  34.24100 49.82300 20.26500
H  34.62000 48.07500 19.97500
H  35.60200 49.53600 19.42900
H  38.19600 46.78700 22.76100
H  38.43800 48.18700 21.73600
H  37.31600 46.44100 19.86000
H  38.20400 45.43000 20.96200
H  38.91500 46.81800 20.02100
H  36.87500 43.47900 26.91400
H  37.01800 43.84200 25.22800
H  35.45900 43.26700 25.82500
H  36.02000 47.19500 30.62400
H  33.05600 44.25700 32.33700
H  32.27400 45.70700 32.70200
H  33.63700 45.14200 33.80400

