158

Mg 35.64300 2.92000 29.78100
C  33.33600 3.74600 32.23400
C  38.03200 2.63600 32.38700
C  37.80500 2.00400 27.50900
C  33.02400 2.85700 27.39000
N  35.67700 3.07100 32.03600
C  34.57700 3.42200 32.77100
C  34.95700 3.51600 34.27700
C  36.50200 3.36300 34.30800
C  36.74400 2.86300 32.88900
C  37.35000 4.64400 34.61200
C  34.28800 2.38100 35.13100
C  33.51000 2.72600 36.48100
H  34.13600 3.81000 37.46000
N  37.62900 2.54900 29.91100
C  38.42700 2.41400 31.02400
C  39.80800 2.12500 30.59300
C  39.81200 2.04100 29.12400
C  38.41100 2.22900 28.78500
C  40.90200 1.93300 31.52600
C  40.96300 1.74500 28.14100
O  40.77800 1.94500 26.98300
C  42.27700 1.19200 28.68800
N  35.41100 2.32300 27.76500
C  36.46100 2.00700 27.07400
C  36.14000 1.59300 25.59800
C  34.53900 1.69700 25.64100
C  34.26500 2.33800 26.99000
C  36.91600 2.27400 24.44400
C  33.64300 0.34300 25.47000
C  32.38500 0.36900 24.66800
N  33.67200 3.41000 29.71200
C  32.68400 3.35700 28.66700
C  31.36500 3.70900 29.20800
C  31.54800 3.96200 30.55800
C  32.97300 3.62200 30.84700
C  30.10100 3.77600 28.45300
C  31.02600 4.39800 31.78300
O  29.90200 4.76900 32.04100
C  32.06300 4.22600 32.91800
C  32.07500 5.43500 33.80700
O  32.66900 6.51700 33.58200
O  31.29800 5.19700 34.95000
C  31.38000 6.28200 35.98200
H  38.83000 2.52300 33.12400
H  38.44500 1.63700 26.70500
H  32.25700 2.70300 26.62800
H  34.57200 4.48200 34.60400
H  36.94700 2.64100 34.99400
H  38.07800 4.89400 33.84100
H  37.75800 4.64900 35.62300
H  36.69400 5.50600 34.49700
H  34.99500 1.59100 35.38300
H  33.63400 1.86400 34.42900
H  33.15000 1.83200 36.99200
H  32.61900 3.18300 36.05100
H  40.66300 1.05500 32.12700
H  40.91100 2.67500 32.32400
H  41.88700 1.88600 31.06100
H  42.85700 1.99600 29.14200
H  42.95800 0.67700 28.01100
H  41.94100 0.37500 29.32700
H  36.29800 0.52300 25.46200
H  34.16400 2.47900 24.98100
H  37.46500 3.05600 24.96800
H  36.20200 2.75900 23.77800
H  37.57200 1.54300 23.97200
H  33.34300 -0.02600 26.45000
H  34.33000 -0.31500 24.93700
H  32.53800 -0.20500 23.75500
H  32.10600 1.35700 24.30100
H  31.54800 0.04100 25.28600
H  29.31100 3.14400 28.85700
H  30.28800 3.55700 27.40200
H  29.66400 4.76900 28.34700
H  31.64600 3.50600 33.62200
H  30.73400 7.05300 35.56300
H  32.42400 6.53400 36.16600
H  30.94600 5.93500 36.92000
Mg 29.64400 58.73100 40.03400
C  26.85600 56.83500 38.80300
C  31.70100 56.13900 38.98700
C  32.29600 60.75700 40.12600
C  27.49100 61.46400 40.54000
N  29.30900 56.84000 38.65400
C  28.06100 56.18100 38.54300
C  28.25500 54.62800 38.27200
C  29.77500 54.44600 38.67100
C  30.29800 55.86700 38.85800
C  29.94500 53.39900 39.86800
C  27.81200 54.18000 36.88000
C  28.50000 54.91200 35.74500
H  27.56700 55.75900 34.76800
N  31.76600 58.46100 39.71100
C  32.38800 57.33000 39.27400
C  33.84300 57.54800 39.22400
C  34.02700 58.92800 39.56400
C  32.64200 59.46700 39.79700
C  34.76300 56.36500 38.87800
C  35.41300 59.57000 39.77500
O  36.40300 58.89000 39.62800
C  35.66600 61.04600 40.14400
N  29.83500 60.75200 40.40700
C  31.09400 61.38300 40.43300
C  30.95000 62.85600 40.88100
C  29.40000 63.11600 40.98300
C  28.87700 61.70200 40.61900
C  31.73400 63.37400 42.12000
C  28.74100 64.18100 40.05200
C  27.53500 64.97400 40.69100
N  27.48200 59.06500 39.98800
C  26.82500 60.19400 40.18500
C  25.40100 59.92100 40.03400
C  25.37500 58.63700 39.42400
C  26.64600 58.13300 39.39700
C  24.26400 60.84200 40.41500
C  24.46500 57.59500 38.87800
O  23.26500 57.68100 38.61200
C  25.42200 56.36400 38.52100
C  24.92300 55.16000 39.31600
O  25.51800 54.65500 40.25900
O  23.72700 54.73300 38.81400
C  23.04800 53.59200 39.48400
H  32.37700 55.30800 38.77500
H  33.13500 61.45500 40.17300
H  26.76200 62.20700 40.86900
H  27.62900 54.10000 38.99100
H  30.27400 54.11700 37.76000
H  30.56700 52.54900 39.58500
H  28.97400 52.94200 40.05800
H  30.36700 53.79900 40.78900
H  26.74100 54.32600 36.74300
H  27.97300 53.11900 36.68800
H  29.05400 54.19200 35.14300
H  29.26500 55.54300 36.19700
H  34.67600 55.97400 37.86500
H  34.64600 55.53700 39.57700
H  35.83200 56.58100 38.86700
H  35.46600 61.57000 39.20900
H  36.71600 61.11800 40.42500
H  35.10900 61.39400 41.01400
H  31.14300 63.43600 39.97900
H  29.08500 63.27100 42.01500
H  32.44700 62.59700 42.39600
H  31.03200 63.56800 42.93100
H  32.23000 64.31700 41.89000
H  28.32100 63.59500 39.23400
H  29.60100 64.81300 39.83400
H  26.56600 64.79600 40.22200
H  27.86000 66.01400 40.66900
H  27.23900 64.66700 41.69400
H  24.51300 61.46500 41.27400
H  23.48600 60.09500 40.56700
H  24.03900 61.54400 39.61200
H  25.13900 56.11200 37.49900
H  22.98100 53.75100 40.56000
H  23.40900 52.62100 39.14600
H  22.07700 53.56500 38.98900

