158

Mg 0.50200 8.22200 27.24000
C  1.10100 10.34900 29.97500
C  0.64900 5.57900 29.33500
C  0.50000 6.27800 24.53900
C  0.72500 11.04400 25.11500
N  0.91000 7.97500 29.41600
C  1.01900 8.99700 30.34800
C  0.74700 8.45400 31.76300
C  1.03000 6.99600 31.54200
C  0.77700 6.76600 30.00000
C  2.43700 6.49800 31.94300
C  -0.68900 8.79200 32.27100
C  -1.04700 9.19000 33.79200
H  -0.02700 8.94100 34.92300
N  0.56800 6.15700 26.98500
C  0.63500 5.19000 27.95600
C  0.65500 3.86200 27.38900
C  0.54400 4.01200 25.99600
C  0.55500 5.57300 25.77400
C  0.81500 2.57000 28.13700
C  0.43500 2.98000 24.88500
O  0.36000 3.34900 23.70800
C  0.36300 1.53000 25.18200
N  0.56300 8.64700 25.15500
C  0.52500 7.66900 24.26100
C  0.33300 8.18100 22.84200
C  -0.04500 9.70500 23.10500
C  0.41200 9.79800 24.52600
C  1.60800 8.09700 22.00600
C  -1.50300 10.03000 22.93400
C  -1.77100 11.28600 22.14000
N  0.77600 10.33000 27.48200
C  0.99500 11.30600 26.50600
C  1.27400 12.54800 27.15400
C  1.35600 12.26300 28.50700
C  1.09000 10.87000 28.61700
C  1.40500 13.86000 26.56800
C  1.57400 12.80400 29.86100
O  1.78400 13.91500 30.23600
C  1.26100 11.58200 30.83000
C  2.39200 11.48400 31.85600
O  3.42300 10.89400 31.67300
O  1.97400 12.10100 33.04300
C  2.98800 12.35500 33.98100
H  0.80400 4.82700 30.11200
H  0.38600 5.76400 23.58200
H  0.59400 11.79300 24.33200
H  1.46200 8.90200 32.45200
H  0.32700 6.39500 32.12000
H  2.94400 7.34300 32.40800
H  3.14500 6.09700 31.21800
H  2.20300 5.63800 32.57000
H  -1.30800 7.94500 31.97500
H  -0.93100 9.68600 31.69700
H  -2.03400 8.76900 33.98300
H  -1.26900 10.25500 33.84300
H  0.85700 2.69000 29.21900
H  1.68100 1.94400 27.92200
H  -0.09400 1.97800 28.03300
H  1.22100 1.09400 25.69400
H  0.32000 1.04600 24.20700
H  -0.51400 1.30200 25.78800
H  -0.53900 7.66400 22.44300
H  0.52100 10.38200 22.46500
H  1.59700 7.06400 21.65800
H  2.49700 8.14100 22.63500
H  1.70600 8.85800 21.23100
H  -2.01400 10.01500 23.89600
H  -2.10700 9.24700 22.47600
H  -0.92500 11.58900 21.52200
H  -2.04100 12.05200 22.86600
H  -2.59000 11.13900 21.43500
H  1.69900 14.55000 27.35900
H  0.44800 14.28800 26.27000
H  2.08800 13.84300 25.71800
H  0.33600 11.96400 31.26300
H  2.60100 12.79300 34.90100
H  3.73600 13.06000 33.61900
H  3.62300 11.49200 34.17700
Mg 26.94800 49.84800 26.40500
C  24.67200 51.05400 28.84000
C  28.72400 48.50500 28.95500
C  29.08800 49.04800 24.04200
C  25.14400 51.67600 24.05300
N  26.66200 49.78100 28.61000
C  25.69300 50.28400 29.37800
C  25.76400 49.73900 30.84600
C  27.22900 49.22800 30.90900
C  27.57400 49.15000 29.36200
C  28.33100 49.94200 31.75900
C  24.58800 48.77600 31.35100
C  23.72500 49.35700 32.56400
H  23.91800 48.49100 33.77300
N  28.63800 48.85000 26.52600
C  29.28200 48.36900 27.63800
C  30.50900 47.77100 27.27500
C  30.63300 47.89600 25.86000
C  29.41100 48.59200 25.39000
C  31.42600 47.11100 28.29700
C  31.72700 47.43700 24.89700
O  31.51100 47.54100 23.69300
C  33.02000 46.84500 25.34300
N  27.10400 50.33600 24.43700
C  28.03400 49.80200 23.55200
C  27.92400 50.32500 22.07300
C  26.60200 51.17800 22.15300
C  26.27100 51.08200 23.65000
C  29.21000 50.96900 21.50700
C  25.34000 50.65700 21.33700
C  24.60800 51.76600 20.55900
N  25.19200 51.12800 26.38700
C  24.60400 51.74900 25.32100
C  23.43000 52.38000 25.75200
C  23.41900 52.15000 27.17800
C  24.52300 51.38300 27.51100
C  22.59800 53.26100 24.89000
C  22.72400 52.35800 28.36300
O  21.75400 53.02800 28.64100
C  23.43900 51.63900 29.48300
C  23.73100 52.48400 30.70800
O  24.66900 53.30600 30.84300
O  22.68300 52.44100 31.54400
C  22.63400 53.41600 32.66000
H  29.29300 48.00800 29.74400
H  29.64600 48.76600 23.14700
H  24.49000 52.20300 23.35500
H  25.87400 50.62000 31.47800
H  27.13900 48.24600 31.37300
H  28.99200 49.20700 32.21700
H  27.87800 50.61400 32.48800
H  28.93100 50.59200 31.12200
H  25.03300 47.78600 31.46000
H  23.80400 48.64400 30.60500
H  22.73900 49.32800 32.10100
H  23.99900 50.35200 32.91400
H  32.31600 47.74000 28.28700
H  31.57900 46.11500 27.88000
H  31.02400 47.07200 29.31000
H  33.57900 46.72100 24.41500
H  32.83600 45.94500 25.92900
H  33.58100 47.49100 26.01800
H  27.79800 49.48000 21.39700
H  26.86400 52.22000 21.97100
H  28.98400 52.00600 21.25800
H  29.73000 50.36700 20.76200
H  29.97400 50.98700 22.28300
H  24.68800 50.15900 22.05500
H  25.73500 49.98300 20.57700
H  23.61900 51.81800 21.01400
H  24.53200 51.42000 19.52800
H  25.06000 52.75600 20.61900
H  22.27500 54.06200 25.55500
H  21.69500 52.71600 24.61700
H  22.96000 53.66600 23.94500
H  22.83100 50.77900 29.76500
H  23.26500 54.29100 32.50400
H  23.07900 52.87200 33.49400
H  21.57800 53.66300 32.77000

