158

Mg 53.59500 24.16400 44.19300
C  50.89200 26.46900 43.38300
C  51.73200 21.69800 42.63100
C  56.28600 22.39600 44.26900
C  55.42400 26.95600 45.46900
N  51.65000 24.22300 43.00200
C  50.67400 25.17000 42.86100
C  49.50700 24.62500 42.07500
C  49.66900 23.05400 42.38800
C  51.13500 22.94500 42.62100
C  48.79000 22.47600 43.51600
C  49.56300 24.95600 40.52200
C  50.67300 25.82200 39.87500
H  51.71800 25.11600 39.03300
N  53.96600 22.23400 43.57100
C  53.04600 21.34500 43.02500
C  53.65900 20.00300 43.09000
C  54.96800 20.18400 43.62700
C  55.13500 21.69200 43.79500
C  52.96800 18.73100 42.65000
C  55.88100 19.13600 44.02400
O  55.62300 17.98700 43.66400
C  57.17500 19.27400 44.82200
N  55.66500 24.61100 44.68100
C  56.59000 23.72200 44.49000
C  57.95600 24.31500 45.00300
C  57.72200 25.82800 45.25700
C  56.18400 25.79800 45.22900
C  58.55000 23.70100 46.27600
C  58.20800 26.88700 44.25400
C  58.86200 28.24700 44.78500
N  53.21300 26.25100 44.53600
C  54.02900 27.22800 45.10800
C  53.23900 28.45400 45.23800
C  52.02600 28.16600 44.56500
C  52.09000 26.85700 44.03100
C  53.74500 29.63900 45.97700
C  50.73000 28.77800 44.23400
O  50.26000 29.88300 44.49300
C  49.96500 27.67600 43.37200
C  49.68500 28.26900 42.08000
O  50.53600 28.70400 41.34300
O  48.35600 28.21400 41.75300
C  47.75400 28.74500 40.48700
H  51.17300 20.84600 42.23900
H  57.20900 21.81900 44.35000
H  55.89200 27.89300 45.77900
H  48.57500 25.08800 42.39600
H  49.40500 22.59200 41.43600
H  47.98000 23.13700 43.82300
H  49.40900 22.11800 44.33900
H  48.21700 21.63900 43.11500
H  48.69800 25.56000 40.24600
H  49.40800 23.98200 40.05700
H  51.19700 26.46000 40.58600
H  50.23600 26.64400 39.30700
H  52.83300 18.32400 43.65200
H  53.57600 18.02700 42.08100
H  52.03700 18.87900 42.10200
H  57.32700 18.35700 45.39100
H  57.02700 20.10300 45.51400
H  57.93200 19.51700 44.07500
H  58.68700 24.18100 44.20500
H  58.02900 26.20600 46.23200
H  59.63300 23.61100 46.18600
H  58.15000 22.71600 46.51700
H  58.37500 24.24900 47.20200
H  57.40000 26.97500 43.52700
H  59.01900 26.41500 43.70000
H  58.68900 28.36600 45.85400
H  58.41000 29.08500 44.25500
H  59.91300 28.34300 44.51100
H  54.57200 30.05600 45.40100
H  54.00800 29.36000 46.99700
H  52.86800 30.26800 46.12900
H  49.02100 27.44100 43.86400
H  48.38100 28.48200 39.63500
H  47.53800 29.81200 40.52000
H  46.73100 28.37200 40.45100
Mg 16.93300 51.92700 26.49600
C  19.04800 50.49700 28.96800
C  14.73200 52.80300 28.76300
C  15.02900 52.85300 23.96100
C  19.35400 50.67900 24.09200
N  16.89000 51.61200 28.63300
C  17.87000 51.05700 29.47000
C  17.41700 51.18800 30.90100
C  15.93700 51.71600 30.77400
C  15.82000 52.04300 29.28400
C  14.98600 50.56400 31.16600
C  18.37600 52.14300 31.69400
C  18.53400 51.80100 33.24100
H  17.70000 52.48600 34.28000
N  15.05000 52.64500 26.43200
C  14.28000 53.02100 27.45600
C  13.15000 53.81000 26.94200
C  13.09600 53.53600 25.51000
C  14.48600 52.97700 25.25500
C  12.24400 54.45600 27.99100
C  12.07400 53.77100 24.35900
O  12.17500 53.31000 23.21800
C  10.80300 54.43900 24.62200
N  17.22800 51.85100 24.30100
C  16.18500 52.24000 23.52300
C  16.53300 52.03700 22.09100
C  18.13600 51.75200 22.12000
C  18.29200 51.47300 23.58100
C  15.65600 51.05700 21.30400
C  19.15300 52.91700 21.79200
C  20.36600 52.55400 20.89400
N  18.85700 50.85300 26.48700
C  19.69700 50.40700 25.48600
C  20.85500 49.81500 25.96300
C  20.70800 49.83200 27.31700
C  19.42000 50.49400 27.66000
C  21.92200 49.23300 25.10600
C  21.27900 49.44000 28.60000
O  22.37900 48.97700 28.86800
C  20.26700 49.96600 29.75000
C  20.12400 48.92300 30.77100
O  19.21900 48.04400 30.77400
O  21.03700 49.03900 31.78000
C  20.78400 48.30100 33.05100
H  14.07400 53.07000 29.59300
H  14.46300 53.23600 23.10900
H  20.10100 50.24000 23.42700
H  17.58200 50.17500 31.27000
H  15.71800 52.52500 31.47100
H  15.23200 49.64100 30.64100
H  13.95400 50.74900 30.86700
H  15.08700 50.37800 32.23500
H  17.93800 53.14000 31.74300
H  19.39200 52.13300 31.29900
H  19.54800 51.92200 33.62400
H  18.36900 50.72600 33.31900
H  12.97900 54.90300 28.66000
H  11.67300 53.73600 28.57700
H  11.64000 55.21400 27.49200
H  10.79400 55.50100 24.86600
H  10.32400 53.99700 25.49500
H  10.06100 54.45400 23.82300
H  16.47200 52.96400 21.52100
H  18.28600 50.85800 21.51500
H  14.58100 51.22200 21.37800
H  15.97000 50.07400 21.65400
H  15.97400 51.17200 20.26800
H  19.55400 53.30700 22.72800
H  18.52100 53.69100 21.35700
H  20.21800 53.32600 20.13800
H  20.29500 51.52600 20.53700
H  21.29800 52.72400 21.43300
H  22.42000 49.97600 24.48300
H  21.52300 48.48700 24.41700
H  22.55700 48.75500 25.85100
H  20.64700 50.78800 30.35700
H  21.69600 48.15700 33.63000
H  20.35700 47.31100 32.88600
H  20.14300 48.78900 33.78500

