158

Mg 53.93600 24.41300 43.90100
C  51.16800 26.55400 43.31900
C  52.23800 21.85700 42.57800
C  56.88300 22.70200 43.53000
C  55.79100 27.40600 44.72300
N  52.04200 24.35600 42.82300
C  50.98000 25.22600 42.89600
C  49.68500 24.58500 42.36600
C  50.02000 23.10700 42.39400
C  51.53100 23.08700 42.70300
C  49.27000 22.21700 43.39700
C  49.04300 25.04800 41.03300
C  49.99800 25.58300 39.90000
H  50.04500 24.73000 38.65400
N  54.50000 22.42500 43.21400
C  53.63200 21.55700 42.68700
C  54.29200 20.27000 42.45300
C  55.66600 20.42900 42.87700
C  55.74800 21.90400 43.28900
C  53.53500 19.10100 41.88900
C  56.75900 19.38600 42.80000
O  56.53800 18.29500 42.30900
C  58.07900 19.59200 43.42600
N  55.96100 24.96700 43.94900
C  56.98800 24.08300 43.83400
C  58.41900 24.72700 44.04600
C  58.02300 26.25900 44.23500
C  56.45000 26.20600 44.34100
C  59.13500 24.03800 45.32300
C  58.73500 27.26800 43.16400
C  59.22100 28.63300 43.73900
N  53.57400 26.53000 44.25900
C  54.36400 27.57600 44.65500
C  53.52000 28.66800 44.96100
C  52.30700 28.29400 44.39300
C  52.37200 27.05400 43.95500
C  53.88100 29.92400 45.41900
C  50.96900 28.85800 44.16600
O  50.49800 29.93800 44.45900
C  50.30200 27.77600 43.32200
C  49.98200 28.38800 42.07200
O  50.82400 28.71700 41.26100
O  48.63500 28.44800 41.79200
C  48.21700 28.90200 40.43100
H  51.59000 20.99000 42.43300
H  57.85100 22.20700 43.42700
H  56.33400 28.33100 44.92800
H  49.03200 24.81100 43.20900
H  49.95500 22.72800 41.37500
H  48.21300 22.48000 43.41800
H  49.67500 22.28300 44.40700
H  49.20000 21.15900 43.14600
H  48.44100 25.90900 41.32200
H  48.39500 24.30000 40.57700
H  51.00800 25.65600 40.30400
H  49.56900 26.52600 39.56300
H  53.38600 18.99900 40.81400
H  52.58500 19.00300 42.41400
H  54.14400 18.24900 42.19000
H  58.60300 18.63900 43.49600
H  57.95900 20.02600 44.41800
H  58.57000 20.20000 42.66600
H  59.01800 24.64200 43.13900
H  58.39400 26.59200 45.20400
H  60.10600 24.49900 45.50900
H  59.28000 22.96800 45.17800
H  58.47000 23.94500 46.18100
H  57.92000 27.47500 42.47000
H  59.51500 26.72700 42.62800
H  58.73400 28.87800 44.68400
H  58.88500 29.45100 43.10100
H  60.30600 28.55600 43.80400
H  53.11700 30.70000 45.36700
H  54.76800 30.30200 44.91100
H  54.17700 29.76700 46.45600
H  49.33800 27.55100 43.78100
H  48.49700 29.95300 40.34900
H  47.14700 28.70100 40.38500
H  48.71800 28.37800 39.61700
Mg 6.43200 54.08300 40.48700
C  5.45100 50.68100 40.37900
C  9.72200 53.04800 39.68600
C  7.27500 57.34000 40.39200
C  3.11400 54.91100 40.98000
N  7.45600 52.06200 39.96700
C  6.78300 50.86900 40.06500
C  7.83300 49.71500 39.94600
C  9.20600 50.49300 40.10400
C  8.81100 51.96900 39.73100
C  9.89200 50.38800 41.53900
C  7.79800 49.10800 38.52800
C  7.94800 49.95200 37.25600
H  7.06500 49.44100 36.10100
N  8.23700 55.05900 40.17000
C  9.41200 54.49300 39.83000
C  10.31000 55.52800 39.54300
C  9.72500 56.83800 39.81500
C  8.35000 56.47000 40.24600
C  11.76600 55.22200 39.10800
C  10.29900 58.20300 39.58400
O  11.47500 58.32000 39.29300
C  9.56500 59.55700 39.69300
N  5.36900 55.85000 40.90200
C  5.91200 57.09700 40.71900
C  4.89200 58.22000 40.62300
C  3.51100 57.36600 40.68200
C  4.01600 55.94100 40.81100
C  5.25100 59.29900 41.63700
C  2.43600 57.57700 39.53600
C  1.00500 57.73000 40.11400
N  4.63500 53.05300 40.74300
C  3.41000 53.53800 41.05000
C  2.45200 52.46100 41.21200
C  3.25200 51.27700 41.00500
C  4.52300 51.70100 40.61800
C  1.05800 52.55400 41.67400
C  3.24900 49.87700 41.16000
O  2.41700 49.06600 41.54200
C  4.67700 49.43900 40.61800
C  4.37200 48.63100 39.44900
O  3.76600 48.89800 38.43900
O  4.92300 47.37500 39.71600
C  4.74100 46.37400 38.71300
H  10.76500 52.74700 39.56800
H  7.51700 58.40000 40.29000
H  2.09000 55.28500 41.05000
H  7.72900 48.97700 40.74200
H  9.91600 50.09100 39.38200
H  10.04700 51.36000 42.00900
H  10.83600 49.92500 41.25000
H  9.25200 49.76200 42.16000
H  6.85200 48.56900 38.49100
H  8.61000 48.38700 38.43300
H  8.96500 49.83500 36.88000
H  7.83100 51.02500 37.40300
H  12.13900 55.90800 38.34800
H  11.92700 54.22600 38.69700
H  12.41700 55.35100 39.97300
H  10.29800 60.34000 39.50000
H  9.15800 59.64500 40.70000
H  8.74400 59.59800 38.97700
H  4.99400 58.57300 39.59700
H  3.06300 57.73700 41.60400
H  5.83500 60.02400 41.07000
H  5.74600 58.97200 42.55100
H  4.28700 59.73500 41.89700
H  2.57700 56.72000 38.87700
H  2.61200 58.47900 38.95100
H  0.92800 57.79800 41.19900
H  0.39000 56.89300 39.78300
H  0.55600 58.63300 39.70200
H  0.39200 52.18300 40.89400
H  0.89400 53.60500 41.90900
H  0.90000 52.05500 42.63000
H  5.26300 48.89700 41.36100
H  5.29000 45.45400 38.91200
H  4.97900 46.70700 37.70200
H  3.70400 46.04100 38.76900

