158

Mg 35.85300 1.06100 29.53400
C  33.70200 2.27000 32.19400
C  38.48700 1.50400 31.70600
C  37.97000 0.39000 27.03000
C  33.24600 1.66400 27.31500
N  36.03500 1.88200 31.75100
C  35.05500 2.18700 32.64900
C  35.64900 2.24700 34.04900
C  37.20500 2.31000 33.79000
C  37.25800 1.90500 32.29600
C  37.87100 3.69200 34.08700
C  35.18300 1.04800 34.97100
C  35.23100 1.32000 36.53000
H  36.29100 2.27400 37.11800
N  37.92500 0.86600 29.40300
C  38.82300 1.02500 30.44100
C  40.08500 0.52300 29.95900
C  39.99000 0.18400 28.56000
C  38.60800 0.57700 28.26300
C  41.23100 0.25500 30.92800
C  41.09100 -0.29300 27.50900
O  40.79100 -0.39300 26.31500
C  42.45400 -0.57200 27.98900
N  35.63400 1.07200 27.59200
C  36.58700 0.57400 26.64500
C  36.01600 0.48100 25.18900
C  34.59400 0.56500 25.47800
C  34.47600 1.23000 26.86200
C  36.61200 1.55500 24.22800
C  33.80700 -0.76200 25.33700
C  32.65500 -0.82500 24.36900
N  33.87100 1.62900 29.71900
C  32.97900 1.94900 28.69500
C  31.68200 2.34900 29.26100
C  31.90000 2.44300 30.62500
C  33.23100 2.04600 30.84900
C  30.40600 2.45400 28.50900
C  31.24500 2.67100 31.88800
O  30.10500 3.04400 32.11300
C  32.42000 2.50400 33.00100
C  32.41800 3.68200 33.89200
O  32.36600 4.85700 33.47600
O  32.47600 3.29300 35.18300
C  32.88800 4.35900 36.08200
H  39.27200 1.41000 32.46000
H  38.53500 0.17300 26.12100
H  32.39000 1.69100 26.63800
H  35.25600 3.20600 34.38600
H  37.60600 1.55900 34.47100
H  37.08900 4.45100 34.05700
H  38.53600 3.83200 33.23500
H  38.32600 3.64000 35.07700
H  35.62100 0.09300 34.67800
H  34.12600 0.86900 34.77800
H  35.19700 0.34200 37.01000
H  34.28500 1.82400 36.72800
H  41.37600 -0.82500 30.95100
H  40.85700 0.39400 31.94200
H  42.08400 0.89300 30.69400
H  42.43700 -1.41000 28.68600
H  42.94700 0.33200 28.34700
H  42.91900 -1.01000 27.10700
H  36.25300 -0.49900 24.77400
H  34.19500 1.27500 24.75500
H  37.61000 1.86300 24.53700
H  35.85700 2.33400 24.12000
H  36.72600 1.04400 23.27200
H  33.40100 -0.95800 26.32900
H  34.44300 -1.63700 25.20700
H  31.74600 -0.70400 24.95800
H  32.71400 -1.76900 23.82600
H  32.58400 -0.01400 23.64400
H  30.42500 1.58100 27.85700
H  30.32300 3.32800 27.86300
H  29.59200 2.48200 29.23400
H  32.14400 1.62500 33.58300
H  32.03000 5.01400 36.23300
H  33.62400 5.02500 35.63100
H  33.39100 3.92300 36.94500
Mg 46.28200 16.09400 28.95800
C  44.40100 15.57200 31.87300
C  48.22400 18.14800 30.78500
C  47.75200 16.97300 26.10300
C  43.66700 14.59500 27.15000
N  46.15400 16.87900 31.10900
C  45.51700 16.34400 32.16400
C  46.06600 16.79500 33.50800
C  47.10500 17.84400 33.08500
C  47.15400 17.66300 31.52300
C  46.93700 19.34900 33.54400
C  46.43800 15.64600 34.45300
C  46.37700 15.89600 35.99000
H  46.44000 17.29900 36.54500
N  47.86100 17.27000 28.53900
C  48.53300 17.99400 29.40900
C  49.69700 18.55800 28.72900
C  49.60100 18.22900 27.41400
C  48.40300 17.43900 27.29800
C  50.73600 19.19700 29.59900
C  50.65400 18.53800 26.29600
O  50.47700 18.13900 25.15400
C  51.90000 19.33000 26.62400
N  45.81600 15.74800 26.94500
C  46.59600 16.21300 25.95600
C  46.01300 15.78800 24.60100
C  44.88300 14.81200 24.97200
C  44.71600 15.14300 26.42200
C  45.61400 17.07900 23.82200
C  45.13300 13.37800 24.57400
C  46.01800 12.55300 25.48300
N  44.44200 15.17200 29.40300
C  43.45700 14.58200 28.50000
C  42.37600 14.11500 29.30800
C  42.71600 14.40800 30.65700
C  43.91300 15.13300 30.61800
C  41.03200 13.56400 28.77400
C  42.23900 14.37900 32.02600
O  41.23500 13.97600 32.59100
C  43.29400 15.22800 32.81300
C  42.72900 16.43300 33.48200
O  42.30000 17.37100 32.84200
O  42.74000 16.27900 34.84500
C  42.07500 17.37400 35.49900
H  49.03600 18.56100 31.38800
H  48.25100 17.12400 25.14400
H  42.86400 14.05600 26.64200
H  45.23600 17.30100 34.00200
H  48.07200 17.56700 33.50700
H  47.88100 19.70600 33.95600
H  46.11000 19.48000 34.24100
H  46.68300 19.98400 32.69500
H  47.47700 15.32500 34.38100
H  45.84200 14.82400 34.05500
H  47.02400 15.24800 36.58200
H  45.38500 15.51800 36.23700
H  50.28900 19.67900 30.46900
H  51.37300 19.95300 29.13800
H  51.38600 18.37500 29.89900
H  52.67300 19.20100 25.86600
H  52.45200 18.72500 27.34300
H  51.65200 20.29500 27.06600
H  46.86900 15.41300 24.04000
H  43.94000 15.12600 24.52400
H  44.66300 17.41900 24.23200
H  45.47600 16.97500 22.74600
H  46.34200 17.86900 24.00600
H  45.49800 13.24500 23.55500
H  44.10200 13.02600 24.53400
H  46.60600 13.18900 26.14400
H  46.66200 11.77900 25.06700
H  45.28300 12.08300 26.13700
H  40.32900 13.98500 29.49200
H  41.04500 12.47500 28.72700
H  40.74700 13.97200 27.80500
H  43.62900 14.60500 33.64200
H  41.88700 17.30700 36.57000
H  41.07100 17.45400 35.08100
H  42.67100 18.27300 35.34300

