158

Mg 30.30100 59.37800 39.15700
C  27.18300 58.06200 38.25500
C  31.74900 56.53500 38.02100
C  33.15100 60.99400 39.44600
C  28.65900 62.49600 39.87200
N  29.55800 57.53200 38.21900
C  28.22000 57.20300 37.92300
C  28.18600 55.81100 37.20200
C  29.63100 55.22500 37.36700
C  30.36300 56.49300 37.94500
C  29.72100 53.94600 38.28400
C  27.67700 55.93800 35.71400
C  26.77600 54.79200 35.18100
H  25.87100 55.05400 33.98100
N  32.17400 58.86900 38.87300
C  32.64400 57.63200 38.42100
C  34.07900 57.60200 38.48700
C  34.52500 58.88500 38.90000
C  33.27400 59.66900 39.10100
C  34.82900 56.50100 37.97900
C  35.93600 59.21400 38.94100
O  36.78000 58.44600 38.57600
C  36.56500 60.45100 39.55200
N  30.82500 61.44200 39.60500
C  32.07100 61.81100 39.74400
C  32.22800 63.34300 40.03100
C  30.75000 63.73000 40.42400
C  30.03700 62.47900 39.85800
C  33.18400 63.82300 41.20200
C  30.26000 65.02300 39.61500
C  29.24200 65.93700 40.29900
N  28.36600 60.21100 39.06500
C  27.87800 61.44800 39.37500
C  26.47300 61.52700 39.28800
C  26.11000 60.19500 38.90100
C  27.33700 59.44200 38.75300
C  25.51800 62.63400 39.65400
C  25.09200 59.29100 38.50100
O  23.87800 59.52000 38.43000
C  25.71600 57.96100 38.11500
C  25.19700 56.83600 38.92000
O  25.18400 56.73200 40.14100
O  24.70700 55.87300 38.05000
C  24.34700 54.61100 38.75300
H  32.15700 55.56800 37.72000
H  34.13900 61.41500 39.64400
H  28.24100 63.47200 40.12900
H  27.43800 55.26200 37.77500
H  30.12100 55.01500 36.41500
H  28.77100 53.69400 38.75500
H  30.54400 54.09600 38.98300
H  29.99600 53.16900 37.57000
H  28.58900 55.92600 35.11600
H  27.09600 56.84500 35.54800
H  26.18700 54.68100 36.09100
H  27.40400 53.91100 35.05200
H  35.57300 56.80300 37.24100
H  34.22700 55.65800 37.64100
H  35.32900 56.14600 38.87900
H  37.53000 60.16700 39.97100
H  35.90300 60.75100 40.36400
H  36.55600 61.31300 38.88500
H  32.61000 63.76100 39.10000
H  30.61400 63.76300 41.50500
H  33.91000 63.01900 41.32800
H  32.74600 64.04200 42.17500
H  33.65000 64.67900 40.71300
H  29.73400 64.64800 38.73600
H  31.10700 65.58800 39.22700
H  29.26300 65.78200 41.37800
H  28.25600 65.61400 39.96400
H  29.55900 66.94400 40.03100
H  24.52200 62.27500 39.39600
H  25.93000 63.50600 39.14800
H  25.62300 62.72800 40.73500
H  25.47900 57.79600 37.06400
H  24.05600 53.88300 37.99700
H  23.44900 54.76400 39.35200
H  25.07700 54.15600 39.42200
Mg 7.08500 54.16600 40.21000
C  6.73300 50.69500 39.92000
C  10.31600 53.85200 39.20000
C  7.11200 57.44000 39.44100
C  3.70200 54.31200 41.00100
N  8.34200 52.45200 39.62200
C  8.02300 51.14700 39.57700
C  9.40300 50.32700 39.40000
C  10.39900 51.43400 39.56200
C  9.57400 52.65600 39.42300
C  11.05300 51.33100 41.00900
C  9.49800 49.49700 38.09500
C  9.29700 50.39200 36.88100
H  7.86000 50.67400 36.38800
N  8.55000 55.52700 39.61300
C  9.82200 55.16400 39.29300
C  10.62000 56.32100 39.00100
C  9.68500 57.40400 38.88100
C  8.36800 56.85900 39.36300
C  12.09900 56.35500 38.81200
C  10.09200 58.90300 38.52300
O  11.35600 59.13100 38.39700
C  9.19500 59.99100 38.49000
N  5.56200 55.56700 39.99000
C  5.86200 56.90300 39.82400
C  4.62600 57.82400 40.00800
C  3.50400 56.80500 40.51400
C  4.31700 55.46200 40.57400
C  4.87300 59.09600 41.00400
C  2.22900 56.80900 39.68600
C  0.94300 56.45400 40.38700
N  5.49900 52.75800 40.50800
C  4.22200 53.02100 40.92100
C  3.59000 51.78900 41.24700
C  4.49500 50.82600 40.74600
C  5.64600 51.50500 40.24100
C  2.28200 51.56100 41.87900
C  4.68900 49.40500 40.64300
O  3.94000 48.51900 40.94900
C  6.12200 49.28000 40.12000
C  6.11100 48.52400 38.87000
O  5.69400 48.91100 37.77200
O  6.71700 47.33800 39.00000
C  6.71600 46.45000 37.82900
H  11.32600 53.71400 38.80800
H  7.08800 58.52000 39.28400
H  2.70100 54.38100 41.43000
H  9.44900 49.60000 40.21100
H  11.18600 51.34400 38.81400
H  10.77200 50.41000 41.52100
H  10.91300 52.16300 41.69900
H  12.12100 51.15200 40.88900
H  8.75900 48.69600 38.10900
H  10.50900 49.10400 37.98700
H  9.88600 50.05300 36.02900
H  9.57100 51.41200 37.15100
H  12.20400 56.42400 37.72900
H  12.58000 55.41000 39.06400
H  12.52800 57.17600 39.38700
H  8.36700 59.66100 37.86200
H  9.68300 60.82200 37.98100
H  8.77000 60.14100 39.48300
H  4.41100 58.09800 38.97500
H  3.23100 56.95100 41.55900
H  4.23700 59.13600 41.88800
H  4.62800 60.04200 40.52200
H  5.92400 59.14700 41.29100
H  2.47800 56.01100 38.98600
H  2.16200 57.75900 39.15600
H  0.50700 55.55000 39.96200
H  0.28300 57.31200 40.26300
H  1.05300 56.37000 41.46800
H  1.46800 51.99500 41.29800
H  2.30200 51.92400 42.90700
H  2.00800 50.52600 42.08300
H  6.89500 48.87900 40.77600
H  6.22800 45.50300 38.05900
H  7.73100 46.19200 37.52500
H  6.39100 46.90700 36.89500

