158

Mg 23.97500 -6.62400 46.43900
C  26.06000 -4.16300 44.69500
C  21.48200 -5.65900 44.14100
C  22.41500 -9.46500 46.98700
C  26.82700 -7.58600 48.21700
N  23.77700 -5.08400 44.72700
C  24.79500 -4.25500 44.12500
C  24.18100 -3.41900 42.99700
C  22.67700 -3.45200 43.31900
C  22.55800 -4.80500 44.14300
C  22.06000 -2.27000 44.19100
C  24.64600 -3.88000 41.62900
C  25.34800 -2.83400 40.74400
H  25.11900 -2.86900 39.22900
N  22.08700 -7.46200 45.72000
C  21.19500 -6.87200 44.84200
C  19.98800 -7.65000 44.80500
C  20.21000 -8.81300 45.63600
C  21.59200 -8.63400 46.18100
C  18.88800 -7.29000 43.87800
C  19.24600 -9.95600 45.91700
O  18.10200 -9.86400 45.53700
C  19.63500 -11.21700 46.75200
N  24.63000 -8.34300 47.27800
C  23.73900 -9.40200 47.51300
C  24.32900 -10.49300 48.47400
C  25.67400 -9.76800 48.85000
C  25.73600 -8.41000 48.10200
C  23.39000 -10.86500 49.62100
C  26.96100 -10.69100 48.58000
C  27.88900 -10.88400 49.66000
N  26.00400 -5.90900 46.58300
C  27.04600 -6.38700 47.36400
C  28.21700 -5.57400 47.27500
C  27.84900 -4.65700 46.28600
C  26.50900 -4.89700 45.83000
C  29.57500 -5.62500 48.03700
C  28.25200 -3.46100 45.54900
O  29.34900 -2.88500 45.63500
C  27.16500 -3.14400 44.48700
C  26.80800 -1.72500 44.74500
O  25.90500 -1.23300 45.39400
O  27.71500 -0.98200 44.07400
C  27.33500 0.44300 43.90100
H  20.63400 -5.30000 43.55500
H  21.91700 -10.42500 47.13500
H  27.63200 -7.88500 48.89100
H  24.48600 -2.37700 43.09700
H  22.05500 -3.41000 42.42500
H  21.97100 -2.49600 45.25400
H  21.06700 -1.96700 43.85900
H  22.71000 -1.39700 44.14000
H  23.77500 -4.34300 41.16500
H  25.39100 -4.67100 41.71300
H  26.41600 -2.90100 40.95000
H  25.04500 -1.82700 41.02900
H  18.29200 -8.16300 43.61200
H  19.14800 -6.62700 43.05200
H  18.18600 -6.67700 44.44400
H  18.89300 -12.00800 46.64900
H  19.89100 -10.91500 47.76800
H  20.42400 -11.79100 46.26600
H  24.35200 -11.36700 47.82400
H  25.68900 -9.53800 49.91600
H  22.60300 -10.11100 49.60500
H  23.96500 -10.88400 50.54700
H  22.97900 -11.87000 49.52900
H  27.46500 -10.18500 47.75700
H  26.70300 -11.70700 48.27900
H  28.92500 -10.66900 49.39900
H  27.96000 -11.93100 49.95700
H  27.73000 -10.26400 50.54200
H  29.26400 -5.19300 48.98800
H  30.32200 -5.05900 47.47900
H  29.97400 -6.62300 48.22100
H  27.58800 -3.19100 43.48400
H  27.69100 0.91900 44.81500
H  26.26500 0.63900 43.84000
H  27.79500 0.84200 42.99700
Mg 35.62200 2.17900 30.11300
C  33.22800 2.65900 32.72600
C  38.02800 2.69200 32.48500
C  37.92200 1.74300 27.77800
C  33.03400 1.73100 27.94600
N  35.65900 2.51100 32.44000
C  34.50000 2.64700 33.24400
C  34.95400 2.91800 34.71000
C  36.42700 3.28100 34.56300
C  36.74500 2.87200 33.06800
C  36.59300 4.80600 34.75200
C  34.60800 1.67100 35.65100
C  34.28200 1.96000 37.18300
H  35.02200 3.16300 37.82500
N  37.70000 2.15700 30.17500
C  38.51400 2.44200 31.24300
C  39.88600 2.23400 30.83700
C  39.89100 2.01200 29.43300
C  38.42000 1.99200 29.04000
C  41.04200 2.16700 31.84700
C  41.03500 1.78900 28.49700
O  40.96700 1.57100 27.32800
C  42.47000 2.00900 28.93800
N  35.51100 1.78200 28.22600
C  36.56900 1.69900 27.35300
C  36.17800 1.71400 25.94000
C  34.70200 1.31000 26.07300
C  34.36900 1.65300 27.53400
C  36.42700 3.02700 25.19600
C  34.38000 -0.21500 25.76100
C  33.47000 -0.42800 24.57500
N  33.58900 2.28200 30.17000
C  32.67800 2.10400 29.21100
C  31.35800 2.14800 29.73200
C  31.50200 2.37800 31.08900
C  32.87400 2.43800 31.33700
C  30.01700 2.11400 28.92000
C  30.74200 2.67600 32.33500
O  29.48600 2.69700 32.54100
C  31.88100 2.82000 33.46200
C  31.76500 4.17300 34.07600
O  31.55200 5.29200 33.62900
O  31.66800 3.95900 35.44000
C  31.52700 5.21700 36.28500
H  38.76300 2.92800 33.25700
H  38.57600 1.54400 26.92700
H  32.15100 1.65600 27.30700
H  34.46400 3.74400 35.22600
H  37.15200 2.68800 35.12000
H  35.65000 5.33600 34.61400
H  37.34100 5.19000 34.05900
H  36.98300 5.16100 35.70600
H  35.44400 0.99300 35.47600
H  33.70200 1.20700 35.26400
H  34.61500 1.10200 37.76700
H  33.19500 2.04400 37.19100
H  42.01500 2.54000 31.52600
H  41.09700 1.10400 32.08300
H  40.81000 2.61600 32.81200
H  42.72500 3.04300 29.16800
H  43.03400 1.75300 28.04100
H  42.70500 1.27100 29.70600
H  36.69300 0.98600 25.31400
H  33.97400 1.84200 25.46100
H  36.79100 2.73500 24.21100
H  37.16900 3.65800 25.68400
H  35.44700 3.50500 25.20500
H  33.89400 -0.83100 26.51800
H  35.30700 -0.73200 25.51400
H  33.07400 0.48800 24.13600
H  32.75000 -1.20500 24.83300
H  34.04700 -0.91000 23.78500
H  30.02200 3.05800 28.37500
H  29.05300 1.93900 29.39700
H  30.17800 1.23400 28.29700
H  31.80100 2.07000 34.24800
H  30.51900 5.63000 36.26800
H  32.24400 5.98300 35.99100
H  31.70800 5.03400 37.34500

