158

Mg 23.37200 -6.00200 46.88500
C  25.65000 -3.86800 45.29800
C  20.91900 -4.66400 44.87400
C  21.59800 -8.75500 47.28200
C  26.11900 -7.45900 48.50100
N  23.36100 -4.68500 45.05800
C  24.38700 -3.82500 44.72600
C  23.94900 -2.81900 43.69500
C  22.35400 -2.80400 43.88600
C  22.19000 -4.13200 44.62800
C  21.74900 -1.58500 44.60100
C  24.39200 -3.22600 42.24800
C  24.83300 -2.09800 41.41400
H  24.94000 -2.31000 39.93400
N  21.48200 -6.61800 46.28700
C  20.60800 -5.87200 45.47900
C  19.39400 -6.56900 45.31200
C  19.63200 -7.88400 45.88000
C  20.94200 -7.81800 46.49800
C  18.22400 -6.13900 44.49300
C  18.61700 -8.98000 45.83400
O  17.56600 -8.79000 45.25500
C  18.81800 -10.27800 46.50300
N  23.83500 -7.81700 47.75900
C  22.88200 -8.73900 47.88100
C  23.36900 -10.02200 48.66300
C  24.79400 -9.56700 49.10500
C  24.90900 -8.22000 48.42600
C  22.41200 -10.66700 49.75100
C  26.00900 -10.48600 48.96100
C  26.94400 -10.60000 50.13400
N  25.47700 -5.66000 47.04600
C  26.45600 -6.29800 47.82400
C  27.71500 -5.65200 47.70000
C  27.46100 -4.65100 46.74600
C  26.09600 -4.79000 46.31100
C  28.90700 -6.01500 48.40000
C  27.99700 -3.53200 45.97300
O  29.13000 -3.06900 45.92000
C  26.87700 -3.08900 45.01500
C  26.86800 -1.61900 45.15500
O  27.07000 -0.82100 44.27200
O  26.75400 -1.28700 46.51000
C  27.26300 -0.00200 46.88400
H  20.04300 -4.20800 44.40800
H  21.03400 -9.69000 47.30500
H  26.96300 -7.84200 49.07800
H  24.38000 -1.82300 43.80300
H  21.97200 -2.77600 42.86500
H  22.54300 -0.92800 44.95500
H  21.20900 -1.89100 45.49700
H  21.11700 -1.05500 43.88900
H  23.53000 -3.67200 41.75200
H  25.15900 -3.99200 42.36500
H  25.81100 -1.73000 41.72400
H  24.21300 -1.21900 41.59000
H  18.46000 -5.31000 43.82700
H  17.40600 -5.91800 45.17900
H  17.79400 -6.84700 43.78500
H  18.66000 -10.24400 47.58100
H  19.73900 -10.68200 46.08200
H  18.06200 -10.98100 46.15200
H  23.43300 -10.76200 47.86500
H  24.68200 -9.28900 50.15300
H  22.51400 -11.73800 49.57700
H  21.38800 -10.29800 49.69600
H  22.78500 -10.47800 50.75800
H  26.58000 -10.22200 48.07100
H  25.55300 -11.46500 48.80900
H  26.84900 -9.74600 50.80400
H  27.97200 -10.58900 49.77200
H  26.77700 -11.53900 50.66300
H  29.65200 -5.22300 48.31500
H  29.36700 -6.86700 47.90000
H  28.65100 -6.25400 49.43200
H  27.17700 -3.25600 43.98100
H  26.50300 0.77800 46.89800
H  28.11500 0.35500 46.30500
H  27.71800 0.08000 47.87100
Mg 36.51500 49.37700 25.76300
C  37.00000 47.56300 28.80200
C  35.30000 51.98700 27.52800
C  35.73800 50.83500 22.80600
C  37.70100 46.58100 24.05800
N  36.27300 49.73900 27.91100
C  36.49300 48.90200 28.96200
C  36.18900 49.61600 30.31700
C  35.48300 50.95800 29.83400
C  35.66400 50.88200 28.30100
C  34.03800 51.13400 30.37800
C  37.44200 49.95400 31.21900
C  37.20700 49.70800 32.76400
H  35.88900 49.90800 33.48500
N  35.74600 51.28500 25.17600
C  35.25800 52.18000 26.09800
C  34.77500 53.32600 25.35000
C  34.98200 53.08400 23.93700
C  35.46400 51.67600 23.88200
C  34.18500 54.57200 25.98800
C  34.79100 53.94700 22.84200
O  35.18600 53.68600 21.72600
C  34.23800 55.28400 23.10600
N  36.59600 48.74600 23.75500
C  36.31500 49.59200 22.65500
C  36.63300 48.92700 21.35400
C  37.56000 47.78400 21.81600
C  37.35000 47.67700 23.28200
C  35.39500 48.52600 20.42300
C  39.09200 47.96500 21.54500
C  39.91100 46.70500 21.34000
N  37.07700 47.44100 26.27600
C  37.58300 46.45900 25.45300
C  37.74700 45.17200 26.21400
C  37.61600 45.62100 27.55400
C  37.21800 46.99900 27.53100
C  38.18300 43.85600 25.68600
C  37.69000 45.20600 28.95200
O  38.08900 44.14000 29.40000
C  37.28500 46.47900 29.90000
C  36.02500 46.01600 30.66900
O  34.87100 46.14100 30.27800
O  36.31100 45.41500 31.88400
C  35.15300 44.99100 32.71400
H  34.98200 52.87500 28.07700
H  35.71500 51.19500 21.77500
H  38.02700 45.83700 23.32900
H  35.42100 49.09900 30.89300
H  36.07200 51.76800 30.26500
H  33.92500 52.06400 30.93300
H  33.72200 50.29500 30.99800
H  33.27800 51.18800 29.59800
H  37.75400 50.99400 31.12000
H  38.34700 49.44800 30.88100
H  38.03800 50.26300 33.19800
H  37.45600 48.65200 32.86400
H  33.12600 54.68700 25.75500
H  34.78800 55.45600 25.78600
H  34.26000 54.33600 27.05000
H  33.22300 55.25700 23.50200
H  34.39700 55.86000 22.19400
H  34.90200 55.95400 23.65200
H  37.09200 49.65500 20.68600
H  37.16700 46.87500 21.36100
H  34.63000 48.29200 21.16400
H  35.51900 47.71800 19.70300
H  35.18000 49.41700 19.83400
H  39.39900 48.56000 22.40600
H  39.19800 48.58200 20.65300
H  39.21300 45.93300 21.01700
H  40.36800 46.39700 22.28100
H  40.62800 46.96500 20.56200
H  38.80200 44.02700 24.80500
H  37.33800 43.27800 25.31100
H  38.72700 43.43400 26.53100
H  38.11600 46.72400 30.56200
H  34.48400 44.31800 32.17800
H  34.53400 45.87500 32.86600
H  35.35900 44.37500 33.59000

