158

Mg 1.82300 8.80700 25.26000
C  1.93200 10.30800 28.35600
C  2.26900 5.73100 26.85700
C  1.57700 7.25400 22.23100
C  1.82000 11.81700 23.69700
N  2.18900 8.11200 27.38800
C  1.96900 8.88600 28.51700
C  1.98100 8.02900 29.80300
C  2.37600 6.54500 29.40000
C  2.26500 6.77000 27.82600
C  3.75500 6.09500 29.73900
C  0.68300 8.26300 30.66200
C  0.93200 8.51900 32.19700
H  2.31400 8.24400 32.82800
N  1.95000 6.80700 24.64700
C  2.14600 5.67800 25.41800
C  2.12800 4.42900 24.58500
C  1.77000 4.88300 23.25800
C  1.75800 6.34600 23.33500
C  2.28400 2.96800 25.11700
C  1.54000 4.09800 21.93900
O  1.18900 4.62000 20.93300
C  1.63800 2.54400 21.93700
N  1.51900 9.41100 23.27700
C  1.60400 8.63100 22.17900
C  1.78000 9.41000 20.90200
C  1.40500 10.83200 21.38700
C  1.55400 10.72100 22.87700
C  3.18600 9.27100 20.31800
C  0.00400 11.21200 20.92000
C  -0.04800 12.19000 19.74700
N  1.82900 10.76700 25.82100
C  1.94800 11.91700 25.07200
C  2.04300 13.06400 26.02300
C  2.01000 12.47700 27.31200
C  1.90000 11.08400 27.13500
C  1.88400 14.48200 25.60300
C  2.00900 12.70200 28.64800
O  2.11500 13.76500 29.24000
C  1.87900 11.38700 29.41700
C  3.13700 11.27800 30.24000
O  4.16900 10.82600 29.89800
O  2.91900 11.77100 31.51700
C  4.20400 12.35200 32.07100
H  2.26100 4.79500 27.42000
H  1.61600 6.99200 21.17200
H  1.92000 12.71200 23.08000
H  2.79500 8.49900 30.35400
H  1.59100 5.85700 29.71400
H  4.23000 6.89700 30.30500
H  4.40200 5.90000 28.88300
H  3.71200 5.17900 30.32700
H  0.02200 7.40400 30.54100
H  0.21100 9.19000 30.33700
H  0.21100 7.91900 32.75100
H  0.73400 9.54800 32.49500
H  2.76100 2.99800 26.09600
H  2.95500 2.51700 24.38600
H  1.31900 2.47400 25.22300
H  2.40000 2.02300 22.51600
H  1.87000 2.32100 20.89500
H  0.67200 2.16000 22.26500
H  1.20200 9.05300 20.05000
H  2.01500 11.56500 20.85900
H  3.76300 10.19400 20.37100
H  3.19300 9.00000 19.26300
H  3.66400 8.40600 20.77800
H  -0.51600 11.65700 21.76800
H  -0.56700 10.33800 20.60400
H  -0.47700 11.74900 18.84700
H  0.88800 12.62200 19.39400
H  -0.68600 13.02700 20.03400
H  1.44600 14.51800 24.60600
H  2.84700 14.99400 25.61200
H  1.27000 14.92500 26.38700
H  0.95800 11.41300 29.99900
H  5.08000 12.57300 31.46100
H  4.61400 11.60900 32.75400
H  4.00400 13.24500 32.66400
Mg 47.74300 45.22700 43.17200
C  44.27500 44.93900 43.18400
C  47.90700 41.78200 43.02600
C  51.00400 45.49200 42.48000
C  47.33900 48.73100 42.73300
N  46.25100 43.58100 42.90800
C  44.86600 43.69700 43.10800
C  44.23200 42.26700 43.19000
C  45.45900 41.34400 43.47900
C  46.59600 42.28000 43.11800
C  45.57900 40.90000 44.94700
C  43.46500 41.85000 41.91500
C  43.47200 42.79500 40.71700
H  42.84800 42.36800 39.35800
N  49.20200 43.85900 42.70400
C  49.08800 42.51000 42.76800
C  50.40500 41.90500 42.47900
C  51.35000 42.92000 42.30100
C  50.53500 44.17600 42.48900
C  50.55000 40.41000 42.26500
C  52.87000 42.74800 41.90300
O  53.36500 41.64000 41.96300
C  53.70200 43.94200 41.58200
N  48.94300 46.84100 42.49800
C  50.26600 46.65000 42.47500
C  50.95200 47.98600 42.71000
C  49.83500 49.06900 42.55100
C  48.58700 48.18200 42.61400
C  51.70200 48.08100 44.10200
C  49.97400 49.80700 41.17300
C  49.74000 51.31000 41.29400
N  46.24600 46.60800 43.02100
C  46.20300 47.99600 42.92700
C  44.81000 48.44500 43.01900
C  44.05800 47.27000 43.05100
C  44.92200 46.20900 43.12600
C  44.41500 49.86400 43.05400
C  42.67900 46.79700 43.22400
O  41.63200 47.44000 43.20300
C  42.77900 45.28600 43.25200
C  42.21800 44.88400 44.53900
O  42.59100 45.26500 45.62100
O  41.20200 43.90500 44.37800
C  40.59600 43.47200 45.59800
H  48.02700 40.73100 43.29700
H  52.07700 45.69000 42.43900
H  47.21900 49.79600 42.52600
H  43.63900 42.22400 44.10400
H  45.45500 40.53400 42.75000
H  44.69900 40.29100 45.15700
H  45.54000 41.74900 45.62900
H  46.59000 40.49600 45.00300
H  42.42800 41.73600 42.22900
H  43.90300 40.90900 41.58100
H  44.47100 43.10700 40.41100
H  42.90200 43.67500 41.01300
H  50.65200 40.34200 41.18200
H  49.77400 39.73300 42.62300
H  51.53200 40.04900 42.57000
H  53.23900 44.43100 40.72500
H  54.73200 43.61200 41.44400
H  53.66100 44.56100 42.47900
H  51.69600 48.05500 41.91600
H  49.83000 49.77200 43.38400
H  51.51300 48.90300 44.79300
H  52.72100 48.09800 43.71700
H  51.59700 47.12500 44.61500
H  49.22300 49.36900 40.51500
H  50.96200 49.72200 40.71900
H  48.79000 51.48100 40.78700
H  50.51700 51.77000 40.68400
H  49.68600 51.53700 42.35900
H  45.06700 50.41800 43.72900
H  43.40100 50.03300 43.41600
H  44.54200 50.23900 42.03800
H  42.19700 44.96500 42.38900
H  40.04200 44.32500 45.98900
H  41.26100 43.13500 46.39400
H  40.01600 42.60800 45.27200

