158

Mg -0.04900 7.81500 26.75700
C  0.96900 9.61900 29.49500
C  -0.25100 4.99000 28.75400
C  -0.91400 5.91100 24.10700
C  0.61500 10.42900 24.67000
N  0.29600 7.40900 28.92300
C  0.64100 8.35400 29.80300
C  0.35300 7.83800 31.24800
C  0.38800 6.25400 30.96400
C  0.11400 6.19800 29.41300
C  1.68300 5.43100 31.38000
C  -0.97700 8.41700 31.80800
C  -1.05000 8.26300 33.39000
H  0.08700 7.66200 34.22300
N  -0.59000 5.78600 26.48700
C  -0.68700 4.86000 27.44700
C  -1.33500 3.71800 26.92300
C  -1.66500 3.94300 25.57200
C  -1.03500 5.23600 25.31400
C  -1.69800 2.52100 27.72500
C  -2.43300 3.10300 24.55900
O  -2.58300 3.41700 23.41300
C  -2.96800 1.71800 24.88400
N  -0.00100 8.04900 24.64900
C  -0.36700 7.14700 23.77500
C  -0.16800 7.61000 22.34300
C  -0.09600 9.15800 22.56200
C  0.27900 9.22700 24.04300
C  1.19200 7.00300 21.73800
C  -1.52000 9.96100 22.43100
C  -1.69000 10.81400 21.23900
N  0.81400 9.59500 27.00400
C  0.87000 10.63700 26.01600
C  1.12100 11.89400 26.71700
C  1.32300 11.48300 28.08200
C  1.03800 10.12100 28.17200
C  1.35300 13.24800 26.18800
C  1.59100 12.00400 29.40200
O  1.83300 13.17100 29.73100
C  1.32100 10.79700 30.35300
C  2.51700 10.53300 31.28100
O  3.25800 9.54600 31.34900
O  2.62400 11.57900 32.17300
C  3.77600 11.40300 33.07300
H  -0.27200 4.09000 29.37200
H  -1.17800 5.34500 23.21200
H  0.67400 11.33600 24.06400
H  1.19700 8.03300 31.90900
H  -0.40100 5.77200 31.54100
H  2.23200 5.04700 30.52100
H  1.36800 4.57400 31.97500
H  2.34000 6.17000 31.84000
H  -1.89000 7.98400 31.40100
H  -1.03500 9.49500 31.65400
H  -2.02400 7.86200 33.67300
H  -0.96800 9.28300 33.76600
H  -2.68200 2.70600 28.15500
H  -0.96400 2.28900 28.49700
H  -1.87200 1.63000 27.12200
H  -2.29700 0.86500 24.78700
H  -3.85300 1.47400 24.29600
H  -3.34300 1.78400 25.90500
H  -1.02700 7.34500 21.72600
H  0.60800 9.72000 21.94900
H  1.04600 6.24800 20.96500
H  1.73600 6.50400 22.54000
H  1.73600 7.77500 21.19400
H  -1.84700 10.45500 23.34600
H  -2.35200 9.26100 22.35600
H  -1.08700 10.53200 20.37600
H  -1.45900 11.85100 21.48200
H  -2.69900 10.75600 20.83200
H  0.40700 13.74400 25.97000
H  1.97800 13.34700 25.30100
H  1.68200 13.88800 27.00700
H  0.44600 11.02700 30.96100
H  3.79600 10.44400 33.59100
H  3.76500 12.25400 33.75400
H  4.70400 11.39600 32.50200
Mg 7.91600 3.23600 27.25900
C  8.94900 1.50500 30.10800
C  5.74900 4.93900 29.18100
C  6.61000 4.50500 24.37100
C  10.01400 1.12500 25.37700
N  7.31600 3.07900 29.47800
C  7.89900 2.37800 30.45200
C  7.52400 2.97300 31.85800
C  6.37700 3.92000 31.50000
C  6.45800 4.00400 29.96900
C  4.92100 3.57600 31.98700
C  8.70000 3.69500 32.62300
C  8.36700 4.12900 34.03800
H  9.40100 4.02100 35.15700
N  6.48100 4.67400 26.88300
C  5.70400 5.27700 27.85200
C  4.92800 6.23900 27.15900
C  5.09200 6.09400 25.73900
C  6.04400 4.99700 25.55900
C  4.02700 7.24700 27.89800
C  4.47300 6.84700 24.57300
O  4.63200 6.59700 23.38400
C  3.73500 8.09200 24.91100
N  8.29400 2.87300 25.20500
C  7.68000 3.58000 24.23900
C  8.22700 3.18700 22.86000
C  9.42700 2.30400 23.18500
C  9.31600 2.08600 24.66400
C  7.13800 2.58200 22.01200
C  10.85400 2.94000 22.86900
C  11.35600 2.34600 21.54800
N  9.17300 1.52200 27.59800
C  10.01500 0.85600 26.73000
C  10.84400 -0.04400 27.53300
C  10.55800 0.21500 28.88200
C  9.45000 1.14000 28.84500
C  11.73200 -1.17000 27.04400
C  10.82900 -0.11700 30.24600
O  11.65500 -0.88100 30.69800
C  9.83400 0.79200 31.07500
C  9.12500 -0.02600 32.03200
O  8.28300 -0.88000 31.80700
O  9.64000 0.30300 33.27100
C  9.28000 -0.57900 34.42800
H  5.10200 5.52300 29.83900
H  6.17400 4.76800 23.40500
H  10.53800 0.51800 24.63600
H  7.08500 2.15700 32.43200
H  6.59300 4.85400 32.01800
H  4.14900 3.78500 31.24600
H  4.71800 4.26700 32.80600
H  4.82200 2.57300 32.40200
H  9.05100 4.57400 32.08200
H  9.58100 3.05400 32.59600
H  7.54700 3.50200 34.38800
H  8.13900 5.19500 34.01000
H  2.99000 6.91200 27.89400
H  4.07600 8.26500 27.51000
H  4.33800 7.30000 28.94100
H  2.85300 7.85800 25.50800
H  3.45000 8.62100 24.00200
H  4.48500 8.72900 25.38000
H  8.58600 4.13900 22.47000
H  9.41700 1.28100 22.80900
H  6.12700 2.67500 22.41000
H  7.33300 1.52800 21.81300
H  7.03400 3.04100 21.02900
H  11.56300 2.61900 23.63100
H  10.83500 4.02900 22.82200
H  12.03600 1.53400 21.80600
H  11.86100 3.05600 20.89200
H  10.52600 2.04500 20.90900
H  11.12400 -1.67100 26.29100
H  11.97500 -1.88500 27.83000
H  12.68900 -0.86200 26.62200
H  10.57500 1.42000 31.56900
H  8.54400 -0.08300 35.06100
H  10.20700 -0.72700 34.98200
H  8.95300 -1.59300 34.19900

