158

Mg 26.10900 50.56800 26.56100
C  23.88500 51.67800 28.82500
C  28.34000 49.93000 29.16000
C  28.32300 49.33200 24.29100
C  23.90800 51.17300 23.88900
N  26.10800 50.90500 28.70400
C  24.97600 51.10800 29.45300
C  25.20200 50.83100 31.00100
C  26.69200 50.62800 31.01300
C  27.10800 50.45900 29.56700
C  27.46700 51.79900 31.76000
C  24.34200 49.64000 31.57000
C  23.87800 49.67000 33.02200
H  24.37300 50.79000 33.96300
N  28.09200 49.84700 26.73400
C  28.79000 49.61600 27.88300
C  30.05300 49.02000 27.49300
C  30.10400 48.92500 26.12100
C  28.75700 49.36500 25.66300
C  31.18400 48.82900 28.48100
C  31.17500 48.44700 25.22000
O  31.25200 48.49800 23.97900
C  32.38400 47.80600 25.85900
N  26.14900 50.37500 24.37300
C  27.12900 49.77900 23.70400
C  26.84200 49.69900 22.20000
C  25.34000 50.11500 22.13500
C  25.09000 50.60600 23.56000
C  27.82100 50.54600 21.35200
C  24.22200 49.11700 21.58000
C  23.57400 49.65900 20.24400
N  24.34000 51.40900 26.37800
C  23.57300 51.69700 25.21600
C  22.42800 52.52000 25.67500
C  22.43600 52.49300 27.07100
C  23.65100 51.85000 27.38600
C  21.31000 53.08900 24.80100
C  21.74900 52.81100 28.29900
O  20.62100 53.30100 28.47700
C  22.67600 52.36900 29.45700
C  23.03500 53.54700 30.29100
O  24.01000 54.31600 30.06600
O  22.22000 53.70600 31.43300
C  22.35300 54.98300 32.07700
H  28.89200 49.48700 29.99100
H  29.00100 48.95600 23.52200
H  23.15400 51.29600 23.10900
H  24.99100 51.80400 31.44600
H  27.08100 49.72900 31.49000
H  27.79800 52.61900 31.12200
H  28.26300 51.24800 32.26000
H  26.82600 52.11800 32.58200
H  24.92700 48.73700 31.39500
H  23.41200 49.58000 31.00500
H  23.98300 48.69100 33.48800
H  22.79000 49.62700 32.97300
H  31.48000 47.82300 28.77500
H  30.99300 49.33300 29.42800
H  32.00500 49.46700 28.15400
H  32.93600 47.43500 24.99600
H  32.09200 46.92100 26.42500
H  33.02100 48.49600 26.41300
H  26.98300 48.69000 21.81100
H  25.22900 50.93000 21.41900
H  28.26200 50.02700 20.50100
H  28.69200 50.81600 21.94800
H  27.39000 51.49300 21.02700
H  23.39500 48.99000 22.28000
H  24.68100 48.15600 21.34900
H  24.29400 49.43600 19.45700
H  23.50200 50.74600 20.26800
H  22.52700 49.36100 20.17500
H  20.76100 53.83400 25.37600
H  20.58400 52.40800 24.35700
H  21.86200 53.64900 24.04600
H  22.11900 51.69500 30.10800
H  22.65000 55.84100 31.47400
H  23.10200 54.83100 32.85400
H  21.46500 55.13300 32.69100
Mg -1.54900 34.72700 26.72700
C  -3.02100 32.69100 29.38000
C  -0.30500 36.77300 29.11500
C  -0.60800 36.67200 24.35300
C  -3.29300 32.63700 24.49000
N  -1.65600 34.65100 28.98800
C  -2.28900 33.76400 29.90300
C  -1.87800 34.05500 31.35100
C  -1.11000 35.46300 31.18200
C  -1.04500 35.66900 29.64400
C  -1.75700 36.76400 31.81400
C  -0.94600 32.90400 32.00400
C  -1.55300 32.07200 33.21200
H  -0.63800 32.02300 34.50100
N  -0.56500 36.46800 26.70700
C  -0.02400 37.08700 27.75800
C  0.87500 38.13000 27.33500
C  0.79700 38.18100 25.90700
C  -0.14000 37.06100 25.59500
C  1.68800 39.05300 28.32800
C  1.55100 39.06800 24.87000
O  1.37100 38.96100 23.67800
C  2.56200 40.08500 25.32700
N  -1.86200 34.65300 24.71200
C  -1.39200 35.58200 23.92300
C  -1.87900 35.55400 22.52100
C  -2.65800 34.18600 22.55700
C  -2.68800 33.80000 24.05900
C  -2.64500 36.77100 21.94000
C  -2.17600 32.97100 21.67000
C  -0.68700 32.55300 21.91500
N  -2.72700 32.97200 26.82000
C  -3.37800 32.23100 25.83600
C  -4.21000 31.20500 26.35400
C  -3.97400 31.31700 27.74000
C  -3.23900 32.44700 27.99500
C  -5.00300 30.11500 25.72800
C  -4.21200 30.62700 29.01500
O  -4.79300 29.54100 29.19500
C  -3.71400 31.59200 30.19400
C  -4.86700 32.03800 31.05900
O  -5.79000 32.76400 30.74600
O  -4.81400 31.31400 32.15300
C  -5.77700 31.59300 33.20300
H  0.16100 37.41000 29.87000
H  -0.19000 37.27900 23.54700
H  -4.00100 32.17200 23.80100
H  -2.71600 34.20700 32.03200
H  -0.13000 35.40800 31.65800
H  -1.11700 37.39400 32.43100
H  -2.55900 36.42500 32.47000
H  -2.15200 37.39300 31.01600
H  -0.00100 33.38200 32.26400
H  -0.76900 32.19200 31.19800
H  -1.68600 31.04200 32.88000
H  -2.57000 32.42200 33.39100
H  1.97000 38.58400 29.27000
H  0.96600 39.82800 28.58700
H  2.55200 39.51700 27.85300
H  3.36100 39.65900 25.93400
H  2.15200 40.85200 25.98500
H  3.12700 40.40400 24.45100
H  -1.00800 35.48100 21.86900
H  -3.71300 34.34600 22.33400
H  -3.43300 36.43300 21.26700
H  -1.94200 37.36400 21.35400
H  -3.02900 37.34900 22.78100
H  -2.23800 33.27500 20.62500
H  -2.81500 32.09000 21.72800
H  -0.05500 33.01400 21.15600
H  -0.61600 31.46700 21.98700
H  -0.42000 32.87900 22.92000
H  -4.46700 29.66300 24.89400
H  -5.88900 30.53600 25.25400
H  -5.11300 29.28800 26.42900
H  -3.02400 30.97300 30.76800
H  -6.70200 31.83800 32.68200
H  -5.40500 32.37000 33.87200
H  -5.94300 30.69200 33.79300

