158

Mg 8.34200 2.17900 27.49900
C  9.78000 0.97000 30.25200
C  6.41500 4.42200 29.35900
C  6.77700 3.17700 24.64900
C  9.86500 -0.39400 25.63100
N  8.20400 2.71400 29.55400
C  8.93200 2.04900 30.50400
C  8.62200 2.67800 31.93300
C  7.41000 3.67900 31.53400
C  7.26900 3.60500 30.02200
C  6.13400 3.35000 32.30000
C  9.84500 3.27100 32.57200
C  9.70500 3.50500 34.12300
H  10.61400 2.67300 35.16900
N  6.85300 3.65000 27.08600
C  6.21400 4.41900 27.96800
C  5.26900 5.29700 27.23100
C  5.34000 4.93600 25.87600
C  6.45100 3.96200 25.76800
C  4.41400 6.29400 27.93400
C  4.52700 5.47500 24.72300
O  4.71800 5.25300 23.55000
C  3.40200 6.44800 25.04000
N  8.28900 1.48600 25.45200
C  7.57800 2.03400 24.48700
C  7.78600 1.32000 23.17100
C  8.96500 0.35500 23.50100
C  9.03700 0.46600 24.92800
C  6.53100 0.53600 22.83400
C  10.33900 0.86500 22.85500
C  11.35900 -0.25800 22.30500
N  9.61100 0.49700 27.81200
C  10.13600 -0.47000 26.98300
C  11.08000 -1.25400 27.71200
C  11.05100 -0.70600 29.01000
C  10.07100 0.29200 29.04100
C  11.99800 -2.25700 27.05800
C  11.60300 -0.80100 30.25900
O  12.46100 -1.55900 30.69400
C  10.76700 0.22500 31.17900
C  10.03900 -0.59700 32.18300
O  9.35100 -1.60600 32.07500
O  10.23000 -0.05600 33.45700
C  9.66200 -0.77100 34.60000
H  5.79300 5.07800 29.97100
H  6.22300 3.40200 23.73500
H  10.40200 -1.16800 25.07800
H  8.26900 1.91600 32.62700
H  7.83800 4.64900 31.78900
H  5.79500 2.39300 31.90200
H  5.45300 4.19500 32.20400
H  6.42200 3.17200 33.33600
H  10.12100 4.24500 32.16900
H  10.70400 2.60800 32.46900
H  8.65300 3.47300 34.40900
H  9.99500 4.53100 34.35100
H  3.42400 5.86400 28.08900
H  4.35300 7.20400 27.33800
H  4.97100 6.64900 28.80100
H  2.97400 6.75000 24.08400
H  3.78100 7.40800 25.39100
H  2.68200 6.05800 25.76000
H  7.97800 1.99200 22.33400
H  8.78100 -0.66600 23.16700
H  6.00000 0.25500 23.74300
H  6.74400 -0.37600 22.27500
H  5.79800 1.20100 22.37700
H  10.76700 1.56900 23.56800
H  10.08400 1.50000 22.00600
H  11.13800 -1.27300 22.63600
H  12.40100 -0.11700 22.59400
H  11.36700 -0.26200 21.21500
H  12.69400 -1.70900 26.42400
H  11.47500 -2.90200 26.35200
H  12.48400 -2.82100 27.85400
H  11.43900 0.88500 31.72900
H  9.97900 -1.80800 34.70200
H  8.58400 -0.66400 34.72200
H  10.17300 -0.38900 35.48400
Mg 0.08800 42.84900 24.84500
C  2.33300 42.38300 27.50700
C  -2.24300 41.07200 26.71600
C  -2.01200 43.18100 22.34900
C  2.81100 43.74800 22.87900
N  0.10400 41.64900 26.81200
C  1.06200 41.91200 27.80300
C  0.49000 41.65100 29.25300
C  -0.92400 41.02100 28.91200
C  -1.07600 41.26400 27.42200
C  -1.21100 39.55000 29.44100
C  0.52200 42.96300 30.12700
C  0.88800 42.78600 31.62100
H  0.70900 41.35600 32.16400
N  -1.86300 42.23600 24.60500
C  -2.65200 41.56000 25.48000
C  -4.03400 41.44000 24.89800
C  -3.93200 42.06300 23.61200
C  -2.49700 42.57100 23.47200
C  -5.14900 40.71900 25.51600
C  -5.07800 42.22300 22.73000
O  -4.87800 42.75700 21.59400
C  -6.40700 41.89300 22.98300
N  0.33500 43.25200 22.88600
C  -0.72900 43.51200 22.06600
C  -0.30800 44.33500 20.81300
C  1.22900 44.42200 20.91100
C  1.49100 43.83800 22.35200
C  -0.93400 43.74500 19.43200
C  1.85400 45.77300 20.78300
C  1.41800 46.92500 21.66700
N  2.16900 43.04600 25.09500
C  3.14300 43.40400 24.20900
C  4.42300 43.37000 24.79000
C  4.15900 43.08700 26.19800
C  2.76100 42.84000 26.26500
C  5.80100 43.59200 24.20900
C  4.67100 43.00400 27.52400
O  5.83400 43.16000 27.89100
C  3.49600 42.58400 28.44600
C  3.99100 41.25800 28.94100
O  4.15000 40.24400 28.23200
O  4.31100 41.28700 30.27000
C  4.78800 40.03000 30.84900
H  -3.04500 40.72000 27.36800
H  -2.71200 43.49500 21.57200
H  3.56200 43.96500 22.11600
H  1.23000 40.93500 29.61100
H  -1.66500 41.65800 29.39500
H  -0.51600 39.23500 30.21900
H  -1.28000 38.80200 28.65100
H  -2.19200 39.61000 29.91100
H  -0.47200 43.41000 30.09700
H  1.20100 43.68800 29.68100
H  0.31800 43.52300 32.18700
H  1.93700 43.07600 31.67700
H  -5.76800 41.42100 26.07500
H  -4.89900 39.97100 26.26800
H  -5.69100 40.06800 24.83000
H  -6.68700 40.84900 22.84600
H  -6.99700 42.40100 22.21900
H  -6.77700 42.02800 23.99900
H  -0.62800 45.36000 21.00100
H  1.62600 43.64600 20.25700
H  -1.56700 44.56700 19.09600
H  -1.48500 42.81700 19.57800
H  -0.12200 43.63100 18.71400
H  1.56700 46.05200 19.76900
H  2.94100 45.84100 20.83400
H  1.19700 47.78100 21.03000
H  2.22700 47.23400 22.33000
H  0.64800 46.68000 22.39800
H  5.92200 44.20200 23.31500
H  6.13700 42.58200 23.97100
H  6.38600 43.99000 25.03800
H  3.30400 43.25300 29.28500
H  3.90900 39.38900 30.91300
H  4.97000 40.13100 31.91900
H  5.59400 39.50200 30.34000

