158

Mg 17.23600 -2.45400 28.16700
C  16.07200 -0.60500 30.81900
C  19.03300 -4.54600 30.20500
C  18.37100 -4.09400 25.46300
C  15.68600 -0.17000 25.89500
N  17.48600 -2.56100 30.25000
C  16.82300 -1.73300 31.18300
C  17.26200 -2.12500 32.64500
C  18.23400 -3.35900 32.47600
C  18.26200 -3.52300 30.87400
C  19.62500 -3.11100 33.10700
C  16.05600 -2.42300 33.59900
C  15.75800 -1.47400 34.80600
H  16.99300 -0.90400 35.53200
N  18.50800 -4.10700 27.86900
C  19.07700 -4.89500 28.80600
C  19.87100 -5.99600 28.24500
C  19.59900 -5.93500 26.80200
C  18.82200 -4.69500 26.66800
C  20.69400 -6.84800 29.09800
C  20.10800 -6.75100 25.67900
O  19.73000 -6.59700 24.54700
C  21.04200 -8.01500 25.97400
N  16.99800 -2.20500 25.99300
C  17.69600 -2.93000 25.16000
C  17.67200 -2.41100 23.72700
C  16.68400 -1.17300 23.84700
C  16.41700 -1.18800 25.34900
C  19.13700 -2.14700 23.12700
C  15.33300 -1.33200 23.11100
C  14.77200 -0.03500 22.52800
N  16.07300 -0.67300 28.25600
C  15.54400 0.09000 27.28600
C  14.78200 1.15700 27.93800
C  15.01100 0.96500 29.29800
C  15.81600 -0.16600 29.44100
C  13.83100 2.08800 27.37200
C  14.66900 1.43700 30.57200
O  13.94000 2.38600 30.92200
C  15.41400 0.50300 31.65400
C  16.42900 1.30900 32.53600
O  17.60500 1.12700 32.44700
O  15.84100 2.29800 33.23500
C  16.84300 3.24800 33.81700
H  19.59700 -5.17600 30.89600
H  18.66900 -4.65600 24.57600
H  15.27700 0.51200 25.14700
H  17.75200 -1.28300 33.13500
H  17.84300 -4.30600 32.84800
H  19.66700 -2.26900 33.79700
H  20.48700 -3.12400 32.44000
H  19.87000 -4.00600 33.67800
H  16.03700 -3.48700 33.83800
H  15.22100 -2.32000 32.90500
H  15.12500 -2.07500 35.45900
H  15.19700 -0.63100 34.40100
H  19.96900 -7.54800 29.51400
H  21.14500 -6.28200 29.91300
H  21.48400 -7.32200 28.51600
H  21.13800 -8.57500 25.04400
H  20.51200 -8.44100 26.82600
H  21.97700 -7.57800 26.32400
H  17.23900 -3.27700 23.22500
H  17.16800 -0.30400 23.40200
H  19.58100 -3.00000 22.61400
H  19.78300 -1.93900 23.98000
H  19.25100 -1.29400 22.45900
H  14.53800 -1.75100 23.72900
H  15.49000 -2.10100 22.35500
H  15.51400 0.75800 22.61600
H  13.82400 0.20500 23.00900
H  14.65400 -0.14400 21.44900
H  14.18300 3.05000 27.00100
H  13.18500 2.50000 28.14800
H  13.17500 1.62000 26.63900
H  14.69400 -0.04100 32.26400
H  17.50700 3.62400 33.03800
H  17.42700 2.71000 34.56300
H  16.43200 4.18600 34.19000
Mg 30.75700 59.28800 38.83100
C  27.83200 57.37600 38.10700
C  32.59600 56.52000 38.17600
C  33.37700 61.18900 38.79700
C  28.62600 62.03200 39.26200
N  30.21800 57.26800 37.91700
C  28.94700 56.66700 37.92200
C  29.09500 55.21200 37.43400
C  30.55000 54.86800 37.99900
C  31.20900 56.31700 38.04800
C  30.54700 54.41400 39.48400
C  28.77300 55.14400 35.85600
C  27.55500 54.34100 35.46500
H  26.71100 55.03300 34.33600
N  32.65200 58.98300 38.28100
C  33.23500 57.71900 38.10500
C  34.64400 57.84200 37.82200
C  34.94800 59.26500 38.03000
C  33.62900 59.90500 38.40000
C  35.57900 56.71500 37.53200
C  36.34400 59.90800 37.93600
O  37.23200 59.11700 37.63500
C  36.69800 61.37000 38.26600
N  31.00300 61.32900 38.98300
C  32.19300 61.87000 39.11300
C  32.11000 63.35200 39.43500
C  30.58700 63.60100 39.67700
C  30.02300 62.23600 39.27400
C  33.06200 63.73600 40.64100
C  29.98000 64.73600 38.80900
C  28.87600 65.62400 39.43000
N  28.66200 59.66400 38.83500
C  27.97200 60.80900 39.06200
C  26.58300 60.56300 38.87200
C  26.40400 59.25600 38.51500
C  27.73300 58.72300 38.52300
C  25.43000 61.48900 39.06200
C  25.42800 58.26200 38.09700
O  24.17200 58.28000 38.12100
C  26.37600 56.97300 37.81100
C  26.02000 55.82900 38.67100
O  26.29000 55.71500 39.84800
O  25.23400 54.90400 38.02200
C  24.37200 54.13900 38.90400
H  33.16600 55.58900 38.19700
H  34.20400 61.90000 38.83900
H  27.99900 62.89300 39.50300
H  28.41100 54.60700 38.02900
H  31.11700 54.24200 37.31000
H  29.61900 53.91800 39.76700
H  30.64400 55.30500 40.10400
H  31.39800 53.73800 39.56900
H  29.73200 54.79700 35.47200
H  28.61200 56.11400 35.38600
H  27.00800 54.18900 36.39500
H  27.97500 53.43200 35.03500
H  35.13000 55.80300 37.14000
H  36.19900 56.39100 38.36800
H  36.24500 57.01300 36.72200
H  37.75000 61.47600 37.99900
H  36.51400 61.74600 39.27200
H  36.07800 61.92400 37.56100
H  32.44200 63.94600 38.58400
H  30.32000 63.75500 40.72300
H  34.02600 64.04300 40.23500
H  33.25800 62.89700 41.30900
H  32.59400 64.50200 41.25800
H  29.58700 64.30100 37.89000
H  30.74800 65.44700 38.50500
H  29.16900 66.59100 39.84000
H  28.34400 65.09800 40.22200
H  28.27700 65.83100 38.54300
H  24.87900 61.72700 38.15200
H  25.64700 62.24200 39.81900
H  24.72500 60.83600 39.57500
H  26.27500 56.68900 36.76300
H  23.99900 53.29600 38.32300
H  23.44800 54.70700 39.01400
H  24.72800 53.73100 39.84900

