158

Mg 43.40200 2.81100 48.02400
C  41.23000 5.48200 47.15000
C  40.95200 0.50600 47.65000
C  45.73800 0.41100 48.28200
C  46.05500 5.26000 47.84100
N  41.32000 3.01000 47.23100
C  40.58700 4.18100 47.20800
C  39.06500 3.82100 47.05900
C  39.02000 2.26800 47.38300
C  40.53200 1.87100 47.47000
C  38.18100 2.02300 48.80200
C  38.55900 4.19500 45.59500
C  37.66500 5.45300 45.60800
H  37.77100 6.38600 44.35600
N  43.38800 0.75500 47.90000
C  42.24700 0.00800 47.74800
C  42.57500 -1.38400 47.97300
C  43.97100 -1.44300 48.21500
C  44.49000 -0.11400 48.10100
C  41.67300 -2.47900 47.89300
C  44.75300 -2.72900 48.56200
O  44.16400 -3.79000 48.60300
C  46.22000 -2.82200 48.61600
N  45.52800 2.83300 47.82600
C  46.20500 1.72000 48.13100
C  47.71000 2.03500 48.34800
C  47.83600 3.42500 47.73100
C  46.40000 3.90100 47.79300
C  48.14600 1.98900 49.83000
C  48.33500 3.41800 46.25700
C  49.79800 3.65100 46.04300
N  43.64400 5.03100 47.70600
C  44.76400 5.80300 47.77100
C  44.33000 7.25100 47.72100
C  42.97600 7.15700 47.46200
C  42.61400 5.78000 47.34600
C  45.21600 8.43800 48.06500
C  41.79400 7.96400 47.35000
O  41.51500 9.16300 47.29400
C  40.60100 6.84800 47.10600
C  39.60400 7.00300 48.14900
O  39.70500 6.58300 49.31600
O  38.66200 7.89000 47.70900
C  37.81200 8.40000 48.77900
H  40.11200 -0.19200 47.64600
H  46.60100 -0.22200 48.49500
H  46.86000 5.98900 47.72700
H  38.47900 4.35800 47.80500
H  38.46500 1.70400 46.63300
H  37.50300 2.84600 49.02600
H  38.84400 1.99000 49.66700
H  37.71200 1.03900 48.78300
H  37.97400 3.39000 45.15200
H  39.42400 4.38400 44.95800
H  37.67900 6.12600 46.46500
H  36.62600 5.12600 45.57300
H  41.82900 -2.94700 46.92100
H  40.62600 -2.21500 48.03600
H  41.83200 -3.23400 48.66400
H  46.52900 -2.30700 47.70600
H  46.48700 -3.87700 48.68500
H  46.54200 -2.35400 49.54600
H  48.30400 1.38400 47.70600
H  48.52900 4.06400 48.27900
H  47.28800 1.69000 50.43200
H  48.74800 2.81900 50.20100
H  48.83700 1.15100 49.92300
H  47.71400 4.14700 45.73700
H  47.98200 2.51300 45.76300
H  49.84800 4.43700 45.28900
H  50.33800 2.98700 45.36800
H  50.42600 3.86200 46.90800
H  45.97700 8.54200 47.29100
H  45.59400 8.17900 49.05300
H  44.56000 9.30200 47.95200
H  40.22700 7.03100 46.09800
H  37.09100 8.97000 48.19300
H  38.28000 9.09200 49.47900
H  37.25600 7.58900 49.25000
Mg 47.31700 25.05500 28.25300
C  47.81800 27.54600 30.66000
C  46.52600 22.81000 30.64800
C  46.95900 22.76600 25.87500
C  48.64600 27.44100 25.88800
N  47.30900 25.13000 30.34300
C  47.51800 26.28100 31.16400
C  47.24700 25.92900 32.61500
C  46.84400 24.46000 32.61100
C  46.92300 24.03800 31.10800
C  47.66600 23.53600 33.58200
C  46.29800 26.92900 33.37300
C  45.71700 26.42200 34.73300
H  46.68800 26.03400 35.84700
N  46.76800 23.08100 28.25300
C  46.45200 22.27000 29.31700
C  46.18500 20.90700 28.90700
C  46.31800 20.96100 27.43300
C  46.70300 22.27300 27.13100
C  46.05900 19.76200 29.88200
C  46.13800 19.75500 26.53100
O  46.39300 19.72800 25.35900
C  45.74100 18.43700 27.06400
N  47.97800 25.03500 26.26500
C  47.61000 23.98800 25.44900
C  47.75100 24.34300 23.97100
C  47.80900 25.88400 23.95900
C  48.19600 26.15400 25.43200
C  48.88400 23.53600 23.21400
C  46.57300 26.61900 23.52500
C  45.35000 26.55700 24.47800
N  48.19200 26.99800 28.22500
C  48.68400 27.80300 27.22400
C  49.00200 29.09900 27.73200
C  48.67700 29.08200 29.11800
C  48.25600 27.72500 29.32100
C  49.53000 30.29600 26.86800
C  48.73100 29.83600 30.39000
O  48.98100 31.00600 30.55700
C  48.21200 28.83000 31.39300
C  49.30600 28.66900 32.41400
O  50.49800 28.33700 32.24400
O  48.95600 29.24700 33.65300
C  49.82000 29.01200 34.87200
H  46.27500 22.16000 31.48900
H  46.87900 21.98900 25.11100
H  48.67900 28.19100 25.09500
H  48.25100 25.96200 33.04000
H  45.78200 24.38600 32.84400
H  48.51300 24.05200 34.03400
H  48.17800 22.74300 33.03700
H  47.11800 22.91500 34.29100
H  45.48400 27.28700 32.74200
H  46.83300 27.74400 33.86100
H  45.08200 25.54700 34.59300
H  44.97500 27.18900 34.95300
H  46.63100 18.88400 29.58200
H  45.04400 19.37600 29.79800
H  46.05300 19.94000 30.95700
H  45.21100 17.89200 26.28300
H  45.10300 18.47600 27.94600
H  46.73300 18.02200 27.24200
H  46.82000 24.06100 23.47800
H  48.60800 26.32800 23.36400
H  49.36900 22.85000 23.90800
H  49.61600 24.24800 22.83300
H  48.45600 22.87500 22.46000
H  46.38600 26.01500 22.63800
H  46.88200 27.59700 23.15600
H  44.36900 26.46200 24.01200
H  45.34700 27.37900 25.19300
H  45.59600 25.63800 25.01100
H  50.08300 30.90900 27.58000
H  48.64500 30.74000 26.41100
H  50.19800 29.88400 26.11200
H  47.36300 29.22000 31.95400
H  50.62000 29.75000 34.91900
H  50.32900 28.04900 34.91300
H  49.25200 29.14100 35.79300

