158

Mg 47.47400 25.30300 28.19900
C  48.64700 27.69700 30.59400
C  46.24600 23.45700 30.79000
C  47.21800 22.77300 26.06500
C  49.57400 26.96500 25.87200
N  47.55000 25.52800 30.40800
C  47.75300 26.71500 31.13000
C  47.33700 26.61900 32.64400
C  46.83600 25.08900 32.74500
C  46.90400 24.65100 31.23200
C  47.76600 24.06400 33.51700
C  46.41300 27.68600 33.28300
C  46.78700 28.09600 34.73900
H  45.81400 28.45500 35.79200
N  46.70000 23.39900 28.38700
C  46.20900 22.80500 29.49900
C  45.64400 21.50300 29.22900
C  45.83800 21.28300 27.80000
C  46.59700 22.48100 27.31900
C  45.14600 20.49600 30.26600
C  45.43100 20.02700 26.93300
O  45.55300 19.96800 25.68000
C  44.61500 19.02900 27.62300
N  48.17900 24.93500 26.26700
C  47.88100 23.88300 25.54200
C  48.41100 23.96400 24.15100
C  48.86200 25.42200 24.00000
C  48.81000 25.79500 25.46500
C  49.49100 22.86900 23.81900
C  48.03000 26.40500 23.10400
C  48.54900 26.44500 21.70500
N  48.83000 27.09300 28.10800
C  49.51600 27.63200 27.10800
C  50.32600 28.76600 27.62500
C  49.99400 28.86600 29.00400
C  49.06900 27.80100 29.25000
C  51.33700 29.58700 26.75300
C  50.21100 29.54900 30.23700
O  50.74800 30.62600 30.42300
C  49.29800 28.87000 31.30800
C  50.18900 28.39100 32.44700
O  50.95700 27.41500 32.43800
O  49.98400 29.20600 33.52900
C  50.71800 28.85000 34.74500
H  45.52300 22.99300 31.46400
H  47.06700 21.92500 25.39400
H  49.98500 27.55100 25.04700
H  48.25100 26.64900 33.23700
H  45.80100 24.99800 33.07500
H  48.50000 24.60000 34.11900
H  48.26900 23.33500 32.88300
H  47.12200 23.57300 34.24700
H  45.38900 27.31300 33.31700
H  46.30400 28.59100 32.68600
H  47.58300 28.84000 34.69700
H  47.22800 27.23500 35.24000
H  44.22700 19.97600 29.99700
H  45.06100 20.92700 31.26300
H  45.86800 19.68100 30.22400
H  45.22700 18.78100 28.49000
H  44.45300 18.14900 27.00200
H  43.69100 19.58900 27.77100
H  47.52300 23.66300 23.59600
H  49.92100 25.38200 23.74100
H  50.41400 23.35700 23.50600
H  49.09200 22.14600 23.10800
H  49.68000 22.27200 24.71100
H  47.86800 27.37900 23.56600
H  47.04000 25.95100 23.14300
H  48.71000 27.51900 21.61100
H  47.74800 26.08300 21.06100
H  49.47700 25.92400 21.47300
H  50.81700 30.23100 26.04300
H  52.06300 28.88000 26.35100
H  51.86700 30.21100 27.47300
H  48.58900 29.59200 31.71300
H  51.72700 28.48200 34.55800
H  50.19900 28.13500 35.38300
H  50.78900 29.75800 35.34400
Mg 49.52300 35.26300 26.71900
C  47.36700 34.05600 29.13600
C  50.00600 38.03900 28.45900
C  51.42600 36.41200 24.10500
C  48.74400 32.41000 24.78500
N  48.67400 36.00000 28.56300
C  47.96700 35.26800 29.45600
C  48.06100 35.88400 30.79500
C  48.62200 37.28500 30.58300
C  49.11200 37.17600 29.10400
C  47.67100 38.53900 30.80500
C  49.19100 35.12100 31.64600
C  48.94400 34.67900 33.04900
H  47.85200 35.47000 33.80300
N  50.52400 37.07400 26.28200
C  50.64200 38.09300 27.20400
C  51.52000 39.11700 26.67900
C  51.95200 38.62400 25.40900
C  51.32500 37.33200 25.21700
C  51.77300 40.42900 27.39900
C  52.70500 39.35500 24.39200
O  52.77100 39.00300 23.22500
C  53.30900 40.68300 24.68900
N  49.97500 34.52100 24.77300
C  50.78500 35.16600 23.90200
C  51.16600 34.29900 22.70900
C  50.44500 32.97200 22.95300
C  49.63300 33.28800 24.20400
C  50.88700 35.05600 21.26000
C  51.45800 31.83900 23.03500
C  51.23400 30.77300 22.00600
N  48.30400 33.67400 26.85100
C  48.05600 32.63300 25.98100
C  47.11600 31.72200 26.54200
C  46.73300 32.25700 27.82600
C  47.52500 33.41900 27.89700
C  46.74700 30.33800 25.90700
C  45.92700 31.97000 28.95000
O  45.12400 31.10600 29.27000
C  46.43000 33.12800 29.95300
C  46.97700 32.45500 31.15300
O  48.09400 31.98100 31.24700
O  45.85400 32.34300 32.05100
C  46.10200 31.58000 33.26700
H  50.23200 38.84600 29.15900
H  52.10100 36.65800 23.28200
H  48.51100 31.44300 24.33400
H  47.14200 35.94900 31.37700
H  49.50900 37.47400 31.18800
H  47.56800 39.11800 29.88700
H  48.18800 39.11600 31.57200
H  46.66600 38.46100 31.22000
H  50.16400 35.60800 31.57600
H  49.26400 34.22700 31.02700
H  49.81300 35.04400 33.59700
H  48.88600 33.59800 33.17800
H  51.51600 40.29100 28.44900
H  51.20000 41.24200 26.95300
H  52.84200 40.63900 27.43400
H  52.52700 41.40100 24.94000
H  53.88200 41.13500 23.88000
H  54.01500 40.45100 25.48600
H  52.24700 34.17900 22.76900
H  49.70600 32.83600 22.16300
H  50.65000 36.10100 21.46100
H  50.31400 34.54000 20.48900
H  51.88000 35.11700 20.81600
H  51.33700 31.35900 24.00600
H  52.45900 32.22900 22.84700
H  51.87700 30.81500 21.12700
H  50.22700 30.64800 21.60800
H  51.42400 29.82700 22.51300
H  45.90100 29.90400 26.44100
H  47.52600 29.58200 25.81100
H  46.47700 30.40800 24.85300
H  45.54700 33.67000 30.29100
H  47.09100 31.12500 33.21500
H  45.46900 30.70400 33.40700
H  45.97000 32.29200 34.08100

