158

Mg 24.71400 -4.63300 46.18400
C  26.50500 -2.31900 44.21400
C  21.81000 -3.75300 44.33600
C  23.21100 -7.39800 47.30200
C  27.72200 -5.49300 47.60500
N  24.33200 -3.18600 44.46300
C  25.16000 -2.29200 43.87000
C  24.41000 -1.44500 42.84400
C  22.95300 -1.54500 43.42700
C  23.02000 -2.98300 44.12200
C  22.47500 -0.48500 44.47100
C  24.51400 -2.10600 41.50400
C  25.30700 -1.41600 40.42700
H  25.03300 -2.02400 38.99700
N  22.77700 -5.46200 45.86900
C  21.68100 -4.93800 45.14500
C  20.51600 -5.73500 45.31100
C  20.90900 -6.78500 46.19200
C  22.34400 -6.54000 46.50200
C  19.14000 -5.48200 44.64200
C  19.92000 -7.83000 46.82000
O  18.80900 -7.93900 46.42900
C  20.36100 -8.75800 47.90000
N  25.46400 -6.35600 47.20000
C  24.59800 -7.29900 47.55700
C  25.34900 -8.37300 48.37200
C  26.82200 -7.74900 48.53600
C  26.69500 -6.45500 47.76300
C  24.63900 -8.75500 49.66800
C  27.88600 -8.54800 47.69200
C  28.90700 -9.18600 48.54700
N  26.67200 -4.01100 46.11300
C  27.79100 -4.29300 46.86600
C  29.01400 -3.60300 46.38700
C  28.51300 -2.73900 45.36600
C  27.06600 -3.07600 45.23000
C  30.49700 -3.81300 46.91600
C  28.84900 -1.67700 44.41600
O  29.92600 -1.15700 44.11900
C  27.54400 -1.34900 43.66100
C  27.31700 0.11700 43.65100
O  26.79800 0.69100 44.57500
O  27.87200 0.61800 42.53500
C  27.70100 2.02500 42.20500
H  20.99700 -3.40600 43.69500
H  22.67400 -8.25200 47.72000
H  28.70300 -5.83800 47.93700
H  24.90700 -0.47600 42.86600
H  22.23200 -1.58500 42.61100
H  23.15600 0.36100 44.38000
H  22.51000 -0.80500 45.51200
H  21.46500 -0.09900 44.33000
H  23.49300 -2.26500 41.15800
H  24.91500 -3.11200 41.63000
H  26.38900 -1.50700 40.51500
H  25.14200 -0.33900 40.45600
H  18.90200 -4.42900 44.48800
H  18.25300 -5.91500 45.10400
H  19.07700 -5.95400 43.66200
H  21.04700 -9.55100 47.60000
H  19.47100 -9.29300 48.23200
H  20.65900 -8.13800 48.74500
H  25.33700 -9.26200 47.74100
H  27.15100 -7.58500 49.56200
H  23.69600 -8.25600 49.88900
H  25.24600 -8.45100 50.52100
H  24.50100 -9.83000 49.78000
H  28.41900 -8.04700 46.88500
H  27.52000 -9.47100 47.24000
H  28.61900 -10.20000 48.82400
H  28.99500 -8.53000 49.41400
H  29.82400 -9.28300 47.96700
H  30.78800 -3.15000 47.73100
H  31.21100 -3.64700 46.10900
H  30.53500 -4.86700 47.19400
H  27.76000 -1.52300 42.60600
H  26.92400 2.41400 42.86300
H  27.51000 2.25000 41.15600
H  28.62300 2.56800 42.41600
Mg 16.23200 -1.02000 28.14100
C  15.17900 1.01000 30.71000
C  18.50100 -2.54700 30.42900
C  18.00700 -2.19700 25.65000
C  14.41900 0.92700 25.87500
N  16.74800 -0.72200 30.35200
C  16.06300 0.07100 31.18800
C  16.56100 -0.02800 32.63600
C  17.81800 -0.90600 32.48200
C  17.74800 -1.42400 31.01000
C  19.23100 -0.42600 32.75500
C  15.43100 -0.53700 33.69100
C  15.26900 0.03900 35.07000
H  16.42400 0.84600 35.61900
N  17.91400 -2.27200 28.07000
C  18.64200 -2.85200 29.08700
C  19.61100 -3.82600 28.57400
C  19.44400 -3.78100 27.11100
C  18.40700 -2.71000 26.89900
C  20.50300 -4.69300 29.49900
C  20.21100 -4.52600 26.02800
O  20.03900 -4.29900 24.80400
C  21.19000 -5.58900 26.40100
N  16.08700 -0.77500 26.05000
C  16.96600 -1.35100 25.18300
C  16.60600 -1.09300 23.70400
C  15.48800 -0.10700 23.86100
C  15.26300 0.00100 25.33100
C  17.80100 -0.53100 22.88000
C  14.18000 -0.48500 23.19300
C  14.00900 -0.23300 21.65200
N  14.99300 0.57700 28.24500
C  14.26500 1.24800 27.25900
C  13.54600 2.37500 27.79500
C  13.83800 2.26300 29.20100
C  14.78000 1.21000 29.40300
C  12.70300 3.33800 27.09500
C  13.61100 2.88200 30.44300
O  12.92800 3.84300 30.74900
C  14.52300 2.11400 31.53400
C  15.45000 3.15100 32.06000
O  16.30300 3.66800 31.31100
O  15.14800 3.67900 33.34100
C  16.06700 4.83800 33.66000
H  19.18900 -2.93500 31.18200
H  18.37500 -2.76800 24.79500
H  13.79500 1.51300 25.19800
H  16.90800 0.94600 32.98000
H  17.52300 -1.73300 33.12800
H  19.11800 0.64500 32.92300
H  19.77400 -0.40900 31.81000
H  19.75400 -0.92600 33.57100
H  15.54300 -1.62100 33.71600
H  14.49300 -0.26000 33.21100
H  15.11500 -0.82300 35.71900
H  14.38000 0.67000 35.08300
H  21.58300 -4.55500 29.46000
H  20.50500 -5.73500 29.18000
H  20.15200 -4.75000 30.53000
H  21.69600 -5.76600 25.45200
H  20.68100 -6.52400 26.63500
H  21.91300 -5.33800 27.17700
H  16.17800 -2.02200 23.32800
H  15.73200 0.92000 23.58900
H  18.55400 -0.08300 23.52900
H  17.46700 0.14500 22.09300
H  18.38500 -1.26800 22.32900
H  13.32500 0.07400 23.57200
H  14.02000 -1.55400 23.33600
H  14.97500 0.10100 21.27600
H  13.17800 0.46700 21.56500
H  13.75600 -1.20000 21.21600
H  13.19700 3.52300 26.14100
H  12.73300 4.29500 27.61500
H  11.73100 2.85000 27.01800
H  13.94100 1.74100 32.37700
H  15.82900 5.03600 34.70500
H  15.87100 5.72700 33.06100
H  17.09700 4.50800 33.52400

