158

Mg 35.73000 47.89200 25.87100
C  36.21600 46.00200 28.77800
C  34.61100 50.47100 27.68900
C  34.84600 49.30800 22.88100
C  36.74900 44.96000 24.09600
N  35.41600 48.14300 27.97300
C  35.83200 47.32600 29.01700
C  35.62000 47.98600 30.34300
C  34.84700 49.30300 29.99300
C  34.92900 49.31400 28.45000
C  33.41000 49.36100 30.63600
C  37.02500 48.24600 31.00700
C  37.03000 48.69100 32.48400
H  35.66900 48.65100 33.17600
N  34.71600 49.60000 25.36300
C  34.48800 50.58400 26.29500
C  34.11100 51.73200 25.55800
C  33.99500 51.43300 24.19200
C  34.43200 50.01400 24.06400
C  33.86000 53.10800 26.21100
C  33.53600 52.26800 23.00200
O  33.52600 51.83900 21.88000
C  33.27200 53.68400 23.20200
N  35.90600 47.27900 23.85000
C  35.49600 48.07800 22.78800
C  35.63500 47.38200 21.49000
C  36.38900 46.06000 21.84600
C  36.40800 46.10200 23.36000
C  34.28100 47.21600 20.67500
C  37.86100 46.13600 21.36000
C  38.58900 44.83300 21.04500
N  36.27700 45.79900 26.25800
C  36.67800 44.76700 25.45800
C  37.14400 43.64700 26.22600
C  36.86300 44.05600 27.51400
C  36.42400 45.43800 27.48500
C  37.80800 42.28600 25.80500
C  36.86000 43.64200 28.91100
O  37.25600 42.63400 29.46900
C  36.45000 44.94300 29.69500
C  35.24600 44.63200 30.44400
O  34.17500 44.39500 29.97300
O  35.52700 44.67100 31.77000
C  34.51300 44.44400 32.76600
H  34.32500 51.35500 28.26300
H  34.62200 49.69800 21.88600
H  37.18400 44.06100 23.65400
H  35.03000 47.21100 30.83300
H  35.38900 50.16500 30.38200
H  33.12700 48.41200 31.09200
H  32.63700 49.60000 29.90600
H  33.44500 50.08900 31.44600
H  37.44400 49.10500 30.48300
H  37.66900 47.37800 30.86300
H  37.53300 49.64800 32.62000
H  37.58900 47.91100 33.00200
H  33.01600 53.53000 25.66500
H  34.71100 53.78000 26.09300
H  33.60700 53.00100 27.26500
H  34.07000 54.12900 23.79600
H  32.25900 53.77000 23.59500
H  33.09900 54.16200 22.23800
H  36.18000 48.08400 20.85900
H  35.91500 45.14200 21.50000
H  33.59800 47.94000 21.11900
H  33.95700 46.17700 20.61900
H  34.30600 47.62200 19.66400
H  38.54900 46.50000 22.12300
H  38.00800 46.75400 20.47400
H  37.93500 44.02100 20.72900
H  39.14000 44.56700 21.94700
H  39.18900 45.24200 20.23200
H  38.14500 42.25500 24.76900
H  37.11400 41.44700 25.85700
H  38.69800 42.20300 26.42700
H  37.23400 45.12000 30.43100
H  33.55700 44.81800 32.39800
H  34.72600 45.06100 33.63800
H  34.52700 43.38000 33.00200
Mg 16.96200 51.52200 25.48200
C  18.77800 50.27100 28.33800
C  14.44600 52.44500 27.64600
C  15.67400 52.98000 22.97800
C  19.54700 50.22600 23.56800
N  16.64500 51.26500 27.68800
C  17.46000 50.75500 28.66000
C  16.91500 51.21100 30.02800
C  15.41200 51.41000 29.78000
C  15.51000 51.74300 28.25400
C  14.57300 50.10600 30.04900
C  17.67100 52.47000 30.56400
C  17.98800 52.48700 32.10500
H  17.02100 51.84700 33.17100
N  15.18600 52.65100 25.29500
C  14.29300 52.91500 26.28500
C  13.25000 53.76900 25.67900
C  13.58000 53.93300 24.27300
C  14.86200 53.24700 24.12700
C  12.00000 54.07900 26.36000
C  12.85200 54.73700 23.14800
O  13.23400 54.82300 21.99600
C  11.70300 55.54700 23.51700
N  17.49500 51.45200 23.59300
C  16.82400 52.25000 22.74000
C  17.44700 52.29800 21.31800
C  18.69800 51.37100 21.54900
C  18.58800 50.97500 23.00900
C  16.52400 51.89200 20.16200
C  20.03100 52.03100 21.19800
C  20.48200 51.58300 19.87600
N  18.69900 50.26900 25.80500
C  19.70700 49.90100 24.91800
C  20.80500 49.26600 25.56700
C  20.53800 49.35700 26.90900
C  19.22800 50.01100 27.01500
C  22.06600 48.78000 24.82100
C  21.04600 49.07000 28.28000
O  22.09500 48.57500 28.75500
C  19.82600 49.66900 29.29300
C  19.35800 48.61000 30.06400
O  19.05000 47.44100 29.72100
O  19.42700 48.92800 31.42600
C  18.95800 47.93200 32.39200
H  13.66600 52.88300 28.27200
H  15.28300 53.49500 22.09800
H  20.32700 49.85700 22.89900
H  17.07800 50.32700 30.64500
H  15.00700 52.25500 30.33800
H  13.61900 50.30500 30.53700
H  15.09200 49.43600 30.73500
H  14.28900 49.72000 29.07000
H  17.08200 53.36600 30.36900
H  18.60000 52.52300 29.99500
H  18.01800 53.53900 32.39000
H  18.92700 51.96100 32.27900
H  11.19200 53.73600 25.71300
H  11.94500 55.16800 26.38900
H  11.86000 53.58700 27.32200
H  10.87400 54.90200 23.81000
H  11.40300 56.15600 22.66300
H  11.94300 56.14300 24.39800
H  17.62800 53.35100 21.10200
H  18.55500 50.40800 21.06100
H  15.48900 52.20400 20.30200
H  16.54300 50.81200 20.01900
H  16.79400 52.40900 19.24100
H  20.84500 51.73400 21.86000
H  19.83200 53.10100 21.15300
H  21.17200 50.77800 20.12900
H  21.12400 52.26200 19.31600
H  19.75600 51.13400 19.19700
H  22.27400 49.47600 24.00800
H  21.80400 47.78900 24.45000
H  22.92600 48.52400 25.43900
H  20.29300 50.43500 29.91300
H  18.21100 48.33700 33.07500
H  19.82500 47.63200 32.98100
H  18.63300 46.96500 32.00800

