158

Mg 8.98900 2.84500 27.62700
C  10.58800 1.26100 30.25700
C  7.30600 4.74100 29.80200
C  6.86300 3.68900 25.03900
C  9.94300 0.05200 25.58200
N  8.79800 2.81900 29.81400
C  9.69600 2.28600 30.67600
C  9.71400 2.89700 32.12000
C  8.58900 3.89300 31.88700
C  8.24700 3.86500 30.38400
C  7.30900 3.64300 32.74700
C  11.06200 3.57100 32.47100
C  11.70300 3.19300 33.78100
H  10.75700 2.91200 34.94100
N  7.44300 4.11900 27.41300
C  6.93100 4.85800 28.47300
C  5.98400 5.86000 27.95900
C  5.81300 5.52500 26.53200
C  6.74100 4.41500 26.26100
C  5.38400 6.94600 28.84500
C  4.97700 6.36000 25.51100
O  4.88400 6.09900 24.32000
C  4.08300 7.48300 25.99200
N  8.54100 2.00100 25.56200
C  7.69400 2.59300 24.70800
C  7.64000 1.87100 23.32500
C  8.68600 0.72100 23.55000
C  9.13600 0.95300 25.01100
C  6.31600 1.29100 22.89000
C  9.79400 0.65500 22.54700
C  10.12600 -0.68600 21.84000
N  10.21300 1.16400 27.78900
C  10.55900 0.14400 26.87500
C  11.57500 -0.73500 27.49000
C  11.64100 -0.27700 28.84000
C  10.76200 0.77800 28.94900
C  12.26900 -1.79500 26.79200
C  12.29000 -0.52900 30.09200
O  13.21500 -1.27900 30.36000
C  11.52200 0.43600 31.12400
C  10.80700 -0.39900 32.11600
O  9.74700 -0.91500 31.99600
O  11.70700 -0.52700 33.18400
C  11.12300 -1.22900 34.35800
H  6.78300 5.37200 30.52300
H  6.21000 4.12900 24.28200
H  10.19000 -0.79500 24.93900
H  9.53300 2.11900 32.86000
H  8.87900 4.91500 32.13200
H  7.41900 2.61900 33.10400
H  6.41600 3.56200 32.12700
H  7.14300 4.37200 33.54000
H  10.96700 4.65300 32.56700
H  11.73500 3.32100 31.65100
H  12.43000 3.92700 34.12900
H  12.34100 2.31800 33.65700
H  5.45000 6.82100 29.92600
H  4.31300 6.89700 28.65200
H  5.79100 7.92100 28.57400
H  3.22200 7.12300 26.55600
H  3.81400 8.10200 25.13700
H  4.65800 8.14800 26.63600
H  7.92100 2.62900 22.59500
H  8.21700 -0.25800 23.64600
H  6.16600 0.21200 22.93800
H  6.16400 1.50300 21.83200
H  5.43200 1.69700 23.38200
H  10.67400 1.02400 23.07400
H  9.73400 1.36300 21.72100
H  9.67200 -0.70200 20.84900
H  9.75700 -1.57500 22.35300
H  11.21000 -0.76500 21.76100
H  12.17600 -1.64800 25.71500
H  11.86900 -2.72900 27.18600
H  13.30500 -1.72100 27.12100
H  12.22000 1.08500 31.65300
H  11.82700 -1.08300 35.17800
H  10.99900 -2.28600 34.12200
H  10.12100 -0.89400 34.62600
Mg 26.14500 51.42500 26.35300
C  23.79800 52.40000 28.88500
C  28.40500 50.98200 28.85200
C  28.47800 51.13200 23.88000
C  23.73100 52.29000 24.00400
N  26.11900 51.72200 28.66900
C  24.94200 51.90800 29.47700
C  25.17600 51.54200 30.92300
C  26.75600 51.09200 30.90000
C  27.12500 51.25200 29.42700
C  27.77900 51.88500 31.88900
C  24.24700 50.46300 31.43900
C  23.76800 50.70300 32.90900
H  24.64300 50.17700 34.11200
N  28.16300 51.10500 26.37200
C  28.95000 50.88100 27.52100
C  30.21600 50.47500 27.11800
C  30.31800 50.62700 25.73600
C  28.91800 50.85900 25.25500
C  31.37900 50.10300 28.01000
C  31.56600 50.52300 24.79000
O  31.56600 50.89500 23.62900
C  32.83000 49.96700 25.26500
N  26.13900 51.78100 24.19900
C  27.18900 51.43500 23.36400
C  26.75600 51.63300 21.89800
C  25.19500 51.63100 21.99600
C  24.98100 51.94300 23.49500
C  27.34100 52.77200 21.13700
C  24.48700 50.31400 21.57600
C  24.76500 48.97200 22.31500
N  24.14200 52.13500 26.40200
C  23.26300 52.39400 25.33400
C  22.02100 52.83100 25.80900
C  22.15700 52.91300 27.18700
C  23.49000 52.44900 27.48900
C  20.84300 53.24900 25.04600
C  21.48800 53.23500 28.42900
O  20.31000 53.61700 28.66400
C  22.48500 52.89300 29.58000
C  22.75300 54.13600 30.38500
O  23.22600 55.16500 29.96600
O  22.34400 53.88800 31.64800
C  22.54900 54.91800 32.67000
H  29.22200 50.77900 29.54700
H  29.21600 51.05300 23.07900
H  22.95800 52.27900 23.23300
H  25.06900 52.47200 31.48200
H  26.90000 50.03200 31.11200
H  28.69000 52.25700 31.42000
H  27.98500 51.23200 32.73700
H  27.30300 52.68500 32.45600
H  24.82400 49.53800 31.42400
H  23.39700 50.31500 30.77300
H  22.82900 50.15600 32.99400
H  23.55300 51.75400 33.10100
H  31.51800 49.02300 27.98200
H  31.23800 50.25800 29.08000
H  32.19000 50.78500 27.75400
H  32.58700 49.13600 25.92700
H  33.45000 50.68100 25.80600
H  33.46800 49.52400 24.50000
H  26.99000 50.70100 21.38400
H  24.86600 52.51800 21.45600
H  27.66600 53.50200 21.87800
H  26.67700 53.29400 20.44800
H  28.25700 52.50200 20.61000
H  24.93900 50.03900 20.62300
H  23.47300 50.56600 21.26500
H  25.05700 48.19100 21.61300
H  23.86200 48.58900 22.79000
H  25.50900 49.03300 23.10900
H  19.84900 52.93400 25.36100
H  21.00600 53.15100 23.97300
H  20.66500 54.29800 25.28400
H  22.01900 52.17800 30.25800
H  23.11400 54.47900 33.49100
H  21.58400 55.17800 33.10400
H  23.07800 55.83700 32.41400

