158

Mg 36.50100 49.77900 25.69400
C  36.84300 47.66700 28.33800
C  35.48400 52.36100 27.60200
C  36.11700 51.70200 22.79300
C  37.39500 47.07600 23.51500
N  36.10000 49.96400 27.76200
C  36.52000 49.05200 28.67400
C  36.37700 49.67800 30.07800
C  35.71200 51.08900 29.80000
C  35.76000 51.15600 28.27900
C  34.42000 51.28000 30.60800
C  37.74700 49.67700 30.83000
C  37.76700 49.71900 32.32600
H  36.53100 49.85900 33.27200
N  35.91200 51.76400 25.28700
C  35.60800 52.70200 26.24100
C  35.53000 53.95600 25.63800
C  35.74800 53.80200 24.25800
C  35.96300 52.33400 24.03600
C  35.30900 55.17900 26.51300
C  35.78900 54.92200 23.16000
O  36.06100 54.73800 21.96100
C  35.38700 56.22900 23.47400
N  36.70800 49.43300 23.48300
C  36.47600 50.36000 22.48400
C  36.58700 49.76800 21.07100
C  37.08900 48.27300 21.30700
C  37.00500 48.23800 22.81600
C  35.31300 49.81000 20.21900
C  38.54100 47.98400 20.78600
C  38.81700 46.60100 20.27900
N  37.08300 47.76800 25.84700
C  37.44700 46.76900 24.93800
C  37.66800 45.55400 25.55700
C  37.45300 45.79900 26.95700
C  37.08800 47.17400 27.04300
C  37.86300 44.26300 24.81400
C  37.33400 45.24500 28.29300
O  37.45600 44.08000 28.69300
C  37.09000 46.48400 29.30300
C  35.83500 46.09200 29.98400
O  34.70000 46.10100 29.51200
O  36.07500 45.94900 31.31500
C  34.91500 45.80100 32.22100
H  35.14700 53.17600 28.24700
H  36.09600 52.29200 21.87500
H  37.76100 46.29300 22.84800
H  35.77400 48.96600 30.64100
H  36.36100 51.88600 30.16300
H  34.39000 50.69800 31.52900
H  33.57100 51.29100 29.92500
H  34.46600 52.30300 30.98300
H  38.35200 50.49300 30.43500
H  38.36300 48.81800 30.56400
H  38.53900 50.44600 32.57900
H  38.25100 48.78300 32.60600
H  36.02900 55.96700 26.29400
H  35.55000 55.06300 27.57000
H  34.32300 55.59100 26.29600
H  35.95700 56.50900 24.36000
H  34.32500 56.12900 23.69600
H  35.56800 56.90500 22.63800
H  37.39400 50.24000 20.51100
H  36.43200 47.52000 20.87000
H  34.98800 48.93200 19.66200
H  35.31100 50.73100 19.63600
H  34.46200 50.01800 20.86700
H  39.13000 47.97600 21.70300
H  38.90400 48.68300 20.03300
H  38.96000 46.66500 19.20000
H  38.03900 45.86800 20.49300
H  39.71300 46.33200 20.83900
H  38.17300 44.35100 23.77300
H  36.96400 43.65200 24.73100
H  38.50700 43.66000 25.45400
H  37.91000 46.69000 29.99100
H  35.21900 45.56600 33.24100
H  34.29200 44.97800 31.87100
H  34.43200 46.77800 32.23400
Mg -10.05900 38.28000 40.81400
C  -7.99800 35.46800 40.08600
C  -7.69300 40.23200 39.22900
C  -12.34900 40.81200 40.94500
C  -12.62600 35.96100 41.65000
N  -8.09300 37.85700 39.73900
C  -7.39800 36.70500 39.61600
C  -6.07300 36.87900 38.86900
C  -5.87400 38.41500 38.87100
C  -7.31600 38.86100 39.24000
C  -4.75000 39.04000 39.74000
C  -6.16300 36.28400 37.44300
C  -4.82100 35.56400 36.98600
H  -4.26900 35.79500 35.61200
N  -9.99600 40.23400 40.31800
C  -8.87100 40.91200 39.73600
C  -9.17100 42.29800 39.49300
C  -10.54800 42.43600 39.96500
C  -11.01800 41.14500 40.43800
C  -8.26200 43.34200 38.72400
C  -11.21600 43.82800 40.06000
O  -10.64500 44.77300 39.60600
C  -12.48400 44.02600 40.81900
N  -12.21300 38.34900 41.19700
C  -12.90800 39.53800 41.18500
C  -14.36700 39.27300 41.69500
C  -14.41300 37.72100 41.92200
C  -13.00000 37.32800 41.55800
C  -14.79800 40.07900 42.98900
C  -15.47300 36.99800 41.07900
C  -16.94000 37.34200 41.43800
N  -10.36600 36.13200 40.89000
C  -11.37800 35.38700 41.30300
C  -10.93800 34.05700 41.48400
C  -9.67700 33.96700 40.95400
C  -9.31000 35.31600 40.61300
C  -11.90300 32.92900 41.97100
C  -8.55000 33.19800 40.53500
O  -8.35800 32.03000 40.60300
C  -7.45400 34.11300 39.87500
C  -6.16700 33.91800 40.53600
O  -5.23600 33.34600 39.97600
O  -6.22000 34.22400 41.89000
C  -5.06600 33.83900 42.68500
H  -7.09200 40.95200 38.67000
H  -13.10400 41.60000 40.98400
H  -13.30700 35.25700 42.13400
H  -5.43300 36.42400 39.62500
H  -5.62000 38.61600 37.83000
H  -5.24000 39.48200 40.60800
H  -4.18000 39.68400 39.06900
H  -4.14100 38.36400 40.34000
H  -6.47700 37.03000 36.71300
H  -7.05300 35.66000 37.52800
H  -4.91000 34.48500 37.11300
H  -4.01600 35.79800 37.68200
H  -7.76300 43.94700 39.48100
H  -8.94300 43.92500 38.10300
H  -7.61100 42.81900 38.02400
H  -12.38100 43.66400 41.84200
H  -13.30900 43.51900 40.31900
H  -12.59900 45.10900 40.78000
H  -15.00100 39.63600 40.88600
H  -14.58600 37.45200 42.96500
H  -14.66600 41.15400 42.87100
H  -13.96400 39.96200 43.68300
H  -15.72800 39.75700 43.45700
H  -15.40900 35.91000 41.05600
H  -15.14200 37.32700 40.09400
H  -17.55200 37.47700 40.54600
H  -17.11000 38.16300 42.13600
H  -17.35300 36.49800 41.99000
H  -12.91200 33.07400 41.58400
H  -11.89500 32.82000 43.05500
H  -11.66900 31.95000 41.55200
H  -7.38000 33.70800 38.86600
H  -5.41100 33.96300 43.71100
H  -4.23200 34.53000 42.56800
H  -4.73200 32.80300 42.61800

