158

Mg 40.53000 9.71500 28.88600
C  42.40300 10.80500 31.78000
C  38.38300 8.22400 30.89400
C  38.91200 8.74300 26.19000
C  43.24200 10.79800 26.86100
N  40.44400 9.38400 30.99600
C  41.23400 10.02300 31.97500
C  40.51300 10.00600 33.33800
C  39.47400 8.83500 33.13800
C  39.45700 8.70700 31.59900
C  39.91200 7.46000 33.85300
C  39.89100 11.29500 33.82000
C  39.83300 11.48200 35.37400
H  40.49800 12.64300 36.06500
N  38.87200 8.59700 28.58500
C  38.01800 8.10800 29.55500
C  36.87500 7.38800 28.96400
C  36.95700 7.58500 27.50300
C  38.29200 8.32900 27.39200
C  35.85400 6.53800 29.75500
C  36.10400 6.99300 26.32700
O  36.33100 7.25300 25.18300
C  34.82300 6.28300 26.63100
N  41.16300 9.60800 26.81400
C  40.23800 9.26700 25.91100
C  40.83600 9.23300 24.51800
C  42.26200 9.91200 24.67800
C  42.25300 10.13300 26.13100
C  40.77400 7.88500 23.78000
C  42.40900 11.17000 23.88100
C  41.40600 12.29800 24.09700
N  42.41700 10.74900 29.21500
C  43.36700 11.09800 28.25100
C  44.48900 11.76500 28.96500
C  44.09800 11.76400 30.33600
C  42.86400 11.06600 30.44600
C  45.85200 12.16300 28.40800
C  44.41200 12.14600 31.68500
O  45.44500 12.67200 32.06000
C  43.28200 11.53200 32.66900
C  43.91300 10.49700 33.56200
O  44.61800 9.57400 33.18300
O  43.41600 10.65400 34.78500
C  43.85800 9.79500 35.92000
H  37.51900 7.87500 31.46200
H  38.35300 8.52900 25.27700
H  44.04900 11.21200 26.25300
H  41.17300 9.62900 34.11900
H  38.45000 8.98700 33.48100
H  40.86600 7.45900 34.38100
H  40.13500 6.73000 33.07500
H  39.04300 7.14000 34.42700
H  38.89000 11.52100 33.45300
H  40.49500 12.10600 33.41400
H  40.17800 10.60800 35.92800
H  38.80700 11.73700 35.63700
H  36.17500 6.44500 30.79300
H  35.94000 5.53100 29.34700
H  34.84000 6.91100 29.60900
H  34.22000 6.14900 25.73200
H  34.27200 6.82500 27.39900
H  35.22300 5.31100 26.92200
H  40.07800 9.80500 23.98200
H  43.06200 9.18400 24.55000
H  41.64200 7.25000 23.95800
H  40.69800 8.13400 22.72200
H  39.86200 7.32200 23.98000
H  42.34500 10.95200 22.81500
H  43.39400 11.57500 24.10900
H  40.66400 12.06300 24.85900
H  40.92700 12.42300 23.12600
H  41.84300 13.25800 24.37200
H  46.14000 11.70600 27.46100
H  46.52800 11.95500 29.23800
H  45.95500 13.24800 28.43800
H  43.04000 12.39300 33.29200
H  44.57900 9.11700 35.46200
H  42.94500 9.55500 36.46500
H  44.35900 10.55800 36.51600
Mg 48.02800 35.09900 27.83900
C  46.30400 33.42700 30.33200
C  48.60500 37.54800 30.08200
C  49.27000 37.01200 25.22200
C  47.59900 32.44700 25.67900
N  47.45400 35.47600 29.90500
C  46.96000 34.55800 30.85200
C  47.11000 35.05000 32.23600
C  47.36200 36.54100 32.03500
C  47.87300 36.54000 30.59200
C  46.09800 37.41100 32.22300
C  48.41200 34.25100 32.78200
C  48.74500 34.44800 34.27600
H  47.67500 35.07900 35.22100
N  48.91100 36.99500 27.67900
C  49.10100 37.82000 28.70900
C  49.75600 39.02200 28.21500
C  49.77000 39.04900 26.79700
C  49.24300 37.64600 26.52000
C  50.37000 40.06500 29.16000
C  50.44400 40.07200 25.81600
O  50.38600 39.93300 24.60800
C  51.18300 41.31100 26.35500
N  48.49100 34.72800 25.77200
C  48.91500 35.65700 24.87400
C  48.97200 35.08400 23.36600
C  48.75800 33.51900 23.64100
C  48.31000 33.53600 25.13300
C  47.97400 35.86100 22.52700
C  49.99300 32.63000 23.41700
C  49.77100 31.18400 23.21100
N  47.16200 33.21300 27.95300
C  46.98500 32.30000 26.99700
C  46.32300 31.20400 27.54300
C  45.84000 31.69800 28.84100
C  46.42300 32.88400 29.02600
C  45.96200 29.92700 26.76600
C  45.11500 31.35500 30.07200
O  44.46000 30.38600 30.38600
C  45.28200 32.50700 31.06400
C  45.61500 31.95700 32.32700
O  46.57500 31.19300 32.55000
O  44.64000 32.29300 33.28200
C  44.93100 31.80700 34.63400
H  48.64400 38.35300 30.81900
H  49.55500 37.57100 24.32800
H  47.27300 31.70900 24.94200
H  46.20600 34.81700 32.80000
H  48.14600 36.84000 32.73000
H  46.28500 37.98000 33.13300
H  45.31300 36.72200 32.53400
H  45.77400 38.09000 31.43400
H  49.29100 34.68100 32.30200
H  48.34400 33.18000 32.58700
H  49.69600 34.97600 34.34100
H  48.90000 33.44400 34.67100
H  50.54900 39.60400 30.13200
H  49.72000 40.92300 29.33100
H  51.39100 40.32200 28.87600
H  50.43500 41.88400 26.90300
H  51.56100 42.04400 25.64300
H  52.04300 40.94700 26.91700
H  49.96300 35.22200 22.93400
H  48.00700 33.03900 23.01300
H  47.30600 35.15000 22.04200
H  48.39000 36.49000 21.74000
H  47.47700 36.44000 23.30600
H  50.64400 32.69600 24.29000
H  50.65100 32.95300 22.61100
H  50.01400 31.16200 22.14800
H  48.77000 30.77900 23.35400
H  50.39900 30.53800 23.82500
H  45.66200 30.27200 25.77600
H  45.19500 29.37500 27.30800
H  46.69000 29.13000 26.61200
H  44.32900 33.03000 31.14900
H  45.98600 31.62800 34.84300
H  44.37100 30.89500 34.84100
H  44.49800 32.52400 35.33100

