158

Mg -1.46400 17.68000 27.66100
C  -2.06600 15.36300 30.30900
C  -2.31900 20.15000 29.82500
C  -1.23300 19.75400 25.14200
C  -1.26300 14.90800 25.36900
N  -1.96300 17.75400 29.82800
C  -2.08200 16.74300 30.73900
C  -2.23900 17.24800 32.11600
C  -2.40700 18.79500 31.88500
C  -2.25200 18.95500 30.44500
C  -3.60400 19.43000 32.50100
C  -0.99900 16.71600 32.92200
C  -0.40900 17.70800 33.93800
H  -0.15600 17.02700 35.31800
N  -1.70000 19.71800 27.53000
C  -2.10100 20.60400 28.48300
C  -2.22800 21.93000 27.92300
C  -1.77800 21.87600 26.52000
C  -1.57400 20.41900 26.31800
C  -2.74100 23.09400 28.72000
C  -1.55700 22.96700 25.45400
O  -1.09000 22.69900 24.33800
C  -1.65100 24.32300 25.94000
N  -1.39800 17.34100 25.51100
C  -1.17800 18.43800 24.74800
C  -0.97000 17.95400 23.27900
C  -0.77900 16.41200 23.39900
C  -1.18200 16.17100 24.81500
C  -2.15600 18.33800 22.30200
C  0.71200 15.86900 23.23800
C  1.78800 16.50200 24.11000
N  -1.69800 15.61400 27.72100
C  -1.63400 14.66000 26.73900
C  -1.97200 13.37100 27.28300
C  -2.11200 13.59900 28.66700
C  -1.85900 14.98800 28.87400
C  -1.98300 12.01800 26.59600
C  -2.36900 13.01100 29.94800
O  -2.60600 11.89700 30.16200
C  -2.25200 14.10700 31.09200
C  -1.17000 13.73100 31.95300
O  0.00100 14.06800 31.77400
O  -1.69200 13.04800 33.06400
C  -0.67300 12.81500 34.12500
H  -2.47200 20.98900 30.50700
H  -1.17400 20.41700 24.27600
H  -1.14100 13.94800 24.86400
H  -3.14900 16.85900 32.57400
H  -1.58600 19.33400 32.35800
H  -4.34400 18.68200 32.78400
H  -4.08500 20.06200 31.75400
H  -3.34800 19.99500 33.39800
H  -0.23000 16.58700 32.16100
H  -1.27900 15.79600 33.43600
H  -1.14500 18.48100 34.15800
H  0.58400 17.99800 33.59500
H  -3.32400 23.79100 28.11800
H  -1.84900 23.59300 29.09900
H  -3.33600 22.74900 29.56600
H  -1.38700 25.04900 25.17100
H  -0.93400 24.33800 26.76100
H  -2.67500 24.55800 26.23100
H  -0.10500 18.54900 22.98600
H  -1.42300 15.92300 22.66900
H  -2.53900 19.18100 22.87700
H  -2.96100 17.65400 22.03400
H  -1.71000 18.77300 21.40800
H  0.98800 15.84400 22.18400
H  0.69300 14.79500 23.42400
H  2.54300 16.89700 23.43000
H  2.12600 15.69700 24.76200
H  1.51200 17.35600 24.72800
H  -1.00900 11.53000 26.61500
H  -2.31200 12.17700 25.56900
H  -2.63000 11.28000 27.06900
H  -3.16200 14.08400 31.69300
H  -1.08400 13.52700 34.84000
H  0.36000 13.07700 33.89500
H  -0.74400 11.82600 34.57600
Mg 1.02600 43.83200 26.04500
C  2.73800 43.75100 29.10900
C  -1.83000 42.94300 27.84900
C  -0.43100 43.17300 23.22800
C  4.08900 44.04500 24.47700
N  0.42100 43.53800 28.33900
C  1.30900 43.58900 29.36500
C  0.65100 43.30000 30.75900
C  -0.78300 42.90100 30.29600
C  -0.80400 43.20900 28.72900
C  -1.22200 41.42200 30.64000
C  0.68000 44.55200 31.68300
C  1.25800 44.22700 33.05000
H  0.75000 43.07600 33.82900
N  -0.87200 43.15700 25.61800
C  -1.93900 42.98400 26.44100
C  -3.16900 42.74900 25.69700
C  -2.80400 42.81900 24.35200
C  -1.35000 42.99000 24.35600
C  -4.57700 42.65100 26.38500
C  -3.79100 42.66600 23.13700
O  -3.37900 42.51700 22.00700
C  -5.29200 42.58000 23.36300
N  1.73300 43.60800 24.16500
C  0.92600 43.36200 23.14400
C  1.79800 43.22600 21.82300
C  3.14100 43.82400 22.18500
C  2.97700 43.81200 23.75800
C  1.72500 41.74600 21.42100
C  3.43400 45.19000 21.58900
C  3.06800 46.45800 22.34200
N  3.03800 44.01900 26.58200
C  4.18700 44.08800 25.83100
C  5.35100 43.96500 26.68100
C  4.78500 43.89400 27.97600
C  3.40300 43.91300 27.83400
C  6.82600 44.06800 26.19300
C  5.17000 43.81700 29.38000
O  6.27100 43.86300 29.94600
C  3.89300 43.66700 30.17900
C  3.95000 42.38800 30.83400
O  3.61200 41.32800 30.27700
O  4.61700 42.49100 32.08200
C  4.78900 41.08200 32.67200
H  -2.64300 42.49400 28.42400
H  -0.96600 43.02000 22.28800
H  5.00900 44.12300 23.89400
H  1.20300 42.46400 31.18900
H  -1.58400 43.49500 30.73600
H  -1.44800 40.95800 29.68000
H  -2.00800 41.43800 31.39500
H  -0.33100 40.92400 31.02300
H  -0.36900 44.81400 31.81800
H  1.24400 45.34900 31.19900
H  1.23000 45.16300 33.60800
H  2.29100 44.01700 32.77300
H  -4.27400 42.60700 27.43100
H  -5.05700 41.71300 26.10600
H  -5.13900 43.53400 26.08100
H  -5.74000 42.51200 22.37100
H  -5.68300 43.47900 23.84000
H  -5.50600 41.62200 23.83500
H  1.35200 43.68800 20.94300
H  3.90900 43.20600 21.72100
H  1.07700 41.48700 20.58300
H  1.31800 41.02900 22.13400
H  2.75400 41.46000 21.19900
H  3.09200 45.27900 20.55800
H  4.50200 45.18800 21.37500
H  3.77500 46.67600 23.14300
H  2.19200 46.31500 22.97600
H  2.97000 47.31900 21.68100
H  6.97000 44.95500 25.57700
H  7.01300 43.15000 25.63500
H  7.52600 44.17900 27.02100
H  3.82700 44.41400 30.97000
H  5.38500 41.21800 33.57400
H  5.45100 40.59900 31.95400
H  3.84600 40.63600 32.99100

