158

Mg 35.48000 0.79500 29.29200
C  33.38500 1.95000 31.88300
C  37.96800 0.77800 31.51300
C  37.45000 0.06100 26.79900
C  32.73000 1.19400 26.98600
N  35.65900 1.42800 31.48300
C  34.59800 1.66600 32.37000
C  35.05100 1.75600 33.83400
C  36.55900 1.24900 33.69400
C  36.77500 1.16800 32.11300
C  37.66700 2.08000 34.41700
C  34.25800 0.82600 34.74800
C  33.67200 1.46800 36.00000
H  34.70300 2.30500 36.84100
N  37.45200 0.42300 29.16900
C  38.37000 0.46700 30.18700
C  39.63500 -0.10000 29.70600
C  39.54100 -0.16300 28.31800
C  38.13200 0.11100 28.05300
C  40.73400 -0.43000 30.65800
C  40.54100 -0.48700 27.25600
O  40.27200 -0.60400 26.06700
C  41.85100 -0.81200 27.82100
N  35.14700 0.70400 27.18600
C  36.19800 0.43800 26.34900
C  35.67500 0.48500 24.82900
C  34.09500 0.51900 24.97400
C  33.94800 0.79200 26.46300
C  36.35500 1.60700 24.00800
C  33.46700 -0.81000 24.50100
C  32.83000 -0.71800 23.12100
N  33.50100 1.37500 29.41500
C  32.52500 1.50400 28.41100
C  31.31500 2.03500 28.96700
C  31.59300 2.23700 30.39100
C  32.90900 1.84500 30.54300
C  30.04500 2.24500 28.22700
C  31.08800 2.67200 31.67600
O  29.99100 3.12100 31.98100
C  32.27400 2.60700 32.69000
C  32.53100 3.91900 33.08700
O  32.97400 4.85800 32.43400
O  32.18900 3.99200 34.42600
C  32.31500 5.28800 35.09700
H  38.79800 0.44100 32.13800
H  37.86000 -0.34000 25.87000
H  31.90000 1.05500 26.28900
H  35.13400 2.77900 34.20000
H  36.69200 0.22300 34.03700
H  38.29400 2.60000 33.69300
H  38.19500 1.61700 35.25100
H  37.20200 2.91200 34.94700
H  34.89400 0.02000 35.11200
H  33.46600 0.29300 34.22200
H  33.14200 0.71700 36.58600
H  32.80500 2.08000 35.75300
H  41.53500 0.29500 30.80200
H  41.04900 -1.40700 30.29200
H  40.28300 -0.72900 31.60400
H  42.11800 0.08800 28.37400
H  42.57500 -1.03900 27.03900
H  41.79400 -1.71600 28.42800
H  36.03000 -0.43000 24.35300
H  33.82900 1.39300 24.38000
H  36.96900 1.25200 23.18100
H  37.02300 2.09100 24.72100
H  35.62600 2.39000 23.79700
H  32.68800 -1.00600 25.23800
H  34.06200 -1.70600 24.67700
H  33.46900 -0.06100 22.53100
H  31.76200 -0.50200 23.08400
H  32.90400 -1.70900 22.67200
H  29.25300 2.58600 28.89300
H  29.84600 1.31400 27.69700
H  30.14100 2.99900 27.44500
H  31.94000 1.93400 33.48000
H  32.90000 6.05300 34.58700
H  32.64600 5.04100 36.10600
H  31.37100 5.78600 35.31600
Mg 41.88400 41.38100 26.75700
C  41.34300 43.87100 28.94300
C  42.75500 39.31900 29.33500
C  42.31100 38.82400 24.53600
C  41.46100 43.53500 24.00700
N  42.18100 41.63400 28.91700
C  41.74500 42.69100 29.62500
C  41.69200 42.38300 31.22100
C  42.13500 40.89000 31.23900
C  42.46700 40.63100 29.70500
C  43.30500 40.60600 32.27500
C  40.29200 42.69400 31.74900
C  40.04300 42.14000 33.13700
H  40.39300 43.06100 34.33400
N  42.50400 39.37500 26.92000
C  42.87500 38.72200 28.05100
C  43.08000 37.30200 27.85900
C  42.95600 37.11500 26.50400
C  42.58900 38.41500 25.89900
C  43.50000 36.29800 28.96500
C  43.04100 35.85300 25.74500
O  42.68500 35.74200 24.57500
C  43.29300 34.57100 26.47400
N  42.02600 41.23400 24.51900
C  42.13400 40.02800 23.91600
C  41.88500 40.16800 22.38200
C  41.41100 41.60400 22.28300
C  41.62400 42.19200 23.68400
C  43.14500 39.81000 21.53400
C  39.97800 41.78100 21.72900
C  38.93800 40.97600 22.51700
N  41.57400 43.28400 26.49000
C  41.46800 44.08200 25.33700
C  41.20700 45.43000 25.70300
C  41.20300 45.39900 27.16900
C  41.42500 44.08800 27.57000
C  40.96300 46.55600 24.78600
C  40.91200 46.19000 28.34600
O  40.58000 47.36600 28.50600
C  41.12400 45.20900 29.48200
C  42.23500 45.72600 30.25800
O  43.45300 45.68400 29.96800
O  41.76900 46.34400 31.39500
C  42.75700 46.65300 32.40200
H  42.89800 38.60700 30.15100
H  42.37700 37.95400 23.88000
H  41.41900 44.25200 23.18400
H  42.33400 43.12300 31.69900
H  41.35000 40.18600 31.51600
H  43.09400 39.74200 32.90400
H  43.48400 41.33900 33.06200
H  44.12500 40.28000 31.63500
H  39.56100 42.44400 30.98000
H  40.22600 43.77600 31.86000
H  40.67400 41.26800 33.31300
H  39.01800 41.82200 33.33100
H  42.67800 35.61500 29.17700
H  43.77200 36.69800 29.94200
H  44.38300 35.73400 28.66500
H  42.43100 34.47200 27.13300
H  44.25700 34.47600 26.97300
H  43.35100 33.73300 25.78000
H  41.15000 39.39100 22.17400
H  42.10600 42.05600 21.57600
H  43.02200 39.16800 20.66200
H  43.79400 39.22900 22.18800
H  43.84500 40.58500 21.22000
H  39.94200 41.38500 20.71400
H  39.61900 42.80700 21.64900
H  38.50200 40.19700 21.89100
H  38.18200 41.62400 22.96100
H  39.37000 40.31500 23.26800
H  41.95500 46.86900 24.46100
H  40.44200 47.33300 25.34500
H  40.32100 46.10600 24.02800
H  40.22200 45.10400 30.08600
H  42.71900 45.69900 32.92900
H  42.31300 47.44100 33.01200
H  43.83400 46.74800 32.26700

