158

Mg 34.25200 3.60400 30.08300
C  31.92200 4.56300 32.54900
C  36.64100 3.63400 32.46000
C  36.38700 2.69000 27.74300
C  31.52800 3.53400 27.64600
N  34.29100 4.12700 32.17300
C  33.19900 4.43700 33.02600
C  33.58300 4.39300 34.50600
C  35.11600 4.69700 34.35400
C  35.39800 4.06300 32.92400
C  35.51800 6.11300 34.28800
C  33.26500 2.99300 35.12000
C  32.94600 3.00300 36.65500
H  33.53300 4.14800 37.50100
N  36.24000 3.09700 30.15100
C  37.05200 3.20500 31.22900
C  38.34700 2.81500 30.86000
C  38.27100 2.41700 29.47600
C  36.92400 2.76900 29.01800
C  39.47300 2.62000 31.90100
C  39.39300 1.75600 28.63500
O  39.29800 1.62500 27.39900
C  40.75400 1.51300 29.23700
N  34.03300 3.31700 27.93700
C  35.09000 2.91800 27.21000
C  34.67500 2.55500 25.75400
C  33.15300 2.53000 25.83700
C  32.83500 3.17100 27.20400
C  35.17100 3.69500 24.77700
C  32.56600 1.07300 25.76600
C  31.86000 0.86700 24.41500
N  32.23100 3.95700 29.99200
C  31.23800 3.90700 28.97200
C  29.91500 4.22300 29.56700
C  30.15500 4.56600 30.84000
C  31.56000 4.30700 31.14600
C  28.57600 4.23400 28.88600
C  29.51000 4.95600 32.07000
O  28.31500 5.28100 32.18000
C  30.58900 5.06100 33.20500
C  30.64000 6.36800 33.86200
O  31.16700 7.36000 33.37000
O  30.19600 6.19700 35.13100
C  30.49400 7.22700 36.09800
H  37.35400 3.74300 33.28100
H  37.07400 2.43700 26.93300
H  30.70500 3.48500 26.92900
H  33.07500 5.10500 35.15700
H  35.63400 4.18400 35.16400
H  35.93800 6.39700 35.25400
H  34.67100 6.79800 34.26300
H  36.17000 6.38700 33.45900
H  34.06000 2.25600 35.00300
H  32.30100 2.60800 34.78600
H  33.38500 2.11100 37.10200
H  31.88900 2.93400 36.91200
H  40.51800 2.60000 31.59100
H  39.37100 1.72000 32.50700
H  39.46800 3.58700 32.40500
H  40.78600 0.80100 30.06100
H  41.31700 2.36700 29.61300
H  41.40700 1.05300 28.49500
H  35.16300 1.64400 25.40900
H  32.71200 3.19200 25.09200
H  35.47600 4.58400 25.33000
H  34.45400 3.99000 24.01100
H  36.03500 3.30200 24.24100
H  31.87600 0.80600 26.56600
H  33.45100 0.44400 25.85200
H  30.93500 0.34200 24.65200
H  32.50300 0.23400 23.80400
H  31.62500 1.74200 23.80900
H  28.59600 3.91600 27.84400
H  28.15100 5.23800 28.91100
H  27.92200 3.61800 29.50400
H  30.18600 4.40100 33.97300
H  30.81300 6.87700 37.08000
H  29.57400 7.74700 36.36500
H  31.19800 7.97200 35.72600
Mg 36.28900 48.78900 26.18200
C  36.63100 46.78800 29.05600
C  35.00900 51.24700 28.08200
C  35.79100 50.50500 23.31800
C  37.32100 45.90500 24.22100
N  35.82400 48.95500 28.35800
C  36.12000 48.05600 29.34200
C  36.02600 48.71100 30.73600
C  35.25200 50.03400 30.33300
C  35.40400 50.14300 28.81800
C  33.80900 50.11600 30.76900
C  37.42100 48.93200 31.36100
C  37.54900 49.25200 32.88700
H  36.28400 49.37700 33.81600
N  35.52200 50.68900 25.71900
C  35.06100 51.56500 26.74400
C  34.69300 52.81600 26.00400
C  35.03300 52.59200 24.64600
C  35.42000 51.21400 24.47700
C  34.28800 54.05600 26.67700
C  34.96400 53.57700 23.43100
O  35.30600 53.29600 22.30000
C  34.48300 54.94300 23.54100
N  36.46200 48.26500 24.03500
C  36.29700 49.23700 23.10200
C  36.64100 48.69400 21.74800
C  37.30900 47.28100 22.06200
C  36.99900 47.05900 23.51900
C  35.41300 48.65200 20.74400
C  38.81000 47.27400 21.88700
C  39.43100 46.33100 20.79500
N  36.85200 46.81800 26.54400
C  37.29100 45.78100 25.66900
C  37.51400 44.61800 26.42900
C  37.29100 44.98800 27.80200
C  36.91700 46.34300 27.80300
C  37.92800 43.29800 25.85300
C  37.40700 44.45700 29.05500
O  37.89600 43.40900 29.42900
C  36.96900 45.61000 29.99500
C  35.87800 45.25200 30.98300
O  34.75600 44.89400 30.66500
O  36.25900 45.53500 32.21500
C  35.14200 45.53500 33.18000
H  34.76500 52.16300 28.62400
H  35.96600 51.10100 22.42000
H  37.71700 45.02300 23.71300
H  35.37100 48.05800 31.31400
H  35.75300 50.88600 30.79400
H  33.53200 49.12300 31.12500
H  33.22800 50.40400 29.89300
H  33.64000 50.85600 31.55100
H  37.90900 49.69800 30.75800
H  37.92900 47.97400 31.25300
H  38.05900 50.20400 33.03800
H  38.13100 48.47100 33.37600
H  33.78300 53.97500 27.63900
H  33.49700 54.55400 26.11700
H  35.21000 54.63800 26.68500
H  35.00400 55.43400 24.36300
H  33.44600 54.90600 23.87400
H  34.59700 55.42700 22.57100
H  37.31500 49.42900 21.30800
H  36.82900 46.52800 21.43600
H  35.01400 47.64100 20.82000
H  35.59200 48.98700 19.72200
H  34.62000 49.27900 21.15200
H  39.33500 47.05300 22.81500
H  39.17100 48.26800 21.62300
H  40.05500 46.98700 20.18800
H  38.66500 45.95100 20.11800
H  39.99400 45.46800 21.15000
H  38.91700 43.53600 25.46000
H  37.37800 43.10500 24.93200
H  37.78500 42.47000 26.54700
H  37.75400 45.81500 30.72300
H  35.40400 45.98400 34.13800
H  34.90100 44.49700 33.41000
H  34.36200 46.12100 32.69500

