158

Mg -2.31200 16.91400 26.33500
C  -2.76700 14.56800 29.02800
C  -2.58000 19.45800 28.62200
C  -2.42300 19.17400 23.88000
C  -2.77100 14.30100 24.11000
N  -2.59100 16.92700 28.50300
C  -2.77600 15.90800 29.43500
C  -2.84400 16.46000 30.87800
C  -2.89000 17.98400 30.63000
C  -2.70100 18.13000 29.14000
C  -4.11700 18.74200 31.06100
C  -1.76000 15.94100 31.78300
C  -1.28800 16.75500 32.99800
H  -0.69600 15.88400 34.12300
N  -2.28400 19.04300 26.28700
C  -2.31400 19.92100 27.34200
C  -2.26700 21.27100 26.84900
C  -2.19800 21.21800 25.43100
C  -2.34600 19.78200 25.13300
C  -2.36100 22.53400 27.69700
C  -1.91200 22.28900 24.34000
O  -1.78200 22.02300 23.14900
C  -1.74100 23.65500 24.76000
N  -2.56800 16.72800 24.34100
C  -2.40000 17.80100 23.48400
C  -2.51200 17.35800 21.98700
C  -2.39600 15.81300 22.14100
C  -2.61900 15.58300 23.61700
C  -3.91100 17.84800 21.37800
C  -0.94800 15.17900 21.83900
C  -0.90600 13.93400 20.94500
N  -2.49000 14.81700 26.46000
C  -2.78600 13.88900 25.47900
C  -2.89700 12.58700 26.08100
C  -2.85000 12.82800 27.44300
C  -2.61800 14.21300 27.65700
C  -2.99200 11.30100 25.43400
C  -3.13100 12.22000 28.67500
O  -3.41400 11.10000 29.01000
C  -2.89100 13.28100 29.79200
C  -1.59200 12.93500 30.52400
O  -0.48100 13.34300 30.37100
O  -1.91200 11.99800 31.39500
C  -0.96200 11.52300 32.36300
H  -2.64800 20.20300 29.41800
H  -2.41200 19.81500 22.99700
H  -3.02700 13.54500 23.36500
H  -3.77500 16.19100 31.37700
H  -1.94400 18.37900 31.00000
H  -3.80600 19.74400 31.35800
H  -4.61800 18.32900 31.93600
H  -4.79900 18.84800 30.21700
H  -0.88100 15.68800 31.18900
H  -2.21300 15.02100 32.15100
H  -2.08100 17.34900 33.45300
H  -0.41500 17.34900 32.72900
H  -1.42100 23.06900 27.56500
H  -2.47300 22.23200 28.73900
H  -3.28800 23.06300 27.48100
H  -1.89100 24.24300 23.85400
H  -0.78000 23.80900 25.25000
H  -2.50600 23.97300 25.46900
H  -1.62100 17.84100 21.58600
H  -3.04100 15.25800 21.46000
H  -4.57400 16.99300 21.24400
H  -3.80500 18.55100 20.55100
H  -4.38800 18.52100 22.09100
H  -0.38000 14.94200 22.73800
H  -0.32600 15.90400 21.31500
H  -0.24000 14.28500 20.15700
H  -1.90200 13.81500 20.51800
H  -0.58600 13.03700 21.47700
H  -1.97100 10.92600 25.50900
H  -3.30000 11.29200 24.38800
H  -3.69900 10.71600 26.02300
H  -3.72400 13.30800 30.49400
H  -0.59000 12.35900 32.95600
H  -0.12500 11.03700 31.86400
H  -1.34200 10.77000 33.05400
Mg 7.35800 53.56200 41.78900
C  6.38700 50.26000 41.19300
C  10.44700 52.85200 40.42500
C  7.98100 56.95100 41.57500
C  4.01100 54.37300 42.68800
N  8.22100 51.85900 40.66100
C  7.65500 50.62100 40.62000
C  8.51100 49.66600 39.89900
C  9.92400 50.29100 40.16300
C  9.51400 51.76500 40.38900
C  10.75100 49.75600 41.31000
C  8.09800 49.82500 38.31700
C  8.04800 48.57000 37.44300
H  7.09800 48.41100 36.18200
N  9.05100 54.80000 41.16200
C  10.13400 54.26800 40.61700
C  10.97600 55.34100 40.21500
C  10.37100 56.59400 40.62800
C  9.03500 56.16000 41.12700
C  12.39500 55.06100 39.60900
C  11.00300 57.97800 40.47100
O  12.14400 58.14500 40.00500
C  10.25300 59.23900 40.91600
N  6.15500 55.40800 42.18600
C  6.73800 56.62500 42.06900
C  5.70600 57.66600 42.51500
C  4.49400 56.82700 43.07900
C  4.87700 55.48200 42.58100
C  6.28300 58.80100 43.44800
C  3.18100 57.46100 42.61100
C  2.68300 58.74900 43.32400
N  5.61600 52.59600 41.99600
C  4.35900 52.98300 42.44200
C  3.59300 51.79300 42.65800
C  4.37300 50.72500 42.24200
C  5.56000 51.24100 41.80400
C  2.18000 51.75000 43.22300
C  4.43100 49.25800 42.14000
O  3.55800 48.45000 42.39500
C  5.76800 48.93700 41.46900
C  5.44600 48.05900 40.29100
O  4.65100 48.32700 39.39700
O  5.97900 46.79800 40.49100
C  5.50900 45.77800 39.64500
H  11.44500 52.47900 40.18300
H  8.01700 58.00000 41.27600
H  3.01200 54.65100 43.02800
H  8.37100 48.63900 40.23600
H  10.52000 50.20700 39.25400
H  11.03000 50.54200 42.01200
H  11.66200 49.22700 41.02900
H  10.31700 48.87300 41.77800
H  8.90700 50.38000 37.84300
H  7.12700 50.30400 38.18800
H  7.63200 47.80100 38.09400
H  9.07900 48.29700 37.21700
H  12.39700 55.21400 38.52900
H  12.74600 54.06500 39.87900
H  13.18700 55.70200 39.99600
H  9.90400 59.08600 41.93700
H  9.40200 59.30200 40.23700
H  10.85900 60.13100 40.75600
H  5.25900 58.07500 41.60900
H  4.52900 56.76800 44.16700
H  6.34100 59.82600 43.08200
H  7.23000 58.47700 43.88000
H  5.58300 58.81400 44.28300
H  2.41300 56.69800 42.74400
H  3.09900 57.65100 41.54100
H  2.29100 58.52800 44.31600
H  1.93000 59.25900 42.72200
H  3.46900 59.49600 43.43500
H  2.29900 51.34000 44.22600
H  1.56900 51.14900 42.54900
H  1.72200 52.73900 43.21600
H  6.39900 48.39200 42.17200
H  6.12400 44.88900 39.78000
H  5.72700 46.10100 38.62700
H  4.46900 45.45500 39.69200

