158

Mg 24.87800 1.32600 30.17500
C  27.07400 0.95900 32.89100
C  22.30500 1.72600 32.32500
C  22.82800 1.43500 27.54700
C  27.57800 0.30700 28.07700
N  24.69400 1.26800 32.36200
C  25.76400 1.30400 33.27500
C  25.19100 1.59000 34.66000
C  23.65100 1.65600 34.45200
C  23.50400 1.47900 32.96400
C  22.71700 0.63400 35.18300
C  25.83900 2.78800 35.45000
C  26.40600 2.50600 36.78800
H  26.20400 3.71300 37.78300
N  22.80400 1.53500 29.97800
C  21.91200 1.64900 30.95500
C  20.54800 1.71700 30.40600
C  20.73000 1.69300 29.03700
C  22.18400 1.58700 28.79100
C  19.29800 1.90800 31.20600
C  19.71500 1.70400 27.89700
O  19.97500 1.82200 26.71500
C  18.32600 1.62600 28.24600
N  25.15100 0.88000 28.11500
C  24.15000 1.08300 27.19900
C  24.74200 0.96800 25.73000
C  26.15900 0.57100 25.97700
C  26.30800 0.48900 27.47700
C  23.87200 0.07300 24.66200
C  27.22500 1.56800 25.43600
C  27.25200 3.07500 25.86200
N  26.95800 0.78600 30.38000
C  27.89100 0.33700 29.44500
C  29.15200 0.09200 30.11400
C  28.91600 0.44000 31.44500
C  27.56500 0.75700 31.56000
C  30.44700 -0.32100 29.49200
C  29.43500 0.50300 32.75100
O  30.54200 0.17600 33.11900
C  28.29300 0.83400 33.73100
C  28.10900 -0.24300 34.71300
O  27.49000 -1.27400 34.63100
O  28.76500 0.19900 35.78500
C  28.47000 -0.26300 37.12400
H  21.45400 1.90900 32.98400
H  22.13800 1.26700 26.71800
H  28.34900 -0.02500 27.37800
H  25.40900 0.67200 35.20600
H  23.17600 2.60600 34.69600
H  22.25900 -0.00900 34.43200
H  21.93000 1.27600 35.57700
H  23.20600 0.03000 35.94800
H  25.17500 3.65300 35.43400
H  26.61800 3.09600 34.75300
H  27.46700 2.33600 36.60200
H  25.94400 1.58600 37.14600
H  18.92700 2.76400 30.64300
H  19.41500 2.17800 32.25600
H  18.62500 1.05100 31.15800
H  17.93100 2.45800 28.83000
H  18.30400 0.79300 28.94900
H  17.68300 1.41300 27.39200
H  24.83000 1.98800 25.35700
H  26.28700 -0.41000 25.51800
H  23.09300 -0.40800 25.25400
H  24.46400 -0.67500 24.13400
H  23.31400 0.62700 23.90700
H  27.15800 1.64400 24.35100
H  28.20900 1.13800 25.62400
H  26.52200 3.30000 26.64000
H  27.02900 3.75800 25.04200
H  28.22200 3.30800 26.29900
H  30.82500 0.34200 28.71400
H  30.31500 -1.28000 28.99100
H  31.22100 -0.21500 30.25200
H  28.40300 1.82500 34.17200
H  28.59600 -1.34100 37.22400
H  27.39400 -0.10700 37.20500
H  29.01600 0.22400 37.93200
Mg -1.54700 34.26000 26.70800
C  -3.32200 32.52800 29.15800
C  -0.24000 36.31600 29.12600
C  -0.17200 36.00100 24.27900
C  -3.32800 32.31000 24.25400
N  -1.95800 34.59000 28.88000
C  -2.46600 33.55500 29.65000
C  -2.26600 33.87300 31.15800
C  -1.33400 35.18600 31.05600
C  -1.22000 35.46400 29.62800
C  -1.74900 36.46000 31.84500
C  -1.69300 32.60300 31.83300
C  -2.53000 31.95700 32.99800
H  -1.72800 31.89500 34.38400
N  -0.17100 35.89300 26.74700
C  0.26000 36.58800 27.79500
C  1.19400 37.62900 27.36900
C  1.10700 37.55300 25.93600
C  0.16900 36.49400 25.58900
C  1.97100 38.51600 28.34900
C  1.83400 38.44600 24.88800
O  1.79900 38.32100 23.63000
C  2.64700 39.55200 25.45900
N  -1.86000 34.26500 24.60100
C  -1.03100 35.03600 23.80600
C  -1.23000 34.74100 22.27900
C  -1.83300 33.31400 22.40800
C  -2.46700 33.32700 23.84200
C  -2.09400 35.81500 21.52800
C  -0.87400 32.14600 21.99900
C  -0.05200 31.45600 23.09700
N  -2.99400 32.68700 26.66000
C  -3.56300 31.96600 25.60700
C  -4.30800 30.83200 26.15100
C  -4.27500 31.05200 27.54800
C  -3.46900 32.22400 27.81900
C  -5.07700 29.80100 25.43500
C  -4.73900 30.50300 28.75800
O  -5.42500 29.49600 28.95700
C  -4.11400 31.39400 29.89100
C  -5.17100 31.88600 30.75000
O  -5.92700 32.81600 30.34400
O  -5.43200 31.06000 31.80800
C  -6.48600 31.51900 32.71500
H  0.32000 36.73600 29.96400
H  0.14900 36.60300 23.42600
H  -3.68200 31.60600 23.49800
H  -3.26400 34.05200 31.55800
H  -0.34800 34.99900 31.48000
H  -2.65800 36.29300 32.42400
H  -1.88100 37.29400 31.15600
H  -0.98100 36.78700 32.54500
H  -0.67900 32.77800 32.19300
H  -1.49200 31.77100 31.15800
H  -2.74400 30.91400 32.76800
H  -3.40800 32.54700 33.26400
H  1.91100 39.57100 28.08300
H  3.03100 38.27000 28.29200
H  1.73800 38.32400 29.39700
H  1.96200 40.24400 25.94800
H  3.23800 39.97000 24.64400
H  3.32200 39.04200 26.14700
H  -0.28300 34.65200 21.74600
H  -2.78400 33.21200 21.88400
H  -2.12900 36.62700 22.25400
H  -3.05800 35.44500 21.18000
H  -1.60800 36.13100 20.60500
H  -0.14700 32.58400 21.31400
H  -1.38100 31.34400 21.46200
H  -0.35400 31.59700 24.13500
H  0.98800 31.76100 22.97700
H  -0.06300 30.38200 22.91200
H  -6.15400 29.96500 25.42400
H  -4.93900 28.79500 25.83100
H  -4.64400 29.74400 24.43600
H  -3.64700 30.67400 30.56400
H  -6.21800 32.50900 33.08500
H  -6.60800 30.90900 33.61000
H  -7.42300 31.71700 32.19500

