158

Mg 54.49700 25.08100 44.08400
C  51.43900 26.60200 43.45400
C  52.78300 22.05800 43.22000
C  57.47000 23.57300 43.70700
C  55.85000 28.16400 44.73900
N  52.44500 24.40800 43.21500
C  51.37700 25.24300 43.06400
C  50.09300 24.49500 42.56000
C  50.45400 23.03700 42.90300
C  51.98200 23.15300 43.18100
C  49.76100 22.42100 44.18400
C  49.92200 24.65600 41.01700
C  48.62000 24.08800 40.47700
H  48.45400 24.10200 38.93200
N  55.02200 23.03300 43.68100
C  54.16700 21.98800 43.41100
C  55.03500 20.81700 43.22700
C  56.43600 21.23000 43.29000
C  56.37600 22.64600 43.60400
C  54.42600 19.44500 42.89200
C  57.58700 20.38400 42.93500
O  57.40800 19.18500 42.76300
C  59.00500 20.94100 42.81700
N  56.42000 25.82900 43.86000
C  57.49200 25.00100 43.90800
C  58.71800 25.82000 44.29700
C  58.18000 27.27600 44.46100
C  56.69600 27.10100 44.37700
C  59.65500 25.33500 45.46300
C  58.81200 28.37600 43.43600
C  60.28200 28.71000 43.67700
N  53.82200 27.03500 44.22000
C  54.45800 28.16500 44.55300
C  53.48800 29.29700 44.70600
C  52.24700 28.67800 44.24800
C  52.54000 27.31900 43.92100
C  53.79500 30.72000 45.03600
C  50.84500 28.88500 44.01200
O  50.10200 29.83400 44.21800
C  50.30600 27.60900 43.34800
C  50.01500 28.07200 41.91200
O  50.80500 28.16400 40.99000
O  48.72300 28.30200 41.84800
C  48.15700 28.63600 40.52900
H  52.18900 21.19200 42.92100
H  58.46700 23.16100 43.87800
H  56.25300 29.10600 45.11500
H  49.21200 24.90700 43.04900
H  50.46600 22.34600 42.06100
H  49.03700 21.67600 43.85600
H  49.19400 23.27800 44.54800
H  50.53000 22.13600 44.90200
H  50.65300 24.00600 40.53700
H  49.93600 25.68300 40.65100
H  47.72800 24.50400 40.94500
H  48.56300 23.06600 40.85300
H  54.54100 19.10300 41.86300
H  53.39500 19.25500 43.18900
H  54.95100 18.71300 43.50600
H  59.59700 20.13600 42.38000
H  59.33800 21.11100 43.84100
H  59.13600 21.78600 42.14200
H  59.32500 25.77200 43.39300
H  58.39100 27.76000 45.41400
H  59.22300 24.51200 46.03100
H  59.77400 26.09700 46.23400
H  60.63300 25.08900 45.04800
H  58.34700 29.34600 43.61100
H  58.93000 28.02300 42.41200
H  60.73400 27.95800 44.32300
H  60.39600 29.73000 44.04400
H  60.83700 28.71600 42.73800
H  54.11400 31.29600 44.16800
H  54.56500 30.81600 45.80200
H  52.88900 31.20000 45.40500
H  49.33800 27.39400 43.80000
H  48.71900 29.55600 40.36800
H  47.10900 28.90100 40.66800
H  48.21600 27.88800 39.73800
Mg 49.48000 46.53500 42.05700
C  45.98900 47.39500 41.78500
C  48.76000 43.66900 40.43500
C  52.69600 46.09700 41.85700
C  50.00500 49.81500 43.33500
N  47.57500 45.77300 41.20100
C  46.28900 46.19600 41.17000
C  45.34000 45.26900 40.33300
C  46.20500 43.99800 40.05700
C  47.61100 44.47100 40.62700
C  45.78600 42.58700 40.71400
C  44.89900 46.04700 39.03300
C  43.39100 46.45300 38.89600
H  42.66800 45.60700 37.88300
N  50.64500 45.05400 41.20800
C  50.12800 43.89300 40.67200
C  51.21000 43.00400 40.33700
C  52.42300 43.69200 40.78300
C  51.96400 45.03500 41.32600
C  51.08100 41.63100 39.72300
C  53.85800 43.25100 40.63900
O  54.10100 42.11200 40.29700
C  55.08200 44.10200 40.73400
N  51.07500 47.73900 42.50700
C  52.32200 47.37300 42.22700
C  53.37100 48.36800 42.47700
C  52.50600 49.62400 42.81700
C  51.09900 49.04900 42.97300
C  54.43100 48.11100 43.52100
C  52.63900 50.67800 41.68000
C  53.39600 51.95900 42.00200
N  48.25500 48.22700 42.61900
C  48.65300 49.47000 43.11900
C  47.48500 50.30500 43.37300
C  46.44300 49.54100 42.85700
C  46.89600 48.28600 42.35600
C  47.47500 51.81200 43.85400
C  45.01400 49.54100 42.60600
O  44.30700 50.52800 42.65400
C  44.64900 48.12900 41.93000
C  43.81900 47.33100 42.83400
O  44.18400 46.87100 43.87200
O  42.66900 46.92200 42.20100
C  41.85300 45.77300 42.74100
H  48.51700 42.78500 39.84400
H  53.75500 45.84300 41.92900
H  50.28700 50.82500 43.63900
H  44.64300 45.10500 41.15400
H  46.36800 43.72500 39.01400
H  45.56700 41.77900 40.01700
H  44.88400 42.71900 41.31300
H  46.55400 42.26000 41.41400
H  45.11800 45.35400 38.22100
H  45.47300 46.97300 38.99900
H  43.41100 47.47200 38.50900
H  42.88500 46.54100 39.85800
H  50.04700 41.35000 39.52200
H  51.49300 40.93900 40.45800
H  51.69300 41.70000 38.82300
H  54.84000 44.99300 40.15400
H  55.96600 43.63100 40.30300
H  55.37800 44.37500 41.74700
H  53.86900 48.54900 41.52400
H  52.80800 50.07700 43.76200
H  54.47900 47.03400 43.68500
H  54.22300 48.53100 44.50500
H  55.41500 48.43400 43.18100
H  51.70900 50.95600 41.18400
H  53.17800 50.25200 40.83400
H  54.21700 52.00200 41.28600
H  53.44400 52.18700 43.06700
H  52.82700 52.73000 41.48300
H  46.45500 52.18500 43.76100
H  48.06400 52.40000 43.15100
H  47.82200 51.89100 44.88400
H  44.00600 48.25200 41.05900
H  41.31100 46.05800 43.64300
H  42.40300 44.88100 43.04100
H  41.12900 45.44000 41.99700

