158

Mg -11.50300 37.91800 42.07200
C  -9.41000 35.43600 40.84900
C  -9.19400 40.23800 41.02200
C  -13.84600 40.24600 42.07400
C  -13.84400 35.45400 42.75900
N  -9.50200 37.84300 41.02800
C  -8.87200 36.71400 40.57100
C  -7.63200 37.10200 39.81400
C  -7.34800 38.53400 40.34700
C  -8.75400 38.92300 40.84500
C  -6.28400 38.68700 41.44600
C  -7.77200 36.83100 38.26700
C  -6.66000 36.04000 37.73700
H  -5.67000 36.72200 36.79200
N  -11.49000 40.01700 41.70900
C  -10.42900 40.73500 41.32300
C  -10.80600 42.11100 41.22100
C  -12.25700 42.16300 41.43500
C  -12.62400 40.78900 41.68400
C  -9.89000 43.22600 40.75000
C  -13.09100 43.45900 41.43400
O  -12.70600 44.55700 41.05900
C  -14.61300 43.49000 41.79200
N  -13.57000 37.90700 42.30600
C  -14.30300 38.98700 42.45500
C  -15.60700 38.67600 43.14800
C  -15.68900 37.10800 43.12000
C  -14.25100 36.80400 42.76800
C  -15.99100 39.43400 44.46400
C  -16.71700 36.46700 42.10800
C  -17.97400 35.93800 42.82000
N  -11.56700 35.84000 42.05500
C  -12.55900 34.98200 42.39400
C  -12.13200 33.65700 42.30300
C  -10.88100 33.77300 41.69200
C  -10.57100 35.11300 41.55000
C  -12.86800 32.37700 42.76100
C  -9.80700 33.00500 41.18000
O  -9.61400 31.78900 41.17400
C  -8.64900 34.04800 40.69400
C  -7.47700 33.89300 41.60100
O  -7.13000 34.66200 42.46700
O  -6.69100 32.80800 41.22700
C  -5.42900 32.67400 41.96300
H  -8.42800 40.97900 40.78500
H  -14.54400 41.08500 42.10900
H  -14.69500 34.86600 43.10900
H  -6.88300 36.43900 40.24700
H  -7.00600 39.23400 39.58400
H  -5.56100 37.87900 41.33100
H  -6.80800 38.46500 42.37500
H  -5.74600 39.63400 41.41300
H  -7.63100 37.74300 37.68700
H  -8.77800 36.47500 38.04500
H  -7.04200 35.10800 37.32000
H  -5.94100 35.59900 38.42800
H  -9.69400 43.69600 41.71400
H  -10.37100 43.79200 39.95300
H  -8.92500 42.89100 40.37000
H  -15.21000 42.97400 41.04000
H  -14.85600 44.54800 41.89600
H  -14.85700 43.13500 42.79300
H  -16.50300 39.00900 42.62500
H  -15.86300 36.61200 44.07400
H  -16.76500 40.18400 44.29800
H  -15.10200 39.93500 44.84500
H  -16.34100 38.69600 45.18500
H  -16.18200 35.75900 41.47500
H  -17.00500 37.31400 41.48400
H  -18.58500 36.83100 42.95100
H  -17.64300 35.41600 43.71900
H  -18.52100 35.19100 42.24600
H  -13.84100 32.37800 42.26800
H  -13.04000 32.39300 43.83700
H  -12.34700 31.46400 42.47100
H  -8.30600 33.76000 39.70100
H  -5.51300 32.19400 42.93800
H  -4.88200 33.60300 42.12600
H  -4.76900 32.06400 41.34600
Mg -5.47600 25.92700 26.13000
C  -3.79100 27.19500 28.88400
C  -6.92100 23.55400 28.30200
C  -6.76000 24.35100 23.42300
C  -3.67200 27.99300 24.02800
N  -5.46400 25.45500 28.42600
C  -4.62500 26.12000 29.29500
C  -4.86600 25.61800 30.70800
C  -5.62700 24.28400 30.48700
C  -6.07700 24.40700 29.00400
C  -4.63300 23.02700 30.65800
C  -5.72000 26.80400 31.46100
C  -5.29800 27.07400 32.96900
H  -6.15200 26.36700 34.03300
N  -6.82300 24.31400 25.86900
C  -7.23600 23.46800 26.88000
C  -8.15700 22.47900 26.27100
C  -8.12700 22.69200 24.87100
C  -7.25700 23.82500 24.65000
C  -8.87900 21.41100 27.12500
C  -8.80200 21.94300 23.69900
O  -8.92100 22.33200 22.56400
C  -9.51900 20.70600 24.04700
N  -5.21900 26.06800 24.07500
C  -5.93300 25.41400 23.17600
C  -5.55400 25.71500 21.82300
C  -4.59700 26.88600 21.97500
C  -4.58300 27.09400 23.43800
C  -4.88000 24.54600 20.86100
C  -4.84700 28.23100 21.12200
C  -5.24500 28.10100 19.64200
N  -3.97200 27.29000 26.37100
C  -3.38300 28.12900 25.40500
C  -2.66400 29.10700 26.11400
C  -2.65300 28.73400 27.44500
C  -3.59100 27.66100 27.56700
C  -1.74300 30.12100 25.41000
C  -2.07100 29.03300 28.76700
O  -1.17700 29.80300 29.07100
C  -2.85100 28.12000 29.70200
C  -1.91700 27.36100 30.58300
O  -1.31000 26.27900 30.40500
O  -1.90200 28.02800 31.80200
C  -1.27400 27.38000 32.90100
H  -7.46800 22.86300 28.94700
H  -7.12300 23.74600 22.58900
H  -3.37200 28.86100 23.43800
H  -4.00200 25.41300 31.34100
H  -6.45200 24.19400 31.19200
H  -5.03500 22.45800 31.49600
H  -3.65500 23.35800 31.00800
H  -4.49700 22.42600 29.75900
H  -6.79000 26.59900 31.44400
H  -5.45800 27.74500 30.97800
H  -5.19400 28.13000 33.21400
H  -4.31200 26.61600 33.04800
H  -8.43600 20.42500 26.98100
H  -9.86000 21.29500 26.66300
H  -8.99400 21.55000 28.20000
H  -9.74900 20.10100 23.17000
H  -10.45800 20.95200 24.54300
H  -8.97000 20.11000 24.77600
H  -6.44600 26.11500 21.34100
H  -3.63200 26.51900 21.62700
H  -3.89300 24.83400 20.49900
H  -5.57300 24.45500 20.02500
H  -4.79900 23.60800 21.41000
H  -3.96100 28.86600 21.13700
H  -5.62700 28.80700 21.62100
H  -5.98100 28.88000 19.44400
H  -5.70400 27.15500 19.35300
H  -4.31500 28.16600 19.07700
H  -0.66800 30.10200 25.58700
H  -2.12800 31.14100 25.41100
H  -1.77600 29.84000 24.35700
H  -3.40200 28.84100 30.30500
H  -0.41900 27.81200 33.42100
H  -1.13700 26.30100 32.97300
H  -2.00100 27.55400 33.69400

