158

Mg 2.04800 -2.31900 45.00800
C  5.56800 -1.41300 44.88900
C  1.36300 0.53100 43.28200
C  -0.92900 -3.52400 44.66300
C  3.14500 -5.59900 46.07500
N  3.35600 -0.79100 44.02100
C  4.71800 -0.54500 44.12600
C  5.14200 0.61500 43.23500
C  3.79200 1.24700 42.80500
C  2.75800 0.34200 43.43100
C  3.74900 2.68000 43.39200
C  5.88800 -0.00600 42.04800
C  7.16800 0.73000 41.68700
H  7.48000 0.70200 40.14900
N  0.35700 -1.49800 44.30100
C  0.22600 -0.32900 43.62800
C  -1.16200 -0.09900 43.21100
C  -1.79200 -1.38000 43.42500
C  -0.77500 -2.21000 44.12300
C  -1.56900 1.12200 42.60800
C  -3.23600 -1.68600 43.09800
O  -3.94100 -0.89200 42.62400
C  -3.85900 -3.10500 43.23800
N  1.23400 -4.32700 45.29700
C  -0.08800 -4.47800 45.18900
C  -0.57500 -5.87400 45.68000
C  0.77000 -6.46300 46.22200
C  1.77100 -5.39600 45.82100
C  -1.66800 -5.78100 46.87500
C  1.03400 -7.87100 45.58200
C  1.68900 -8.96300 46.37300
N  3.96500 -3.31200 45.47400
C  4.21800 -4.64300 45.90800
C  5.68000 -4.73800 46.08400
C  6.22800 -3.50600 45.73300
C  5.14400 -2.69300 45.39300
C  6.34000 -5.96100 46.54700
C  7.47600 -2.74900 45.71400
O  8.61900 -3.06900 46.10900
C  7.07200 -1.37900 45.02200
C  7.60100 -0.24800 45.91400
O  7.47600 -0.28400 47.13300
O  8.16500 0.78400 45.13300
C  8.42600 2.01100 45.95500
H  1.17300 1.41000 42.66200
H  -1.97100 -3.83200 44.55200
H  3.40100 -6.62500 46.34900
H  5.68600 1.32300 43.86000
H  3.60500 1.31700 41.73400
H  4.32700 3.43200 42.85600
H  3.95900 2.65700 44.46200
H  2.72700 3.05700 43.34500
H  5.33700 -0.04400 41.10800
H  6.17300 -1.03600 42.25800
H  7.99400 0.31500 42.26400
H  7.11700 1.77500 41.99400
H  -1.19900 1.12400 41.58200
H  -1.18000 1.93500 43.22100
H  -2.65500 1.21000 42.61200
H  -3.18100 -3.86300 42.84600
H  -4.78900 -3.09600 42.67000
H  -3.92200 -3.30500 44.30800
H  -0.88700 -6.44700 44.80700
H  0.68300 -6.54800 47.30500
H  -1.87800 -4.71800 46.99200
H  -1.23600 -6.15600 47.80300
H  -2.54600 -6.39500 46.67300
H  1.65800 -7.73000 44.70000
H  0.06400 -8.14700 45.16900
H  2.27900 -9.61200 45.72500
H  0.90500 -9.63400 46.72400
H  2.35300 -8.66300 47.18300
H  5.89000 -6.32300 47.47200
H  7.42700 -5.88100 46.56500
H  6.13200 -6.66600 45.74200
H  7.52800 -1.29100 44.03700
H  8.59300 2.84200 45.26900
H  9.35000 1.88700 46.52000
H  7.57200 2.19500 46.60600
Mg 16.53300 -1.45000 27.99200
C  15.73400 0.39800 30.82500
C  18.71600 -3.37900 30.01500
C  17.96700 -2.99700 25.29600
C  14.80600 0.74900 25.98200
N  17.22200 -1.40500 30.13900
C  16.65000 -0.68200 31.16100
C  17.37800 -0.79400 32.50800
C  18.37300 -1.96700 32.17500
C  18.06200 -2.27200 30.69400
C  19.89600 -1.77400 32.42900
C  16.35200 -1.08800 33.66900
C  16.82900 -1.75500 34.95600
H  17.23900 -0.89000 36.12500
N  18.00700 -3.19900 27.65900
C  18.70400 -3.84100 28.63100
C  19.39600 -4.95300 28.06800
C  19.12100 -4.90300 26.69600
C  18.35600 -3.69800 26.45800
C  20.28100 -5.92300 28.81400
C  19.64400 -5.75900 25.52300
O  19.42700 -5.37400 24.35600
C  20.45900 -7.07500 25.71700
N  16.43800 -1.14700 25.94500
C  17.12300 -1.89500 25.02900
C  16.75700 -1.42300 23.65800
C  15.56800 -0.40300 23.84100
C  15.61300 -0.24400 25.30800
C  18.02000 -0.86800 22.88200
C  14.10200 -0.68800 23.42800
C  13.86500 -0.17300 21.97500
N  15.38000 0.12600 28.27500
C  14.72800 0.92500 27.36100
C  13.91100 1.87800 28.05900
C  14.30900 1.73400 29.41600
C  15.20600 0.63300 29.51900
C  13.11900 2.88300 27.46600
C  14.08400 2.29600 30.70800
O  13.32700 3.23000 31.03300
C  14.99900 1.41300 31.78300
C  15.88600 2.35100 32.50300
O  16.83000 3.03000 32.10400
O  15.46000 2.49100 33.76600
C  15.94700 3.61900 34.53500
H  19.47500 -3.78500 30.68800
H  18.39700 -3.33900 24.35300
H  14.19100 1.38500 25.34100
H  17.88300 0.13700 32.76200
H  18.09200 -2.85300 32.74500
H  20.13900 -1.15000 33.28900
H  20.33300 -1.29800 31.55200
H  20.33700 -2.74500 32.65500
H  15.58200 -1.76400 33.29900
H  15.89000 -0.13800 33.93800
H  17.76800 -2.28800 34.80300
H  16.06300 -2.34800 35.45400
H  20.16400 -5.80500 29.89100
H  21.35000 -5.86300 28.60800
H  20.08400 -6.96300 28.55400
H  19.73700 -7.70900 26.23300
H  21.31400 -7.00500 26.39000
H  20.86100 -7.52600 24.81000
H  16.40900 -2.23100 23.01500
H  15.81500 0.57600 23.43100
H  18.87700 -0.75800 23.54700
H  17.73500 0.09900 22.46900
H  18.30800 -1.48900 22.03300
H  13.40700 -0.21500 24.12200
H  13.93900 -1.76500 23.40800
H  14.84700 0.06100 21.56400
H  13.33700 0.76400 22.15300
H  13.32900 -0.93700 21.41100
H  13.41400 3.21900 26.47200
H  13.17600 3.81700 28.02400
H  12.11900 2.45000 27.43500
H  14.25800 1.02500 32.48200
H  15.04100 3.96700 35.03100
H  16.28300 4.50400 33.99400
H  16.75000 3.19600 35.13900

