158

Mg -10.60900 17.38400 41.90600
C  -7.10400 17.37600 42.14500
C  -10.54600 20.67700 40.96400
C  -14.01700 17.25300 41.36100
C  -10.57100 13.95100 42.14300
N  -8.97600 18.88800 41.63300
C  -7.68600 18.62000 41.72800
C  -6.84300 19.84100 41.14400
C  -7.93100 20.99400 41.21400
C  -9.28800 20.15900 41.22600
C  -7.70600 21.91000 42.57400
C  -6.35600 19.50200 39.64800
C  -4.81800 19.50900 39.40600
H  -4.37500 18.32500 38.52300
N  -12.09000 18.84100 41.34200
C  -11.82400 20.12800 41.11100
C  -13.08800 20.92100 41.07800
C  -14.13200 19.95500 41.23000
C  -13.53900 18.60000 41.28300
C  -13.19900 22.40100 40.67200
C  -15.65000 20.22500 41.29100
O  -16.01800 21.39500 41.19900
C  -16.59500 19.17900 41.48300
N  -11.94400 15.76800 41.51200
C  -13.34200 16.01400 41.38800
C  -14.12000 14.71400 41.44900
C  -12.96400 13.62400 41.34600
C  -11.76500 14.50500 41.78100
C  -15.04100 14.64800 42.73400
C  -12.83300 12.96000 39.87000
C  -12.66300 11.42300 39.75200
N  -9.15300 15.96700 42.28000
C  -9.37200 14.57900 42.36800
C  -8.09500 13.95300 42.68200
C  -7.15400 15.02000 42.53100
C  -7.90500 16.22300 42.29200
C  -7.76400 12.51600 42.93000
C  -5.75000 15.43600 42.54900
O  -4.79500 14.70200 42.72700
C  -5.67500 16.91500 42.28000
C  -4.88500 17.60800 43.40800
O  -4.93600 17.30800 44.60800
O  -4.13700 18.65600 42.89400
C  -3.57300 19.55800 43.87900
H  -10.59500 21.73700 40.70600
H  -15.09100 17.07700 41.26500
H  -10.50400 12.86100 42.13700
H  -6.05500 20.00500 41.87800
H  -7.90700 21.65000 40.34400
H  -8.61800 21.68000 43.12400
H  -7.60700 22.94100 42.23400
H  -6.81300 21.63500 43.13700
H  -6.79100 20.28300 39.02500
H  -6.75500 18.57300 39.24100
H  -4.27500 19.51400 40.35100
H  -4.63600 20.37600 38.77100
H  -14.00500 22.93600 41.17600
H  -13.37700 22.42500 39.59700
H  -12.33300 23.00800 40.93600
H  -16.71300 18.61300 40.55900
H  -17.53600 19.72500 41.55000
H  -16.38700 18.49500 42.30600
H  -14.74200 14.70200 40.55400
H  -13.05200 12.91200 42.16700
H  -14.68300 13.93900 43.48000
H  -16.05900 14.40600 42.42800
H  -15.15400 15.64500 43.15800
H  -12.03500 13.39000 39.26500
H  -13.75300 13.17000 39.32500
H  -12.20800 11.14900 40.70400
H  -11.79700 11.23500 39.11700
H  -13.58200 10.87900 39.53600
H  -7.76600 12.33000 44.00400
H  -6.77000 12.37400 42.50500
H  -8.51100 11.87000 42.46800
H  -5.16000 17.08900 41.33600
H  -2.59900 19.19400 44.20700
H  -4.20900 19.58100 44.76400
H  -3.38700 20.48900 43.34500
Mg -5.60600 24.88700 26.95000
C  -4.59000 26.76900 29.75100
C  -7.37500 23.05300 29.16600
C  -6.87500 23.24300 24.33300
C  -3.79500 26.96400 24.96800
N  -5.86800 24.93800 29.21800
C  -5.45600 25.81900 30.12900
C  -6.07400 25.55700 31.52000
C  -6.76100 24.16300 31.31600
C  -6.67800 24.00600 29.79800
C  -6.13700 22.87900 32.06300
C  -7.00800 26.70900 31.98000
C  -7.06100 27.19600 33.53900
H  -6.52000 26.23100 34.61200
N  -6.98800 23.38000 26.72100
C  -7.69100 22.79700 27.79000
C  -8.63400 21.82100 27.21300
C  -8.48000 21.80700 25.76600
C  -7.44500 22.89200 25.56500
C  -9.56100 20.95900 28.09500
C  -9.10300 20.95000 24.73200
O  -9.06600 21.27100 23.53000
C  -10.07500 19.90200 25.14200
N  -5.26800 25.00500 24.95300
C  -5.92300 24.19100 24.07200
C  -5.36800 24.44400 22.61600
C  -4.45300 25.68900 22.84700
C  -4.50000 25.87700 24.37000
C  -4.56200 23.25600 22.02600
C  -4.92600 27.01600 22.00500
C  -4.10000 27.22100 20.70900
N  -4.35100 26.46600 27.23600
C  -3.69100 27.25300 26.27400
C  -2.96200 28.25000 26.92900
C  -3.23500 28.08200 28.31700
C  -4.16400 27.07800 28.45300
C  -2.02600 29.20300 26.28900
C  -3.00200 28.63600 29.61500
O  -2.34000 29.57200 30.03400
C  -3.94300 27.87600 30.62600
C  -3.16700 27.38600 31.80300
O  -2.44100 26.41500 31.84900
O  -3.21200 28.28800 32.88300
C  -2.25800 28.20900 34.02700
H  -7.79100 22.32400 29.86400
H  -7.12000 22.55100 23.52500
H  -3.25400 27.60500 24.26900
H  -5.32700 25.35500 32.28800
H  -7.79800 24.08900 31.64300
H  -5.35400 23.31400 32.68500
H  -5.77000 22.14300 31.34800
H  -6.91800 22.50700 32.72600
H  -8.01900 26.51000 31.62400
H  -6.57300 27.56000 31.45400
H  -8.05600 27.52200 33.84200
H  -6.54300 28.14500 33.68000
H  -9.44400 19.93300 27.74900
H  -10.57800 21.33900 28.00500
H  -9.36900 21.00700 29.16700
H  -9.81300 19.22200 25.95200
H  -10.45900 19.26700 24.34300
H  -10.98100 20.37200 25.52500
H  -6.24300 24.62400 21.99300
H  -3.40000 25.47000 22.67500
H  -4.32100 22.44800 22.71700
H  -3.61100 23.58600 21.60800
H  -5.22900 22.87600 21.25200
H  -4.93700 27.93000 22.59900
H  -5.93300 26.89600 21.60500
H  -3.35900 26.46100 20.46000
H  -3.52100 28.14300 20.75700
H  -4.72700 27.30800 19.82200
H  -1.43500 29.64200 27.09400
H  -2.38100 29.93400 25.56300
H  -1.26900 28.62500 25.76000
H  -4.72300 28.56400 30.95400
H  -1.29400 27.78200 33.75000
H  -2.61000 27.75300 34.95200
H  -1.99300 29.21300 34.35900

