158

Mg 24.64700 -8.55400 46.98000
C  27.07400 -6.16400 46.03700
C  22.58200 -7.56500 44.39400
C  22.72600 -11.23700 47.62300
C  27.21700 -9.95700 49.17200
N  24.95000 -7.05000 45.38900
C  25.93500 -6.19000 45.17800
C  25.57200 -5.22400 44.09200
C  24.17000 -5.58100 43.70000
C  23.87000 -6.86400 44.57600
C  22.99900 -4.52100 43.73100
C  26.64900 -5.15300 42.93000
C  27.18800 -3.71300 42.56900
H  27.09200 -3.15800 41.18100
N  22.82300 -9.26900 46.20500
C  22.13000 -8.68900 45.15400
C  20.94500 -9.40600 44.94200
C  20.86000 -10.46800 45.82400
C  22.19200 -10.41400 46.61200
C  20.03700 -8.95600 43.81900
C  19.76200 -11.54500 45.92600
O  18.75700 -11.52400 45.19900
C  19.98900 -12.82500 46.78900
N  25.09200 -10.37200 48.10200
C  23.99900 -11.23100 48.27300
C  24.44700 -12.48400 49.16800
C  25.88000 -12.08700 49.64500
C  26.09900 -10.75400 48.90700
C  23.47400 -12.68100 50.43200
C  27.01000 -13.10900 49.43300
C  27.43300 -14.04500 50.52100
N  26.66700 -8.08900 47.61000
C  27.58700 -8.75100 48.52100
C  28.84200 -8.02600 48.63500
C  28.64600 -6.96100 47.70600
C  27.36500 -7.09200 47.08400
C  29.95200 -8.40400 49.47200
C  29.17500 -5.72800 47.20100
O  30.27800 -5.27200 47.50800
C  28.19700 -5.20700 46.12900
C  27.76200 -3.82400 46.38000
O  26.95700 -3.49900 47.26000
O  28.19500 -2.98600 45.39700
C  28.01300 -1.56600 45.66700
H  21.97300 -7.02200 43.66900
H  22.16100 -12.15900 47.77800
H  27.96800 -10.31700 49.87800
H  25.42100 -4.24700 44.55100
H  24.26200 -5.94600 42.67700
H  23.43900 -3.53500 43.87700
H  22.20900 -4.68500 44.46400
H  22.57500 -4.58900 42.72900
H  26.11300 -5.31900 41.99600
H  27.46600 -5.84700 43.12800
H  28.24700 -3.80100 42.81100
H  26.63800 -3.16400 43.33300
H  20.20000 -7.92400 43.50900
H  19.01800 -9.09300 44.18100
H  20.08700 -9.62400 42.95900
H  20.97700 -13.16000 46.47100
H  19.19600 -13.46100 46.39700
H  19.79700 -12.33600 47.74400
H  24.59400 -13.42700 48.64200
H  25.90800 -11.77200 50.68800
H  22.57000 -13.13400 50.02500
H  23.12100 -11.69900 50.74500
H  23.83100 -13.35800 51.20800
H  27.91700 -12.53600 49.24100
H  26.83400 -13.64900 48.50300
H  26.69500 -13.92200 51.31400
H  28.42500 -13.75100 50.86600
H  27.50300 -15.08200 50.19300
H  30.50300 -9.29000 49.15400
H  29.61700 -8.64900 50.48000
H  30.62500 -7.55300 49.57500
H  28.78100 -5.13100 45.21200
H  28.50700 -1.43300 46.62900
H  26.94600 -1.34600 45.70000
H  28.46600 -0.92700 44.90900
Mg -5.43500 24.49100 27.39300
C  -3.68300 26.14900 30.05700
C  -6.31500 22.19800 29.68900
C  -6.33800 22.49400 24.86500
C  -3.86200 26.63400 25.24600
N  -5.00800 24.25300 29.68200
C  -4.42000 25.06200 30.51000
C  -4.59700 24.63200 31.93100
C  -5.34100 23.28900 31.76900
C  -5.60600 23.24000 30.27700
C  -4.56200 22.01900 32.15800
C  -5.39800 25.70000 32.74900
C  -4.95800 25.93700 34.17600
H  -5.59100 25.00700 35.18500
N  -6.39700 22.64800 27.28000
C  -6.73300 21.88400 28.37000
C  -7.44200 20.74200 27.86600
C  -7.42800 20.81100 26.47700
C  -6.59900 21.94400 26.11000
C  -7.88300 19.63400 28.68900
C  -8.03100 19.86200 25.41900
O  -7.66000 19.81300 24.24800
C  -9.06900 18.73300 25.95100
N  -5.15500 24.58300 25.30400
C  -5.64700 23.67400 24.43100
C  -5.49400 24.13000 22.98400
C  -4.64800 25.43600 23.15500
C  -4.57600 25.62900 24.61100
C  -4.91500 22.99300 22.06500
C  -5.10200 26.74100 22.43100
C  -3.93100 27.43100 21.58900
N  -4.20100 26.07600 27.58300
C  -3.62300 26.89000 26.59500
C  -2.80600 27.93600 27.21100
C  -2.75700 27.67000 28.53900
C  -3.66000 26.58600 28.73600
C  -2.19200 29.03700 26.38400
C  -2.23300 28.13200 29.79000
O  -1.40600 28.98600 30.07400
C  -2.90300 27.16700 30.84200
C  -1.73400 26.44700 31.46200
O  -1.15500 25.40000 31.03700
O  -1.41500 26.97400 32.72000
C  -0.44300 26.21000 33.51800
H  -6.64200 21.47800 30.44200
H  -6.90800 22.14200 24.00200
H  -3.43500 27.34800 24.53900
H  -3.62200 24.42200 32.37100
H  -6.32000 23.18200 32.23800
H  -3.77200 22.24700 32.87400
H  -4.01200 21.65400 31.29100
H  -5.13600 21.22100 32.63000
H  -6.45300 25.44000 32.65800
H  -5.31300 26.60400 32.14600
H  -5.12200 26.98200 34.44200
H  -3.89600 25.69500 34.15700
H  -8.91600 19.35600 28.47600
H  -7.72800 19.91700 29.73000
H  -7.37400 18.69800 28.45700
H  -8.41100 17.97100 26.36800
H  -9.33100 18.21900 25.02600
H  -9.97000 19.11800 26.42700
H  -6.42700 24.29800 22.44600
H  -3.62500 25.20500 22.85700
H  -4.19600 22.48600 22.70800
H  -4.48800 23.19700 21.08300
H  -5.70100 22.26200 21.87700
H  -5.48500 27.48900 23.12600
H  -5.91900 26.60600 21.72200
H  -3.59300 28.31300 22.13200
H  -4.40500 27.73100 20.65500
H  -3.10900 26.79900 21.25100
H  -2.94900 29.63800 25.88100
H  -1.59900 28.62800 25.56500
H  -1.61300 29.76100 26.95700
H  -3.41800 27.79200 31.57100
H  0.56900 26.56500 33.32100
H  -0.39600 25.13700 33.33500
H  -0.72900 26.34600 34.56100

