158

Mg 24.84700 1.25000 30.33200
C  27.01700 1.24400 33.03000
C  22.22200 0.91700 32.56300
C  22.87100 0.87900 27.78600
C  27.70500 0.92000 28.19500
N  24.70600 1.11500 32.53200
C  25.66700 1.26300 33.47700
C  25.19500 1.37800 34.90000
C  23.66800 0.93300 34.72600
C  23.50600 0.92300 33.20300
C  23.21700 -0.43400 35.40100
C  25.35800 2.78300 35.48300
C  26.32000 2.77800 36.71000
H  26.01500 3.66900 37.88000
N  22.85700 0.93200 30.19400
C  21.93800 0.89800 31.20300
C  20.61500 0.80200 30.59500
C  20.72100 0.73400 29.19100
C  22.22600 0.88800 29.03200
C  19.34300 0.74500 31.44100
C  19.72800 0.64000 28.09100
O  20.00700 0.66700 26.90300
C  18.27000 0.39500 28.44700
N  25.27700 0.85500 28.25800
C  24.25200 0.90100 27.33500
C  24.67500 1.10000 25.88500
C  26.25300 1.07800 26.09500
C  26.45200 0.95300 27.59500
C  24.14900 0.04300 24.84400
C  27.15900 2.13000 25.40700
C  28.40700 1.72700 24.72000
N  27.02700 1.03300 30.50400
C  28.00000 0.90200 29.60400
C  29.29400 0.80500 30.23100
C  28.95000 1.07500 31.57900
C  27.57200 1.13300 31.67300
C  30.62300 0.52600 29.51700
C  29.42000 1.17700 32.96800
O  30.53200 1.10300 33.42400
C  28.19700 1.44000 33.88600
C  28.33400 0.53900 35.04500
O  28.16200 -0.62100 35.02600
O  28.79700 1.25400 36.08500
C  29.20700 0.63100 37.30900
H  21.38000 0.79900 33.24900
H  22.27700 0.63200 26.90400
H  28.62300 0.94600 27.60400
H  25.72400 0.66000 35.52700
H  22.92200 1.62700 35.11100
H  22.32600 -0.27100 36.00700
H  23.92100 -0.85700 36.11700
H  22.98300 -1.20000 34.66100
H  24.42400 3.27500 35.75500
H  25.93900 3.36100 34.76400
H  27.24400 3.21000 36.32400
H  26.53300 1.74800 36.99800
H  19.11300 -0.29600 31.66500
H  18.44100 1.13600 30.96900
H  19.46000 1.31600 32.36200
H  17.64600 0.21600 27.57100
H  17.89300 1.29200 28.93800
H  18.07300 -0.41500 29.14900
H  24.37900 2.12400 25.66000
H  26.63200 0.10900 25.76900
H  23.66800 -0.80200 25.33600
H  24.86300 -0.49700 24.22300
H  23.48300 0.48400 24.10300
H  27.44800 2.86200 26.16000
H  26.47800 2.65000 24.73400
H  28.29600 0.64700 24.62600
H  29.34700 1.83900 25.26000
H  28.47100 2.38000 23.85000
H  30.53600 0.68600 28.44200
H  30.85000 -0.51700 29.73500
H  31.32200 1.30100 29.83100
H  28.27700 2.51700 34.03500
H  28.39300 0.69600 38.03100
H  30.03000 1.23200 37.69600
H  29.59100 -0.37400 37.13200
Mg 45.04000 5.38600 47.58300
C  43.00400 8.01100 47.33900
C  42.22200 3.27000 47.46300
C  47.08700 2.64200 47.47500
C  47.86800 7.45500 47.55800
N  42.82500 5.59400 47.45500
C  42.25700 6.83400 47.38100
C  40.72800 6.62700 47.02300
C  40.44900 5.17600 47.30100
C  41.94300 4.64000 47.47700
C  39.49400 4.96200 48.47500
C  40.47600 7.00600 45.51200
C  39.30900 8.05500 45.52900
H  38.45400 8.06600 44.21300
N  44.67400 3.23800 47.53700
C  43.45700 2.62100 47.54600
C  43.72500 1.19300 47.42300
C  45.10500 0.97800 47.30900
C  45.66000 2.31500 47.44700
C  42.67200 0.12200 47.40300
C  45.75500 -0.34900 47.06500
O  45.11100 -1.39100 46.97600
C  47.30200 -0.50700 46.84100
N  47.21000 5.09700 47.42900
C  47.82400 3.85500 47.47800
C  49.26300 3.94800 47.39700
C  49.51800 5.51600 47.54800
C  48.11500 6.09300 47.54700
C  50.13300 2.96600 48.33000
C  50.45000 6.02900 46.35200
C  51.88600 6.56200 46.71200
N  45.41800 7.33300 47.38200
C  46.57600 8.09100 47.48900
C  46.28100 9.50400 47.32300
C  44.89400 9.49200 47.38400
C  44.41000 8.14800 47.42000
C  47.16500 10.74200 47.04800
C  43.64700 10.39200 47.24100
O  43.63100 11.61400 47.13600
C  42.37700 9.41600 47.33100
C  41.47300 9.73700 48.50400
O  41.53900 9.11100 49.56300
O  40.48800 10.46900 48.05500
C  39.28700 10.55800 48.87800
H  41.35800 2.61200 47.34700
H  47.79300 1.81000 47.52800
H  48.71900 8.13400 47.47400
H  40.14500 7.28000 47.67300
H  40.20700 4.55500 46.43800
H  39.21700 5.92700 48.89900
H  40.02000 4.42400 49.26300
H  38.63200 4.40100 48.11500
H  40.26000 6.27700 44.73100
H  41.40200 7.50800 45.23100
H  39.81600 9.00400 45.70100
H  38.59600 7.88400 46.33600
H  42.81300 -0.54800 46.55500
H  41.69100 0.54700 47.19000
H  42.77100 -0.34600 48.38200
H  47.60300 0.06400 45.96200
H  47.48400 -1.57300 46.70500
H  47.89800 -0.20100 47.70100
H  49.44100 3.64300 46.36600
H  49.83900 5.77500 48.55700
H  49.46700 2.34400 48.92900
H  50.70900 3.58800 49.01500
H  50.90100 2.38600 47.81900
H  49.88700 6.82500 45.86500
H  50.70300 5.15200 45.75600
H  51.88800 7.56300 47.14400
H  52.53400 6.58200 45.83600
H  52.32200 5.88600 47.44700
H  48.09700 10.69600 47.61100
H  46.58100 11.63300 47.27800
H  47.33000 10.92600 45.98700
H  41.85200 9.67800 46.41200
H  39.05300 11.62200 48.83900
H  39.32600 10.14100 49.88400
H  38.56600 10.15800 48.16500

