158

Mg 44.15900 3.91400 45.90000
C  42.37400 6.97600 45.78800
C  41.25900 2.37100 45.00700
C  46.05400 1.17700 45.36300
C  47.19600 5.70600 45.77200
N  41.97500 4.59200 45.45800
C  41.48400 5.87600 45.57300
C  39.95400 5.88000 45.26200
C  39.57900 4.34300 45.07500
C  40.98500 3.70800 45.22200
C  38.56800 3.85700 46.13200
C  39.50700 6.75100 43.94800
C  40.62900 6.98900 42.87300
H  40.14200 7.24900 41.40800
N  43.74300 2.00600 45.37900
C  42.48400 1.61900 45.02900
C  42.56800 0.14000 44.72900
C  43.91300 -0.16200 44.61200
C  44.65200 1.01500 45.15100
C  41.28000 -0.70000 44.25700
C  44.55900 -1.51600 44.03100
O  43.86700 -2.39900 43.53200
C  46.05600 -1.71400 43.90600
N  46.29800 3.48000 45.74000
C  46.80600 2.23000 45.70700
C  48.35800 2.12400 45.81900
C  48.67900 3.67600 45.99500
C  47.26800 4.30100 45.82200
C  48.90300 1.33000 47.02100
C  49.66700 4.35400 44.93600
C  50.82400 3.56100 44.39700
N  44.71100 5.89300 45.78800
C  45.94000 6.45400 45.71700
C  45.76100 7.93500 45.84600
C  44.42300 8.14600 45.83800
C  43.82100 6.90500 45.77300
C  46.90300 8.87300 45.82700
C  43.37700 9.20900 45.86600
O  43.48900 10.46000 45.88300
C  42.06300 8.41000 46.00500
C  41.47900 8.58700 47.37100
O  41.49100 7.76200 48.28500
O  40.97200 9.86200 47.44600
C  40.71700 10.24300 48.83600
H  40.40100 1.73800 44.77000
H  46.72400 0.31800 45.44200
H  48.11000 6.29200 45.89000
H  39.56200 6.36700 46.15500
H  39.20700 4.16800 44.06500
H  39.03800 3.21200 46.87400
H  37.80900 3.32600 45.55700
H  38.15100 4.67600 46.71800
H  39.24200 7.67300 44.46600
H  38.55200 6.35500 43.60500
H  41.20300 6.06400 42.93000
H  41.17800 7.90300 43.10100
H  41.12900 -0.38800 43.22400
H  40.50500 -0.25100 44.87900
H  41.29700 -1.78700 44.34400
H  46.26900 -2.66600 43.42000
H  46.33200 -1.60100 44.95400
H  46.54600 -0.92100 43.34000
H  48.80700 1.83700 44.86700
H  49.00300 3.94700 46.99900
H  48.10700 0.99500 47.68500
H  49.61100 1.84800 47.66900
H  49.46400 0.46400 46.67000
H  50.01600 5.26900 45.41500
H  48.99400 4.60900 44.11700
H  51.69600 4.21300 44.34400
H  50.58300 3.34200 43.35700
H  51.04400 2.58000 44.81800
H  47.12100 9.06300 46.87800
H  46.64000 9.82600 45.36900
H  47.80200 8.48400 45.34800
H  41.33300 8.83400 45.31400
H  39.80000 9.80800 49.23300
H  40.61700 11.32700 48.78100
H  41.53100 10.00000 49.51900
Mg 40.35000 10.29700 29.75700
C  42.52100 10.82600 32.44900
C  38.24600 8.63200 31.98600
C  38.43200 9.35100 27.21300
C  42.95200 10.98300 27.52900
N  40.40400 9.75200 31.90500
C  41.33100 10.21900 32.86800
C  40.95600 9.97600 34.29400
C  39.67400 9.08400 34.05500
C  39.41000 9.10100 32.51700
C  39.88500 7.67200 34.58900
C  40.63200 11.35100 34.97200
C  40.04400 11.16900 36.35100
H  40.83500 11.82500 37.57200
N  38.56800 9.23500 29.60500
C  37.78700 8.65400 30.61700
C  36.49300 8.27000 30.11100
C  36.52500 8.58600 28.74200
C  37.88400 9.06400 28.44500
C  35.34400 7.69600 31.04100
C  35.35100 8.45600 27.67100
O  35.48600 8.75900 26.48300
C  34.01900 7.98200 28.22600
N  40.76100 9.90100 27.66000
C  39.73900 9.65500 26.86000
C  39.94600 9.99800 25.35600
C  41.47500 10.53900 25.45100
C  41.80000 10.45800 26.96200
C  39.71200 8.97200 24.24800
C  41.58400 12.06400 24.98700
C  41.05300 13.20200 25.78100
N  42.28300 10.88200 29.86100
C  43.21800 11.21500 28.90300
C  44.53600 11.62700 29.54700
C  44.20300 11.54800 30.94900
C  42.89400 11.06300 31.11300
C  45.82400 11.99500 28.78900
C  44.70300 11.87500 32.25000
O  45.81600 12.31500 32.58500
C  43.64400 11.45000 33.33100
C  44.32500 10.54700 34.25400
O  44.99000 9.49900 34.02500
O  44.05700 11.00200 35.49000
C  44.64000 10.29700 36.66600
H  37.52300 8.25500 32.71200
H  37.77400 9.34900 26.34200
H  43.69300 11.31900 26.80100
H  41.84100 9.49300 34.70800
H  38.86700 9.51700 34.64600
H  39.17000 7.43300 35.37600
H  40.89200 7.63000 35.00400
H  39.61200 6.84100 33.93900
H  39.96200 11.97700 34.38400
H  41.63500 11.77200 35.05000
H  40.05900 10.10100 36.56900
H  39.05200 11.60600 36.23600
H  35.61900 7.96900 32.05900
H  35.09000 6.65500 30.83700
H  34.41300 8.25000 30.92600
H  33.80000 8.76400 28.95400
H  34.10800 7.00700 28.70500
H  33.23100 8.01600 27.47400
H  39.37800 10.90900 25.17000
H  42.19300 9.92000 24.91300
H  38.85200 9.16400 23.60600
H  39.59000 7.96100 24.63800
H  40.59100 8.88700 23.60800
H  41.24200 12.23800 23.96700
H  42.65100 12.17900 24.79600
H  40.85500 12.93000 26.81700
H  40.23200 13.68700 25.25300
H  41.87800 13.91400 25.75200
H  46.50000 12.41900 29.53100
H  45.60300 12.46300 27.83000
H  46.33900 11.10500 28.42800
H  43.26100 12.29300 33.90600
H  43.89400 10.25400 37.46000
H  45.54600 10.86700 36.87100
H  44.77500 9.23600 36.45600

