158

Mg 24.93200 1.66200 29.62100
C  27.08200 1.67400 32.29800
C  22.30500 2.05300 31.75100
C  23.02800 1.98800 26.88600
C  27.80700 1.58200 27.42700
N  24.71100 1.61400 31.80400
C  25.71400 1.67100 32.73200
C  25.20900 2.04900 34.08000
C  23.59800 1.87700 33.96800
C  23.51000 1.87300 32.46600
C  22.86200 0.67300 34.61700
C  25.58400 3.47900 34.61200
C  26.39400 3.61400 35.91500
H  25.85600 4.43800 37.09400
N  22.92900 1.78000 29.37400
C  22.03400 1.95200 30.36100
C  20.69100 1.97900 29.78200
C  20.88100 2.06300 28.35800
C  22.28900 1.95200 28.11100
C  19.40100 2.17800 30.64700
C  19.77700 2.20700 27.32900
O  20.01700 2.25000 26.15700
C  18.35500 2.08200 27.81200
N  25.39600 1.48600 27.38300
C  24.32900 1.73300 26.53500
C  24.84300 2.00800 25.15000
C  26.44200 2.00400 25.28000
C  26.59300 1.66400 26.80100
C  24.25200 1.04900 24.02600
C  27.12300 3.36000 24.97200
C  26.48300 4.61900 25.50000
N  26.94300 1.36300 29.76800
C  27.98600 1.40700 28.81300
C  29.27500 1.39000 29.50500
C  29.00900 1.55400 30.85700
C  27.56300 1.40500 30.94600
C  30.63100 1.21100 28.81000
C  29.54500 1.78100 32.14100
O  30.71100 1.84700 32.55300
C  28.34200 1.91800 33.08300
C  28.61700 0.89700 34.12600
O  28.24200 -0.25600 34.01100
O  29.14100 1.49400 35.25600
C  29.08600 0.50500 36.38000
H  21.44700 2.29000 32.38300
H  22.32100 2.15800 26.07100
H  28.65200 1.64400 26.73900
H  25.71300 1.26400 34.64400
H  23.01000 2.70900 34.35700
H  22.34900 0.12400 33.82800
H  22.14200 0.95500 35.38600
H  23.66400 0.08200 35.06000
H  24.62800 3.97000 34.79600
H  26.23300 3.99900 33.90700
H  27.28000 4.16500 35.60200
H  26.64800 2.62000 36.28400
H  19.08700 3.21200 30.50800
H  19.56700 1.82700 31.66600
H  18.62800 1.48900 30.30800
H  18.31600 1.07000 28.21500
H  17.64800 2.01600 26.98500
H  17.95200 2.81100 28.51500
H  24.60300 3.03800 24.88500
H  26.76800 1.12000 24.73200
H  23.50000 1.50500 23.38200
H  23.72700 0.23800 24.53100
H  25.08900 0.60500 23.48800
H  26.97100 3.50700 23.90300
H  28.19500 3.37100 25.17100
H  25.87300 4.51700 26.39800
H  25.71200 4.94600 24.80300
H  27.20600 5.43200 25.56900
H  30.70700 1.82500 27.91300
H  30.77700 0.21100 28.40100
H  31.43300 1.43200 29.51500
H  28.22500 2.86600 33.60800
H  28.20000 0.71500 36.97900
H  29.92100 0.76300 37.03200
H  28.93300 -0.53200 36.08100
Mg -6.13400 25.16400 25.42500
C  -4.79500 26.54900 28.25900
C  -8.11800 23.12800 27.31400
C  -7.03600 23.53300 22.54300
C  -4.01300 27.27700 23.44300
N  -6.17500 24.67100 27.52500
C  -5.66900 25.53000 28.51400
C  -6.38400 25.18500 29.90400
C  -7.22600 23.91600 29.55400
C  -7.18900 23.88800 28.08900
C  -6.65100 22.58100 30.18400
C  -7.19500 26.36200 30.45900
C  -6.93300 26.64600 32.01100
H  -6.40600 25.52400 32.88800
N  -7.51500 23.75700 24.98300
C  -8.24600 22.93500 25.87700
C  -9.26600 22.22000 25.11000
C  -8.92300 22.32000 23.69300
C  -7.71800 23.21800 23.73500
C  -10.42100 21.53500 25.80700
C  -9.54400 21.58600 22.47800
O  -9.10200 21.59600 21.34400
C  -10.82300 20.82300 22.50000
N  -5.60500 25.33600 23.23700
C  -6.11400 24.52500 22.24700
C  -5.44300 24.88900 20.93800
C  -4.50500 26.05000 21.22300
C  -4.75000 26.30700 22.68800
C  -4.72100 23.65400 20.32100
C  -4.75900 27.30800 20.29000
C  -3.62600 27.62700 19.36200
N  -4.64900 26.57600 25.73200
C  -3.97700 27.47300 24.89400
C  -3.20600 28.37500 25.68800
C  -3.53900 28.13600 26.99800
C  -4.35400 26.95900 26.97500
C  -2.34100 29.44700 25.10200
C  -3.23700 28.54000 28.35900
O  -2.50000 29.42600 28.79200
C  -4.08300 27.51500 29.20100
C  -3.01700 26.92400 30.04200
O  -2.15700 26.12700 29.66800
O  -3.13000 27.36700 31.30300
C  -2.13900 26.80200 32.19300
H  -8.98200 22.71400 27.83800
H  -7.34800 22.99000 21.64900
H  -3.50400 28.01900 22.82500
H  -5.56600 24.94500 30.58400
H  -8.26000 23.89300 29.89700
H  -6.04200 22.21500 29.35700
H  -7.34600 21.81100 30.51800
H  -6.10800 22.75800 31.11200
H  -8.23400 26.11200 30.24200
H  -7.15600 27.26400 29.84700
H  -7.83300 26.96300 32.53800
H  -6.12200 27.36200 32.14700
H  -11.10000 21.07900 25.08700
H  -11.01200 22.28800 26.32900
H  -10.13300 20.76500 26.52300
H  -10.78700 20.05000 23.26700
H  -11.03800 20.32900 21.55200
H  -11.64000 21.48100 22.79500
H  -6.24700 25.19200 20.26700
H  -3.45800 25.75800 21.14300
H  -5.28200 23.27700 19.46600
H  -4.56800 22.85200 21.04200
H  -3.74500 23.92200 19.91500
H  -5.10500 28.05500 21.00300
H  -5.51400 26.89700 19.62000
H  -3.27000 28.53400 19.85000
H  -4.08200 27.88500 18.40700
H  -2.89600 26.81900 19.40500
H  -2.85300 29.95900 24.28800
H  -1.34600 29.07700 24.85400
H  -2.14100 30.20300 25.86200
H  -4.70100 28.07200 29.90600
H  -1.17200 26.61600 31.72400
H  -2.51600 25.90700 32.68700
H  -1.98400 27.53400 32.98600

