158

Mg 48.15100 16.09200 29.01900
C  46.39100 15.50000 31.81200
C  50.49400 17.68500 30.90100
C  49.97200 16.67000 26.26500
C  45.53000 14.60400 27.05700
N  48.47400 16.40100 31.12000
C  47.53900 16.12600 32.10600
C  47.89700 16.72500 33.49100
C  49.19900 17.50000 33.08800
C  49.40400 17.24900 31.61200
C  49.13200 19.04000 33.45900
C  48.22600 15.60400 34.53100
C  47.53600 15.91000 35.85700
H  47.40000 17.34400 36.38000
N  49.99800 16.97700 28.64400
C  50.83400 17.56600 29.54400
C  52.09800 17.98000 28.92300
C  51.94600 17.72700 27.54800
C  50.63800 17.00700 27.44300
C  53.24800 18.48600 29.76600
C  52.88000 18.13500 26.37800
O  52.69000 17.65200 25.23200
C  53.95500 19.20400 26.51300
N  47.74000 15.77400 26.95500
C  48.62400 16.24600 26.03300
C  48.13000 15.94200 24.61500
C  46.73300 15.25900 24.89300
C  46.66600 15.18200 26.33700
C  48.31500 17.23300 23.68900
C  46.53700 13.84400 24.13400
C  46.86400 12.59400 24.94500
N  46.28600 15.22200 29.31500
C  45.42900 14.54200 28.43200
C  44.35500 13.89300 29.21800
C  44.62500 14.27800 30.56500
C  45.84900 15.09800 30.53600
C  43.13900 13.15000 28.78500
C  44.21000 14.25800 31.99300
O  43.29500 13.70000 32.63000
C  45.32500 15.11300 32.78000
C  44.52300 16.25700 33.25800
O  44.26600 17.32000 32.66700
O  43.98400 15.97500 34.51400
C  43.06600 16.91900 35.13900
H  51.20400 18.19000 31.55900
H  50.45300 16.87900 25.30800
H  44.71100 14.14200 26.50100
H  47.11100 17.42400 33.77600
H  49.99100 16.98700 33.63200
H  49.29900 19.80300 32.69900
H  49.90700 19.15200 34.21700
H  48.26000 19.27700 34.06800
H  49.26800 15.45800 34.81500
H  47.75200 14.67700 34.20700
H  48.05200 15.30300 36.60100
H  46.51000 15.61600 35.63700
H  52.92100 18.96400 30.69000
H  53.75500 19.25300 29.18100
H  53.97100 17.69500 29.96300
H  53.42800 19.94700 27.11100
H  54.36200 19.62300 25.59200
H  54.73100 18.74700 27.12800
H  48.69200 15.17100 24.08900
H  45.97400 15.98300 24.59900
H  49.02900 17.06800 22.88200
H  48.71900 18.07400 24.25300
H  47.31700 17.39800 23.28400
H  47.16600 13.87300 23.24400
H  45.54000 13.76700 23.70000
H  45.97200 12.34300 25.51900
H  47.68600 12.89700 25.59400
H  47.14800 11.68300 24.41800
H  42.27500 13.70800 28.42400
H  42.91600 12.44900 29.59000
H  43.49800 12.50900 27.97900
H  45.67600 14.40400 33.53000
H  42.60700 17.64700 34.47100
H  43.49800 17.51300 35.94500
H  42.22900 16.48800 35.68700
Mg 47.95300 24.99000 29.76100
C  48.53200 27.47000 32.26000
C  47.04100 22.73900 32.24900
C  47.72600 22.52000 27.50900
C  49.36300 27.19700 27.38100
N  47.67100 25.17200 31.95500
C  47.86100 26.25900 32.75100
C  47.38200 25.99100 34.09800
C  47.00100 24.41200 34.18200
C  47.29500 24.08200 32.72400
C  47.80200 23.59500 35.16500
C  46.33500 26.98700 34.66400
C  46.29200 27.51800 36.10600
H  47.01100 26.97100 37.34300
N  47.37600 22.91500 29.87100
C  47.02400 22.22700 30.94800
C  46.79400 20.82500 30.60600
C  46.93700 20.73400 29.23700
C  47.41200 22.06400 28.80800
C  46.39600 19.71800 31.59400
C  46.73400 19.55700 28.30300
O  46.77200 19.63900 27.08000
C  46.25400 18.30500 28.86000
N  48.61900 24.86200 27.72400
C  48.21700 23.79800 27.00000
C  48.47500 24.08000 25.45800
C  48.91400 25.60200 25.45700
C  49.01000 25.91000 26.87600
C  49.55600 23.23800 24.88100
C  47.88900 26.60800 24.77900
C  46.46300 26.75500 25.36400
N  48.81700 26.94800 29.72500
C  49.43800 27.69400 28.73200
C  49.85300 28.94800 29.25900
C  49.39400 28.90600 30.58400
C  48.87300 27.64200 30.86200
C  50.57800 30.00800 28.50700
C  49.47700 29.71300 31.82700
O  49.89100 30.79100 32.06500
C  48.88000 28.78500 32.99600
C  49.98500 28.55100 33.99200
O  50.87800 27.69900 33.88800
O  49.89900 29.41200 35.03200
C  51.01000 29.29400 36.04700
H  46.69600 22.00500 32.98000
H  47.67300 21.65100 26.85000
H  49.65500 27.95900 26.65600
H  48.31300 26.16400 34.63800
H  45.92900 24.30800 34.35000
H  48.56300 23.05700 34.59900
H  47.11700 22.93800 35.70100
H  48.38900 24.16800 35.88200
H  45.32700 26.58900 34.54300
H  46.30300 27.80400 33.94200
H  45.26200 27.44200 36.45500
H  46.60200 28.55900 36.02000
H  47.23200 19.04200 31.41400
H  45.48300 19.21200 31.28300
H  46.33600 19.99500 32.64700
H  47.02600 17.80800 29.44800
H  46.02500 17.62100 28.04400
H  45.28700 18.49900 29.32400
H  47.52500 23.98400 24.93400
H  49.90400 25.68600 25.00800
H  50.44300 23.79800 24.58500
H  49.22900 22.73400 23.97200
H  49.94700 22.52600 25.60800
H  47.80100 26.31400 23.73300
H  48.31600 27.60500 24.67000
H  46.44400 26.52200 26.42900
H  45.78000 26.03200 24.91600
H  46.07200 27.75600 25.18600
H  50.96600 29.54700 27.59800
H  51.45000 30.42100 29.01400
H  49.93700 30.83300 28.19600
H  47.97800 29.28700 33.34500
H  50.76600 28.47100 36.71900
H  50.89900 30.24300 36.57100
H  52.05500 29.16000 35.76700

