158

Mg 34.90500 47.84100 25.95800
C  35.03200 45.78700 28.83100
C  33.63700 50.28000 27.90300
C  34.22900 49.38300 23.11900
C  35.62000 44.90000 24.10400
N  34.22000 47.95800 28.16300
C  34.54400 47.07100 29.11000
C  34.53100 47.70600 30.48600
C  33.74500 49.03800 30.19000
C  33.83900 49.13000 28.63600
C  32.22300 49.00500 30.68100
C  35.90000 47.79600 31.15700
C  36.02700 47.24600 32.61500
H  36.37000 48.23600 33.68400
N  33.94000 49.65900 25.52700
C  33.60500 50.53900 26.49900
C  33.17400 51.72300 25.81400
C  33.42700 51.57900 24.39900
C  33.92000 50.20500 24.22500
C  32.66000 52.94000 26.51200
C  33.17300 52.53200 23.23700
O  33.26100 52.15600 22.09400
C  32.99000 54.09000 23.44400
N  35.05400 47.27500 23.93800
C  34.64400 48.06300 22.95200
C  34.76400 47.44500 21.60500
C  35.41700 46.06400 21.87500
C  35.33200 46.02500 23.41300
C  33.42500 47.48200 20.73100
C  36.82700 45.86400 21.22200
C  36.96100 44.82200 20.05600
N  35.36600 45.72700 26.36000
C  35.65300 44.67300 25.52300
C  36.03300 43.48800 26.24400
C  35.78000 43.91800 27.59000
C  35.29900 45.24600 27.56700
C  36.43900 42.25800 25.67700
C  35.85900 43.47800 28.97800
O  36.28900 42.48300 29.51600
C  35.46600 44.70600 29.87200
C  34.34300 44.23900 30.76700
O  33.23200 43.85100 30.44400
O  34.73500 44.37500 32.03100
C  33.68300 44.40400 32.99800
H  33.47400 51.11600 28.58700
H  33.98800 49.80600 22.14200
H  35.70700 44.00800 23.47900
H  33.92800 47.11400 31.17500
H  34.26800 49.92800 30.53900
H  31.45600 48.90000 29.91400
H  32.02800 49.93900 31.20800
H  32.06800 48.14400 31.33200
H  36.29900 48.80200 31.28600
H  36.61300 47.31000 30.49100
H  36.80200 46.48500 32.52900
H  35.08000 46.75900 32.84400
H  32.28500 53.72200 25.85100
H  33.60300 53.29800 26.92500
H  31.92700 52.71100 27.28600
H  31.92000 54.24900 23.57500
H  33.28300 54.64600 22.55300
H  33.47700 54.37100 24.37700
H  35.44800 48.07300 21.03400
H  34.76600 45.26600 21.52000
H  32.66300 48.00500 21.30800
H  33.18800 46.51500 20.28900
H  33.52400 48.23800 19.95100
H  37.57200 45.62300 21.98000
H  37.14700 46.78100 20.72800
H  35.97800 44.49500 19.71800
H  37.62800 44.02900 20.39500
H  37.43200 45.37200 19.24100
H  35.66300 41.50100 25.78200
H  37.25800 41.99400 26.34700
H  36.75400 42.31100 24.63500
H  36.31800 44.98600 30.49100
H  33.05300 45.28900 32.91900
H  34.21200 44.47900 33.94900
H  33.05300 43.51500 32.98900
Mg 26.30300 49.97300 25.54000
C  24.48800 51.30300 28.25800
C  28.70900 48.78500 27.74700
C  27.93900 48.68200 22.93300
C  24.04800 51.63700 23.38100
N  26.56400 50.02900 27.78000
C  25.65600 50.61800 28.63700
C  26.19500 50.44400 30.01300
C  27.67000 49.95800 29.87600
C  27.66800 49.55500 28.40300
C  28.67900 51.10600 30.09500
C  25.26200 49.46800 30.83200
C  24.63400 50.14000 32.08900
H  25.52900 50.44800 33.35200
N  27.98500 48.78500 25.36700
C  28.76600 48.40900 26.34500
C  29.93500 47.76500 25.69700
C  29.60900 47.51300 24.38000
C  28.41900 48.32300 24.16000
C  31.27800 47.36000 26.40600
C  30.41400 46.76100 23.30000
O  30.04300 46.51200 22.18200
C  31.79800 46.13100 23.62800
N  26.05400 50.25200 23.42800
C  26.87000 49.56500 22.53900
C  26.52600 49.88600 21.09300
C  25.22700 50.77700 21.25500
C  25.08100 50.92700 22.79300
C  27.63500 50.50300 20.27600
C  23.90900 50.18400 20.61300
C  23.24800 48.92200 21.17800
N  24.55200 51.20100 25.74800
C  23.80100 51.83500 24.78300
C  22.67000 52.47600 25.45600
C  22.91800 52.36700 26.81400
C  24.06400 51.56200 26.96700
C  21.56800 53.19100 24.75300
C  22.44200 52.78300 28.11100
O  21.49600 53.45300 28.44700
C  23.48800 52.14900 29.06000
C  24.07400 53.27500 29.90900
O  25.07300 53.89100 29.67200
O  23.31600 53.53700 31.02700
C  23.80700 54.54300 32.03000
H  29.52000 48.34700 28.33300
H  28.44900 48.29600 22.04800
H  23.37400 52.11300 22.66600
H  26.21100 51.38400 30.56500
H  27.92800 49.12900 30.53400
H  29.33500 50.78200 30.90300
H  28.22100 52.02800 30.45400
H  29.23200 51.29400 29.17500
H  25.91000 48.68000 31.21500
H  24.54000 48.87300 30.27300
H  23.79500 49.53700 32.43700
H  24.12800 51.03400 31.72300
H  31.35700 47.93900 27.32700
H  32.17100 47.48900 25.79500
H  31.44700 46.31600 26.67000
H  31.99100 45.47200 22.78200
H  31.73900 45.49600 24.51200
H  32.65700 46.79800 23.69800
H  25.98000 49.05500 20.64800
H  25.45800 51.78800 20.92000
H  28.60300 50.43100 20.77200
H  27.34900 51.52600 20.03300
H  27.68700 50.08200 19.27200
H  24.22900 50.03800 19.58200
H  23.25300 51.05200 20.55300
H  23.91500 48.35400 21.82600
H  22.99300 48.28700 20.33000
H  22.29500 49.15300 21.65300
H  21.17800 52.61200 23.91600
H  21.80400 54.16800 24.33100
H  20.76300 53.32500 25.47500
H  22.89600 51.57300 29.77200
H  23.02500 54.83300 32.73200
H  24.12600 55.44300 31.50300
H  24.53600 54.08200 32.69600

