158

Mg 55.51100 22.59500 44.78200
C  53.42500 24.96200 43.52900
C  53.12900 20.23400 43.89200
C  57.84500 20.19800 45.16300
C  57.89200 24.99300 45.35200
N  53.57500 22.61600 43.69000
C  52.90100 23.71500 43.18800
C  51.54300 23.30000 42.71000
C  51.34800 21.83700 43.33600
C  52.72700 21.54500 43.72800
C  50.32200 21.71600 44.49900
C  51.33700 23.66800 41.22200
C  50.05600 24.40300 40.91100
H  49.25100 23.86900 39.75200
N  55.46400 20.57800 44.39500
C  54.42700 19.75500 44.03500
C  54.81100 18.36900 44.06000
C  56.20000 18.34800 44.33500
C  56.60200 19.72600 44.63300
C  53.87600 17.25600 43.87500
C  57.03300 17.07900 44.52000
O  56.44300 15.96300 44.46300
C  58.47400 17.05900 45.01700
N  57.54300 22.51000 45.32800
C  58.32100 21.45400 45.48100
C  59.83700 21.71900 45.85100
C  59.80400 23.35000 45.74000
C  58.30300 23.65100 45.47500
C  60.25400 21.23600 47.28700
C  60.69800 23.94700 44.53100
C  61.44800 25.25100 44.79700
N  55.63700 24.55700 44.65800
C  56.60700 25.44700 45.00800
C  56.11700 26.80700 44.83900
C  54.84300 26.70300 44.32800
C  54.58600 25.29800 44.21500
C  56.85100 28.09700 45.19400
C  53.65200 27.38000 43.86600
O  53.38100 28.57500 43.89100
C  52.82800 26.31200 43.15000
C  52.92000 26.54700 41.69400
O  53.87500 26.23100 40.95500
O  51.86300 27.30400 41.35200
C  51.93100 28.12000 40.14900
H  52.38500 19.47100 43.65300
H  58.64900 19.51700 45.44600
H  58.54700 25.85500 45.49200
H  50.89300 23.89900 43.34800
H  51.05500 21.08600 42.60100
H  50.85800 21.19500 45.29300
H  49.49100 21.09800 44.15700
H  49.93400 22.71600 44.68800
H  51.39000 22.73600 40.66000
H  52.14100 24.31900 40.88000
H  50.26500 25.40300 40.53000
H  49.42000 24.43400 41.79500
H  54.02600 16.94000 42.84300
H  52.82900 17.48500 44.07400
H  54.11100 16.42700 44.54300
H  58.53300 17.40900 46.04800
H  59.07700 17.66400 44.33900
H  58.94100 16.07500 45.05100
H  60.37600 21.27300 45.01500
H  60.05700 23.86300 46.66700
H  59.39600 20.75200 47.75300
H  60.56300 22.13400 47.82200
H  61.02000 20.47200 47.15100
H  60.07600 24.10700 43.65000
H  61.43600 23.17800 44.30100
H  61.33200 25.79900 43.86100
H  62.52800 25.20300 44.93700
H  60.97800 25.89800 45.53800
H  56.36500 28.64700 46.00000
H  56.72000 28.76400 44.34100
H  57.93200 27.98300 45.27500
H  51.77200 26.37200 43.41300
H  51.28500 28.99800 40.15100
H  51.57600 27.50500 39.32300
H  52.96800 28.39000 39.95100
Mg 49.51000 45.04400 42.04600
C  46.36600 46.00800 40.67100
C  48.96100 41.91200 40.49000
C  52.77000 44.50100 42.02300
C  49.94600 48.41200 42.82500
N  47.78700 44.08900 40.74000
C  46.68200 44.66800 40.32800
C  45.74800 43.76800 39.51200
C  46.49700 42.35800 39.71500
C  47.83500 42.76400 40.35900
C  45.60300 41.34200 40.54300
C  45.66500 44.32400 38.05000
C  44.29500 44.30900 37.38800
H  44.21000 44.00500 35.89800
N  50.60900 43.34200 41.43000
C  50.24100 42.24200 40.86600
C  51.35500 41.25700 41.08900
C  52.43600 41.95400 41.56200
C  51.98300 43.34400 41.60900
C  51.17500 39.76300 40.78400
C  53.74700 41.28900 41.84200
O  53.97700 40.08900 41.66800
C  54.94000 42.05700 42.29000
N  51.19300 46.35900 42.16200
C  52.44200 45.89000 42.19900
C  53.44700 46.95700 42.71900
C  52.47900 48.17200 43.05700
C  51.08900 47.59000 42.66400
C  54.32200 46.50800 43.88900
C  52.76400 49.58800 42.45400
C  53.11000 50.71300 43.46200
N  48.38300 46.83100 41.97600
C  48.68500 48.05600 42.45900
C  47.51200 48.92900 42.44200
C  46.51500 48.16700 41.70000
C  47.16500 46.92200 41.39600
C  47.39200 50.36900 42.86500
C  45.21300 48.22400 41.08400
O  44.43800 49.19700 41.03200
C  45.07300 46.81300 40.33900
C  43.80500 46.16500 40.81700
O  42.74100 45.94700 40.23100
O  43.96000 45.92000 42.17600
C  42.90600 45.35600 42.97900
H  48.86100 40.85800 40.22200
H  53.84800 44.43900 41.85600
H  50.02600 49.41400 43.25300
H  44.77700 43.74100 40.00500
H  46.65400 41.77100 38.81000
H  44.58400 41.72800 40.49700
H  46.00100 41.18500 41.54500
H  45.51900 40.33700 40.12800
H  46.29900 43.66500 37.45700
H  46.18900 45.27800 37.98500
H  43.85500 45.28100 37.60900
H  43.67200 43.61100 37.94800
H  52.03800 39.14400 41.03100
H  50.96500 39.73700 39.71500
H  50.27600 39.33900 41.23100
H  54.57300 42.76100 43.03800
H  55.18600 42.58300 41.36700
H  55.76100 41.45000 42.67000
H  54.02700 47.19300 41.82700
H  52.29100 48.12700 44.13000
H  53.93800 46.91300 44.82500
H  55.24900 47.06300 43.73800
H  54.33700 45.41900 43.92700
H  51.98400 50.05500 41.85200
H  53.58900 49.48300 41.74900
H  53.23700 50.32700 44.47400
H  52.29400 51.41800 43.62300
H  54.01400 51.19300 43.08800
H  48.13900 50.40200 43.65800
H  46.38300 50.61000 43.20000
H  47.60400 50.91600 41.94700
H  45.08800 47.01300 39.26700
H  42.73800 46.13100 43.72700
H  43.30000 44.48400 43.50100
H  41.98700 45.13700 42.43600

