158

Mg 53.47200 24.64000 44.54500
C  50.69400 26.78700 44.16900
C  51.38800 22.01800 44.23300
C  56.22900 22.78000 43.98200
C  55.54200 27.41400 44.86000
N  51.27700 24.48600 44.10500
C  50.30700 25.44900 44.07400
C  48.90600 24.95400 44.09700
C  49.20100 23.47300 44.63600
C  50.70200 23.26300 44.31400
C  48.96800 23.09000 46.08800
C  48.12300 25.01500 42.79800
C  48.59700 24.14700 41.56900
H  49.64200 24.66500 40.59900
N  53.76500 22.70700 44.14600
C  52.79500 21.77500 44.13100
C  53.42900 20.49800 44.05900
C  54.80800 20.61400 44.01500
C  54.99500 22.08400 44.04700
C  52.69400 19.18400 44.08400
C  55.89700 19.52200 44.15600
O  55.59300 18.33600 43.95900
C  57.40800 19.75000 44.35300
N  55.66700 25.11400 44.15800
C  56.53800 24.10100 44.06100
C  58.01200 24.57700 43.97000
C  57.74800 26.06900 44.40700
C  56.23600 26.24800 44.52100
C  59.17600 23.93500 44.74300
C  58.34500 27.13000 43.48600
C  59.37800 28.09200 44.07100
N  53.20800 26.69900 44.52700
C  54.14700 27.71400 44.76000
C  53.52600 28.97300 44.79100
C  52.14300 28.65100 44.55800
C  51.94300 27.28400 44.43800
C  54.17500 30.27300 44.92900
C  50.85300 29.29100 44.42700
O  50.53500 30.48500 44.50200
C  49.85200 28.09000 44.11700
C  49.16800 28.45100 42.82300
O  49.67700 28.52900 41.72700
O  47.81600 28.68400 43.03100
C  47.01100 28.77500 41.79300
H  50.90500 21.05100 44.38300
H  57.02600 22.13600 43.60300
H  56.25900 28.18200 45.16000
H  48.44700 25.57000 44.87000
H  48.53000 22.85600 44.03900
H  48.37300 23.86300 46.57200
H  49.79300 22.87000 46.76600
H  48.36500 22.18200 46.06200
H  48.23700 26.05200 42.48300
H  47.06100 24.78000 42.87000
H  47.74800 23.69600 41.05500
H  49.03400 23.28700 42.07500
H  52.15000 18.93000 43.17500
H  51.90700 19.24700 44.83600
H  53.32800 18.32000 44.28300
H  57.86200 19.84200 43.36600
H  57.97600 18.95900 44.84200
H  57.50400 20.63800 44.97800
H  58.38000 24.51500 42.94600
H  58.06200 26.33400 45.41600
H  59.94300 23.54100 44.07700
H  58.75900 23.04000 45.20400
H  59.70200 24.59600 45.43100
H  57.50800 27.62600 42.99400
H  58.94100 26.57800 42.76000
H  60.37400 28.04700 43.63000
H  59.54100 27.88600 45.12900
H  59.00400 29.10700 43.93500
H  54.69000 30.59700 44.02400
H  54.93500 30.17400 45.70400
H  53.55200 31.10700 45.25200
H  49.06500 28.11100 44.87100
H  46.66700 29.79300 41.60900
H  46.12400 28.20400 42.06800
H  47.37000 28.31900 40.87100
Mg 30.58200 58.27100 40.10800
C  28.01500 56.39500 38.70900
C  32.69100 55.74200 39.32400
C  33.16400 60.45300 40.38300
C  28.42400 60.86500 40.63900
N  30.32400 56.35100 39.05700
C  29.24100 55.68700 38.68000
C  29.53300 54.27900 38.04800
C  30.85700 53.96500 38.81000
C  31.35100 55.42700 39.22300
C  30.74200 53.02700 40.00900
C  29.71700 54.25800 36.48200
C  28.56700 53.73700 35.61100
H  27.85600 54.75100 34.65900
N  32.64800 58.13600 39.86900
C  33.35200 56.98800 39.53300
C  34.75100 57.20300 39.61200
C  34.86000 58.56700 40.06500
C  33.50400 59.13000 40.12700
C  35.76100 56.06600 39.43200
C  36.18000 59.23600 40.50300
O  37.27400 58.62900 40.39500
C  36.25600 60.61800 41.04800
N  30.76600 60.32900 40.61900
C  31.94000 61.03400 40.66900
C  31.77700 62.54700 40.84300
C  30.23500 62.58300 41.26100
C  29.76500 61.15200 40.74500
C  32.71000 63.06200 41.93100
C  29.42800 63.76100 40.62700
C  28.37600 64.50700 41.51500
N  28.58800 58.60700 39.82800
C  27.82500 59.68100 40.10000
C  26.51900 59.47800 39.63600
C  26.52300 58.16100 39.08100
C  27.86400 57.69900 39.17400
C  25.34600 60.36400 39.83800
C  25.66200 57.15600 38.52000
O  24.47500 57.21000 38.17900
C  26.64500 55.98000 38.25800
C  26.07100 54.79800 38.98900
O  26.56400 54.36300 40.05300
O  24.89200 54.38700 38.47900
C  24.18700 53.49500 39.38500
H  33.25900 54.81100 39.27200
H  33.90500 61.25500 40.42200
H  27.70800 61.68400 40.74400
H  28.71200 53.64600 38.38500
H  31.62400 53.48600 38.20200
H  30.78900 53.56200 40.95800
H  31.38700 52.15300 40.10800
H  29.73600 52.60900 40.02700
H  30.55300 53.58800 36.28200
H  30.06300 55.24500 36.17500
H  27.81100 53.37200 36.30500
H  28.92200 52.92500 34.97600
H  35.58000 55.21800 40.09300
H  36.75400 56.42600 39.70300
H  35.64100 55.87600 38.36500
H  37.25500 60.83700 41.42600
H  35.54900 60.76900 41.86400
H  35.98200 61.18800 40.16100
H  31.92700 63.07800 39.90300
H  30.11300 62.71400 42.33600
H  32.79400 64.09600 41.59500
H  33.60500 62.45500 42.06500
H  32.18000 63.09600 42.88300
H  29.01500 63.36800 39.69800
H  30.15000 64.53100 40.35700
H  28.18800 65.53900 41.22100
H  28.71700 64.42700 42.54700
H  27.39800 64.03800 41.40400
H  25.65400 61.40500 39.73800
H  24.84400 60.21400 40.79400
H  24.66700 60.29600 38.98800
H  26.72800 55.66500 37.21800
H  23.23700 53.39300 38.85900
H  24.03600 53.99000 40.34400
H  24.70000 52.53400 39.42300

