158

Mg 42.64200 41.07900 26.06900
C  41.63300 43.50300 28.54800
C  43.54100 39.09400 28.73500
C  43.53400 39.02800 23.84500
C  41.78300 43.62700 23.57200
N  42.51800 41.26800 28.38300
C  42.01200 42.30600 29.16000
C  42.05200 42.00200 30.67600
C  42.87600 40.64500 30.65100
C  42.99300 40.31600 29.17700
C  44.18100 40.60400 31.43400
C  40.67500 41.93100 31.31800
C  40.75000 41.53900 32.84200
H  40.22500 42.56900 33.80300
N  43.52500 39.28600 26.21800
C  43.70800 38.62800 27.38800
C  44.23300 37.28800 26.95300
C  44.18600 37.25800 25.53200
C  43.79700 38.56300 25.11900
C  44.68400 36.18900 27.97400
C  44.52300 36.16500 24.56200
O  44.42300 36.24900 23.28400
C  44.94300 34.85200 25.12000
N  42.90700 41.39400 23.96200
C  43.09300 40.24500 23.25200
C  42.93100 40.51200 21.73700
C  42.15800 41.93100 21.77000
C  42.15900 42.33800 23.22800
C  44.23100 40.58300 20.80300
C  40.67900 41.78700 21.22900
C  39.79700 40.67000 21.79600
N  41.96300 43.17100 25.99400
C  41.68800 44.03200 24.95800
C  41.22100 45.30300 25.47900
C  41.14400 45.12500 26.86900
C  41.61700 43.80700 27.12300
C  40.88600 46.53400 24.61500
C  40.74500 45.79900 28.14000
O  40.28300 46.91500 28.32300
C  41.02800 44.71800 29.27100
C  41.79100 45.38000 30.38000
O  43.03100 45.56200 30.40700
O  40.93000 45.80200 31.32100
C  41.50400 46.29900 32.61200
H  44.01900 38.43900 29.46600
H  43.67100 38.37800 22.97900
H  41.45200 44.29000 22.77000
H  42.62400 42.72700 31.25500
H  42.16600 39.94500 31.09100
H  44.24400 41.39100 32.18500
H  45.11500 40.68400 30.87900
H  44.16200 39.69800 32.04100
H  39.92100 41.36000 30.77700
H  40.25300 42.93600 31.31000
H  41.78600 41.29500 33.07700
H  40.03800 40.72300 32.96200
H  44.46500 36.42500 29.01500
H  45.76000 36.01900 27.94600
H  44.27700 35.21100 27.71700
H  44.12000 34.21000 25.43600
H  45.69000 34.94200 25.90800
H  45.47900 34.45100 24.26000
H  42.20400 39.75300 21.44800
H  42.71000 42.68800 21.21200
H  43.90500 40.18100 19.84300
H  45.01300 39.86500 21.05100
H  44.65200 41.57900 20.66400
H  40.77400 41.56100 20.16700
H  40.27600 42.79100 21.36200
H  39.48000 39.95000 21.04200
H  38.89900 40.99200 22.32400
H  40.39300 40.12100 22.52500
H  41.82600 46.95700 24.26100
H  40.33500 47.25700 25.21700
H  40.20700 46.23700 23.81600
H  40.12200 44.36800 29.76700
H  42.26800 47.05700 32.43800
H  41.85100 45.52000 33.29000
H  40.71500 46.85200 33.12100
Mg -11.37700 16.00100 41.29700
C  -8.17500 14.59800 41.08600
C  -10.14300 18.81600 39.73000
C  -14.52400 17.24200 41.04000
C  -12.47800 12.93000 42.34500
N  -9.42200 16.60900 40.51800
C  -8.28600 15.91100 40.52200
C  -7.11300 16.65100 39.74500
C  -7.77500 18.10700 39.51000
C  -9.22600 17.76400 39.84000
C  -7.15900 19.05800 40.52400
C  -6.74000 15.97300 38.44400
C  -5.26400 15.85700 38.00500
H  -4.87300 16.72700 36.87900
N  -12.23400 17.71500 40.38000
C  -11.52300 18.79800 39.88100
C  -12.41100 19.88700 39.52900
C  -13.73900 19.54400 39.94200
C  -13.57900 18.10500 40.46700
C  -12.00600 21.23200 39.06900
C  -15.04400 20.39100 39.90600
O  -14.95600 21.54400 39.56500
C  -16.35200 19.92400 40.40800
N  -13.29600 15.12000 41.50600
C  -14.39900 15.94100 41.57400
C  -15.64100 15.16100 42.08700
C  -14.97000 13.83300 42.65100
C  -13.52300 13.92900 42.07000
C  -16.48500 16.06900 43.11000
C  -15.69900 12.54700 42.35100
C  -16.56300 11.89200 43.46200
N  -10.52800 14.11400 41.65900
C  -11.12600 12.95900 42.12100
C  -10.12800 11.94100 42.31300
C  -8.99900 12.53000 41.87900
C  -9.26500 13.85100 41.51000
C  -10.32100 10.61600 42.83600
C  -7.56400 12.32600 41.73600
O  -6.94400 11.33100 41.88400
C  -6.91100 13.72700 41.24300
C  -5.95200 14.34600 42.18600
O  -6.21100 15.03700 43.16500
O  -4.72500 13.79600 41.90900
C  -3.63400 14.28600 42.67500
H  -9.79600 19.67300 39.14900
H  -15.55600 17.57900 41.16000
H  -12.78500 12.01600 42.85800
H  -6.18600 16.68300 40.31600
H  -7.71300 18.43100 38.47100
H  -7.98300 19.44700 41.12200
H  -6.63600 19.89400 40.05900
H  -6.54900 18.52500 41.25300
H  -7.24800 16.44200 37.60100
H  -7.07900 14.93800 38.48200
H  -4.93900 14.82400 37.88200
H  -4.63500 16.35100 38.74500
H  -11.85100 21.94500 39.87900
H  -12.70800 21.78200 38.44200
H  -11.08300 21.12700 38.50000
H  -17.11300 20.67600 40.19900
H  -16.20700 19.70400 41.46600
H  -16.65600 18.98100 39.95400
H  -16.33500 14.88800 41.29100
H  -14.81700 13.96300 43.72200
H  -17.50000 16.24000 42.75300
H  -16.10900 17.09200 43.12900
H  -16.44000 15.51200 44.04700
H  -14.93500 11.85700 41.99400
H  -16.28300 12.80500 41.46700
H  -16.22900 10.87000 43.64000
H  -17.56900 11.78000 43.05800
H  -16.47200 12.33400 44.45400
H  -11.35400 10.29300 42.70300
H  -10.23900 10.70400 43.91900
H  -9.58600 9.89200 42.48400
H  -6.39200 13.58700 40.29500
H  -3.22700 15.14200 42.13700
H  -2.93800 13.47500 42.89100
H  -3.92200 14.58700 43.68300

