158

Mg 46.89800 25.34100 27.90300
C  47.42600 27.44400 30.65400
C  46.40800 22.71400 30.13700
C  46.88100 23.22800 25.28500
C  47.94800 27.95600 25.86000
N  46.88000 25.11700 30.16500
C  46.99100 26.16300 31.05900
C  46.79800 25.65800 32.43000
C  46.77000 24.07700 32.28000
C  46.65200 23.95600 30.80000
C  48.05100 23.30900 32.75900
C  45.59100 26.36200 33.09900
C  44.92600 25.57000 34.20800
H  44.70600 26.19000 35.59800
N  46.49800 23.28500 27.71400
C  46.26400 22.39700 28.77200
C  45.93600 21.12100 28.17900
C  46.15900 21.20800 26.78600
C  46.49300 22.64400 26.53000
C  45.36600 19.90700 29.00100
C  46.06800 20.08900 25.75500
O  46.40800 20.27300 24.56900
C  45.68500 18.63000 26.07300
N  47.17000 25.64300 25.82800
C  47.20200 24.56200 24.98900
C  47.36400 25.06100 23.53300
C  47.36300 26.59900 23.75400
C  47.45300 26.81000 25.21700
C  48.74800 24.46100 23.02700
C  46.09700 27.33000 23.28000
C  44.77800 26.68400 23.71500
N  47.58300 27.26000 28.14200
C  48.00200 28.22100 27.25200
C  48.35200 29.44200 27.94200
C  48.10200 29.16900 29.30900
C  47.73300 27.82500 29.32900
C  48.99700 30.64600 27.31800
C  48.22000 29.71700 30.59200
O  48.67800 30.76500 30.92200
C  47.80000 28.64600 31.53400
C  48.85000 28.32500 32.59700
O  50.02600 28.13500 32.34300
O  48.23500 28.39000 33.81000
C  49.08200 28.14700 34.99800
H  46.21600 21.94100 30.88400
H  46.84100 22.54100 24.43800
H  48.18800 28.75300 25.15300
H  47.72700 25.90900 32.94100
H  45.87800 23.55300 32.62500
H  47.68000 22.43900 33.30200
H  48.67600 23.88100 33.44500
H  48.74100 22.89700 32.02400
H  44.88900 26.63300 32.31000
H  45.89900 27.24300 33.66000
H  45.46600 24.63600 34.36200
H  43.91700 25.32200 33.87800
H  44.35700 19.67700 28.66000
H  45.34600 20.22900 30.04200
H  46.01900 19.03600 28.93000
H  44.71800 18.73900 26.56400
H  46.40500 18.27200 26.80900
H  45.65000 17.91300 25.25200
H  46.60100 24.86300 22.78000
H  48.29800 27.03600 23.40400
H  48.79900 23.41900 23.34500
H  49.65000 25.03900 23.22800
H  48.57800 24.46200 21.95100
H  46.18400 27.50500 22.20800
H  46.07200 28.32800 23.71800
H  44.30000 26.33100 22.80100
H  44.08100 27.38200 24.18000
H  44.72300 25.88700 24.45600
H  48.34700 30.98000 26.50900
H  49.96800 30.57100 26.82800
H  49.02200 31.48300 28.01600
H  46.92200 28.95100 32.10400
H  49.51900 27.15500 34.87900
H  48.53500 28.19200 35.94000
H  49.92500 28.83500 35.05200
Mg 35.91000 49.92600 25.30500
C  35.54600 48.10100 28.28900
C  34.41800 52.62300 26.81600
C  35.82700 51.39800 22.23000
C  37.12600 46.92400 23.72200
N  35.03000 50.28800 27.30500
C  35.05000 49.43700 28.39600
C  34.76200 50.15100 29.72400
C  34.13000 51.52100 29.18700
C  34.47300 51.49200 27.64600
C  32.65400 51.94800 29.58500
C  35.99400 50.35700 30.62800
C  35.68100 50.60200 32.11500
H  34.24600 50.87100 32.60600
N  35.24100 51.81000 24.57900
C  34.72500 52.76200 25.42700
C  34.54300 54.01500 24.60200
C  34.89100 53.62200 23.26400
C  35.37200 52.19100 23.30100
C  34.02700 55.32300 25.18300
C  34.81800 54.43500 21.97200
O  35.17300 53.99000 20.89000
C  34.35800 55.81400 22.13500
N  36.24500 49.22800 23.23900
C  36.20000 50.03800 22.18000
C  36.75500 49.39100 20.86300
C  37.15000 47.91600 21.42400
C  36.86000 48.00700 22.87800
C  35.72200 49.23700 19.69700
C  38.70600 47.52300 21.09100
C  38.90300 46.10000 20.53400
N  36.34200 47.92300 25.82900
C  36.93700 46.88100 25.09800
C  37.01500 45.75700 26.02300
C  36.51100 46.18900 27.32700
C  36.08000 47.51300 27.15400
C  37.67800 44.44400 25.59000
C  36.29800 45.72500 28.72200
O  36.51800 44.63200 29.29400
C  35.78900 47.03200 29.43600
C  34.55500 46.73500 30.16100
O  33.41800 46.77600 29.64700
O  34.70600 46.46400 31.45500
C  33.53600 46.16400 32.28800
H  34.14400 53.54000 27.34300
H  36.02900 51.90400 21.28400
H  37.55600 46.07700 23.18300
H  34.01300 49.62200 30.31400
H  34.76000 52.34100 29.53200
H  32.06400 52.23100 28.71300
H  32.73000 52.80500 30.25400
H  32.21700 51.07000 30.06000
H  36.50300 51.23000 30.22000
H  36.61100 49.46600 30.51400
H  36.26800 51.41700 32.53900
H  36.05400 49.76500 32.70500
H  34.67600 56.13100 24.84800
H  33.88300 55.40500 26.26100
H  33.02600 55.53700 24.80900
H  33.44000 55.78400 22.72200
H  34.21200 56.31400 21.17700
H  35.03800 56.49100 22.65300
H  37.59000 49.97900 20.48400
H  36.45700 47.18500 21.00700
H  34.71100 49.22700 20.10400
H  35.98900 48.36800 19.09600
H  35.84800 50.12100 19.07100
H  39.32000 47.57200 21.99100
H  39.03000 48.13000 20.24600
H  39.63900 45.66700 21.21200
H  39.29500 46.10100 19.51700
H  37.96400 45.54800 20.49300
H  38.25900 44.63500 24.68800
H  36.82200 43.78200 25.45300
H  38.35700 44.07000 26.35600
H  36.57300 47.27800 30.15200
H  33.67900 45.20700 32.78800
H  32.61900 46.09000 31.70400
H  33.30500 47.02900 32.90900

