158

Mg 7.09200 2.87500 27.91900
C  8.62000 1.90000 30.75700
C  5.27800 5.24400 29.82200
C  5.40000 3.78500 25.13800
C  8.60100 0.40000 26.12000
N  6.80300 3.35100 30.05900
C  7.71100 2.93000 31.05000
C  7.56700 3.74100 32.34700
C  6.42700 4.77500 32.02000
C  6.05500 4.34100 30.56900
C  5.16000 4.79300 32.95000
C  8.80000 4.38800 33.02600
C  9.10300 3.82400 34.41100
H  8.76000 4.75000 35.56600
N  5.64400 4.36500 27.54100
C  5.08100 5.24400 28.38600
C  4.36100 6.20600 27.59100
C  4.23000 5.66500 26.30300
C  5.13800 4.56900 26.28300
C  3.58400 7.34200 28.20700
C  3.50700 6.22500 25.13700
O  3.46600 5.55700 24.13000
C  2.80900 7.48000 25.06700
N  6.95100 2.16800 25.96100
C  6.21400 2.68300 25.01400
C  6.26000 1.78400 23.69600
C  7.65300 1.07300 23.89000
C  7.73600 1.17000 25.40900
C  5.00500 0.84200 23.58000
C  8.90300 1.67200 23.04300
C  10.16000 2.11000 23.83000
N  8.34800 1.38200 28.33600
C  8.86200 0.42600 27.50800
C  9.72900 -0.48700 28.22600
C  9.67900 0.11700 29.50900
C  8.73800 1.18100 29.55500
C  10.56800 -1.60500 27.76300
C  10.28100 0.04500 30.80400
O  11.11600 -0.70800 31.23900
C  9.57100 1.18600 31.64400
C  8.87700 0.55600 32.72500
O  7.76900 0.03400 32.66400
O  9.71800 0.50000 33.83500
C  9.13800 -0.07100 35.09600
H  4.78400 6.07000 30.33800
H  5.00100 3.91900 24.13100
H  9.08100 -0.37500 25.51800
H  7.09300 3.02600 33.01900
H  6.87400 5.76900 32.00000
H  4.31900 4.34300 32.42100
H  4.83900 5.76700 33.31900
H  5.32700 4.27800 33.89600
H  8.74600 5.47700 33.01400
H  9.66300 4.11200 32.42000
H  10.18500 3.70300 34.46200
H  8.70500 2.83500 34.63900
H  2.54900 7.20000 27.89500
H  3.85700 8.36000 27.92900
H  3.61100 7.32800 29.29600
H  2.03900 7.46000 25.83900
H  2.32800 7.48900 24.08900
H  3.50900 8.30200 25.21300
H  6.37100 2.54200 22.92100
H  7.55100 0.04600 23.53900
H  4.35300 1.04100 24.43000
H  5.25600 -0.21600 23.65500
H  4.39100 0.95400 22.68600
H  8.53100 2.51600 22.46200
H  9.29100 0.84200 22.45300
H  9.80800 2.60100 24.73800
H  10.74600 2.89500 23.35200
H  10.70200 1.17200 23.94900
H  11.26600 -1.31300 26.97900
H  9.91700 -2.42600 27.46100
H  11.24200 -1.90300 28.56600
H  10.30200 1.88800 32.04300
H  8.78900 0.69200 35.79100
H  9.95900 -0.60900 35.57000
H  8.34600 -0.76300 34.80800
Mg 48.52100 25.39400 27.87200
C  49.20200 27.64800 30.49600
C  47.38200 23.26900 30.20400
C  48.31400 23.17200 25.39100
C  50.04800 27.65800 25.64400
N  48.23900 25.49100 30.09200
C  48.64800 26.43300 30.93800
C  48.47300 26.07700 32.41100
C  47.93400 24.62100 32.34500
C  47.78300 24.41700 30.80200
C  48.79500 23.51400 33.02800
C  47.65800 27.11600 33.24100
C  46.68000 26.73900 34.27200
H  46.46400 27.70500 35.43400
N  47.80300 23.48700 27.83800
C  47.33200 22.79000 28.87800
C  46.98300 21.47500 28.39900
C  47.20000 21.44600 26.96200
C  47.74600 22.74500 26.65100
C  46.41000 20.37500 29.28800
C  46.86600 20.30700 25.91100
O  47.06800 20.50800 24.73600
C  46.26300 18.97600 26.41700
N  49.19200 25.32900 25.81700
C  49.03800 24.30100 24.98500
C  49.49400 24.50400 23.49600
C  49.64900 26.05100 23.60900
C  49.60100 26.42200 25.14000
C  50.83600 23.79800 23.10300
C  48.56100 26.89100 22.81200
C  49.17500 27.68600 21.60500
N  49.38900 27.27700 27.95700
C  49.93200 28.11300 26.99800
C  50.50000 29.29000 27.61900
C  50.15500 29.17000 28.97300
C  49.44500 27.99700 29.10200
C  51.48200 30.29800 26.96400
C  50.29600 29.82000 30.25100
O  50.85000 30.87700 30.57000
C  49.64700 28.85300 31.29200
C  50.64000 28.66400 32.31600
O  51.52600 27.82500 32.25100
O  50.38200 29.37400 33.43600
C  51.20800 29.03900 34.65200
H  47.23300 22.53100 30.99500
H  48.33000 22.45700 24.56600
H  50.31200 28.37600 24.86400
H  49.45700 26.01900 32.87600
H  46.88500 24.54000 32.63100
H  49.44900 24.10100 33.67300
H  49.44300 22.89700 32.40700
H  48.20600 22.91700 33.72500
H  47.02200 27.59900 32.49900
H  48.32100 27.83900 33.71700
H  46.90400 25.76600 34.71000
H  45.68700 26.61100 33.84100
H  47.03400 19.48700 29.18600
H  45.45900 19.99000 28.92000
H  46.23700 20.74000 30.30000
H  46.97900 18.54200 27.11600
H  46.07300 18.49300 25.45800
H  45.31600 19.11600 26.93700
H  48.70900 24.05700 22.88600
H  50.60200 26.31800 23.15300
H  51.24600 23.18400 23.90500
H  51.53800 24.52000 22.68600
H  50.54100 23.10800 22.31300
H  48.05900 27.56200 23.50900
H  47.80500 26.23800 22.37700
H  48.89500 28.72800 21.75900
H  48.93400 27.31000 20.61000
H  50.25800 27.62200 21.70700
H  52.18400 29.76100 26.32600
H  52.05300 30.80700 27.74000
H  51.08800 31.16900 26.44100
H  48.87700 29.50200 31.71000
H  50.75100 28.15000 35.08600
H  51.12700 29.89300 35.32400
H  52.25900 28.88800 34.40600

