158

Mg 0.76100 6.90600 25.88200
C  1.58500 8.82400 28.56900
C  0.49500 4.20100 28.01600
C  0.23800 4.93700 23.25400
C  1.24700 9.54000 23.68700
N  1.00600 6.62600 28.04500
C  1.18900 7.60100 28.97400
C  0.94600 7.04000 30.39200
C  0.97600 5.55200 30.10300
C  0.73500 5.45000 28.61700
C  2.20800 4.67600 30.59500
C  -0.35100 7.53200 31.12700
C  -0.07400 7.83700 32.61000
H  0.84000 6.94300 33.44000
N  0.52700 4.88000 25.67100
C  0.42400 3.89200 26.61800
C  0.28800 2.56500 26.06900
C  0.17600 2.75800 24.60400
C  0.38400 4.22200 24.49300
C  0.11400 1.27600 26.90200
C  -0.20100 1.75900 23.41100
O  -0.19200 2.04200 22.21200
C  -0.60000 0.38100 23.78600
N  0.60000 7.26200 23.70900
C  0.41500 6.27300 22.85000
C  0.23800 6.82000 21.41400
C  0.60700 8.35500 21.58900
C  0.79400 8.41800 23.07200
C  1.05100 6.18400 20.24600
C  -0.27700 9.44600 20.84200
C  -1.86700 9.40400 21.11700
N  1.41700 8.79400 26.09600
C  1.56800 9.78300 25.08000
C  1.86900 11.07700 25.77700
C  1.98000 10.73000 27.16700
C  1.68000 9.33300 27.29400
C  2.10400 12.42200 25.02900
C  2.25700 11.18500 28.48400
O  2.63900 12.28200 28.89500
C  1.88700 10.02800 29.45100
C  2.96800 9.84900 30.47800
O  4.04900 9.36900 30.28700
O  2.57900 10.39000 31.66800
C  3.52500 10.50600 32.84300
H  0.62600 3.39400 28.74100
H  -0.06300 4.39500 22.35400
H  1.42700 10.42600 23.07400
H  1.78400 7.25000 31.05600
H  0.15600 4.95600 30.50400
H  2.85400 5.33300 31.17700
H  2.88000 4.34200 29.80400
H  1.89500 3.77600 31.12500
H  -1.02400 6.67900 31.04800
H  -0.84400 8.36400 30.62300
H  -0.99800 7.78100 33.18400
H  0.30600 8.85300 32.71700
H  0.32300 0.39600 26.29300
H  -0.92400 1.33700 27.22900
H  0.72500 1.29300 27.80400
H  -0.67700 -0.23800 22.89200
H  -1.49200 0.49300 24.40300
H  0.19400 -0.07000 24.38100
H  -0.81800 6.64100 21.21300
H  1.52000 8.62200 21.05700
H  1.33500 5.15400 20.46100
H  1.93600 6.75000 19.95300
H  0.44200 6.10900 19.34500
H  -0.08000 9.21800 19.79400
H  0.19900 10.38100 21.13800
H  -2.32300 8.64100 21.74800
H  -2.32400 9.28600 20.13500
H  -2.12900 10.41700 21.42300
H  2.35400 12.17600 23.99700
H  2.90800 12.91500 25.57600
H  1.19000 13.00600 25.14100
H  1.06300 10.39800 30.06100
H  4.10300 11.41700 32.68800
H  4.26500 9.72000 32.99300
H  2.89400 10.61300 33.72600
Mg -5.39400 25.20600 25.96000
C  -3.61200 26.90500 28.37700
C  -6.92300 23.39800 28.54200
C  -7.07500 23.48000 23.73600
C  -3.32800 26.64000 23.60000
N  -5.28900 25.18200 28.18900
C  -4.50100 26.00600 28.95500
C  -4.82600 25.81800 30.50800
C  -5.74800 24.50900 30.53600
C  -5.96800 24.29000 28.97400
C  -5.20600 23.27600 31.26000
C  -5.47300 27.18700 31.13000
C  -5.97000 27.43400 32.59200
H  -5.67900 26.29100 33.68400
N  -6.84800 23.64500 26.14600
C  -7.34700 23.07100 27.25400
C  -8.34300 22.11600 26.93900
C  -8.39100 22.10200 25.48300
C  -7.42900 23.13200 25.05300
C  -9.23800 21.44000 27.98500
C  -9.22200 21.14800 24.61600
O  -9.18300 21.27000 23.39700
C  -10.02000 20.08800 25.17000
N  -5.18800 24.85200 24.00000
C  -6.09400 24.29400 23.26500
C  -5.75300 24.54200 21.75400
C  -4.80400 25.73900 21.81200
C  -4.39700 25.74900 23.24900
C  -5.21400 23.30600 21.07600
C  -5.47800 27.01100 21.37700
C  -4.73600 28.02900 20.52600
N  -3.86700 26.66100 25.88200
C  -3.01100 27.01900 24.90200
C  -1.98100 27.95100 25.36800
C  -2.19600 27.93900 26.77900
C  -3.32600 27.08800 26.98200
C  -0.96200 28.66600 24.56300
C  -1.75500 28.42200 28.06200
O  -0.93700 29.20600 28.51500
C  -2.63900 27.77700 29.13900
C  -1.71100 26.98200 30.09800
O  -1.03100 26.01700 29.86600
O  -1.75700 27.54700 31.32100
C  -1.41500 26.71300 32.46400
H  -7.36900 22.81100 29.34800
H  -7.85500 23.14300 23.05000
H  -2.64600 27.05200 22.85400
H  -3.82400 25.70600 30.92100
H  -6.59300 24.86300 31.12600
H  -4.99400 22.53000 30.49500
H  -6.00900 22.90200 31.89500
H  -4.31300 23.54700 31.82400
H  -6.28100 27.31100 30.40900
H  -4.65700 27.86400 30.87500
H  -7.05100 27.55000 32.51900
H  -5.43200 28.31400 32.94400
H  -9.99700 22.21500 28.08800
H  -8.75500 21.31600 28.95500
H  -9.50700 20.42100 27.70600
H  -10.83900 20.50600 25.75500
H  -9.33200 19.44500 25.71900
H  -10.44100 19.48600 24.36400
H  -6.70700 24.70600 21.25300
H  -3.89300 25.56300 21.24000
H  -4.30000 23.59000 20.55500
H  -5.96900 22.94500 20.37800
H  -4.95900 22.55300 21.82200
H  -5.82700 27.40600 22.33100
H  -6.33100 26.70300 20.77200
H  -5.45700 28.42800 19.81200
H  -3.87600 27.68500 19.95100
H  -4.35000 28.77700 21.21800
H  -0.95400 28.20000 23.57700
H  0.01600 28.46400 24.99900
H  -1.34600 29.68600 24.58800
H  -3.21900 28.50900 29.70000
H  -0.34500 26.88000 32.59300
H  -1.64800 25.65200 32.37300
H  -1.91600 27.10500 33.34900

