158

Mg -1.48300 17.78400 27.24500
C  -1.86900 15.32100 29.72700
C  -2.06500 20.16800 29.48100
C  -1.36900 19.89400 24.67200
C  -1.58300 15.03400 24.73900
N  -1.91200 17.66400 29.41200
C  -1.96500 16.62800 30.26100
C  -2.31400 17.17900 31.65700
C  -2.60900 18.67600 31.40500
C  -2.18700 18.87400 29.96300
C  -4.02500 19.09500 31.74500
C  -1.16900 16.84800 32.69000
C  -1.59000 16.06300 33.94800
H  -0.44200 15.98700 34.99000
N  -1.61400 19.76500 27.04800
C  -1.70100 20.58400 28.16600
C  -1.57200 21.92900 27.73800
C  -1.38200 21.91000 26.38200
C  -1.37400 20.53100 25.97700
C  -1.82200 23.15300 28.62300
C  -1.13200 22.99800 25.38600
O  -1.03300 22.84200 24.18800
C  -1.02000 24.41200 25.85300
N  -1.45100 17.46600 25.05100
C  -1.46600 18.57400 24.25100
C  -1.83300 18.16600 22.78700
C  -1.67500 16.63600 22.80100
C  -1.54500 16.40600 24.28100
C  -3.22900 18.51300 22.31400
C  -0.47600 15.98900 22.03100
C  0.99400 16.28800 22.56100
N  -1.56800 15.64700 27.19000
C  -1.54800 14.72600 26.14100
C  -1.76900 13.38700 26.70400
C  -1.90400 13.58700 28.08900
C  -1.74300 14.98100 28.32100
C  -2.09100 12.20700 25.92200
C  -2.17900 12.90700 29.29400
O  -2.30100 11.68600 29.51100
C  -2.22200 13.98900 30.43200
C  -1.11500 13.58500 31.42000
O  0.04800 13.97100 31.34000
O  -1.55200 12.93000 32.52900
C  -0.62300 12.55000 33.64500
H  -2.15500 21.02000 30.15800
H  -1.52500 20.50300 23.77900
H  -1.66000 14.21000 24.02800
H  -3.20700 16.70700 32.06700
H  -1.99300 19.39900 31.94100
H  -4.55900 18.49000 32.47800
H  -4.52000 19.19900 30.78000
H  -3.96600 20.12100 32.11000
H  -0.79500 17.82900 32.98200
H  -0.37900 16.35400 32.12400
H  -1.82700 15.04400 33.63900
H  -2.40600 16.63500 34.39000
H  -2.67400 23.75700 28.31000
H  -0.89300 23.69800 28.78600
H  -2.18400 22.99600 29.63900
H  -1.93700 24.70100 26.36600
H  -0.86900 25.03000 24.96800
H  -0.29000 24.41000 26.66300
H  -1.12200 18.64900 22.11600
H  -2.56700 16.12700 22.43800
H  -3.59800 18.96200 23.23700
H  -3.85000 17.63400 22.14500
H  -3.22300 19.17100 21.44500
H  -0.57200 16.34100 21.00400
H  -0.53500 14.90100 21.99700
H  1.02500 16.75500 23.54500
H  1.49200 16.92000 21.82500
H  1.60700 15.39900 22.71000
H  -2.22800 11.46700 26.71000
H  -1.34300 11.84700 25.21600
H  -3.05400 12.41700 25.45700
H  -3.22400 13.93200 30.85600
H  -0.01100 11.68700 33.38400
H  -1.14400 12.35800 34.58400
H  0.06500 13.39000 33.73600
Mg 24.04000 -5.57500 45.31800
C  26.40300 -3.19400 43.80800
C  21.71500 -4.20400 43.42200
C  22.32800 -8.31400 46.09100
C  26.86200 -6.73900 47.15100
N  24.09500 -3.85000 43.89500
C  25.12500 -3.13700 43.36300
C  24.61500 -2.19200 42.26600
C  23.09000 -2.27600 42.39300
C  22.92100 -3.49300 43.33400
C  22.39500 -1.05800 42.86600
C  25.24300 -2.44800 40.89800
C  25.95600 -1.21100 40.30800
H  25.42200 -0.74500 38.97500
N  22.12400 -6.10500 44.97000
C  21.30100 -5.43900 44.11200
C  20.02000 -6.09800 44.10500
C  20.13000 -7.28700 44.87300
C  21.56800 -7.30900 45.32700
C  18.79200 -5.69800 43.26200
C  18.98400 -8.26200 45.15400
O  17.87700 -8.17700 44.74900
C  19.28200 -9.51100 45.96400
N  24.58500 -7.35500 46.34600
C  23.66300 -8.32300 46.54900
C  24.23200 -9.46900 47.39600
C  25.76100 -9.00500 47.70200
C  25.79200 -7.61500 47.00500
C  23.41800 -9.89600 48.62000
C  26.88000 -9.97200 47.13000
C  27.62300 -10.97700 48.14200
N  26.30000 -5.06800 45.53500
C  27.23300 -5.59100 46.34600
C  28.48700 -4.90700 46.25700
C  28.25600 -4.03400 45.17800
C  26.89200 -4.14800 44.82000
C  29.72600 -5.22600 47.08500
C  28.82500 -2.95100 44.30600
O  29.95100 -2.56300 44.14900
C  27.65400 -2.38700 43.44400
C  27.42000 -1.00100 43.77900
O  26.47600 -0.53300 44.42200
O  28.57000 -0.24500 43.48000
C  28.68900 1.07600 43.92800
H  20.94000 -3.63200 42.90800
H  21.76500 -9.20500 46.37500
H  27.79800 -6.97700 47.66000
H  24.86500 -1.17800 42.57800
H  22.66600 -2.54400 41.42600
H  22.52500 -0.15700 42.26700
H  22.53800 -0.70800 43.88800
H  21.33500 -1.30600 42.80200
H  24.43000 -2.60100 40.18800
H  25.93700 -3.28600 40.83900
H  26.99600 -1.45100 40.08800
H  25.96400 -0.37100 41.00200
H  18.04100 -5.20100 43.87600
H  18.44900 -6.58200 42.72600
H  19.07700 -4.96300 42.50900
H  18.34400 -10.02400 46.17800
H  19.68900 -9.08700 46.88200
H  19.89600 -10.20800 45.39300
H  24.27900 -10.29800 46.69000
H  25.95800 -8.90700 48.77000
H  22.91300 -9.02400 49.03600
H  24.00400 -10.38700 49.39700
H  22.80000 -10.71300 48.24900
H  27.63400 -9.38900 46.60200
H  26.42300 -10.50900 46.29800
H  28.68600 -10.80000 48.30500
H  27.52400 -11.99500 47.76600
H  27.07900 -10.85000 49.07800
H  30.39800 -5.98900 46.69200
H  29.65300 -5.55100 48.12200
H  30.39300 -4.36400 47.08800
H  27.93300 -2.53900 42.40100
H  28.94700 1.75300 43.11400
H  29.59000 1.19200 44.53000
H  27.76500 1.50800 44.31200

