158

Mg 24.82500 -7.86800 47.50500
C  26.95700 -5.23400 46.25900
C  22.46600 -6.94300 45.28000
C  23.24400 -10.70000 48.24400
C  27.75400 -9.06900 49.17900
N  24.84500 -6.36700 45.78000
C  25.71800 -5.31800 45.58800
C  25.16900 -4.25100 44.62200
C  23.66500 -4.75700 44.52200
C  23.64500 -6.09100 45.21500
C  22.74300 -3.68100 45.03500
C  26.02100 -4.17600 43.29600
C  26.58200 -2.76000 42.99000
H  26.28200 -2.26700 41.58700
N  23.05300 -8.67500 46.89900
C  22.17800 -8.09200 46.00200
C  20.98300 -8.83800 45.79000
C  21.15200 -9.93300 46.72600
C  22.48000 -9.81700 47.38200
C  19.86900 -8.47100 44.75700
C  20.05600 -11.04100 47.00900
O  19.03400 -11.02300 46.39600
C  20.42500 -12.04600 48.08400
N  25.46400 -9.66000 48.44100
C  24.53700 -10.61700 48.71300
C  25.15700 -11.67900 49.60400
C  26.52400 -11.09600 50.10300
C  26.61300 -9.87900 49.16400
C  24.27600 -12.28600 50.71000
C  27.79900 -12.04300 50.05100
C  28.76200 -12.16700 51.21000
N  26.88000 -7.25800 47.84000
C  27.93000 -7.82200 48.55000
C  29.05100 -6.96600 48.58800
C  28.72800 -5.90700 47.76100
C  27.41100 -6.20100 47.24500
C  30.29100 -7.28500 49.42700
C  29.12800 -4.62500 47.30100
O  30.16300 -3.95900 47.43800
C  28.03200 -4.21000 46.21300
C  27.56600 -2.81700 46.51600
O  26.58200 -2.45100 47.14500
O  28.37000 -1.89500 45.89400
C  27.90600 -0.53000 45.80700
H  21.74200 -6.54300 44.56700
H  22.78900 -11.64700 48.54100
H  28.41300 -9.46400 49.95400
H  25.15900 -3.27700 45.11100
H  23.31400 -4.90800 43.50100
H  23.28000 -2.79200 45.36600
H  22.12000 -4.04700 45.85100
H  22.07000 -3.45700 44.20700
H  25.47000 -4.49800 42.41300
H  26.90400 -4.81200 43.35700
H  27.65600 -2.93800 43.04100
H  26.34000 -1.91800 43.63800
H  20.15900 -8.66000 43.72400
H  19.51300 -7.44200 44.70900
H  18.93100 -9.00800 44.89600
H  21.19500 -12.69400 47.66700
H  19.57700 -12.70300 48.27900
H  20.71900 -11.47500 48.96500
H  25.43300 -12.53000 48.98100
H  26.52700 -10.74000 51.13300
H  23.31600 -11.80200 50.89100
H  24.85300 -12.18300 51.62900
H  24.10600 -13.34700 50.52600
H  28.44000 -11.74900 49.22000
H  27.31600 -12.99400 49.82600
H  29.75100 -12.20100 50.75400
H  28.53800 -13.05400 51.80300
H  28.73700 -11.21700 51.74400
H  29.98100 -7.52700 50.44400
H  30.89700 -6.37900 49.42200
H  30.75900 -8.20600 49.07700
H  28.46900 -4.14600 45.21700
H  26.83600 -0.59300 45.60700
H  28.45700 -0.07700 44.98300
H  28.03800 0.01000 46.74400
Mg -5.35900 25.19100 26.58700
C  -3.39600 26.71000 29.07400
C  -6.45500 22.85200 29.00300
C  -7.29100 23.62000 24.20400
C  -3.88500 27.27900 24.31500
N  -4.86200 24.78400 28.78500
C  -4.23700 25.70900 29.59400
C  -4.47300 25.43800 31.07700
C  -5.12600 23.92600 31.02900
C  -5.54100 23.84400 29.50200
C  -4.09300 22.91200 31.51800
C  -5.50700 26.50100 31.67200
C  -5.44700 26.74600 33.18400
H  -4.94200 25.52600 34.00400
N  -6.70900 23.44000 26.56100
C  -7.05800 22.70200 27.66800
C  -7.96200 21.65800 27.23000
C  -8.29100 21.93200 25.84400
C  -7.43100 23.02700 25.47500
C  -8.48500 20.54900 28.11600
C  -9.34900 21.28800 24.93200
O  -9.51800 21.53700 23.77100
C  -10.33900 20.10100 25.45000
N  -5.44400 25.29200 24.56300
C  -6.39500 24.68400 23.77300
C  -6.24700 25.04600 22.22800
C  -5.41100 26.35900 22.38100
C  -4.87500 26.36500 23.88300
C  -5.62300 23.94700 21.46500
C  -6.25400 27.68200 22.28700
C  -6.65600 28.09200 20.86800
N  -3.80000 26.51900 26.68600
C  -3.35000 27.36500 25.63500
C  -2.36300 28.33600 26.08900
C  -2.37600 28.13800 27.50800
C  -3.22600 26.99000 27.74700
C  -1.56000 29.38300 25.36000
C  -1.92500 28.64400 28.82300
O  -1.40100 29.66200 29.13200
C  -2.54900 27.67900 29.89100
C  -1.54600 27.03400 30.68500
O  -0.87000 26.09800 30.33800
O  -1.49200 27.56200 31.93100
C  -0.61000 26.94500 32.89200
H  -6.83500 22.14000 29.73700
H  -7.94100 23.17600 23.44700
H  -3.67300 28.06600 23.58900
H  -3.48900 25.45800 31.54700
H  -6.02100 24.04000 31.64000
H  -3.36000 23.29900 32.22500
H  -3.56400 22.72500 30.58400
H  -4.44000 22.03200 32.06000
H  -6.53300 26.26600 31.39200
H  -5.25000 27.44500 31.19300
H  -6.45000 27.03000 33.50400
H  -4.78900 27.59900 33.35100
H  -9.46000 20.84900 28.49900
H  -7.85000 20.45600 28.99700
H  -8.59400 19.57400 27.64000
H  -9.70400 19.46200 26.06300
H  -10.64900 19.58000 24.54500
H  -11.10400 20.51200 26.10900
H  -7.25600 25.27300 21.88600
H  -4.57200 26.38100 21.68600
H  -5.75400 22.97100 21.93300
H  -4.59600 24.12700 21.14700
H  -6.17500 23.73000 20.55000
H  -5.65800 28.49600 22.70000
H  -7.13600 27.68000 22.92700
H  -6.08400 28.94400 20.50000
H  -7.67700 28.47100 20.81900
H  -6.65000 27.26600 20.15600
H  -1.58400 30.26200 26.00400
H  -1.95200 29.52700 24.35300
H  -0.50300 29.12000 25.37600
H  -3.17600 28.30200 30.52900
H  0.33400 26.56800 32.50000
H  -1.12600 26.33900 33.63700
H  -0.33600 27.77400 33.54500

