158

Mg 35.95600 1.10800 29.61400
C  33.87100 2.14800 32.36200
C  38.67800 1.15800 31.62800
C  37.69000 0.49000 26.86700
C  33.10800 1.62400 27.57000
N  36.19100 1.33800 31.77400
C  35.19800 1.84600 32.73000
C  35.80400 1.79500 34.15900
C  37.41900 1.68200 33.83300
C  37.43800 1.29900 32.35700
C  38.37900 2.89000 34.18200
C  35.34200 0.66400 35.09800
C  35.10200 0.89500 36.58700
H  35.57200 2.19800 37.27900
N  37.83300 0.80200 29.28400
C  38.81300 0.92300 30.24300
C  40.11500 0.78800 29.58100
C  39.89000 0.43400 28.24900
C  38.38500 0.48900 28.07600
C  41.44300 0.75700 30.23100
C  40.85200 -0.07200 27.21000
O  40.46500 -0.41600 26.07200
C  42.36500 -0.23800 27.44600
N  35.43900 0.90100 27.52100
C  36.35200 0.74100 26.55900
C  35.74200 0.84100 25.14400
C  34.26500 0.84300 25.48000
C  34.24800 1.03400 26.95800
C  36.35600 2.05400 24.29800
C  33.53300 -0.50100 24.97600
C  32.73100 -0.44100 23.65100
N  33.96200 1.76500 29.89800
C  32.95200 1.95600 28.93100
C  31.76200 2.45800 29.57900
C  32.06300 2.51000 30.95200
C  33.39300 2.14800 31.04400
C  30.44200 2.74800 28.81100
C  31.55300 2.91500 32.29000
O  30.54400 3.35200 32.74900
C  32.74300 2.66300 33.23100
C  32.94200 3.96200 33.96000
O  33.25500 5.02300 33.46600
O  32.58500 3.82400 35.26300
C  32.28200 5.14100 35.98600
H  39.57900 1.21900 32.24300
H  38.35400 0.23500 26.03900
H  32.21300 1.65100 26.94500
H  35.52300 2.77900 34.53300
H  37.82900 0.76300 34.25200
H  38.70400 3.42900 33.29200
H  39.34800 2.64800 34.62000
H  37.69600 3.54600 34.72200
H  35.97800 -0.21700 35.01200
H  34.37000 0.40400 34.67900
H  35.44600 0.04400 37.17400
H  34.02400 0.99300 36.71800
H  41.61900 1.46700 31.03900
H  42.19600 1.05600 29.50100
H  41.73900 -0.24800 30.53200
H  42.84900 0.73800 27.41400
H  42.69100 -0.81500 26.58100
H  42.74000 -0.85900 28.26000
H  35.88500 -0.10200 24.61700
H  33.80100 1.71200 25.01200
H  36.63400 2.90700 24.91900
H  35.50700 2.26100 23.64700
H  37.19600 1.63100 23.74800
H  32.79300 -0.81900 25.71100
H  34.25000 -1.31200 24.85000
H  31.69600 -0.71100 23.86000
H  33.12300 -1.23500 23.01600
H  32.81900 0.53600 23.17600
H  30.24600 2.10700 27.95200
H  30.42900 3.80500 28.54600
H  29.74500 2.61300 29.63800
H  32.50200 1.91300 33.98500
H  31.39000 5.64000 35.60800
H  33.10300 5.83900 36.14900
H  31.99900 4.82600 36.99100
Mg 41.56600 7.87900 30.02100
C  43.18700 9.52700 32.57400
C  39.25600 6.75500 32.22200
C  40.25300 6.33300 27.44200
C  44.45800 8.61000 28.01400
N  41.40000 8.05100 32.17000
C  42.12300 8.81400 33.02000
C  41.49600 8.78000 34.43700
C  40.27100 7.85400 34.26100
C  40.31600 7.48100 32.82900
C  40.34200 6.66400 35.18600
C  41.30000 10.09900 35.08300
C  40.28000 10.11900 36.27200
H  40.64200 11.15600 37.33700
N  39.89600 6.74700 29.85800
C  39.07800 6.33700 30.85800
C  37.99600 5.56500 30.28100
C  38.23600 5.54000 28.88800
C  39.52000 6.20900 28.64300
C  37.00000 4.75200 31.07600
C  37.35900 4.89400 27.78700
O  37.56100 4.94900 26.57900
C  36.12000 4.16900 28.17300
N  42.33100 7.39700 27.95000
C  41.49100 6.87300 27.10200
C  42.05700 6.83600 25.69500
C  43.44900 7.67600 25.83700
C  43.45200 7.90900 27.34300
C  42.15700 5.40200 25.05500
C  43.62800 8.96700 24.97800
C  42.72900 10.18000 25.43700
N  43.38600 8.90300 30.16100
C  44.48800 9.08500 29.32000
C  45.52300 9.93700 29.97100
C  44.91000 10.21500 31.18400
C  43.75200 9.49900 31.29100
C  46.75400 10.52400 29.31100
C  45.14300 10.92000 32.42500
O  46.16900 11.59100 32.70600
C  43.95800 10.48400 33.44400
C  44.64200 9.71400 34.52600
O  45.02300 8.51300 34.46100
O  44.74800 10.60200 35.56300
C  45.28600 9.95500 36.79300
H  38.37700 6.57400 32.84500
H  39.67300 5.91400 26.61700
H  45.26800 8.99500 27.39200
H  42.14800 8.22900 35.11600
H  39.40000 8.49100 34.40900
H  40.27100 5.77300 34.56300
H  39.46000 6.65400 35.82600
H  41.17600 6.52200 35.87400
H  41.10300 10.82600 34.29600
H  42.25700 10.46000 35.46100
H  40.16900 9.16100 36.78000
H  39.24500 10.31700 35.99200
H  36.00000 5.12800 30.85800
H  37.09900 5.09800 32.10500
H  36.95900 3.66900 30.95800
H  35.29400 4.08200 27.46700
H  35.61100 4.76300 28.93300
H  36.51100 3.19900 28.47800
H  41.38500 7.42300 25.06900
H  44.29700 7.00900 25.68900
H  41.50200 4.69900 25.57000
H  43.16700 4.99800 24.97800
H  41.73800 5.51600 24.05500
H  43.27900 8.65900 23.99300
H  44.62200 9.33300 24.72100
H  41.89600 10.17100 26.14000
H  42.36300 10.82300 24.63700
H  43.47600 10.82300 25.90500
H  47.48100 10.68700 30.10600
H  46.61000 11.43300 28.72700
H  47.18200 9.71200 28.72400
H  43.45300 11.36500 33.84100
H  46.32700 9.70600 36.58800
H  44.80700 9.00000 37.00700
H  45.30100 10.53900 37.71300

