158

Mg 29.89200 57.58300 39.33500
C  27.13200 55.50100 38.54000
C  31.94500 55.09200 38.27100
C  32.35100 59.84500 39.25800
C  27.61200 60.30700 40.00000
N  29.44300 55.51400 38.43100
C  28.31400 54.81900 38.33200
C  28.59500 53.33500 38.11300
C  30.18000 53.25000 38.20200
C  30.58500 54.71100 38.31400
C  30.70300 52.33200 39.39800
C  27.99900 52.81700 36.85600
C  28.60900 53.28500 35.52000
H  27.70100 54.03700 34.51600
N  31.97100 57.44600 38.86500
C  32.65100 56.30300 38.54800
C  34.08000 56.54300 38.40000
C  34.21900 57.94100 38.68700
C  32.82600 58.55700 38.98200
C  35.03800 55.56500 37.90300
C  35.63200 58.67400 38.67500
O  36.70300 58.16000 38.34000
C  35.76300 60.12500 39.01900
N  29.99800 59.74500 39.79400
C  31.15800 60.38800 39.63600
C  30.95200 61.96500 39.72500
C  29.47900 61.98700 40.34300
C  28.98800 60.60000 39.99300
C  32.01500 62.69200 40.65000
C  28.58400 63.08400 39.78600
C  29.03900 64.58400 39.67000
N  27.77800 57.91500 39.32800
C  27.01000 59.05900 39.62900
C  25.61600 58.64900 39.50100
C  25.64900 57.26100 39.04600
C  26.95700 56.90000 38.95900
C  24.45300 59.49100 39.91300
C  24.74300 56.14900 38.72700
O  23.50100 56.08300 38.74600
C  25.65800 54.95900 38.34300
C  25.23500 53.75200 39.11700
O  25.63300 53.38900 40.23200
O  24.31200 53.04100 38.33800
C  23.54400 51.98300 39.03800
H  32.60200 54.23900 38.08800
H  33.16800 60.55900 39.13600
H  26.83500 60.99200 40.34700
H  28.26500 52.72900 38.95700
H  30.50800 52.76700 37.28200
H  29.96600 51.61800 39.76500
H  31.21900 53.00000 40.08700
H  31.55000 51.84200 38.91900
H  26.92700 53.01200 36.80600
H  28.08700 51.73400 36.93600
H  29.17400 52.48100 35.04800
H  29.35600 54.04400 35.75000
H  36.11100 55.75900 37.90300
H  34.85700 55.29800 36.86200
H  34.89900 54.58800 38.36600
H  36.72700 60.40300 39.44500
H  35.03900 60.03500 39.82900
H  35.44400 60.72300 38.16600
H  30.97900 62.42900 38.73900
H  29.44500 62.07200 41.42900
H  32.78200 62.14700 41.20000
H  31.33400 63.20200 41.33200
H  32.47700 63.52700 40.12400
H  27.68200 63.12200 40.39700
H  28.29700 62.76900 38.78300
H  29.81200 64.85100 40.39100
H  28.24700 65.32500 39.77400
H  29.53500 64.79700 38.72400
H  23.69300 58.94500 40.47200
H  24.01000 59.78500 38.96200
H  24.70900 60.31200 40.58300
H  25.52400 54.63000 37.31200
H  24.21600 51.12500 39.03300
H  22.62000 51.73700 38.51600
H  23.34800 52.18900 40.09100
Mg -5.79800 25.40400 26.14800
C  -4.40300 26.73700 29.12100
C  -7.45000 23.08200 27.93100
C  -6.32000 23.85100 23.27800
C  -3.42600 27.49700 24.34200
N  -5.74100 24.93500 28.21200
C  -5.33600 25.66800 29.24300
C  -5.89300 25.13800 30.56800
C  -6.63900 23.88600 30.22600
C  -6.64900 23.95100 28.71200
C  -5.89700 22.57600 30.68500
C  -6.73200 26.24800 31.29300
C  -6.38600 26.39800 32.82100
H  -5.68500 25.26400 33.52700
N  -6.93500 23.79100 25.63100
C  -7.57400 22.99200 26.52600
C  -8.36600 22.09900 25.78000
C  -8.13900 22.32300 24.39400
C  -7.12400 23.39300 24.36000
C  -9.28400 21.02800 26.41100
C  -8.78700 21.70500 23.21700
O  -8.59000 22.09600 22.06500
C  -9.60200 20.39600 23.32000
N  -4.87400 25.57700 24.08000
C  -5.32800 24.78800 23.12700
C  -4.63800 25.06700 21.73200
C  -3.88800 26.38400 22.02100
C  -4.04200 26.47800 23.54200
C  -3.85400 23.80300 21.23400
C  -4.52200 27.60700 21.35900
C  -3.95700 27.95000 19.96100
N  -4.36100 26.94100 26.60000
C  -3.43700 27.63700 25.75700
C  -2.58600 28.47700 26.57000
C  -2.95900 28.15300 27.85100
C  -3.97700 27.23500 27.85600
C  -1.69400 29.45400 26.03500
C  -2.65700 28.42300 29.33600
O  -1.84500 29.19100 29.84000
C  -3.62000 27.41900 30.19700
C  -2.70700 26.57400 30.89000
O  -2.10100 25.56500 30.51100
O  -2.51800 27.20900 32.13800
C  -1.47300 26.63900 32.97200
H  -8.13100 22.49800 28.55300
H  -6.44500 23.21100 22.40200
H  -2.68200 28.12100 23.84200
H  -5.04600 24.69700 31.09300
H  -7.66600 23.79900 30.58200
H  -5.34100 22.62400 31.62200
H  -5.08400 22.22700 30.04900
H  -6.63500 21.77400 30.68300
H  -7.76900 25.91300 31.29900
H  -6.64100 27.21000 30.78800
H  -7.35300 26.53100 33.30500
H  -5.74300 27.23700 33.08700
H  -10.25400 21.05700 25.91500
H  -9.49500 21.21800 27.46300
H  -8.84500 20.03100 26.41100
H  -9.09200 19.76900 24.05200
H  -9.72800 19.82100 22.40300
H  -10.60600 20.72400 23.59000
H  -5.44600 25.22300 21.01700
H  -2.86400 26.24200 21.67700
H  -2.77900 23.98200 21.20800
H  -4.23900 23.55800 20.24400
H  -4.07700 22.94300 21.86500
H  -4.35100 28.47000 22.00300
H  -5.56100 27.50100 21.04700
H  -3.51200 27.09200 19.45600
H  -3.20500 28.69800 20.21400
H  -4.69500 28.48400 19.36200
H  -0.69800 29.45100 26.47700
H  -2.14000 30.44800 26.06600
H  -1.45200 29.33000 24.98000
H  -4.27300 27.99500 30.85300
H  -1.81700 26.38500 33.97500
H  -0.69300 27.35600 33.22800
H  -0.90100 25.80200 32.57100

