158

Mg 45.28200 2.95500 47.04100
C  43.03700 5.72300 46.56500
C  42.57200 0.83100 46.94900
C  47.43200 0.39800 46.86400
C  47.97700 5.22600 46.59400
N  43.07700 3.30300 46.70400
C  42.39200 4.51600 46.66300
C  40.90200 4.22700 46.91000
C  40.78800 2.75700 47.28800
C  42.25200 2.24500 46.96600
C  40.25400 2.41800 48.66400
C  40.06000 4.58700 45.71600
C  40.58500 4.22200 44.27500
H  40.74800 5.48900 43.34900
N  45.03100 0.85400 46.82700
C  43.86500 0.20500 46.87900
C  44.09100 -1.22500 46.79400
C  45.52500 -1.38800 46.85000
C  46.07700 -0.02600 46.82300
C  43.05900 -2.25900 46.77400
C  46.30700 -2.67900 46.65300
O  45.63900 -3.76100 46.68500
C  47.82600 -2.78900 46.41700
N  47.35400 2.83300 46.64000
C  47.97900 1.66200 46.86600
C  49.48500 1.83700 47.00100
C  49.71500 3.37200 46.74200
C  48.29900 3.85800 46.60200
C  50.05000 1.31300 48.32300
C  50.51700 3.81900 45.43900
C  51.87400 3.01600 45.29800
N  45.56000 5.10500 46.86200
C  46.71100 5.88600 46.64700
C  46.38400 7.24400 46.65700
C  44.95800 7.23300 46.61400
C  44.51400 5.95500 46.75000
C  47.33100 8.36100 46.50300
C  43.78800 8.11500 46.71100
O  43.76300 9.33900 46.94900
C  42.51700 7.17600 46.60900
C  41.63100 7.47000 47.76000
O  41.70500 6.95900 48.89800
O  40.82200 8.50200 47.43700
C  39.80400 8.95600 48.42700
H  41.67700 0.20700 46.98300
H  48.18600 -0.39100 46.89100
H  48.88200 5.83100 46.68400
H  40.60300 4.82500 47.77100
H  40.16000 2.25000 46.55500
H  40.05100 3.29300 49.28000
H  41.06600 1.83900 49.10400
H  39.34700 1.81600 48.60300
H  40.06200 5.67200 45.81100
H  39.02900 4.23700 45.76700
H  39.92300 3.49700 43.80200
H  41.55100 3.76400 44.48700
H  43.38000 -3.06300 46.11200
H  42.04500 -1.90900 46.58300
H  43.05100 -2.67400 47.78200
H  48.14400 -2.12400 45.61500
H  48.04000 -3.82800 46.16800
H  48.39400 -2.59500 47.32700
H  50.05300 1.32700 46.22300
H  50.16300 3.87200 47.60000
H  49.26900 0.90700 48.96700
H  50.59200 2.10100 48.84500
H  50.67700 0.43900 48.14800
H  50.69200 4.85300 45.73900
H  49.85900 3.65800 44.58600
H  52.62700 3.74000 44.98700
H  51.82800 2.27500 44.50000
H  52.13400 2.62300 46.28100
H  48.05000 7.94100 45.79900
H  47.88400 8.55400 47.42200
H  46.86100 9.31300 46.25700
H  41.95400 7.48300 45.72800
H  39.68700 8.40200 49.35900
H  38.83400 8.87000 47.93700
H  39.84700 10.02800 48.61800
Mg 47.10700 34.58100 28.05800
C  45.57000 32.82900 30.58500
C  47.33500 37.39500 30.35500
C  48.33300 36.57400 25.76200
C  46.27400 32.13700 25.83100
N  46.49300 35.00900 30.23900
C  45.96500 34.07400 31.03700
C  46.04800 34.65300 32.54100
C  46.23000 36.16700 32.38500
C  46.73800 36.17800 30.89200
C  44.91400 36.83300 32.42400
C  47.32400 34.03900 33.23600
C  47.24200 33.62000 34.75500
H  46.51200 34.66800 35.63600
N  47.80400 36.62700 28.12100
C  47.89100 37.56100 29.12700
C  48.57300 38.71700 28.72700
C  48.88300 38.54200 27.39000
C  48.24800 37.23200 27.00000
C  48.97300 39.85800 29.65000
C  49.72600 39.36000 26.53000
O  49.81100 39.10500 25.31200
C  50.42800 40.59400 27.07700
N  47.03400 34.49900 25.98200
C  47.80000 35.36000 25.29900
C  47.85600 34.77200 23.85800
C  47.58800 33.31200 24.04600
C  46.92900 33.30000 25.40700
C  46.83200 35.50700 22.84300
C  48.70400 32.25400 23.90900
C  48.58400 31.27000 22.66200
N  46.23400 32.77600 28.11800
C  45.89000 31.89400 27.14900
C  45.29000 30.63700 27.67200
C  45.09900 31.00400 29.06000
C  45.68100 32.25600 29.21700
C  44.98700 29.36600 26.93800
C  44.61300 30.58900 30.37100
O  44.20700 29.45900 30.73000
C  44.72700 31.80500 31.30100
C  45.30800 31.33800 32.59500
O  46.23100 30.51100 32.72400
O  44.63700 31.87300 33.62900
C  44.68800 31.14200 34.90000
H  47.53100 38.12300 31.14400
H  48.74300 37.03700 24.86200
H  46.15300 31.25700 25.19600
H  45.15800 34.32200 33.07600
H  46.90800 36.56300 33.14200
H  45.00800 37.90800 32.26600
H  44.41100 36.57300 33.35500
H  44.32600 36.46800 31.58200
H  48.18000 34.71100 33.18900
H  47.47400 33.09300 32.71500
H  48.25100 33.65300 35.16500
H  46.93100 32.58900 34.92100
H  49.77300 39.49300 30.29400
H  48.11100 39.99800 30.30200
H  49.22500 40.84000 29.24900
H  49.74000 41.43900 27.04100
H  51.19800 40.90300 26.37000
H  50.92800 40.37300 28.02000
H  48.89700 34.89700 23.56000
H  46.86800 33.02200 23.28200
H  47.40200 36.05600 22.09400
H  46.19200 36.21300 23.37200
H  46.22600 34.71600 22.40200
H  48.68900 31.58700 24.77100
H  49.67900 32.72900 23.79800
H  49.49900 31.47900 22.10800
H  47.74400 31.57000 22.03500
H  48.39200 30.24000 22.96100
H  44.01800 29.28400 26.44700
H  45.29900 28.47700 27.48600
H  45.67100 29.39500 26.09000
H  43.70400 32.13600 31.47600
H  43.80600 30.53600 35.10800
H  44.76100 31.91600 35.66500
H  45.53300 30.46100 35.00900

