158

Mg 0.79200 7.25400 26.90600
C  1.45400 9.14200 29.68600
C  1.19100 4.38300 28.69500
C  0.99100 5.57600 24.01300
C  1.23700 10.33500 25.06800
N  1.34500 6.87700 28.90400
C  1.29300 7.75900 29.93100
C  1.21700 7.07500 31.25400
C  1.46200 5.58800 30.93700
C  1.34500 5.60000 29.41400
C  2.80200 4.89800 31.43500
C  -0.09200 7.38400 32.03800
C  0.05300 7.70800 33.50400
H  1.26600 7.10300 34.24400
N  0.88400 5.21000 26.41800
C  1.01800 4.13500 27.30000
C  0.96800 2.87300 26.54700
C  1.00700 3.23000 25.10400
C  0.96200 4.71100 25.12600
C  0.91000 1.57900 27.35400
C  1.04900 2.36600 23.98600
O  0.91700 2.78500 22.81400
C  1.18100 0.88300 24.15100
N  0.98800 7.88500 24.79800
C  0.98100 6.97200 23.79300
C  0.89300 7.60800 22.38300
C  0.93800 9.14100 22.78800
C  0.99900 9.12200 24.33600
C  1.97300 7.22900 21.38300
C  -0.30000 10.01800 22.33500
C  -0.04900 11.12000 21.32200
N  1.09700 9.30700 27.24100
C  1.31900 10.39500 26.39200
C  1.55600 11.62000 27.22400
C  1.66500 11.15300 28.50700
C  1.40300 9.74200 28.44000
C  1.59900 13.00500 26.75200
C  1.93100 11.49900 29.90600
O  2.28300 12.59300 30.36200
C  1.62400 10.27700 30.74500
C  2.66900 10.19300 31.73000
O  3.71400 9.68100 31.63000
O  2.29200 11.06300 32.69000
C  3.33700 11.35100 33.75300
H  1.33400 3.53700 29.37000
H  1.11600 5.09100 23.04200
H  1.45200 11.21600 24.46000
H  2.10100 7.42300 31.78800
H  0.69000 4.92400 31.32600
H  3.38300 5.58100 32.05500
H  3.45800 4.66400 30.59600
H  2.54000 4.02000 32.02500
H  -0.82300 6.58500 31.91700
H  -0.63700 8.15600 31.49600
H  -0.79700 7.31800 34.06200
H  0.06500 8.78600 33.66600
H  1.10700 1.76400 28.41000
H  1.84000 1.06900 27.10600
H  0.00100 0.99500 27.20900
H  0.32300 0.48700 24.69300
H  2.16900 0.63000 24.53500
H  1.14100 0.47600 23.14000
H  -0.08000 7.33200 21.97700
H  1.87100 9.59600 22.45600
H  2.80000 6.98500 22.05000
H  2.05800 8.14200 20.79400
H  1.58100 6.39300 20.80400
H  -0.85300 10.28200 23.23600
H  -1.01800 9.31700 21.91000
H  -0.51400 10.84900 20.37400
H  1.03000 11.14400 21.16600
H  -0.49800 12.06100 21.63900
H  1.70100 12.97600 25.66700
H  2.41500 13.55100 27.22700
H  0.63800 13.47100 26.97200
H  0.68500 10.56600 31.21700
H  2.90500 11.80700 34.64400
H  3.96100 12.10200 33.27000
H  3.80500 10.41500 34.06000
Mg 49.50700 44.60400 43.60900
C  46.22700 45.24400 42.38600
C  49.05500 41.25700 42.64300
C  52.73800 44.11400 43.88600
C  49.86900 48.20600 43.93700
N  47.82200 43.43600 42.67200
C  46.63100 43.92300 42.25800
C  45.76700 42.82000 41.53200
C  46.53800 41.53100 42.01000
C  47.91700 42.09000 42.38600
C  46.01700 40.78400 43.22400
C  45.71400 42.97200 39.97700
C  44.85000 41.90100 39.31200
H  45.50000 41.17900 38.13100
N  50.77100 42.91000 43.31800
C  50.39400 41.65200 42.97700
C  51.53000 40.75200 43.08100
C  52.56300 41.53900 43.52500
C  52.03000 42.91200 43.68900
C  51.40000 39.26100 42.85600
C  54.01900 41.02900 43.77600
O  54.27500 39.82900 43.76600
C  55.14800 41.96100 44.18700
N  51.02500 45.96100 43.73000
C  52.30800 45.48400 43.97800
C  53.34000 46.68200 44.14100
C  52.37300 47.93000 44.17500
C  50.97400 47.35400 43.97900
C  54.14500 46.40100 45.43100
C  52.64300 48.99000 43.04600
C  52.53000 50.47000 43.48800
N  48.30100 46.39200 43.50300
C  48.53700 47.67900 43.71600
C  47.29800 48.43300 43.57100
C  46.37300 47.53700 43.01600
C  47.04400 46.27900 43.01200
C  47.18700 49.92100 43.79400
C  45.02900 47.41700 42.45100
O  44.13100 48.28600 42.36000
C  44.94700 45.99000 41.88500
C  43.66700 45.32400 42.07300
O  42.92900 45.05300 41.14000
O  43.35500 45.12600 43.39200
C  41.94700 44.65100 43.62200
H  48.86300 40.18500 42.55800
H  53.78900 43.95900 44.13900
H  50.09100 49.27100 44.02800
H  44.79700 42.84100 42.02800
H  46.54000 40.79900 41.20300
H  45.72000 39.78400 42.90900
H  45.10400 41.22600 43.62300
H  46.84800 40.59300 43.90300
H  46.71700 42.80300 39.58300
H  45.31900 43.91900 39.61000
H  43.90900 42.38200 39.04400
H  44.56600 41.12800 40.02500
H  52.39100 38.84800 42.67000
H  50.71800 39.00500 42.04500
H  50.91600 38.87700 43.75300
H  56.04000 41.40000 44.47000
H  54.90800 42.37700 45.16500
H  55.38000 42.78000 43.50700
H  53.84000 46.65200 43.17300
H  52.36200 48.34700 45.18200
H  53.52900 45.78200 46.08300
H  54.32600 47.26700 46.06700
H  55.08400 45.96200 45.09400
H  52.01600 48.91800 42.15700
H  53.65900 48.77100 42.71800
H  52.18000 50.61900 44.51000
H  51.75000 50.87300 42.84100
H  53.45200 51.04900 43.44200
H  47.16200 50.38300 42.80700
H  47.96100 50.37500 44.41200
H  46.25400 50.16100 44.30300
H  44.99500 46.08400 40.80000
H  41.18500 45.42700 43.55200
H  41.88700 44.25400 44.63500
H  41.72400 43.87200 42.89300

