158

Mg 15.94700 -1.27100 27.49400
C  14.80800 0.58100 30.40700
C  18.08500 -3.02000 29.46200
C  17.15700 -2.61500 24.71100
C  13.91700 1.00400 25.55400
N  16.50200 -1.15400 29.70900
C  15.80900 -0.39500 30.62200
C  16.24400 -0.87700 32.04200
C  17.36000 -1.94700 31.74600
C  17.37900 -2.00200 30.21300
C  18.74000 -1.70300 32.40900
C  15.12400 -1.39900 32.82000
C  15.24700 -1.20100 34.36500
H  16.40600 -0.52800 35.01100
N  17.42100 -2.57700 27.15100
C  18.15800 -3.18500 28.10900
C  18.99500 -4.24000 27.42900
C  18.69300 -4.20900 25.99200
C  17.76700 -3.07200 25.89500
C  19.85400 -5.09800 28.17000
C  19.14800 -5.17100 24.90300
O  18.80600 -4.95700 23.73000
C  19.99700 -6.35200 25.25700
N  15.57000 -0.92500 25.46000
C  16.17800 -1.65300 24.47000
C  15.54800 -1.35300 23.07500
C  14.68600 -0.09300 23.34500
C  14.68100 -0.00000 24.91100
C  16.51300 -1.28000 21.83900
C  13.28200 -0.10200 22.71700
C  13.26600 -0.15100 21.21400
N  14.60500 0.44100 27.85700
C  13.92700 1.26900 26.99700
C  13.17700 2.25700 27.72200
C  13.43400 2.02700 29.08700
C  14.27700 0.94900 29.11500
C  12.46700 3.31500 27.03400
C  13.24900 2.49400 30.46200
O  12.62500 3.49500 30.91600
C  14.13700 1.47400 31.36600
C  15.07800 2.28800 32.28000
O  16.24100 2.58800 32.05900
O  14.36600 2.63600 33.41800
C  14.94500 3.64500 34.36500
H  18.61800 -3.68000 30.15000
H  17.39800 -3.12000 23.77300
H  13.32300 1.64100 24.89600
H  16.61000 -0.00800 32.58800
H  17.04100 -2.84600 32.27400
H  19.08700 -2.51200 33.05200
H  18.54200 -0.85600 33.06500
H  19.45400 -1.33000 31.67400
H  14.88200 -2.38300 32.41800
H  14.19200 -0.85600 32.66200
H  15.14900 -2.17700 34.84100
H  14.37000 -0.63800 34.68300
H  20.67600 -5.63300 27.69400
H  19.32900 -5.93000 28.63900
H  20.28500 -4.54500 29.00500
H  21.04500 -6.08300 25.39400
H  19.95000 -6.99900 24.38100
H  19.58100 -6.90800 26.09700
H  14.84100 -2.16500 22.90700
H  15.19300 0.81500 23.01900
H  17.44900 -1.79400 22.05800
H  16.70700 -0.37800 21.25800
H  15.98500 -1.92000 21.13200
H  12.71600 0.78700 22.99700
H  12.79700 -1.00000 23.09800
H  12.81000 0.70000 20.70800
H  12.74200 -1.05200 20.89700
H  14.27100 -0.21800 20.79700
H  13.12700 3.75200 26.28600
H  12.40400 4.05000 27.83600
H  11.47900 3.03200 26.67100
H  13.31700 0.95500 31.86300
H  14.52100 3.49500 35.35700
H  14.70500 4.66400 34.05900
H  16.00800 3.42600 34.46300
Mg 49.41700 46.85500 43.18000
C  46.18300 47.44100 42.15700
C  49.22800 43.96400 41.16400
C  52.69300 46.39800 43.56000
C  49.66600 49.97900 44.36500
N  47.90900 45.81700 41.86600
C  46.68500 46.32900 41.55000
C  46.02300 45.53200 40.44200
C  46.94600 44.29600 40.19200
C  48.13600 44.72500 41.11900
C  46.25600 42.85700 40.40700
C  45.65300 46.23200 39.19000
C  44.23100 45.92700 38.64800
H  44.15000 45.82000 37.08500
N  50.82300 45.29100 42.64300
C  50.46300 44.17200 41.85500
C  51.65900 43.25500 41.86000
C  52.65700 43.91500 42.69500
C  52.05100 45.22700 43.06900
C  51.83100 41.90300 41.14400
C  53.98700 43.39400 43.09500
O  54.38300 42.25700 42.72400
C  54.82500 44.01800 44.27100
N  50.94000 48.04200 43.95800
C  52.21700 47.64300 43.97700
C  53.20300 48.70700 44.59700
C  52.18100 49.77200 44.96800
C  50.81200 49.23200 44.41800
C  54.23100 48.32800 45.63000
C  52.56400 51.21100 44.34600
C  52.53700 52.27200 45.41200
N  48.22400 48.39000 43.39200
C  48.42000 49.60800 43.91700
C  47.13300 50.35600 43.95300
C  46.22500 49.46200 43.35800
C  46.93000 48.29600 42.98600
C  46.87100 51.79500 44.51400
C  44.90100 49.35900 42.94900
O  44.01300 50.19200 43.03100
C  44.77900 48.02700 42.13600
C  43.78600 47.03700 42.76300
O  43.79900 46.78900 43.96700
O  42.87400 46.68300 41.77100
C  41.80300 45.83300 42.35100
H  49.32200 43.14200 40.45100
H  53.72800 46.16400 43.81700
H  49.75600 51.00800 44.72100
H  45.07300 45.25200 40.89700
H  47.37100 44.30600 39.18800
H  45.31900 42.86300 40.96400
H  47.05400 42.32600 40.92500
H  46.08800 42.47400 39.40000
H  46.39900 46.07600 38.41000
H  45.86500 47.29100 39.33300
H  43.58100 46.71200 39.03600
H  43.90200 44.98200 39.07900
H  52.54800 42.02200 40.33200
H  50.89900 41.55100 40.70200
H  52.19700 41.14000 41.83000
H  55.41700 43.21300 44.70600
H  54.19900 44.32600 45.10800
H  55.41200 44.87900 43.95300
H  53.74400 48.91000 43.67300
H  52.05000 49.77200 46.05100
H  54.40700 49.07500 46.40400
H  55.18100 48.06400 45.16600
H  53.76900 47.46800 46.11300
H  51.94000 51.49700 43.49900
H  53.61300 51.19100 44.04900
H  51.73800 52.90400 45.02400
H  53.53900 52.69900 45.37200
H  52.32400 51.95900 46.43400
H  45.92700 51.86500 45.05500
H  46.83400 52.60400 43.78400
H  47.64800 52.07500 45.22500
H  44.48400 48.29400 41.12100
H  41.28000 46.36500 43.14600
H  42.29800 44.99300 42.83800
H  41.10400 45.37600 41.65100

