158

Mg 47.93800 35.48800 28.77200
C  46.04300 33.30200 30.85400
C  47.40700 37.97200 31.20000
C  49.01700 37.81300 26.67600
C  47.39100 33.21500 26.07500
N  46.87400 35.55500 30.81700
C  46.38000 34.50700 31.50200
C  46.32400 34.91700 33.00700
C  46.18400 36.44900 32.96100
C  46.83900 36.69200 31.57400
C  44.83800 37.08600 33.29400
C  47.65200 34.22800 33.64400
C  47.58700 33.85500 35.16700
H  46.56400 34.65500 35.91200
N  48.54800 37.50000 29.01900
C  48.22800 38.33100 30.07200
C  48.91800 39.62400 29.84000
C  49.46300 39.54400 28.51300
C  48.93500 38.26400 27.97000
C  49.00500 40.61200 30.94900
C  50.53700 40.45200 27.94000
O  51.14700 40.17900 26.88100
C  51.04600 41.74800 28.67000
N  48.17000 35.48200 26.53800
C  48.70700 36.57900 25.98600
C  48.83900 36.27400 24.49800
C  48.52500 34.75000 24.34300
C  48.02100 34.44600 25.71400
C  47.94300 37.14700 23.58300
C  49.68800 33.78800 24.00700
C  50.78400 33.47600 25.00600
N  47.01900 33.67400 28.47800
C  46.91700 32.78200 27.33800
C  46.25800 31.56100 27.72300
C  46.00600 31.62500 29.13500
C  46.43500 33.01700 29.51300
C  46.01300 30.34400 26.87500
C  45.38600 30.99500 30.33100
O  44.77000 29.96700 30.47100
C  45.42900 31.99500 31.43700
C  45.95200 31.48000 32.77700
O  47.10500 31.02900 33.03100
O  44.95000 31.45100 33.70900
C  45.26700 30.90800 34.99900
H  47.13800 38.71100 31.95800
H  49.37400 38.45900 25.87100
H  47.35400 32.48600 25.26300
H  45.50300 34.44200 33.54300
H  46.88800 36.68100 33.76000
H  44.32000 37.65600 32.52300
H  44.99100 37.74400 34.14900
H  44.04000 36.41400 33.60900
H  48.54300 34.83800 33.49400
H  47.88200 33.34900 33.04200
H  48.56100 34.10700 35.58500
H  47.41700 32.81100 35.43000
H  48.73400 41.62300 30.64400
H  50.06500 40.58700 31.20500
H  48.34900 40.31700 31.76800
H  51.99100 42.05800 28.22400
H  51.23900 41.61400 29.73400
H  50.33000 42.55800 28.53600
H  49.89100 36.45800 24.27800
H  47.73200 34.58900 23.61300
H  47.49800 37.97600 24.13300
H  47.09900 36.62500 23.13200
H  48.62400 37.37500 22.76300
H  50.20100 34.26900 23.17400
H  49.24800 32.82900 23.73300
H  51.65200 33.24400 24.38700
H  50.34100 32.73200 25.66700
H  50.98400 34.32700 25.65700
H  45.26400 30.46400 26.09200
H  45.60500 29.52300 27.46600
H  46.88000 29.97500 26.32800
H  44.37500 32.17500 31.64900
H  44.40500 30.39800 35.42800
H  45.54500 31.74200 35.64300
H  46.04900 30.14900 34.96200
Mg 15.82900 51.06300 25.74300
C  17.80100 50.03600 28.41900
C  13.36900 51.80800 28.00600
C  13.78900 51.84600 23.16400
C  18.21100 49.85900 23.55700
N  15.54800 50.82400 28.00500
C  16.55300 50.54400 28.89800
C  16.18300 50.82000 30.35500
C  14.58000 51.06400 30.18800
C  14.46300 51.21200 28.63400
C  13.66700 49.90200 30.80400
C  16.94100 52.08300 30.94300
C  16.85500 52.39400 32.42500
H  16.07300 51.39200 33.26400
N  13.81800 51.73100 25.61900
C  13.02400 52.03400 26.66000
C  11.83600 52.62800 26.19300
C  11.95700 52.72500 24.75000
C  13.19300 52.07400 24.41100
C  10.77000 53.15300 27.16500
C  11.07900 53.39100 23.78600
O  11.31900 53.44300 22.56500
C  9.85000 54.08100 24.21400
N  15.93100 50.67100 23.68500
C  14.96700 51.19900 22.82700
C  15.48400 50.93200 21.30700
C  16.90300 50.37900 21.41000
C  17.03400 50.31100 22.97700
C  14.47300 50.08800 20.53400
C  17.99100 51.25600 20.81900
C  18.97600 50.48900 19.95900
N  17.67700 50.17200 25.89600
C  18.47800 49.70300 24.91400
C  19.64000 49.16400 25.58200
C  19.47400 49.30500 26.94900
C  18.19100 49.82400 27.09600
C  20.85400 48.49600 24.84700
C  20.06800 48.96300 28.21900
O  21.09900 48.46300 28.49100
C  19.02000 49.59000 29.23800
C  18.62600 48.51100 30.12400
O  17.84100 47.59500 29.92400
O  19.35100 48.65200 31.33800
C  18.98900 47.61800 32.37400
H  12.72600 52.18900 28.80200
H  13.23400 52.13600 22.26900
H  18.98800 49.50200 22.87800
H  16.35700 49.88600 30.88900
H  14.37400 52.02300 30.66300
H  13.07300 50.52800 31.47000
H  14.30800 49.28700 31.43500
H  13.09300 49.26400 30.13200
H  16.69400 52.94300 30.32000
H  17.96800 51.83200 30.67700
H  16.44600 53.39100 32.58800
H  17.87400 52.33400 32.80800
H  10.25500 52.27800 27.56200
H  10.05900 53.87400 26.76200
H  11.24800 53.59200 28.04100
H  9.40200 54.67600 23.41900
H  10.05600 54.79900 25.00800
H  9.12100 53.30700 24.45600
H  15.42100 51.96000 20.95000
H  16.97800 49.34600 21.07000
H  15.07100 49.35600 19.99100
H  13.98600 50.81900 19.88800
H  13.79500 49.53500 21.18400
H  18.55800 51.71100 21.63100
H  17.46600 52.09600 20.36500
H  19.35400 51.19500 19.22000
H  18.70500 49.46800 19.68900
H  19.83900 50.38000 20.61600
H  21.72600 48.76900 25.44100
H  20.91600 48.86600 23.82400
H  20.57100 47.44400 24.83100
H  19.54100 50.35100 29.82100
H  19.35300 47.83400 33.37800
H  19.30900 46.64800 31.99300
H  17.90200 47.69500 32.40400

