158

Mg 8.83900 3.72500 27.84500
C  10.00500 1.99600 30.73100
C  6.89900 5.56000 29.83900
C  7.63900 5.15500 25.04300
C  10.56000 1.39700 25.83400
N  8.53800 3.70600 30.08400
C  9.16000 3.08200 30.98500
C  8.66100 3.46200 32.38400
C  7.69000 4.63500 32.14900
C  7.70600 4.62400 30.60300
C  6.25100 4.57700 32.90600
C  9.81000 3.87400 33.37200
C  9.64200 5.10200 34.32400
H  10.29900 5.26900 35.68300
N  7.51400 5.14500 27.46700
C  6.85600 5.85300 28.44200
C  6.09100 6.92900 27.81200
C  6.33000 6.80600 26.42700
C  7.18000 5.65100 26.27600
C  5.18000 7.84400 28.61200
C  5.92400 7.72100 25.36700
O  6.10500 7.49000 24.17000
C  5.17200 8.96000 25.75400
N  9.10200 3.34100 25.78300
C  8.43900 4.07300 24.79600
C  8.83700 3.65300 23.38800
C  9.77900 2.45900 23.63800
C  9.87500 2.39300 25.17100
C  7.62700 3.35700 22.47600
C  11.14300 2.47900 22.89200
C  11.22700 1.28300 21.82300
N  10.02200 2.00900 28.13800
C  10.63300 1.18500 27.23900
C  11.27900 0.13600 27.99100
C  11.05800 0.37800 29.30700
C  10.29300 1.51200 29.40000
C  12.17400 -0.91800 27.30600
C  11.47500 -0.03300 30.70700
O  12.14600 -0.93000 31.12000
C  10.72300 1.05800 31.70100
C  9.87400 0.29900 32.74100
O  8.83300 -0.23500 32.51900
O  10.53100 0.37200 33.98000
C  9.97700 -0.18800 35.26100
H  6.33100 6.24400 30.47200
H  7.42100 5.67300 24.10700
H  11.16300 0.82200 25.12800
H  8.08000 2.61800 32.75800
H  8.07800 5.64900 32.24100
H  5.49600 4.21600 32.20800
H  6.04000 5.59200 33.24100
H  6.26000 3.91200 33.76900
H  10.72700 4.11000 32.83300
H  10.07200 3.01600 33.99100
H  8.61300 5.43900 34.45400
H  10.21500 5.88000 33.82000
H  4.26200 8.14300 28.10500
H  5.71000 8.72900 28.96400
H  4.73800 7.34500 29.47400
H  5.80500 9.57200 26.39600
H  4.16500 8.69600 26.08000
H  5.08500 9.45700 24.78800
H  9.35100 4.39800 22.78100
H  9.26600 1.52500 23.41000
H  7.70300 2.31700 22.15800
H  7.43500 4.01800 21.63100
H  6.80100 3.44900 23.18100
H  11.99500 2.37500 23.56400
H  11.26500 3.38900 22.30400
H  10.29800 0.74100 21.64400
H  12.05900 0.60100 22.00000
H  11.36100 1.70400 20.82600
H  13.19000 -0.52500 27.30600
H  11.76100 -1.22900 26.34600
H  12.05400 -1.79300 27.94400
H  11.57800 1.60000 32.10500
H  9.74500 0.55900 36.02000
H  10.72400 -0.83100 35.72600
H  9.08700 -0.75500 34.98800
Mg 46.25200 3.61300 47.48900
C  43.70800 6.05900 46.73000
C  43.78100 1.35500 47.78000
C  48.70700 1.30400 47.44200
C  48.59400 6.21600 47.25600
N  43.99800 3.69900 47.12200
C  43.14900 4.73700 46.86900
C  41.68800 4.34000 46.84900
C  41.73800 2.83200 47.27100
C  43.28000 2.61400 47.48400
C  40.85900 2.43700 48.51300
C  41.05600 4.65600 45.39600
C  39.75300 5.51300 45.23300
H  39.85200 6.87300 44.36800
N  46.27800 1.63000 47.55400
C  45.08200 0.88700 47.68700
C  45.45800 -0.52400 47.70400
C  46.87100 -0.61100 47.52600
C  47.32900 0.80400 47.50500
C  44.45900 -1.69000 47.73700
C  47.70100 -1.88800 47.38900
O  47.21900 -3.00300 47.43200
C  49.18000 -1.82600 47.32500
N  48.32100 3.74300 47.06400
C  49.13100 2.60700 47.16500
C  50.59500 3.04800 47.42200
C  50.47200 4.60500 47.42300
C  49.02300 4.90100 47.20900
C  51.09500 2.45300 48.81600
C  51.41800 5.27900 46.42900
C  52.18300 6.52000 46.99000
N  46.22300 5.65500 46.96400
C  47.28000 6.60300 47.08400
C  46.75500 7.92800 46.71500
C  45.38100 7.76400 46.67100
C  45.10200 6.36600 46.83100
C  47.52100 9.17300 46.51400
C  44.13400 8.44800 46.48600
O  43.88000 9.68200 46.32800
C  42.96500 7.34400 46.58900
C  42.20000 7.65400 47.85600
O  42.17100 6.96100 48.90700
O  41.41500 8.77100 47.57600
C  40.29700 9.06000 48.54600
H  43.06200 0.61600 48.13800
H  49.47700 0.54100 47.57200
H  49.32900 7.02200 47.22800
H  41.20400 4.94800 47.61200
H  41.36300 2.19200 46.47300
H  41.38100 2.02000 49.37400
H  40.21600 1.61700 48.19500
H  40.23900 3.32100 48.65900
H  40.77700 3.69300 44.96900
H  41.84600 5.09400 44.78700
H  39.30100 5.67600 46.21100
H  38.97900 4.94400 44.71800
H  44.68900 -2.54700 47.10300
H  43.49900 -1.26800 47.43900
H  44.36300 -2.11200 48.73800
H  49.54600 -2.85000 47.25600
H  49.58100 -1.37000 48.23000
H  49.53000 -1.30000 46.43600
H  51.19200 2.61200 46.62100
H  50.79000 4.89700 48.42300
H  50.46000 1.63600 49.16100
H  51.16400 3.25800 49.54700
H  52.08700 2.02600 48.66800
H  50.84600 5.65800 45.58200
H  52.07300 4.60000 45.88200
H  51.88800 6.71300 48.02100
H  51.99500 7.32600 46.28000
H  53.24900 6.32800 46.86800
H  46.76400 9.90400 46.23000
H  48.15700 8.92100 45.66500
H  48.22500 9.28000 47.33800
H  42.39900 7.53900 45.67800
H  40.37900 8.59000 49.52600
H  39.26600 8.86800 48.24800
H  40.32200 10.15000 48.56700

