158

Mg 35.14200 2.93800 28.41800
C  33.16200 4.08800 31.12800
C  37.66500 2.40200 30.66400
C  37.28100 2.67500 25.75400
C  32.59900 3.95900 26.19800
N  35.43900 3.35700 30.60400
C  34.44400 3.63900 31.52300
C  34.97600 3.38900 32.93000
C  36.47000 3.25400 32.76500
C  36.54100 2.90600 31.26100
C  37.36400 4.41800 33.25700
C  34.19600 2.30300 33.79200
C  33.55500 2.79300 35.08100
H  34.33200 3.82400 35.88800
N  37.16300 2.37600 28.24300
C  38.01000 2.29400 29.29700
C  39.28100 1.73500 28.78200
C  39.21300 1.79400 27.34600
C  37.86900 2.39400 27.07900
C  40.48500 1.45200 29.58500
C  40.23100 1.37900 26.30800
O  40.08200 1.48700 25.06900
C  41.51000 0.79600 26.73600
N  34.96200 3.10400 26.37300
C  35.95500 2.90700 25.44900
C  35.39800 2.96600 23.97900
C  33.88700 3.18800 24.17200
C  33.74400 3.38800 25.70900
C  36.06700 4.06700 23.16100
C  33.01000 2.07600 23.54400
C  32.32600 1.07900 24.48400
N  33.20800 3.93800 28.54500
C  32.28100 4.21600 27.59300
C  31.02200 4.67100 28.27200
C  31.36000 4.65200 29.64100
C  32.68400 4.23300 29.76100
C  29.64500 4.83800 27.65300
C  30.84800 4.76900 30.96600
O  29.71500 4.92100 31.43600
C  32.03200 4.56700 31.95300
C  32.39200 5.68200 32.83000
O  33.34300 6.42500 32.64600
O  31.47600 5.88000 33.86700
C  31.74300 6.97500 34.83700
H  38.48100 2.17700 31.35400
H  37.97200 2.57700 24.91400
H  31.80000 4.07700 25.46300
H  34.88100 4.33400 33.46300
H  36.79300 2.36500 33.30800
H  38.33000 3.97700 33.50200
H  36.88900 4.95600 34.07700
H  37.41600 5.09300 32.40200
H  34.83000 1.47900 34.12000
H  33.46500 1.82800 33.13700
H  33.43600 1.94700 35.75700
H  32.50300 3.05200 34.95500
H  40.90900 0.50400 29.25600
H  40.30100 1.11200 30.60400
H  41.27400 2.19600 29.46900
H  42.00300 0.68700 25.77000
H  41.50500 -0.22400 27.11800
H  42.12200 1.49300 27.30800
H  35.69800 1.99500 23.58300
H  33.59900 4.10900 23.66500
H  36.86400 3.61500 22.57000
H  36.51700 4.82000 23.80700
H  35.40800 4.65700 22.52500
H  33.76500 1.49100 23.01800
H  32.24500 2.52800 22.91300
H  31.33900 1.39000 24.82800
H  33.03800 0.82900 25.27000
H  32.12000 0.18200 23.90000
H  29.65400 4.49600 26.61800
H  29.26900 5.85400 27.77900
H  29.02100 4.17000 28.24700
H  31.61500 3.79800 32.60300
H  32.21700 7.84900 34.39000
H  32.39800 6.72600 35.67200
H  30.78100 7.24900 35.27100
Mg 49.39500 45.03600 43.50600
C  45.96100 45.80600 42.72400
C  48.86800 41.91900 42.23300
C  52.55200 44.87100 43.17300
C  49.60900 48.58600 44.33400
N  47.58300 44.04100 42.62200
C  46.23200 44.43200 42.50600
C  45.32300 43.31900 41.87400
C  46.32700 42.09300 41.96200
C  47.72000 42.72000 42.29200
C  45.91900 41.06700 43.03700
C  44.83200 43.63700 40.43700
C  45.89600 44.25400 39.49900
H  45.43900 44.19900 38.00300
N  50.56100 43.52900 42.84300
C  50.21200 42.27700 42.41000
C  51.46600 41.49900 42.29200
C  52.55700 42.41100 42.37100
C  51.88400 43.66700 42.86100
C  51.47600 40.13500 41.83000
C  54.00700 42.14300 42.09800
O  54.41900 41.07700 41.61200
C  55.09100 43.14400 42.38400
N  50.83200 46.55300 43.66100
C  52.10800 46.15700 43.56300
C  53.08300 47.30300 43.77200
C  52.16500 48.42100 44.42800
C  50.81300 47.90400 44.05200
C  54.30600 47.04300 44.64300
C  52.53800 49.80000 43.84800
C  53.34900 50.77000 44.77300
N  48.08500 46.82700 43.72000
C  48.34100 48.14700 44.00000
C  47.19200 48.95300 43.84700
C  46.24300 48.09400 43.33800
C  46.83800 46.79700 43.28000
C  47.10400 50.39700 44.11200
C  44.89400 48.09600 42.79800
O  44.02000 48.92200 42.63200
C  44.63800 46.62900 42.42100
C  43.47100 46.13700 43.18300
O  42.41200 45.86400 42.62900
O  43.64400 45.96700 44.50900
C  42.36400 45.61200 45.27000
H  48.67400 40.85200 42.10900
H  53.63400 44.96400 43.05500
H  49.72600 49.57100 44.79000
H  44.36000 43.24000 42.37700
H  46.36600 41.62100 40.98000
H  45.11700 41.46900 43.65500
H  46.75100 40.93500 43.72900
H  45.73800 40.11100 42.54400
H  43.98200 44.29200 40.62700
H  44.38000 42.74700 39.99900
H  46.77900 43.62700 39.62500
H  45.97200 45.31300 39.74400
H  51.65600 40.07600 40.75700
H  50.49400 39.70600 42.02900
H  52.24600 39.59700 42.38300
H  54.85500 43.93000 41.66700
H  56.05800 42.74100 42.08400
H  55.07900 43.56100 43.39100
H  53.41600 47.57600 42.77100
H  52.27100 48.38000 45.51200
H  54.13800 45.99500 44.89200
H  54.30800 47.62400 45.56500
H  55.22800 47.01400 44.06200
H  51.69500 50.45600 43.63300
H  53.03800 49.67300 42.88800
H  52.83500 51.72800 44.83900
H  54.37300 51.01100 44.48500
H  53.69300 50.42500 45.74800
H  46.08000 50.76700 44.17500
H  47.46000 50.86100 43.19300
H  47.57900 50.69900 45.04500
H  44.40600 46.42500 41.37600
H  42.10200 44.62400 44.89300
H  41.60800 46.31500 44.91800
H  42.45200 45.54900 46.35400

