158

Mg 44.25400 3.29500 47.56800
C  42.14200 6.11700 46.97100
C  41.29600 1.24000 47.25300
C  46.10900 0.67000 47.69200
C  47.02300 5.51100 47.00500
N  42.03300 3.65900 47.18200
C  41.41000 4.88500 47.13600
C  39.83700 4.76600 47.19600
C  39.65700 3.21700 47.30200
C  41.08300 2.68000 47.27600
C  38.96900 2.75300 48.65500
C  39.01200 5.46800 46.00700
C  39.71700 5.52300 44.64300
H  39.34100 4.63600 43.46000
N  43.77700 1.18300 47.53500
C  42.53600 0.52500 47.37900
C  42.75900 -0.92600 47.34900
C  44.14400 -1.13300 47.58800
C  44.73900 0.26800 47.62200
C  41.57400 -1.91400 47.25500
C  44.87900 -2.42200 47.70200
O  44.25400 -3.49800 47.69200
C  46.35100 -2.60700 47.71600
N  46.27800 3.05600 47.26500
C  46.81700 1.87300 47.47200
C  48.32200 1.87400 47.47900
C  48.64500 3.38000 47.23100
C  47.19500 4.05200 47.15000
C  48.89100 1.50300 48.84900
C  49.59000 3.81800 46.00100
C  50.52000 2.81500 45.26300
N  44.56600 5.37900 47.18500
C  45.72500 6.03900 46.95000
C  45.43800 7.45600 46.81300
C  44.05300 7.50400 46.78800
C  43.55100 6.27000 46.99700
C  46.50900 8.53700 46.68500
C  42.94900 8.40400 46.78000
O  42.85100 9.63900 46.77900
C  41.64900 7.51900 46.73300
C  40.75100 7.99600 47.89800
O  40.87000 7.61500 49.07200
O  39.75400 8.90000 47.43700
C  38.90900 9.39900 48.51300
H  40.49200 0.50200 47.23000
H  46.72700 -0.21800 47.83800
H  47.95600 6.07800 46.96400
H  39.52900 5.39800 48.02900
H  39.13800 2.81500 46.43200
H  39.56200 2.26600 49.42900
H  38.23000 1.99300 48.39900
H  38.42200 3.60900 49.05000
H  38.78500 6.47600 46.35400
H  38.04100 4.98300 45.90900
H  40.78800 5.33200 44.70800
H  39.66500 6.54700 44.27200
H  40.79700 -1.55600 46.57900
H  41.03200 -1.98200 48.19800
H  41.89200 -2.92900 47.01400
H  46.82300 -2.05400 46.90400
H  46.55100 -3.67600 47.63600
H  46.75700 -2.22400 48.65200
H  48.75300 1.17700 46.76100
H  49.13100 3.88000 48.06800
H  49.46900 0.60200 48.64400
H  48.14400 1.48100 49.64300
H  49.65400 2.21800 49.15700
H  50.23600 4.61600 46.36700
H  48.99300 4.38000 45.28300
H  51.54800 3.12200 45.45400
H  50.44300 2.80400 44.17500
H  50.41900 1.81800 45.69200
H  47.15300 8.26600 45.84900
H  46.93000 8.63900 47.68600
H  45.93200 9.44300 46.49900
H  41.08600 7.66400 45.81100
H  38.03900 9.85300 48.03900
H  39.46100 10.10800 49.13100
H  38.47200 8.62400 49.14300
Mg 41.92200 7.95100 28.96800
C  43.96500 9.23500 31.68600
C  39.80300 6.56700 31.43400
C  40.47200 5.90600 26.68700
C  44.65300 8.51700 26.91500
N  41.87000 8.06800 31.30200
C  42.79400 8.58500 32.15300
C  42.42000 8.45800 33.69300
C  41.16800 7.51200 33.49600
C  40.85300 7.34800 31.95700
C  40.96600 6.23500 34.38300
C  42.19700 9.83400 34.46900
C  41.32700 9.76600 35.78200
H  41.96100 10.27900 37.13700
N  40.18600 6.68300 29.03800
C  39.44000 6.28900 30.09300
C  38.32400 5.53100 29.68200
C  38.48200 5.34400 28.29200
C  39.74500 6.00300 27.93700
C  37.15600 5.13300 30.54800
C  37.60900 4.63200 27.31600
O  37.87700 4.45600 26.12900
C  36.41300 3.77400 27.84800
N  42.46800 7.29400 27.08100
C  41.75900 6.34700 26.38000
C  42.44800 6.21700 24.96600
C  43.65900 7.15600 24.97600
C  43.65300 7.66900 26.36600
C  42.78800 4.78600 24.49100
C  43.61100 8.31300 23.92900
C  44.73500 8.25100 22.83500
N  43.88000 8.66000 29.23800
C  44.79400 8.98200 28.24600
C  45.82300 9.81900 28.80800
C  45.56500 9.98000 30.17000
C  44.30800 9.29100 30.37300
C  47.02100 10.23400 28.06700
C  46.06100 10.53800 31.42800
O  47.08700 11.07700 31.73900
C  44.92100 10.13400 32.43800
C  45.47600 9.51200 33.60700
O  45.78700 8.34200 33.79400
O  45.72800 10.49300 34.56100
C  46.47100 10.03900 35.77700
H  39.09600 6.23400 32.19700
H  40.11700 5.27900 25.86700
H  45.38300 8.85700 26.17800
H  43.25500 7.98600 34.21100
H  40.29000 8.11800 33.71900
H  40.89900 5.37400 33.71700
H  40.10700 6.35600 35.04300
H  41.84300 6.13900 35.02400
H  41.76400 10.61700 33.84700
H  43.15200 10.26000 34.77500
H  40.94000 8.75100 35.87200
H  40.46700 10.39300 35.54600
H  36.92200 4.07400 30.65500
H  36.17300 5.56300 30.36000
H  37.40700 5.34500 31.58700
H  35.94400 3.27900 26.99700
H  35.60600 4.34200 28.31000
H  36.87700 3.05600 28.52400
H  41.58700 6.47200 24.34800
H  44.57200 6.62100 24.71800
H  43.66500 4.70000 23.85100
H  41.91500 4.38800 23.97200
H  42.96000 4.19600 25.39200
H  43.72600 9.27900 24.42000
H  42.64100 8.43800 23.44900
H  45.66500 8.38400 23.38600
H  44.61100 9.02800 22.08100
H  44.72800 7.23600 22.43600
H  46.69700 10.65500 27.11500
H  47.69400 9.39900 27.87000
H  47.48600 11.06300 28.59900
H  44.24000 10.94100 32.71000
H  47.24900 9.29600 35.60500
H  45.82300 9.49800 36.46600
H  46.82800 10.91100 36.32500

