158

Mg 23.61100 -5.86200 45.95600
C  26.04700 -3.86400 44.51800
C  21.34000 -4.70500 43.70400
C  21.64900 -8.50600 46.65300
C  26.27200 -7.41700 47.83700
N  23.72100 -4.44700 44.34000
C  24.80100 -3.71300 43.91800
C  24.42700 -2.80500 42.73300
C  22.84000 -2.85500 42.66200
C  22.62900 -4.16800 43.59000
C  22.13400 -1.67700 43.27900
C  25.16500 -3.21300 41.40600
C  26.13700 -2.21200 40.78800
H  25.48900 -1.20000 39.79500
N  21.72600 -6.44500 45.31600
C  20.85300 -5.74400 44.51800
C  19.58300 -6.48900 44.42600
C  19.61400 -7.52700 45.39000
C  21.05000 -7.54700 45.82400
C  18.39900 -6.04400 43.57400
C  18.41900 -8.46100 45.77000
O  17.34100 -8.28200 45.23000
C  18.52500 -9.51500 46.81700
N  23.92500 -7.73900 47.10600
C  22.93100 -8.64300 47.24300
C  23.46900 -9.88800 48.01400
C  24.74000 -9.31900 48.66000
C  24.99300 -8.04600 47.82800
C  22.35300 -10.50000 48.94100
C  26.00200 -10.21000 49.03400
C  26.94500 -10.56600 47.79800
N  25.71000 -5.68000 46.20700
C  26.66800 -6.39100 46.95700
C  27.95800 -5.73900 46.80200
C  27.68100 -4.80500 45.78900
C  26.39800 -4.80000 45.49800
C  29.25200 -6.00900 47.45900
C  28.36300 -3.84800 44.95600
O  29.55000 -3.65500 44.83600
C  27.26100 -3.12800 44.16000
C  27.34800 -1.67900 44.55700
O  26.62600 -1.11700 45.35100
O  28.39700 -1.16400 43.86800
C  28.83500 0.18900 44.32300
H  20.49900 -4.31800 43.12500
H  21.06400 -9.40600 46.85400
H  27.07300 -7.88800 48.41200
H  24.86400 -1.84100 42.99300
H  22.41400 -2.99700 41.66900
H  21.35400 -1.93700 43.99500
H  21.78300 -1.05600 42.45400
H  22.83200 -1.01100 43.78800
H  24.39700 -3.36300 40.64800
H  25.50600 -4.24200 41.51900
H  27.06600 -2.66000 40.43700
H  26.44200 -1.52900 41.58200
H  18.59200 -5.33200 42.77200
H  17.68500 -5.56800 44.24700
H  17.95200 -6.94100 43.14600
H  17.51500 -9.67000 47.19500
H  19.05800 -9.19800 47.71400
H  19.07300 -10.40700 46.51400
H  23.74200 -10.68200 47.31900
H  24.43900 -8.87500 49.60900
H  22.05700 -11.51000 48.65800
H  21.62600 -9.69500 49.05100
H  22.77800 -10.64500 49.93400
H  25.55700 -11.13900 49.39100
H  26.55000 -9.69500 49.82300
H  26.85900 -11.65100 47.74700
H  27.95600 -10.33200 48.12900
H  26.79900 -10.10300 46.82200
H  29.94700 -6.42100 46.72700
H  29.15400 -6.62500 48.35200
H  29.59500 -5.00600 47.71500
H  27.44400 -3.18300 43.08700
H  29.92100 0.13600 44.23500
H  28.62500 0.46400 45.35700
H  28.37200 0.87900 43.61800
Mg -11.76800 38.44900 41.11400
C  -9.68800 35.72200 40.21200
C  -9.60200 40.56600 39.60700
C  -14.08100 40.84800 41.32400
C  -14.05500 36.14100 42.34600
N  -10.00600 38.10800 39.93900
C  -9.27800 36.97400 39.73700
C  -8.06600 37.19000 38.81300
C  -7.95600 38.79200 38.69800
C  -9.32300 39.18500 39.42600
C  -6.72400 39.40300 39.45200
C  -8.18600 36.35100 37.46500
C  -6.78700 35.67400 37.08500
H  -6.10500 36.00600 35.74000
N  -11.80400 40.45600 40.55000
C  -10.81700 41.17200 40.06800
C  -11.16300 42.58800 39.94600
C  -12.57300 42.63100 40.34000
C  -12.89000 41.29300 40.74600
C  -10.28000 43.62600 39.27400
C  -13.40500 43.87600 40.25500
O  -12.88300 44.93700 39.82300
C  -14.90700 43.91000 40.67400
N  -13.79300 38.41600 41.47200
C  -14.50700 39.56600 41.68800
C  -15.94100 39.34700 42.28200
C  -15.84000 37.85900 42.61500
C  -14.51900 37.46200 42.08200
C  -16.41600 40.38300 43.48500
C  -16.99200 36.99700 42.04700
C  -17.75900 36.22300 43.08500
N  -11.84500 36.32200 41.29800
C  -12.82600 35.54000 41.90800
C  -12.31600 34.14800 42.10100
C  -11.08100 34.18600 41.35500
C  -10.89600 35.48600 40.87700
C  -12.95600 33.08700 42.89500
C  -9.96600 33.40900 40.76800
O  -9.75200 32.23300 40.71100
C  -8.93300 34.40900 40.08300
C  -7.62400 34.33700 40.84400
O  -6.87300 33.38700 40.80700
O  -7.41900 35.41500 41.67200
C  -6.22400 35.66400 42.46400
H  -8.86200 41.31800 39.32500
H  -14.83100 41.62600 41.48000
H  -14.70800 35.55600 42.99700
H  -7.16900 36.79500 39.28900
H  -7.98600 39.18100 37.68000
H  -6.21700 38.70700 40.12000
H  -7.04600 40.24800 40.06000
H  -6.03500 39.84300 38.73100
H  -8.66800 36.88800 36.64800
H  -8.82600 35.49300 37.67400
H  -6.81600 34.59400 37.23200
H  -6.01500 35.92100 37.81400
H  -10.60500 43.86800 38.26200
H  -9.21200 43.41300 39.30200
H  -10.21200 44.61700 39.72400
H  -15.42500 44.82000 40.37100
H  -14.93500 43.87700 41.76300
H  -15.45500 43.05300 40.28300
H  -16.59900 39.53600 41.43300
H  -15.76800 37.70800 43.69300
H  -17.29900 40.90500 43.11600
H  -15.64300 41.13600 43.63200
H  -16.79400 39.99700 44.43200
H  -16.63700 36.19900 41.39500
H  -17.74800 37.53500 41.47600
H  -17.62300 36.59700 44.10000
H  -17.39500 35.19700 43.13700
H  -18.81400 36.24300 42.81400
H  -12.08400 32.55800 43.28100
H  -13.55200 32.44400 42.24800
H  -13.51600 33.48100 43.74400
H  -8.75600 34.03200 39.07600
H  -6.16300 35.04300 43.35800
H  -6.15800 36.70600 42.78000
H  -5.43100 35.41500 41.76000

