158

Mg 47.28000 44.48500 43.02800
C  43.97600 43.63500 43.16200
C  48.01900 40.99600 42.82300
C  50.57900 45.38600 42.32200
C  46.30600 47.84800 42.70700
N  46.16200 42.49600 42.86200
C  44.81800 42.43400 43.06600
C  44.32400 40.98600 43.08700
C  45.66300 40.12400 42.94700
C  46.66100 41.24600 42.95000
C  45.77600 39.11600 44.15800
C  43.36300 40.63100 41.90000
C  43.84100 41.08800 40.59500
H  43.75900 40.04900 39.43000
N  49.08100 43.36100 42.69900
C  49.14100 41.95300 42.66000
C  50.45300 41.62000 42.39200
C  51.11000 42.81800 41.99100
C  50.28800 43.93100 42.39800
C  50.94900 40.15700 42.44300
C  52.49400 42.87100 41.49600
O  53.10200 41.84800 41.32000
C  53.13900 44.16400 40.89300
N  48.30400 46.42700 42.39900
C  49.69600 46.51900 42.42200
C  50.08300 47.93700 42.39500
C  48.71900 48.69800 42.50600
C  47.67800 47.65000 42.51900
C  51.21400 48.31000 43.41200
C  48.49700 49.74300 41.39200
C  48.04100 51.15400 41.79800
N  45.53900 45.58300 43.06300
C  45.24400 46.89600 42.91100
C  43.84600 47.12700 43.06900
C  43.31000 45.88700 43.16000
C  44.34500 44.97600 43.11700
C  43.16500 48.42900 43.25200
C  42.07500 45.11100 43.34000
O  40.95700 45.49800 43.49600
C  42.49700 43.62500 43.34400
C  42.16500 42.99900 44.67200
O  42.59700 43.27400 45.79000
O  41.33500 41.86700 44.43600
C  40.98500 41.19200 45.64600
H  48.32800 39.95400 42.92600
H  51.63800 45.65100 42.30800
H  46.16000 48.92900 42.65200
H  43.70100 40.88700 43.97600
H  45.82200 39.62100 41.99300
H  45.96600 39.65800 45.08500
H  46.57800 38.42600 43.89500
H  44.92300 38.45100 44.28700
H  42.38700 41.02900 42.17700
H  43.25200 39.54700 41.88600
H  44.86700 41.45700 40.56700
H  43.20200 41.90000 40.24900
H  52.00000 40.09700 42.72700
H  50.76500 39.48000 41.60800
H  50.48900 39.58900 43.25100
H  52.44000 44.72900 40.27700
H  53.90700 43.83400 40.19300
H  53.56200 44.76300 41.70000
H  50.48400 48.30500 41.45100
H  48.74600 49.09700 43.52000
H  51.63000 47.37100 43.77800
H  50.78400 48.74900 44.31200
H  52.00200 48.95100 43.01800
H  47.74100 49.23200 40.79600
H  49.39800 49.85100 40.78800
H  48.94700 51.75000 41.68500
H  47.60700 51.21600 42.79600
H  47.23900 51.46900 41.13000
H  43.04500 48.59200 44.32300
H  42.15400 48.37400 42.84700
H  43.63000 49.29900 42.78800
H  41.91800 43.17200 42.54000
H  40.12000 40.61500 45.31800
H  40.62300 41.83400 46.44800
H  41.82100 40.64000 46.07700
Mg 7.07700 53.81000 40.95400
C  6.63800 50.24300 40.52400
C  10.13400 53.50000 39.73300
C  7.04400 57.05200 40.33500
C  3.45000 53.80900 41.57700
N  8.21400 52.06800 40.16600
C  7.91400 50.75800 40.16400
C  9.14700 49.87600 39.76900
C  10.29900 50.88800 40.00200
C  9.48300 52.27800 39.94600
C  11.15700 50.78200 41.25500
C  9.06000 49.28500 38.34900
C  8.81100 50.25100 37.23200
H  7.41700 50.31600 36.52100
N  8.41600 55.15800 40.20200
C  9.67100 54.81700 39.80500
C  10.36900 56.02800 39.40800
C  9.51100 57.15600 39.55500
C  8.28700 56.51000 40.10600
C  11.78600 56.01400 38.95100
C  9.81900 58.65600 39.26900
O  10.90300 59.02200 38.79800
C  8.80000 59.78600 39.54000
N  5.42800 55.16700 40.81900
C  5.77000 56.45900 40.71800
C  4.52500 57.31000 40.85200
C  3.36700 56.25100 41.11400
C  4.10400 54.92000 41.09500
C  4.64600 58.41700 41.89300
C  2.17400 56.35500 40.12600
C  0.87300 56.58000 40.94400
N  5.36500 52.35300 41.21200
C  4.01400 52.48900 41.52900
C  3.42300 51.21500 41.67200
C  4.36900 50.34900 41.32000
C  5.53600 51.00900 40.98100
C  2.00500 50.98500 42.12500
C  4.71400 48.94000 41.22000
O  4.04500 47.98900 41.58800
C  6.14300 48.74300 40.65600
C  5.94900 48.06900 39.34000
O  5.43000 48.55000 38.36400
O  6.50600 46.79300 39.40900
C  6.27600 45.88400 38.25500
H  11.13600 53.40500 39.30800
H  7.03400 58.13000 40.15500
H  2.41900 53.97700 41.89600
H  9.20400 49.03700 40.46300
H  10.94500 50.93800 39.12500
H  10.88600 49.89900 41.83300
H  10.97400 51.62700 41.91900
H  12.19900 50.68100 40.95000
H  8.24900 48.55700 38.30600
H  9.91300 48.64900 38.11000
H  9.54700 49.97200 36.47700
H  9.03900 51.28500 37.49000
H  12.24200 57.00400 38.98400
H  11.98900 55.43100 38.05300
H  12.30700 55.46900 39.73800
H  7.85200 59.68200 39.01100
H  9.26400 60.71100 39.19700
H  8.51300 59.85100 40.59000
H  4.35900 57.76400 39.87500
H  3.02400 56.31000 42.14700
H  3.94500 58.27000 42.71500
H  4.72000 59.36700 41.36500
H  5.64300 58.33700 42.32500
H  2.00000 55.44300 39.55400
H  2.32700 57.22300 39.48500
H  0.87000 56.16700 41.95300
H  0.05900 56.00400 40.50500
H  0.63800 57.64400 40.93200
H  1.52500 50.53100 41.25800
H  1.47200 51.90900 42.35300
H  2.00500 50.34200 43.00500
H  6.82400 48.12900 41.24600
H  7.20700 46.03500 37.70900
H  5.39000 45.98500 37.62700
H  6.38800 44.87100 38.64200

