158

Mg 30.28700 57.63400 40.58800
C  27.53900 55.68200 40.01400
C  32.30200 55.16600 39.38200
C  32.87400 59.76700 40.65000
C  28.10500 60.41500 41.16400
N  29.93400 55.64400 39.90300
C  28.70400 55.01000 39.69900
C  28.89400 53.70800 38.93800
C  30.43700 53.41100 39.22900
C  30.96200 54.86300 39.53300
C  30.83200 52.41700 40.25300
C  28.59400 53.84100 37.42900
C  27.43600 53.13400 36.74100
H  26.75500 53.88600 35.56600
N  32.35300 57.43300 40.14200
C  32.99100 56.34800 39.72300
C  34.32200 56.54000 39.48800
C  34.52700 57.91700 39.94200
C  33.20000 58.46000 40.25700
C  35.29500 55.50300 38.84900
C  35.91300 58.50000 39.87900
O  36.90500 57.93800 39.40200
C  36.11500 59.83700 40.29100
N  30.51000 59.86500 40.79500
C  31.72200 60.44100 40.99300
C  31.54800 61.84100 41.38500
C  29.99100 61.93300 41.78300
C  29.49400 60.68700 41.17500
C  32.47100 62.29800 42.49800
C  29.23500 63.17800 41.23100
C  28.66500 63.94900 42.38200
N  28.25300 57.99400 40.73200
C  27.51200 59.15500 40.95000
C  26.13600 58.88500 40.83300
C  26.07400 57.45500 40.54000
C  27.37000 57.00700 40.47500
C  25.09700 59.90500 40.93500
C  25.20600 56.33100 40.31000
O  23.99400 56.32800 40.15600
C  26.09800 55.18200 39.83900
C  25.81300 53.98100 40.71500
O  25.82300 53.95000 41.91300
O  25.41000 52.91300 39.93400
C  24.84100 51.75800 40.66100
H  32.80600 54.34600 38.86600
H  33.70100 60.47800 40.59400
H  27.42500 61.18600 41.53300
H  28.26700 52.96900 39.43600
H  30.87000 53.15500 38.26200
H  31.22100 51.50900 39.79100
H  29.94700 52.21200 40.85500
H  31.49200 52.83300 41.01500
H  29.49100 53.52500 36.89700
H  28.35900 54.88900 37.24200
H  26.71400 52.75500 37.46400
H  27.96100 52.25200 36.37500
H  35.79300 55.99300 38.01200
H  34.77400 54.57100 38.63000
H  36.02400 55.17300 39.58900
H  35.69900 60.00600 41.28500
H  35.97200 60.59900 39.52500
H  37.18600 59.78100 40.48500
H  31.66700 62.40800 40.46200
H  29.87600 61.78700 42.85700
H  33.16900 62.98900 42.02600
H  33.11400 61.48800 42.84400
H  31.86700 62.75100 43.28400
H  28.42700 63.10200 40.50300
H  29.97800 63.85100 40.80200
H  27.70800 63.57400 42.74500
H  28.52300 64.97700 42.04800
H  29.33800 63.88600 43.23700
H  24.15400 59.56600 40.50500
H  25.32900 60.76100 40.30200
H  24.88600 60.14600 41.97800
H  25.81900 54.82400 38.84800
H  23.76800 51.62400 40.52200
H  24.98500 51.80900 41.74000
H  25.28300 50.85700 40.23400
Mg -1.71900 35.11400 25.99200
C  -3.17700 33.35200 28.78300
C  -0.72100 37.56000 28.36200
C  -0.69300 36.90400 23.45300
C  -3.32100 32.90800 23.93100
N  -1.94700 35.38700 28.38100
C  -2.57100 34.51600 29.27600
C  -2.40200 35.04100 30.73100
C  -1.69800 36.42200 30.46600
C  -1.46400 36.51400 28.90800
C  -2.35300 37.57700 31.20000
C  -1.65000 34.02400 31.68200
C  -2.30800 33.41600 32.96700
H  -1.53400 33.29500 34.25600
N  -0.77800 36.90200 25.97600
C  -0.36300 37.69200 27.00800
C  0.26100 38.86000 26.39700
C  0.34400 38.64500 24.96600
C  -0.39300 37.43700 24.71200
C  0.93500 39.96700 27.19500
C  1.09400 39.50700 23.92500
O  1.23500 39.27300 22.71200
C  1.93900 40.68700 24.45300
N  -2.13600 34.97400 23.97200
C  -1.46400 35.80600 23.08200
C  -1.69800 35.38600 21.62200
C  -2.21000 33.92900 21.76700
C  -2.61000 33.88800 23.28300
C  -2.65800 36.24400 20.86200
C  -1.15800 32.84000 21.42800
C  0.20800 32.92000 22.10100
N  -2.93900 33.51300 26.28100
C  -3.55500 32.72700 25.27000
C  -4.28900 31.67400 25.86800
C  -4.16700 31.91600 27.23400
C  -3.34000 33.00800 27.44400
C  -5.11000 30.56900 25.21500
C  -4.57600 31.39700 28.51000
O  -5.24900 30.40500 28.86700
C  -3.97100 32.37000 29.61900
C  -5.09700 32.93500 30.37500
O  -5.78900 33.90300 30.00700
O  -5.32700 32.18400 31.51500
C  -6.36900 32.68500 32.43300
H  -0.31600 38.30100 29.05500
H  -0.26100 37.39900 22.58100
H  -3.89400 32.24100 23.28400
H  -3.43100 35.14900 31.07100
H  -0.70500 36.28100 30.89300
H  -2.57900 38.45400 30.59400
H  -1.55700 37.94100 31.85000
H  -3.16700 37.33200 31.88200
H  -0.67300 34.39700 31.99000
H  -1.33300 33.12900 31.14800
H  -2.67100 32.45100 32.61300
H  -3.22700 33.99500 33.06800
H  2.02100 39.90900 27.11800
H  0.74500 39.77200 28.25100
H  0.55800 40.93200 26.85700
H  2.37300 41.15700 23.57000
H  2.77600 40.42600 25.10000
H  1.28200 41.45700 24.85700
H  -0.72500 35.42900 21.13400
H  -3.09200 33.88300 21.12800
H  -2.06700 36.63100 20.03200
H  -2.95100 37.08900 21.48600
H  -3.55300 35.69400 20.57500
H  -1.10100 32.69000 20.34900
H  -1.60200 31.89500 21.73800
H  0.53500 32.17200 22.82300
H  0.38600 33.89600 22.55200
H  0.97400 32.78100 21.33800
H  -4.66800 30.22700 24.28000
H  -6.09700 30.97600 24.99300
H  -5.32500 29.69900 25.83500
H  -3.39800 31.66600 30.22100
H  -7.23800 33.11000 31.93100
H  -6.04900 33.21500 33.32900
H  -6.83900 31.80300 32.86700

