158

Mg 16.37000 -2.00400 28.44100
C  15.33300 0.25100 30.97700
C  18.09400 -3.71700 30.70600
C  17.81500 -3.73600 25.83600
C  14.74800 0.02800 26.05700
N  16.76300 -1.69500 30.56900
C  16.20700 -0.72800 31.42800
C  16.48200 -1.10600 32.84500
C  17.43300 -2.34900 32.71700
C  17.46900 -2.59900 31.25200
C  18.91800 -2.24200 33.29000
C  15.21600 -1.25900 33.80100
C  15.15700 -0.39500 35.10600
H  16.47500 0.21800 35.65300
N  17.75000 -3.53500 28.30600
C  18.31500 -4.13600 29.36800
C  19.06000 -5.31400 28.97200
C  19.07200 -5.25000 27.57400
C  18.14100 -4.17000 27.14500
C  19.76900 -6.26700 29.90600
C  19.85100 -6.16900 26.48300
O  19.92000 -5.80200 25.33000
C  20.62700 -7.40500 26.88900
N  16.30000 -1.85100 26.27700
C  16.95100 -2.72600 25.44400
C  16.86100 -2.30900 24.00500
C  15.81200 -1.17000 24.02400
C  15.60300 -0.92600 25.52400
C  18.24000 -1.93000 23.37200
C  14.44200 -1.39600 23.33900
C  13.36500 -2.26000 24.12900
N  15.17800 -0.28300 28.40100
C  14.55700 0.37200 27.37900
C  13.65000 1.40800 27.93000
C  13.97800 1.45800 29.35500
C  14.87100 0.41100 29.58700
C  12.77000 2.32300 27.10500
C  13.74800 2.15500 30.65000
O  13.07600 3.11600 31.00500
C  14.56200 1.40700 31.76900
C  15.42300 2.42700 32.32500
O  16.38600 2.84200 31.72300
O  14.86700 2.92200 33.49900
C  15.56700 4.03700 34.13700
H  18.57800 -4.34600 31.45600
H  18.23200 -4.26100 24.97500
H  14.19500 0.57400 25.29000
H  17.15600 -0.28400 33.08600
H  16.88500 -3.19800 33.12500
H  19.10800 -1.32800 33.85300
H  19.67000 -2.25200 32.50100
H  19.06400 -3.07400 33.97800
H  15.20900 -2.28300 34.17400
H  14.30100 -0.93600 33.30500
H  14.65100 -0.99200 35.86500
H  14.54200 0.49500 34.96700
H  19.19700 -7.19500 29.91500
H  19.90100 -5.94700 30.94000
H  20.77100 -6.50900 29.55100
H  19.99400 -7.98800 27.55900
H  21.54700 -7.10300 27.39000
H  20.84100 -8.08900 26.06900
H  16.43700 -3.14300 23.44600
H  16.21200 -0.28000 23.53800
H  19.18300 -2.22400 23.83400
H  18.33100 -0.85200 23.23700
H  18.12800 -2.42100 22.40500
H  14.61700 -1.96000 22.42300
H  14.01900 -0.40400 23.18300
H  12.62900 -1.52100 24.44400
H  13.72500 -2.64600 25.08300
H  12.76600 -2.92300 23.50500
H  13.15100 2.66400 26.14200
H  12.53800 3.22800 27.66700
H  11.80700 1.83900 26.94900
H  13.84800 1.09500 32.53100
H  15.71900 4.01800 35.21600
H  15.10200 4.99200 33.89000
H  16.58500 3.95700 33.75500
Mg 7.24100 53.39800 41.70400
C  6.55900 49.93800 40.86800
C  10.44000 52.88500 40.27200
C  7.73000 56.61000 41.71000
C  3.86100 53.69500 42.63500
N  8.27300 51.63500 40.45000
C  7.82300 50.34200 40.38500
C  8.88600 49.53600 39.69400
C  10.18800 50.32000 39.90300
C  9.61600 51.71300 40.16200
C  11.11900 49.89000 41.08700
C  8.46000 49.46800 38.14100
C  8.76100 48.13100 37.35800
H  7.78200 47.78200 36.27300
N  8.90800 54.59800 41.15400
C  10.09400 54.20800 40.67700
C  10.98400 55.31700 40.61500
C  10.25700 56.38300 41.18100
C  8.93200 55.88100 41.41000
C  12.38100 55.25000 40.08200
C  10.67700 57.86700 41.43400
O  11.76200 58.23500 40.92000
C  9.93500 58.67700 42.32400
N  5.97300 54.88500 42.02600
C  6.39400 56.20000 41.91500
C  5.24900 57.17300 42.20200
C  4.14100 56.23300 42.78000
C  4.63000 54.83300 42.38300
C  5.52700 58.48700 43.06000
C  2.69800 56.54300 42.38300
C  2.11000 56.14500 41.06900
N  5.59600 52.08800 41.88400
C  4.26600 52.36400 42.27100
C  3.53500 51.07500 42.36900
C  4.46200 50.14500 41.84800
C  5.60400 50.75300 41.54000
C  2.11600 50.78900 42.82600
C  4.60000 48.77400 41.36300
O  3.79600 47.83200 41.39400
C  6.02100 48.54000 40.91700
C  5.99200 47.75600 39.64200
O  5.59100 48.08800 38.54100
O  6.28800 46.46500 40.01000
C  6.18700 45.38100 39.05500
H  11.49300 52.66000 40.08900
H  7.84700 57.69300 41.78500
H  2.84900 53.86100 43.01100
H  8.90300 48.49500 40.01600
H  10.74300 50.39600 38.96900
H  10.97800 50.63700 41.86700
H  12.17300 49.80800 40.82100
H  10.79200 48.94000 41.50900
H  8.92700 50.26600 37.56300
H  7.39200 49.68100 38.17700
H  8.86600 47.41400 38.17200
H  9.66800 48.29400 36.77600
H  12.96600 55.42300 40.98500
H  12.65600 55.98700 39.32700
H  12.71500 54.24100 39.84000
H  9.49100 58.12800 43.15500
H  9.15400 59.21700 41.78800
H  10.56700 59.43700 42.78200
H  4.90700 57.46800 41.21000
H  4.08300 56.21900 43.86800
H  5.30100 59.41800 42.54100
H  6.56300 58.52100 43.39600
H  4.85500 58.51300 43.91900
H  2.80400 57.62500 42.45600
H  2.02400 56.28800 43.20200
H  2.06400 56.90600 40.29000
H  1.07700 55.80300 41.14100
H  2.57500 55.28400 40.59000
H  2.04900 50.81700 43.91400
H  1.88000 49.77600 42.49800
H  1.40900 51.52300 42.43900
H  6.42700 47.89200 41.69400
H  5.61700 44.56800 39.50300
H  7.09800 45.09400 38.52900
H  5.59000 45.53000 38.15500

