158

Mg 25.50600 1.24300 29.08800
C  27.47400 0.77000 32.00700
C  22.74300 1.74800 31.05700
C  23.70700 1.13100 26.29600
C  28.40500 0.18700 27.25700
N  25.14100 1.18600 31.29700
C  26.18900 1.32700 32.20400
C  25.60800 1.54500 33.60900
C  24.03100 1.46600 33.35800
C  23.94700 1.59000 31.80600
C  23.35400 0.22900 33.84800
C  26.05800 2.86400 34.29500
C  27.09100 2.66300 35.50300
H  26.71300 3.36000 36.85400
N  23.49700 1.42500 28.74100
C  22.53000 1.70400 29.70300
C  21.27300 1.73700 29.01600
C  21.53200 1.56000 27.63400
C  23.03000 1.46200 27.47300
C  19.96000 2.04700 29.70000
C  20.50300 1.51000 26.46100
O  20.83900 1.30400 25.26200
C  19.04300 1.75100 26.69900
N  25.97300 0.66300 27.11400
C  25.02800 0.85700 26.12600
C  25.59400 0.55700 24.75000
C  27.18600 0.49400 25.03900
C  27.17400 0.37200 26.55600
C  25.05400 -0.81400 24.04500
C  28.08600 1.69200 24.37900
C  29.25600 1.28300 23.49100
N  27.51100 0.47100 29.50200
C  28.56500 0.14200 28.63400
C  29.75100 -0.08100 29.40500
C  29.32200 0.05200 30.70700
C  27.94100 0.42500 30.72300
C  31.06700 -0.53800 28.77100
C  29.75500 0.20100 32.05400
O  30.91000 0.13400 32.46200
C  28.56900 0.60800 32.95600
C  28.32800 -0.51300 33.85600
O  27.95300 -1.62300 33.57700
O  28.58000 -0.10700 35.12700
C  28.36200 -1.09000 36.16200
H  21.87500 1.83100 31.71500
H  23.16900 1.12600 25.34600
H  29.26300 -0.14500 26.66800
H  25.95600 0.65800 34.13700
H  23.47900 2.33000 33.72900
H  23.21600 -0.50700 33.05500
H  22.36800 0.44800 34.25700
H  23.95400 -0.28200 34.60100
H  25.17700 3.43400 34.58900
H  26.55600 3.52100 33.58200
H  28.04500 3.05500 35.14900
H  27.31400 1.60900 35.66900
H  19.27800 1.23900 29.43900
H  19.61000 2.98500 29.26900
H  20.02200 2.13900 30.78500
H  18.59000 1.05700 27.40800
H  18.53700 1.72200 25.73400
H  18.92900 2.78600 27.02200
H  25.36100 1.43900 24.15400
H  27.55100 -0.45900 24.65600
H  25.75500 -1.64600 24.11600
H  24.90300 -0.51800 23.00700
H  24.11100 -1.16000 24.46900
H  28.46600 2.19000 25.27100
H  27.53400 2.41600 23.78000
H  29.03400 1.87800 22.60600
H  29.18900 0.22700 23.22700
H  30.27500 1.52800 23.79000
H  31.11100 -0.76600 27.70600
H  31.56200 -1.30100 29.37100
H  31.79300 0.27100 28.85000
H  28.66100 1.55400 33.48900
H  28.41800 -0.60600 37.13600
H  29.05500 -1.92900 36.09900
H  27.40600 -1.60300 36.05600
Mg 1.51500 42.51600 26.79700
C  3.73600 42.67400 29.61000
C  -0.97400 41.59600 29.01500
C  -0.37400 41.73300 24.14200
C  4.21500 42.99600 24.65700
N  1.44100 42.15800 29.11000
C  2.44000 42.35500 30.01300
C  1.87900 42.31000 31.38300
C  0.45500 41.72300 31.21500
C  0.31900 41.92200 29.69300
C  0.37700 40.16800 31.56200
C  1.84000 43.81500 31.77500
C  1.89300 44.24900 33.28300
H  1.80000 43.05500 34.27400
N  -0.40300 41.75800 26.55700
C  -1.28200 41.46600 27.57600
C  -2.42200 40.93200 26.98700
C  -2.32900 40.89200 25.59100
C  -0.99000 41.42800 25.32300
C  -3.62200 40.50600 27.81400
C  -3.30900 40.46200 24.49000
O  -2.90900 40.38400 23.34300
C  -4.72900 40.08200 24.76900
N  1.80400 42.65300 24.77200
C  0.86900 42.28000 23.84900
C  1.31400 42.54200 22.37700
C  2.76900 43.10000 22.58700
C  2.98200 42.90500 24.06300
C  1.36700 41.21700 21.49800
C  2.76100 44.60500 22.13900
C  3.10800 44.77200 20.62300
N  3.51400 42.78100 27.07600
C  4.47500 42.99500 26.05500
C  5.77900 43.25100 26.68600
C  5.51200 43.08200 28.06600
C  4.10200 42.84500 28.27300
C  7.05700 43.62100 25.98600
C  6.15900 43.02200 29.32300
O  7.37200 42.97900 29.57400
C  5.04900 42.84300 30.39100
C  5.26300 41.66400 31.29300
O  5.39100 40.49800 30.85100
O  5.32600 42.02900 32.62700
C  5.50100 40.97500 33.68000
H  -1.80400 41.35100 29.68100
H  -1.07300 41.57000 23.31900
H  5.08700 43.09000 24.00800
H  2.48100 41.67800 32.03700
H  -0.30400 42.26900 31.77600
H  -0.50800 39.69700 31.13600
H  0.41000 40.00100 32.63900
H  1.27500 39.79100 31.07200
H  0.86100 44.18500 31.47100
H  2.48200 44.46700 31.18300
H  1.04500 44.91100 33.45700
H  2.85800 44.70400 33.50700
H  -3.88200 39.47200 27.59000
H  -4.51400 41.11500 27.67000
H  -3.45100 40.43100 28.88800
H  -4.85700 39.01300 24.94100
H  -5.25400 40.28900 23.83700
H  -5.16800 40.65900 25.58200
H  0.64200 43.27100 21.92500
H  3.51400 42.58500 21.98000
H  1.12800 40.31600 22.06200
H  2.35500 40.95100 21.12300
H  0.75800 41.21200 20.59400
H  3.54100 45.18200 22.63400
H  1.77800 45.06700 22.23600
H  3.71100 45.66400 20.45200
H  2.19800 44.76400 20.02300
H  3.64300 43.92400 20.19400
H  7.21400 44.69000 26.12800
H  7.09000 43.35300 24.93000
H  7.75300 42.98500 26.53400
H  5.01600 43.76100 30.97700
H  4.68800 40.25800 33.56200
H  5.31800 41.50900 34.61300
H  6.49100 40.51800 33.70600

