158

Mg 44.61800 4.94200 47.70900
C  42.40200 7.69800 47.33900
C  41.88500 2.99300 46.83900
C  46.70500 2.48300 47.23100
C  47.19900 7.23100 47.90100
N  42.35900 5.34200 47.03400
C  41.68900 6.51000 47.18400
C  40.18700 6.33000 47.09400
C  39.99200 4.75200 46.99000
C  41.51800 4.32300 47.04700
C  39.12600 4.11300 48.09900
C  39.49400 7.10100 45.93000
C  40.31200 7.21600 44.62200
H  39.71500 6.82200 43.25700
N  44.31300 2.94400 47.23700
C  43.13600 2.30100 46.97600
C  43.41000 0.93200 46.69200
C  44.83100 0.77500 46.72400
C  45.39000 2.08900 47.09400
C  42.45100 -0.10000 46.20800
C  45.52000 -0.57400 46.43200
O  44.84200 -1.60300 46.26500
C  47.06900 -0.77600 46.32300
N  46.66200 4.92300 47.53200
C  47.33600 3.71000 47.48600
C  48.81400 3.99500 47.55600
C  48.97700 5.50400 47.96700
C  47.50700 5.91400 47.95400
C  49.52800 3.09200 48.56400
C  49.94400 6.20900 47.05100
C  50.84000 7.12900 47.85900
N  44.80700 7.04300 47.67400
C  45.96800 7.83000 47.72900
C  45.60000 9.24300 47.75600
C  44.19400 9.22500 47.57400
C  43.75700 7.91000 47.49100
C  46.57400 10.42100 47.95000
C  43.04500 10.03800 47.47400
O  42.93100 11.23200 47.63900
C  41.80000 9.07300 47.33200
C  40.83900 9.33700 48.44700
O  40.81700 8.69500 49.52000
O  40.10900 10.40600 48.10400
C  39.23600 10.98600 49.10500
H  41.00600 2.43600 46.50900
H  47.45700 1.72400 47.00600
H  47.94100 8.02600 48.00100
H  39.64500 6.78600 47.92300
H  39.56400 4.44100 46.03700
H  38.39700 4.83900 48.45900
H  39.71200 3.72000 48.93000
H  38.51200 3.36800 47.59300
H  39.30600 8.12800 46.24500
H  38.59100 6.52200 45.73900
H  41.14000 6.51900 44.75000
H  40.53600 8.27300 44.47800
H  41.46100 0.34700 46.12000
H  42.31700 -0.86200 46.97600
H  42.79500 -0.66400 45.34100
H  47.73300 -0.36500 47.08300
H  47.38500 -0.33500 45.37800
H  47.28100 -1.84300 46.39600
H  49.14600 3.62500 46.58600
H  49.28200 5.63900 49.00400
H  50.28900 3.67700 49.08000
H  50.16500 2.42400 47.98400
H  48.92800 2.61800 49.34100
H  49.36700 6.76500 46.31200
H  50.51000 5.42600 46.54600
H  50.96400 6.86300 48.90900
H  50.44200 8.14400 47.85100
H  51.75600 7.17300 47.27000
H  47.49600 10.10700 48.44000
H  46.07600 11.20600 48.51900
H  46.78400 10.79800 46.94900
H  41.41100 9.32400 46.34500
H  39.87500 11.72800 49.58300
H  38.84700 10.38600 49.92800
H  38.39300 11.49300 48.63600
Mg 47.03400 24.99800 28.47200
C  48.02700 27.35700 30.82100
C  46.56900 22.71600 31.07600
C  46.15000 22.61100 26.16100
C  48.37500 27.02200 25.96500
N  47.28200 25.10600 30.69900
C  47.48700 26.22900 31.39300
C  47.40900 25.98800 32.90800
C  47.18100 24.41800 32.94300
C  46.94700 24.00400 31.47900
C  48.25200 23.63900 33.71000
C  46.22400 26.75200 33.56900
C  45.56800 26.25800 34.84800
H  45.34100 27.17800 36.03600
N  46.32500 23.00000 28.61500
C  46.15600 22.21400 29.80700
C  45.68500 20.89900 29.48300
C  45.55600 20.83800 28.04200
C  45.97200 22.17600 27.56400
C  45.62800 19.67600 30.48100
C  45.18800 19.60000 27.14600
O  45.26200 19.74600 25.97100
C  44.78200 18.29500 27.72900
N  47.29500 24.84500 26.41000
C  46.74600 23.77800 25.68700
C  46.90200 24.07400 24.19700
C  47.29600 25.55000 24.15900
C  47.73700 25.82100 25.62300
C  47.75900 23.02400 23.53300
C  46.29300 26.65400 23.58400
C  46.77400 27.50900 22.38700
N  47.96300 26.76500 28.33100
C  48.54900 27.44900 27.27200
C  49.13000 28.66600 27.72100
C  48.93000 28.65300 29.07700
C  48.21000 27.53400 29.42400
C  49.77900 29.68500 26.94000
C  49.17500 29.38600 30.21700
O  49.75800 30.39300 30.37700
C  48.48800 28.62400 31.43600
C  49.48900 28.40200 32.52200
O  50.52000 27.77200 32.42800
O  49.18900 29.24800 33.59300
C  50.11800 29.21900 34.75900
H  46.46600 21.98900 31.88500
H  45.84500 21.97500 25.32700
H  48.60800 27.73900 25.17500
H  48.36100 26.17600 33.40600
H  46.26000 24.22100 33.49300
H  49.15100 24.25500 33.73300
H  48.49000 22.75600 33.11800
H  47.97900 23.31300 34.71400
H  45.40900 26.87500 32.85600
H  46.43500 27.81000 33.72800
H  46.16500 25.44900 35.26800
H  44.61300 25.77700 34.63300
H  44.67400 19.15200 30.55200
H  46.00500 20.03000 31.44000
H  46.34600 19.01900 29.99000
H  43.93000 18.38600 28.40300
H  45.62500 17.89000 28.28900
H  44.62900 17.54500 26.95300
H  45.92100 24.01100 23.72700
H  48.19100 25.78100 23.58200
H  48.57000 23.55700 23.03600
H  47.21800 22.42900 22.79800
H  48.16700 22.34100 24.27800
H  45.93200 27.35200 24.34000
H  45.47000 26.10900 23.12100
H  46.08400 27.34500 21.55900
H  47.76000 27.21300 22.02700
H  46.68700 28.53100 22.75500
H  50.50600 29.30400 26.22300
H  50.22900 30.46900 27.54800
H  49.03800 30.22700 26.35100
H  47.64400 29.15500 31.87700
H  49.78400 28.58100 35.57700
H  50.01000 30.18300 35.25400
H  51.14400 29.06800 34.42100

