158

Mg 25.86900 1.44100 29.10000
C  27.73300 1.03500 31.99800
C  23.00900 1.27900 31.09900
C  24.05500 1.60300 26.31400
C  28.73500 0.50000 27.19700
N  25.48800 1.16000 31.34500
C  26.37800 1.23100 32.34500
C  25.68300 1.31500 33.73300
C  24.17200 1.52200 33.38200
C  24.20400 1.22400 31.85000
C  23.30300 0.74000 34.37900
C  26.32500 2.46100 34.54000
C  25.49500 2.97400 35.76200
H  25.87400 2.63800 37.20900
N  23.83500 1.57200 28.78600
C  22.76700 1.39400 29.71200
C  21.57500 1.60700 29.05800
C  21.81000 1.75100 27.61100
C  23.27100 1.62300 27.48600
C  20.26300 1.65300 29.75600
C  20.86900 1.93800 26.50200
O  21.21600 1.80800 25.33700
C  19.40000 2.13300 26.77800
N  26.33800 0.95200 27.01200
C  25.44800 1.36100 26.02600
C  26.11700 1.49100 24.65800
C  27.56000 1.11500 24.99200
C  27.58900 0.80300 26.47500
C  25.49000 0.76900 23.43700
C  28.56800 2.20700 24.64800
C  30.03200 1.77100 24.20300
N  27.81100 1.01800 29.41000
C  28.83200 0.58800 28.58200
C  30.02700 0.42100 29.34200
C  29.67700 0.68800 30.60700
C  28.29600 0.93200 30.64600
C  31.34000 -0.05500 28.81500
C  30.20400 0.79100 31.95400
O  31.36900 0.62200 32.32000
C  28.97700 0.96400 32.89000
C  28.87000 -0.24600 33.81400
O  28.71900 -1.40800 33.46000
O  28.89900 0.19800 35.11300
C  28.45700 -0.81300 36.11300
H  22.16600 1.42300 31.77900
H  23.46600 1.79300 25.41500
H  29.62500 0.40600 26.57000
H  25.90700 0.40500 34.29000
H  23.74300 2.51300 33.53500
H  22.70000 0.05800 33.78000
H  22.71000 1.47400 34.92400
H  23.91900 0.02500 34.92500
H  26.50700 3.35700 33.94600
H  27.28900 2.21800 34.98700
H  24.46400 2.63200 35.67100
H  25.55800 4.05800 35.66100
H  19.77200 2.61700 29.62600
H  20.38700 1.63500 30.83800
H  19.64100 0.82200 29.42100
H  18.91800 1.21700 27.11800
H  18.91400 2.21500 25.80600
H  19.20200 2.95500 27.46600
H  26.05400 2.51900 24.29900
H  27.79400 0.19300 24.46100
H  24.74800 0.00100 23.65700
H  26.27800 0.41100 22.77400
H  24.79000 1.37000 22.85700
H  28.84100 2.85200 25.48300
H  28.22600 2.81700 23.81200
H  30.35100 2.43400 23.39900
H  29.89600 0.74100 23.87300
H  30.71500 1.83400 25.05100
H  31.93700 -0.40000 29.65900
H  31.85200 0.73200 28.26100
H  31.27300 -0.93400 28.17400
H  29.07400 1.82100 33.55700
H  28.97900 -1.76700 36.03900
H  27.38400 -1.00700 36.11000
H  28.80500 -0.36500 37.04400
Mg 41.11800 40.96300 26.59300
C  40.38900 43.25200 29.10900
C  42.48900 38.83000 28.83400
C  42.24400 39.05800 24.02700
C  40.86900 43.68100 24.30200
N  41.38900 41.02300 28.75400
C  40.87400 41.97500 29.60900
C  40.96400 41.54300 31.06700
C  41.67300 40.20100 31.01800
C  41.91400 39.98700 29.45900
C  42.97100 40.11700 31.87000
C  39.67600 41.61100 31.99700
C  39.86300 42.23500 33.42300
H  39.11600 41.68300 34.64800
N  42.16200 39.12000 26.47200
C  42.63300 38.45500 27.52200
C  43.33100 37.24500 26.95800
C  43.19800 37.31100 25.57500
C  42.49500 38.55600 25.29900
C  43.86800 36.18900 27.81300
C  43.67100 36.27500 24.47300
O  43.49600 36.46500 23.29200
C  44.40700 35.03100 24.92000
N  41.47900 41.31000 24.48500
C  41.98200 40.35900 23.69200
C  41.99500 40.83900 22.25000
C  41.16300 42.13300 22.28200
C  41.15600 42.42400 23.76000
C  43.42500 41.09100 21.69700
C  39.78800 41.90500 21.56600
C  38.73400 40.91300 22.00400
N  40.48100 42.95300 26.61800
C  40.55200 43.92700 25.64900
C  40.06700 45.21500 26.15100
C  39.96500 45.01600 27.51500
C  40.29000 43.63900 27.74600
C  39.85300 46.53400 25.34500
C  39.54100 45.62400 28.79500
O  39.15800 46.72900 29.11400
C  39.88700 44.44400 29.90000
C  40.93900 45.07200 30.78000
O  42.07400 45.38100 30.39000
O  40.58700 45.28000 32.10300
C  41.55800 45.73200 33.04600
H  42.95600 38.21700 29.60700
H  42.43800 38.44700 23.14300
H  40.71200 44.61700 23.76200
H  41.66100 42.31800 31.38400
H  40.96300 39.46600 31.39600
H  42.74300 39.24300 32.48000
H  43.29800 40.90500 32.54800
H  43.78900 39.84600 31.20300
H  39.04800 40.72100 32.04400
H  38.98200 42.21200 31.40900
H  39.41500 43.21300 33.25000
H  40.88900 42.48900 33.68800
H  43.27200 35.32000 27.53400
H  43.78100 36.26900 28.89700
H  44.84900 35.85000 27.48100
H  45.31100 35.29400 25.47000
H  44.52200 34.39900 24.03900
H  43.69900 34.60200 25.62900
H  41.52200 40.09000 21.61600
H  41.70400 42.98200 21.86500
H  44.14300 40.73400 22.43600
H  43.55800 42.09800 21.30400
H  43.55300 40.39100 20.87100
H  40.06500 41.66300 20.54000
H  39.39200 42.91800 21.49600
H  37.82300 41.46700 22.23300
H  39.05500 40.31100 22.85400
H  38.63000 40.26700 21.13200
H  39.37500 47.30100 25.95400
H  39.25100 46.34400 24.45600
H  40.78400 46.99700 25.01900
H  39.00900 44.26700 30.52100
H  42.33700 46.32300 32.56500
H  41.80300 44.86300 33.65800
H  41.11100 46.44500 33.73800

