158

Mg 16.80400 -2.02200 27.86200
C  15.81100 0.10700 30.37300
C  18.49500 -3.94700 30.04700
C  18.24200 -3.69700 25.24000
C  15.52600 0.30000 25.48600
N  17.23500 -1.80800 29.87000
C  16.58600 -0.93800 30.77900
C  16.94200 -1.36000 32.24200
C  17.93200 -2.50700 32.14500
C  17.93900 -2.77600 30.55700
C  19.42200 -2.16200 32.55900
C  15.72600 -1.49400 33.21500
C  15.83800 -0.60900 34.49800
H  17.29400 -0.25400 35.07600
N  18.13100 -3.71100 27.68300
C  18.57800 -4.43800 28.73400
C  19.24000 -5.62700 28.23600
C  19.07200 -5.56800 26.83100
C  18.53500 -4.23300 26.54600
C  19.75000 -6.72000 29.21500
C  19.42700 -6.57500 25.85200
O  19.32100 -6.43700 24.62800
C  19.97100 -7.83700 26.33600
N  16.81200 -1.81200 25.65600
C  17.61000 -2.52800 24.88200
C  17.47300 -2.05300 23.42400
C  16.35300 -0.94900 23.48900
C  16.22500 -0.76200 24.93300
C  18.72900 -1.57200 22.69500
C  15.00900 -1.30400 22.89300
C  14.37100 -0.42300 21.88500
N  15.78900 -0.24100 27.88800
C  15.28800 0.50400 26.85900
C  14.49600 1.66100 27.41700
C  14.79300 1.57700 28.81400
C  15.46900 0.34300 29.06100
C  13.70300 2.64800 26.71100
C  14.55000 2.21400 30.03200
O  14.09100 3.32500 30.28800
C  15.08600 1.30600 31.17400
C  15.97300 2.11100 31.96600
O  17.16900 2.37600 31.67900
O  15.34600 2.52600 33.12500
C  16.08900 3.35300 34.09500
H  18.79700 -4.70000 30.77900
H  18.51900 -4.18900 24.30500
H  15.08700 1.05700 24.83200
H  17.53100 -0.56600 32.70200
H  17.56500 -3.35900 32.71700
H  19.85700 -3.09900 32.90700
H  19.37800 -1.55800 33.46600
H  19.92100 -1.68600 31.71500
H  15.73100 -2.55200 33.47500
H  14.83700 -1.16500 32.67700
H  15.24900 -1.13900 35.24600
H  15.23900 0.29600 34.39100
H  20.57800 -7.30000 28.80800
H  18.90300 -7.28900 29.59700
H  20.18300 -6.21900 30.08000
H  20.09500 -8.35600 25.38500
H  19.25500 -8.36100 26.97000
H  20.98700 -7.65400 26.68700
H  17.00000 -2.86500 22.87200
H  16.76200 -0.06500 23.00100
H  18.69600 -0.51200 22.44500
H  18.76900 -2.14900 21.77100
H  19.63500 -1.91100 23.19800
H  14.29800 -1.29800 23.71900
H  15.03800 -2.36900 22.66500
H  13.61800 0.21300 22.35100
H  13.84100 -1.06700 21.18400
H  14.93400 0.28600 21.27700
H  14.39500 2.85500 25.89400
H  13.50400 3.54300 27.30100
H  12.78900 2.30100 26.23100
H  14.22400 1.02300 31.77800
H  15.65200 4.35100 34.11800
H  17.14400 3.40300 33.82500
H  16.06900 2.87600 35.07500
Mg 35.68000 49.45000 25.18600
C  35.66800 48.06800 28.32800
C  34.70600 52.53500 26.68000
C  35.15700 50.75500 22.19400
C  35.84600 46.27700 23.81900
N  35.09400 50.16800 27.28900
C  35.32500 49.39800 28.40400
C  35.24300 50.27200 29.65100
C  34.73200 51.65000 29.12100
C  34.86000 51.46700 27.59400
C  33.37700 52.22200 29.67600
C  36.63300 50.33000 30.39100
C  36.64700 50.01100 31.90100
H  35.52600 50.52700 32.82800
N  35.30500 51.46700 24.51100
C  34.93000 52.56900 25.29600
C  34.70000 53.73600 24.45200
C  34.75700 53.20100 23.07700
C  35.13800 51.75800 23.16100
C  34.44000 55.23900 24.94000
C  34.39500 53.86900 21.79300
O  34.45800 53.31900 20.66600
C  33.85300 55.17100 21.76400
N  35.45400 48.56600 23.19400
C  35.40500 49.34600 22.15200
C  35.53200 48.58100 20.81600
C  35.91900 47.17600 21.40700
C  35.75500 47.30300 22.87500
C  34.20200 48.58400 20.00000
C  37.33400 46.71900 20.95500
C  38.52100 47.26200 21.69700
N  35.66000 47.54700 25.87800
C  35.82700 46.34700 25.19200
C  36.09100 45.31900 26.17700
C  35.95400 45.90000 27.42800
C  35.72900 47.25000 27.18500
C  36.48700 43.89300 25.83500
C  36.10700 45.64900 28.76800
O  36.28300 44.55300 29.39500
C  35.98900 47.09100 29.45300
C  34.76500 46.88300 30.30400
O  33.57600 47.04800 29.92400
O  35.14500 46.32900 31.53700
C  34.01400 45.79800 32.35800
H  34.40300 53.53400 27.00000
H  34.96400 51.14000 21.19100
H  36.10200 45.35900 23.28700
H  34.50200 49.82800 30.31600
H  35.46100 52.43000 29.34200
H  32.56100 51.65400 29.23000
H  33.38200 53.26500 29.35800
H  33.33900 52.06200 30.75400
H  36.99700 51.35500 30.31600
H  37.36300 49.59400 30.05300
H  37.62400 50.36100 32.23500
H  36.41300 48.95200 32.00800
H  34.95800 55.41400 25.88300
H  33.36700 55.37600 25.07200
H  34.93400 55.94500 24.27300
H  33.38500 55.17800 20.78000
H  34.59700 55.95900 21.88300
H  33.01700 55.29300 22.45300
H  36.47500 48.93300 20.39800
H  35.33300 46.28100 21.20200
H  33.39900 49.00200 20.60900
H  33.90000 47.57700 19.71400
H  34.17200 49.32000 19.19700
H  37.53700 46.90300 19.90000
H  37.40100 45.63200 20.99500
H  39.22400 47.79600 21.05800
H  38.98300 46.35800 22.09200
H  38.20500 47.83900 22.56700
H  35.63200 43.22500 25.94800
H  37.40100 43.59500 26.34900
H  36.81000 43.70000 24.81200
H  36.81200 47.32400 30.12800
H  33.30200 46.58200 32.61400
H  34.34600 45.13300 33.15500
H  33.49100 45.15800 31.64800

