158

Mg 25.45400 1.47600 29.14300
C  27.37800 1.03700 32.14600
C  22.64500 2.03700 31.07600
C  23.73100 1.83600 26.32700
C  28.26000 0.61800 27.25900
N  25.05500 1.50000 31.37800
C  26.04600 1.39600 32.38900
C  25.33300 1.68300 33.72800
C  23.87300 1.80700 33.31400
C  23.88600 1.83900 31.79500
C  22.74200 0.92700 34.03700
C  25.89500 2.88100 34.53700
C  26.58800 2.65700 35.86600
H  26.39500 3.73800 37.00200
N  23.47900 1.90600 28.75200
C  22.48000 1.96500 29.65800
C  21.24300 2.13500 29.03000
C  21.49100 1.92100 27.59300
C  22.93700 1.86000 27.49800
C  19.95500 2.39800 29.81300
C  20.47900 1.74800 26.46400
O  20.87800 1.63500 25.33000
C  19.00800 1.75200 26.70900
N  26.02100 1.42000 27.02500
C  25.11400 1.66000 26.08100
C  25.79000 1.59800 24.66800
C  27.23200 0.99400 24.95300
C  27.19200 0.99600 26.50600
C  25.16500 0.66000 23.59300
C  28.45100 1.68400 24.36200
C  28.58900 3.22800 24.64800
N  27.41500 0.89100 29.53200
C  28.43900 0.58300 28.66800
C  29.62400 0.33900 29.48700
C  29.28400 0.57400 30.80600
C  27.87500 0.85000 30.79200
C  30.89800 -0.23000 28.87100
C  29.81300 0.68700 32.14500
O  30.92900 0.40900 32.58500
C  28.58500 1.06300 32.98200
C  28.40300 0.03400 34.09400
O  27.57800 -0.86900 34.19200
O  29.23000 0.46900 35.13000
C  29.23800 -0.41200 36.33600
H  21.78900 2.30600 31.69800
H  23.09700 2.04100 25.46200
H  29.06400 0.35900 26.56600
H  25.47800 0.78400 34.32700
H  23.52800 2.80500 33.58500
H  22.24100 0.24800 33.34800
H  22.02500 1.53700 34.58500
H  23.27500 0.26100 34.71500
H  25.10300 3.59300 34.77000
H  26.60300 3.35600 33.85800
H  27.65100 2.46500 35.72600
H  26.16000 1.70200 36.17100
H  20.02200 3.44600 30.10500
H  19.81700 1.77800 30.69900
H  19.02700 2.33600 29.24500
H  18.51200 2.69500 26.93700
H  18.73200 0.97000 27.41700
H  18.55500 1.45500 25.76300
H  25.75800 2.63500 24.33400
H  27.37100 -0.04600 24.65700
H  24.80900 1.31300 22.79600
H  24.37000 0.14100 24.12800
H  25.84700 -0.00400 23.06200
H  28.25500 1.65000 23.29100
H  29.39000 1.14100 24.46600
H  28.30200 3.57200 25.64200
H  27.86600 3.76000 24.03100
H  29.60100 3.62500 24.57400
H  30.68000 -0.91100 28.04800
H  31.40900 -0.64800 29.73800
H  31.55800 0.57100 28.53800
H  28.70200 2.04800 33.43400
H  29.10200 -1.44500 36.01600
H  28.67100 -0.15200 37.23000
H  30.25700 -0.40900 36.72300
Mg 0.14000 43.03300 26.46200
C  2.87000 42.89700 28.75700
C  -1.94200 42.64000 29.01300
C  -2.23200 42.94300 24.07200
C  2.55900 43.23100 23.87100
N  0.43400 42.80200 28.55400
C  1.62500 42.81300 29.27300
C  1.27000 42.73200 30.79400
C  -0.18200 42.19200 30.85000
C  -0.60500 42.51300 29.41000
C  -0.34700 40.62700 31.18600
C  1.45500 44.20400 31.48100
C  2.17400 44.13700 32.82800
H  1.71100 43.00900 33.78600
N  -1.80100 42.86400 26.56300
C  -2.52900 42.77900 27.71800
C  -3.91100 42.74500 27.34000
C  -4.06200 42.84600 25.91200
C  -2.68700 42.84300 25.45100
C  -5.02900 42.59800 28.33400
C  -5.30700 43.02200 25.01000
O  -5.32900 43.15000 23.73500
C  -6.62400 43.13200 25.70500
N  0.15200 43.08300 24.23100
C  -0.96100 42.98600 23.46900
C  -0.64700 42.86100 21.93400
C  0.91800 43.18600 21.94700
C  1.23800 43.27900 23.43700
C  -1.01800 41.48400 21.26100
C  1.40800 44.28000 21.05700
C  1.07800 45.67000 21.53700
N  2.28500 43.13500 26.28500
C  3.13500 43.20100 25.14000
C  4.50000 43.31900 25.58900
C  4.46800 43.07700 27.00100
C  3.08900 43.02200 27.35800
C  5.72600 43.33100 24.75600
C  5.24000 42.90500 28.16500
O  6.47900 42.83700 28.22000
C  4.28100 42.85100 29.39700
C  4.67200 41.67900 30.19300
O  4.34000 40.50800 29.92600
O  5.31500 42.03300 31.34600
C  5.66500 40.97300 32.27400
H  -2.58500 42.58300 29.89400
H  -3.03100 43.13200 23.35200
H  3.30700 43.07700 23.09100
H  1.95900 42.07900 31.33100
H  -0.68000 42.77800 31.62300
H  -0.72300 40.39400 32.18200
H  0.61500 40.11300 31.19700
H  -0.88900 40.08500 30.41100
H  0.54100 44.76800 31.66700
H  1.93100 44.86300 30.75500
H  2.13600 45.12100 33.29600
H  3.21000 43.93800 32.55400
H  -5.64100 41.75500 28.01300
H  -5.60700 43.52200 28.32600
H  -4.55800 42.43900 29.30500
H  -7.37300 43.47300 24.99100
H  -6.63400 43.97800 26.39200
H  -6.91300 42.28900 26.33400
H  -1.11300 43.66300 21.36100
H  1.40800 42.29700 21.54900
H  -0.28500 40.67800 21.21700
H  -1.41700 41.85600 20.31700
H  -1.84400 41.11300 21.86700
H  1.06500 44.16200 20.03000
H  2.49600 44.20900 21.07700
H  0.95700 46.28100 20.64200
H  1.85300 46.07700 22.18600
H  0.27200 45.60800 22.26800
H  5.47700 42.89600 23.78800
H  6.43700 42.65600 25.23300
H  6.19800 44.30000 24.59800
H  4.45200 43.72400 30.02700
H  6.18300 40.12100 31.83200
H  4.70200 40.68100 32.69200
H  6.19400 41.27000 33.18000

