158

Mg 46.78200 17.10400 29.05100
C  45.23500 16.40900 32.11500
C  49.07000 18.95900 30.61000
C  47.90600 17.87300 26.05500
C  43.82200 15.65600 27.49800
N  46.99700 17.73800 31.12000
C  46.33600 17.29900 32.24500
C  47.06700 17.66900 33.47100
C  48.32100 18.48500 32.98400
C  48.14000 18.37100 31.47400
C  48.35300 19.98700 33.33800
C  47.54400 16.49500 34.40200
C  46.85200 16.52500 35.83700
H  46.99800 17.73900 36.70500
N  48.35400 18.21400 28.36100
C  49.16500 18.89100 29.19700
C  50.14400 19.57900 28.37800
C  49.88800 19.27900 26.95300
C  48.69400 18.42900 27.04800
C  51.34100 20.46000 28.83700
C  50.73700 19.60200 25.69600
O  50.36900 19.07300 24.63800
C  51.88200 20.67000 25.71500
N  46.09700 16.52200 27.06400
C  46.76700 17.08800 26.02400
C  46.07100 16.80800 24.59100
C  44.74500 16.15700 25.08800
C  44.89500 16.17100 26.70900
C  45.94400 18.05800 23.60900
C  44.50800 14.71400 24.53400
C  45.32500 13.56400 25.32200
N  44.95700 16.14900 29.59900
C  43.88300 15.64100 28.84300
C  42.87900 15.23700 29.78900
C  43.42300 15.39200 31.04800
C  44.64200 15.99100 30.86400
C  41.51700 14.74900 29.50900
C  43.09000 15.21200 32.39800
O  42.02400 14.82400 32.91300
C  44.23100 15.94500 33.20600
C  43.62700 17.10300 33.93700
O  43.50300 18.20500 33.47700
O  43.23700 16.64200 35.15100
C  42.54300 17.51700 35.97500
H  49.83900 19.57400 31.08100
H  48.38300 18.02300 25.08400
H  42.86100 15.43200 27.03100
H  46.46900 18.38700 34.03200
H  49.26800 17.97800 33.16800
H  49.38300 20.28300 33.53400
H  47.66300 20.23500 34.14400
H  48.07900 20.58100 32.46600
H  48.62500 16.55300 34.53500
H  47.31000 15.60100 33.82300
H  47.44000 15.77300 36.36200
H  45.80500 16.22300 35.82700
H  52.26700 20.07600 28.41000
H  51.35800 20.21100 29.89800
H  51.10800 21.50600 28.63900
H  51.62900 21.52100 26.34700
H  51.74800 20.91400 24.66100
H  52.87600 20.33000 26.00500
H  46.71400 16.14200 24.01600
H  43.86500 16.74800 24.83700
H  46.14000 17.82200 22.56300
H  46.70700 18.79900 23.84300
H  44.93200 18.44900 23.71700
H  44.74100 14.72000 23.46900
H  43.44200 14.54000 24.67900
H  46.11900 13.16700 24.69000
H  44.65700 12.77800 25.67600
H  45.87300 13.89700 26.20300
H  40.99900 15.42800 28.83100
H  41.16200 14.56600 30.52300
H  41.52200 13.77100 29.02800
H  44.66900 15.14200 33.80000
H  41.53000 17.69000 35.61200
H  43.07600 18.46800 35.99300
H  42.62700 17.09900 36.97800
Mg -5.94100 24.92000 25.84500
C  -4.67700 26.14700 28.97600
C  -8.15300 22.94300 27.80500
C  -7.04400 23.48500 23.10400
C  -3.36500 26.56600 24.16300
N  -6.20600 24.56000 28.17000
C  -5.66400 25.20300 29.23500
C  -6.31600 24.88500 30.56100
C  -7.37000 23.76300 30.10400
C  -7.23500 23.73500 28.57700
C  -7.32800 22.28800 30.80600
C  -6.99000 26.10700 31.35100
C  -6.57900 26.37600 32.83800
H  -6.01600 25.15500 33.68700
N  -7.33000 23.43900 25.51300
C  -8.18200 22.84700 26.43400
C  -9.11000 21.94300 25.73100
C  -8.66800 21.93300 24.35900
C  -7.67400 23.00700 24.27900
C  -10.09500 21.11200 26.46300
C  -9.22000 20.97900 23.23200
O  -8.76800 21.09500 22.10100
C  -10.24200 19.89300 23.46100
N  -5.24100 25.02900 23.94200
C  -5.94200 24.35400 22.94800
C  -5.29500 24.64300 21.59500
C  -4.09100 25.46200 21.97000
C  -4.17900 25.72500 23.43500
C  -4.88900 23.31700 20.86300
C  -4.01300 26.85300 21.19600
C  -2.64300 27.29900 20.77300
N  -4.43800 26.31900 26.38700
C  -3.42400 26.83000 25.58900
C  -2.60100 27.67800 26.35000
C  -3.06800 27.50500 27.70900
C  -4.15200 26.57500 27.70500
C  -1.45900 28.62900 26.00800
C  -2.82400 27.93600 29.01500
O  -1.98000 28.73900 29.39600
C  -3.82200 26.98800 29.96900
C  -2.84100 26.18100 30.70600
O  -2.35500 25.08100 30.30900
O  -2.60900 26.82000 31.91000
C  -1.45100 26.27700 32.64700
H  -8.91800 22.50000 28.44600
H  -7.40300 22.96300 22.21400
H  -2.51000 26.99100 23.63300
H  -5.50000 24.45500 31.14200
H  -8.36300 24.13400 30.35800
H  -6.38900 22.15400 31.34400
H  -7.20800 21.54400 30.01900
H  -8.18800 22.14800 31.46100
H  -8.07800 26.06000 31.30700
H  -6.66600 27.04600 30.90200
H  -7.51000 26.68500 33.31300
H  -5.86400 27.19600 32.89000
H  -11.07900 21.17700 26.00000
H  -10.30000 21.38700 27.49800
H  -9.74000 20.08300 26.39800
H  -10.18600 19.11700 22.69700
H  -11.27400 20.23100 23.55100
H  -9.98600 19.42100 24.41000
H  -5.93700 25.20200 20.91300
H  -3.16100 24.91000 21.83800
H  -3.84000 23.41700 20.58200
H  -5.49200 23.07600 19.98800
H  -4.94800 22.48000 21.55900
H  -4.50800 27.61500 21.79900
H  -4.71800 26.83500 20.36500
H  -2.50300 28.24700 21.29300
H  -2.54900 27.39700 19.69200
H  -1.92400 26.60900 21.21500
H  -1.84000 29.38700 25.32500
H  -0.59700 28.09000 25.61400
H  -1.10500 29.14300 26.90200
H  -4.39600 27.62900 30.63800
H  -1.15600 26.93100 33.46700
H  -0.59400 26.13600 31.98900
H  -1.65200 25.27600 33.02800

