158

Mg 25.98300 0.98900 29.39800
C  27.94400 0.45900 32.30100
C  23.24700 1.51600 31.48100
C  23.98600 1.27900 26.63500
C  28.62200 0.05800 27.50800
N  25.61200 0.93200 31.60900
C  26.60000 0.74100 32.57600
C  25.96800 0.88600 33.94500
C  24.43300 1.01600 33.69700
C  24.38700 1.14500 32.20200
C  23.59400 -0.16500 34.20900
C  26.63400 2.03400 34.73000
C  27.30000 1.59300 36.03300
H  26.93600 2.28500 37.39200
N  23.94300 1.44100 29.06700
C  22.99000 1.64100 30.11700
C  21.73600 1.85100 29.48600
C  21.92400 1.67600 28.09400
C  23.30700 1.45100 27.87400
C  20.37300 1.86100 30.24800
C  20.88500 1.59600 26.99900
O  21.09600 1.28100 25.83900
C  19.49200 2.02900 27.25500
N  26.31300 0.68200 27.34200
C  25.35600 0.97900 26.38500
C  25.91100 0.58200 24.97600
C  27.44700 0.35400 25.22500
C  27.48400 0.31300 26.77500
C  25.11400 -0.54700 24.22500
C  28.33900 1.46900 24.58700
C  28.91700 2.56900 25.50900
N  27.98800 0.48100 29.76300
C  28.91700 0.10300 28.88600
C  30.06400 -0.37200 29.64300
C  29.80500 -0.14500 30.96600
C  28.49900 0.27000 30.99500
C  31.35300 -0.99500 29.13900
C  30.28100 -0.27800 32.31100
O  31.34500 -0.67000 32.71700
C  29.06700 0.12700 33.24700
C  28.72100 -0.96300 34.08400
O  27.99000 -1.87700 33.77400
O  29.48100 -0.96400 35.22400
C  29.18900 -2.05300 36.21600
H  22.36600 1.71900 32.09400
H  23.47500 1.69900 25.76600
H  29.46400 -0.15600 26.84600
H  26.15200 -0.05000 34.47100
H  24.02600 1.93600 34.11700
H  24.14900 -0.97300 34.68600
H  23.00500 -0.59600 33.39900
H  22.84800 0.23500 34.89500
H  25.97300 2.78000 35.17100
H  27.30900 2.58600 34.07500
H  28.33900 1.89900 35.90800
H  27.21100 0.50700 36.03100
H  19.79800 1.02400 29.85200
H  19.96700 2.84200 30.00100
H  20.39100 1.74500 31.33200
H  19.09500 1.19900 27.84000
H  19.02400 2.12900 26.27500
H  19.55300 3.02200 27.70000
H  25.79900 1.49400 24.39000
H  27.85300 -0.52600 24.72700
H  25.92200 -1.18300 23.86500
H  24.54200 -0.19300 23.36700
H  24.58900 -1.10300 25.00200
H  27.69700 1.99100 23.87800
H  29.10700 1.04500 23.93900
H  28.40900 2.70700 26.46400
H  28.71100 3.52100 25.02000
H  29.96500 2.27300 25.55500
H  31.99200 -1.23900 29.98800
H  31.98900 -0.30700 28.58300
H  31.25400 -1.98500 28.69400
H  29.33500 1.02400 33.80500
H  29.00600 -3.00800 35.72300
H  28.35600 -1.71400 36.83100
H  30.16300 -2.14700 36.69500
Mg 40.15200 8.90300 29.04600
C  42.05900 9.90500 31.79100
C  38.29900 6.89700 31.20400
C  38.18200 8.00600 26.40200
C  42.49800 10.30900 26.89500
N  40.23600 8.37800 31.33300
C  40.91700 9.14400 32.22900
C  40.47200 8.85400 33.66000
C  39.42100 7.61400 33.41400
C  39.27200 7.59900 31.89100
C  39.92600 6.19700 34.06500
C  39.83200 10.03800 34.37800
C  39.31000 9.80900 35.82100
H  39.79300 10.82400 36.81000
N  38.36400 7.76600 28.84100
C  37.82500 7.01700 29.83800
C  36.60800 6.33600 29.30700
C  36.65700 6.64500 27.88100
C  37.73700 7.56300 27.65300
C  35.67000 5.48700 30.11600
C  35.80200 5.99000 26.79300
O  35.93600 6.18600 25.58800
C  34.93600 4.86600 27.20000
N  40.28000 9.00600 26.97000
C  39.36900 8.67100 26.10000
C  39.68600 9.14000 24.68300
C  40.95900 10.04700 24.83200
C  41.25900 9.80800 26.29700
C  39.67600 7.94600 23.57600
C  40.85400 11.58200 24.48200
C  39.59400 12.32700 24.83600
N  41.99700 9.70300 29.22500
C  42.83700 10.20100 28.22200
C  43.98900 10.79100 28.85800
C  43.64800 10.79600 30.23400
C  42.49300 10.10400 30.44400
C  45.23300 11.40500 28.26900
C  44.15400 11.23800 31.51500
O  45.15700 11.83900 31.81500
C  43.08500 10.70700 32.54300
C  43.72700 9.92200 33.60400
O  44.18700 8.81000 33.42800
O  43.62100 10.51000 34.84600
C  44.14700 9.77100 36.01500
H  37.57600 6.32300 31.78800
H  37.60700 7.72900 25.51500
H  43.15100 10.96800 26.31800
H  41.35300 8.50900 34.20200
H  38.42300 7.86700 33.77100
H  40.76900 6.30700 34.74700
H  40.06700 5.45100 33.28300
H  39.11500 5.87100 34.71600
H  38.93900 10.28900 33.80600
H  40.57600 10.83400 34.36300
H  39.66500 8.82500 36.12900
H  38.22700 9.73700 35.72200
H  34.63200 5.80600 30.02900
H  35.89100 5.71400 31.15900
H  35.97000 4.46200 29.89900
H  35.65300 4.15500 27.61100
H  34.54800 4.40000 26.29400
H  34.12700 5.11400 27.88600
H  38.92600 9.88100 24.43600
H  41.74300 9.74100 24.14000
H  38.82000 8.00100 22.90300
H  39.74000 6.92200 23.94500
H  40.52700 8.23200 22.95800
H  41.13600 11.69500 23.43500
H  41.59500 12.22900 24.95000
H  39.04000 12.67300 23.96200
H  39.81300 13.27900 25.32000
H  38.94900 11.69200 25.44400
H  46.08100 11.46300 28.95100
H  44.96500 12.38500 27.87400
H  45.48600 10.88100 27.34800
H  42.68900 11.58100 33.05900
H  44.92900 10.42700 36.39800
H  44.55000 8.77700 35.81900
H  43.50600 9.77400 36.89600

