158

Mg 35.66200 2.86900 29.30800
C  33.50900 3.81600 31.94000
C  38.37100 3.06400 31.47400
C  37.72300 2.22100 26.64500
C  32.96500 3.42600 26.98900
N  35.91400 3.50000 31.34200
C  34.90100 3.65800 32.29000
C  35.46800 3.71000 33.71000
C  36.98500 3.83600 33.50900
C  37.10300 3.37800 32.06200
C  37.50700 5.30400 33.70100
C  34.90800 2.57100 34.64900
C  34.90200 2.80200 36.20300
H  35.76200 3.96200 36.77400
N  37.70900 2.51700 29.12800
C  38.62700 2.58500 30.15100
C  39.93800 2.16700 29.64100
C  39.80700 1.96200 28.28400
C  38.35700 2.28100 27.92800
C  41.09700 2.02400 30.64000
C  40.95800 1.67300 27.28400
O  40.68900 1.57300 26.06100
C  42.40400 1.42600 27.72700
N  35.38900 2.79500 27.10900
C  36.41600 2.58300 26.24300
C  35.96400 2.71900 24.76500
C  34.44800 3.09300 24.93000
C  34.23900 3.12000 26.41600
C  36.72500 3.71600 23.97500
C  33.44700 2.12300 24.18000
C  32.93600 0.84100 24.85100
N  33.70600 3.50300 29.38000
C  32.70700 3.59400 28.40600
C  31.42500 4.03300 29.04200
C  31.68300 4.03100 30.39100
C  33.07200 3.70900 30.57500
C  30.15100 4.39000 28.27300
C  31.11700 4.27100 31.75200
O  30.01500 4.55700 32.16600
C  32.25200 4.05900 32.71400
C  32.30500 5.26700 33.49000
O  32.54400 6.34600 33.01700
O  32.07200 4.98300 34.82100
C  32.09700 6.21300 35.62600
H  39.12000 3.01300 32.26700
H  38.37200 2.07600 25.77900
H  32.04600 3.60400 26.42700
H  35.05600 4.56500 34.24500
H  37.47800 3.13400 34.18200
H  36.67800 5.96500 33.44700
H  38.39900 5.43600 33.09000
H  37.83100 5.43900 34.73300
H  35.58800 1.72100 34.59900
H  33.89000 2.31100 34.35700
H  35.10000 1.85300 36.70200
H  33.87700 3.08800 36.43800
H  41.77400 1.23000 30.32400
H  40.69400 1.73500 31.61000
H  41.66900 2.93500 30.81500
H  42.66000 2.18900 28.46300
H  43.18200 1.38100 26.96500
H  42.46800 0.45700 28.22200
H  35.97200 1.75900 24.24800
H  34.19000 4.11700 24.66300
H  36.71300 3.31400 22.96200
H  37.74600 3.79800 24.34900
H  36.24700 4.69500 24.00600
H  34.00800 1.73000 23.33200
H  32.57100 2.63100 23.77700
H  33.57400 0.03600 24.48600
H  31.92500 0.53600 24.57700
H  33.13800 0.73800 25.91700
H  29.70700 3.51800 27.79200
H  30.36500 5.09100 27.46600
H  29.46300 4.81800 29.00200
H  32.07600 3.25900 33.43200
H  33.10100 6.62500 35.51800
H  32.00300 6.04000 36.69800
H  31.24600 6.78600 35.25800
Mg 17.09700 51.37300 26.21100
C  18.92000 49.96200 28.74400
C  14.50600 52.04300 28.50300
C  15.13900 52.48100 23.74700
C  19.50400 50.30900 23.94100
N  16.85100 51.04100 28.36100
C  17.66900 50.45400 29.20800
C  17.28700 50.75200 30.63700
C  15.80400 51.31500 30.53900
C  15.69500 51.50900 29.01200
C  14.72200 50.36300 31.18000
C  18.21200 51.79200 31.32800
C  18.67200 51.42400 32.66900
H  18.03300 52.05200 33.85100
N  15.05400 52.16300 26.12100
C  14.23300 52.40300 27.18700
C  13.10200 53.17700 26.74400
C  13.24300 53.30400 25.31500
C  14.52300 52.59400 24.97300
C  11.98800 53.64100 27.67800
C  12.32100 53.99800 24.38000
O  12.41200 53.97100 23.15900
C  11.08100 54.71600 24.90000
N  17.18600 51.17800 24.10900
C  16.29900 51.86400 23.34200
C  16.69600 51.78300 21.82200
C  18.10300 51.17900 21.85800
C  18.33200 50.87400 23.40800
C  15.70100 51.03000 20.82600
C  19.21200 52.14200 21.32800
C  20.44400 51.48500 20.66300
N  18.93300 50.42900 26.32200
C  19.77900 50.06700 25.31100
C  20.95900 49.40200 25.89800
C  20.66900 49.31100 27.26300
C  19.34900 49.90300 27.40800
C  22.09300 48.87000 25.13100
C  21.12800 48.85100 28.56700
O  22.10200 48.24700 28.80700
C  19.99300 49.29400 29.57500
C  19.52900 48.17300 30.40900
O  18.62500 47.40300 30.16500
O  20.20900 48.26700 31.64800
C  19.91800 47.28500 32.68500
H  13.75900 52.26000 29.26900
H  14.61300 52.99900 22.94200
H  20.25500 49.98700 23.21700
H  17.26800 49.74400 31.05300
H  15.63600 52.27800 31.02100
H  14.22700 49.98000 30.28700
H  13.96800 50.89000 31.76400
H  15.12200 49.47800 31.67400
H  17.70800 52.75800 31.34800
H  19.05800 51.99000 30.67000
H  19.71400 51.71600 32.79800
H  18.46900 50.35800 32.76800
H  11.19100 52.90800 27.54900
H  11.67100 54.66200 27.46700
H  12.30200 53.73900 28.71700
H  11.23600 55.41000 25.72600
H  10.37700 53.92800 25.16900
H  10.67000 55.32800 24.09800
H  16.81500 52.76700 21.36800
H  18.07900 50.19700 21.38500
H  15.20000 51.72100 20.14900
H  14.95800 50.50000 21.42300
H  16.31100 50.25800 20.35700
H  19.63000 52.62100 22.21300
H  18.80300 52.89500 20.65400
H  20.45700 50.40500 20.80500
H  21.42000 51.94000 20.83500
H  20.18600 51.51000 19.60400
H  21.82200 47.88200 24.75900
H  22.95700 48.91400 25.79400
H  22.48300 49.41700 24.27300
H  20.45700 50.05100 30.20700
H  19.02300 47.63400 33.20000
H  20.76100 47.11800 33.35600
H  19.60500 46.32000 32.28600

