158

Mg 8.52500 3.63700 27.37600
C  10.00100 2.09100 30.21200
C  6.48100 5.44600 29.48000
C  6.98800 4.97200 24.64400
C  10.30300 1.53800 25.22100
N  8.30500 3.72600 29.61100
C  8.98700 2.96700 30.55200
C  8.53500 3.47500 31.98000
C  7.46300 4.53900 31.70800
C  7.37700 4.56400 30.13500
C  6.09000 4.25500 32.37700
C  9.79800 3.94500 32.80600
C  9.66500 5.07400 33.81700
H  10.26200 4.86900 35.25700
N  6.99700 5.01000 27.14300
C  6.28200 5.62500 28.10000
C  5.39200 6.58900 27.46500
C  5.77600 6.64900 26.10800
C  6.58500 5.44800 25.90400
C  4.36800 7.34900 28.29200
C  5.24300 7.55700 25.05200
O  5.38700 7.33300 23.86400
C  4.65100 8.84800 25.41200
N  8.39600 3.09700 25.14700
C  7.83700 3.87500 24.25600
C  8.31800 3.57000 22.83900
C  9.35800 2.41600 23.06000
C  9.36300 2.32200 24.54100
C  7.06800 3.10700 21.85700
C  10.75600 2.73100 22.47900
C  11.51400 1.61300 21.80200
N  9.78900 2.16400 27.58000
C  10.50700 1.45400 26.65100
C  11.39100 0.41400 27.27400
C  11.24900 0.76400 28.65500
C  10.25400 1.76100 28.80300
C  12.22600 -0.56900 26.51100
C  11.66400 0.29800 30.00800
O  12.43200 -0.55000 30.38200
C  11.00000 1.28500 31.01900
C  10.21500 0.47700 32.03600
O  9.18800 -0.18200 31.79000
O  10.84000 0.59100 33.30000
C  10.03100 0.08900 34.39200
H  5.75200 6.03800 30.03800
H  6.61300 5.49600 23.76200
H  10.84100 0.82300 24.59600
H  8.00300 2.62600 32.41000
H  7.82700 5.55400 31.87200
H  5.71800 5.23100 32.68700
H  6.28000 3.56000 33.19500
H  5.41100 3.79900 31.65600
H  10.52100 4.35500 32.10100
H  10.20600 3.09300 33.35100
H  8.60300 5.19300 34.03000
H  10.18300 5.93300 33.39000
H  3.50000 7.26300 27.63800
H  4.59500 8.40800 28.41900
H  4.05800 6.89700 29.23400
H  4.59200 9.45400 24.50800
H  5.26700 9.42600 26.10100
H  3.65100 8.68900 25.81700
H  8.73100 4.50700 22.46500
H  8.89700 1.55500 22.57700
H  6.13700 3.10800 22.42300
H  7.13900 2.08900 21.47400
H  6.93400 3.71200 20.96000
H  11.27600 3.13800 23.34600
H  10.70300 3.56100 21.77400
H  11.90800 1.69600 20.78900
H  10.82700 0.77700 21.93200
H  12.43200 1.49200 22.37800
H  12.92300 -0.19000 25.76300
H  11.57000 -1.33600 26.10200
H  12.68600 -1.07700 27.35900
H  11.67400 1.87900 31.63600
H  9.72100 -0.93400 34.18000
H  9.17100 0.70900 34.64500
H  10.60500 0.10500 35.31900
Mg 45.23700 5.37300 48.80000
C  42.97200 7.83200 47.56400
C  42.87300 2.96000 47.79700
C  47.65500 2.98500 48.95000
C  47.72900 7.90800 48.84000
N  43.20200 5.45800 47.78300
C  42.52100 6.52600 47.35200
C  41.10300 6.14900 46.80200
C  41.12300 4.58200 46.91500
C  42.45100 4.30400 47.53200
C  39.89500 4.11400 47.76300
C  40.87600 6.62400 45.29300
C  39.56700 7.58200 45.16400
H  38.62700 7.33700 44.00700
N  45.20200 3.29200 48.64800
C  44.10000 2.50100 48.27600
C  44.52800 1.09200 48.36600
C  45.91900 1.14900 48.61500
C  46.30900 2.51400 48.77300
C  43.62500 -0.03000 48.09500
C  46.77000 -0.09400 48.81100
O  46.29800 -1.21700 48.63800
C  48.15100 -0.08200 49.28500
N  47.39000 5.45700 48.99200
C  48.16700 4.32500 49.08000
C  49.63400 4.64900 49.10400
C  49.64400 6.19600 49.08900
C  48.21400 6.54500 48.94600
C  50.41700 3.88700 50.15900
C  50.49300 6.76300 47.91900
C  51.29100 8.08800 48.24400
N  45.32300 7.44600 48.50400
C  46.41400 8.35600 48.61000
C  45.96600 9.64300 48.29700
C  44.59700 9.46800 47.99700
C  44.26600 8.12900 48.04200
C  46.86800 10.88300 48.34300
C  43.40700 10.20400 47.80900
O  43.19100 11.42100 47.88100
C  42.25000 9.14300 47.50700
C  41.17600 9.39300 48.60000
O  41.25400 8.85400 49.67100
O  40.13900 10.03800 47.99800
C  38.85800 10.03900 48.70800
H  42.03900 2.28000 47.60900
H  48.46200 2.25000 48.92900
H  48.56000 8.57900 49.06400
H  40.37500 6.56700 47.49700
H  41.12800 4.11400 45.93000
H  39.62300 3.15500 47.32400
H  39.04000 4.79100 47.74700
H  40.22600 3.86900 48.77200
H  40.97200 5.87900 44.50400
H  41.76300 7.23700 45.13100
H  39.93300 8.60700 45.10200
H  38.95800 7.53100 46.06700
H  43.38100 -0.50300 49.04600
H  44.09600 -0.74600 47.42200
H  42.70700 0.23300 47.57000
H  48.74000 0.42000 48.51700
H  48.55400 -1.04400 49.60200
H  48.23400 0.58700 50.14100
H  49.92900 4.33000 48.10400
H  49.89200 6.59500 50.07300
H  49.75200 3.17400 50.64600
H  50.89300 4.61300 50.81800
H  51.27200 3.33100 49.77300
H  49.92900 7.05300 47.03300
H  51.26700 6.03700 47.67000
H  50.80600 9.01800 47.94800
H  52.29800 7.93200 47.85500
H  51.48000 8.10700 49.31700
H  46.40500 11.54800 47.61500
H  47.88900 10.61600 48.06900
H  46.94700 11.26400 49.36200
H  41.79000 9.48300 46.58000
H  38.27000 10.90600 48.40400
H  38.97700 10.22000 49.77600
H  38.25100 9.15200 48.52700

