158

Mg 40.51100 10.15400 29.81900
C  42.51300 11.37900 32.29500
C  38.27100 9.02700 32.17400
C  38.61000 8.80000 27.31400
C  43.10200 10.64100 27.50900
N  40.41200 10.31000 31.94100
C  41.24900 10.97700 32.74900
C  40.69400 11.05200 34.20400
C  39.44100 10.06400 34.22000
C  39.38800 9.73800 32.65700
C  39.67700 8.73700 35.03100
C  40.57600 12.50600 34.65500
C  39.76100 12.74100 35.95200
H  40.64700 13.26000 37.10100
N  38.65800 9.16300 29.73400
C  37.85600 8.83100 30.83100
C  36.66500 8.18500 30.34300
C  36.76100 8.12200 28.92900
C  38.00500 8.75300 28.58600
C  35.62200 7.54900 31.32400
C  35.73800 7.62400 28.01800
O  35.75800 7.74400 26.78600
C  34.55700 6.92500 28.59300
N  40.88300 9.88500 27.65100
C  39.95300 9.17600 26.95000
C  40.46300 9.04300 25.47400
C  41.92800 9.65300 25.54800
C  41.97600 10.07600 26.97100
C  40.35900 7.69000 24.67200
C  42.29500 10.72900 24.55300
C  42.13400 12.17700 24.95000
N  42.43500 10.98600 29.79500
C  43.38500 11.15900 28.82600
C  44.60100 11.66800 29.42800
C  44.29400 11.91200 30.79200
C  42.97900 11.41500 30.97000
C  45.82200 12.12100 28.78200
C  44.77600 12.47000 31.99800
O  45.85800 13.05200 32.27400
C  43.59000 12.22300 33.06400
C  44.17400 11.37500 34.10500
O  44.91700 10.38900 34.00200
O  43.77100 11.79300 35.32100
C  44.21700 10.98000 36.47600
H  37.56300 8.74800 32.95700
H  38.04900 8.32600 26.50600
H  43.95300 10.87300 26.86500
H  41.47200 10.62100 34.83400
H  38.49100 10.55900 34.42200
H  39.80900 7.90000 34.34500
H  38.87700 8.44200 35.70900
H  40.54300 8.71200 35.69300
H  40.09100 13.02800 33.83000
H  41.56400 12.95900 34.74100
H  39.23900 11.87000 36.35000
H  39.02800 13.50500 35.69400
H  35.56900 6.47800 31.13000
H  34.68000 8.07800 31.18100
H  35.85800 7.68400 32.38000
H  33.91100 7.57800 29.17900
H  34.95400 6.04000 29.09000
H  33.82200 6.58500 27.86400
H  39.69900 9.55700 24.89100
H  42.68500 8.87700 25.42700
H  39.62800 7.68100 23.86300
H  40.18600 6.84900 25.34300
H  41.35800 7.58600 24.24900
H  41.66300 10.49000 23.69700
H  43.36400 10.52800 24.47800
H  43.03000 12.59700 25.40800
H  41.26200 12.13700 25.60400
H  41.78800 12.85000 24.16600
H  46.03600 11.61000 27.84400
H  46.63800 11.83300 29.44500
H  45.86500 13.20100 28.63900
H  43.30100 13.19500 33.46300
H  43.59300 11.37600 37.27700
H  45.27000 11.11800 36.72100
H  43.95500 9.93500 36.31000
Mg -12.33200 15.97400 41.78700
C  -9.32300 14.24700 41.40600
C  -11.12500 18.62300 40.18200
C  -15.44300 17.16200 41.70600
C  -13.72600 12.81600 42.87300
N  -10.44300 16.29100 40.76500
C  -9.32800 15.52300 40.83900
C  -8.17800 16.15800 40.13500
C  -8.56600 17.66800 40.11400
C  -10.18500 17.55000 40.38600
C  -7.88200 18.59600 41.23800
C  -7.58700 15.53800 38.83300
C  -6.04800 15.74900 38.75600
H  -5.42500 16.29200 37.55900
N  -13.11100 17.79300 41.15700
C  -12.48000 18.78500 40.52600
C  -13.43300 19.80700 40.32200
C  -14.65600 19.44200 40.75400
C  -14.44800 18.05100 41.22100
C  -12.97200 21.12200 39.71100
C  -15.91400 20.28000 40.72300
O  -15.78800 21.45000 40.36800
C  -17.30200 19.81100 41.17500
N  -14.33900 15.09500 42.27900
C  -15.45200 15.82000 42.23200
C  -16.74400 14.97800 42.45100
C  -16.16500 13.50900 42.72400
C  -14.64200 13.81200 42.64300
C  -17.79900 15.40300 43.51400
C  -16.68800 12.47500 41.69300
C  -17.27500 11.11300 42.23300
N  -11.59200 14.00300 42.44500
C  -12.29400 12.86100 42.76900
C  -11.35700 11.70900 42.75000
C  -10.17400 12.26100 42.42400
C  -10.40200 13.57200 42.11700
C  -11.61600 10.32000 43.08400
C  -8.77800 11.96100 42.19800
O  -8.15700 10.95600 42.32200
C  -8.15700 13.24500 41.61000
C  -7.08400 13.58900 42.65400
O  -7.26100 14.01900 43.79200
O  -5.78900 13.44800 42.22900
C  -4.67500 13.94700 43.00800
H  -10.59000 19.44200 39.69600
H  -16.47300 17.52000 41.65400
H  -14.12500 11.83300 43.13000
H  -7.45000 16.00500 40.93200
H  -8.42300 18.05900 39.10700
H  -8.52200 19.05100 41.99400
H  -7.53600 19.48000 40.70300
H  -7.00100 18.20800 41.74800
H  -8.12100 16.07100 38.04700
H  -7.82700 14.47700 38.76600
H  -5.53800 14.79000 38.85300
H  -5.62200 16.35900 39.55300
H  -13.06500 21.02300 38.62900
H  -11.89100 21.20700 39.81500
H  -13.40000 22.07200 40.03300
H  -17.72000 19.04800 40.51800
H  -18.01900 20.63100 41.21500
H  -17.10100 19.40400 42.16500
H  -17.43100 15.04800 41.60800
H  -16.28900 13.13300 43.73900
H  -18.77900 15.56800 43.06500
H  -17.49000 16.38000 43.88700
H  -17.84900 14.70500 44.35000
H  -15.87700 12.23800 41.00400
H  -17.47700 12.89300 41.06800
H  -16.70700 10.37300 41.66900
H  -18.34100 11.05200 42.01400
H  -17.11900 11.03900 43.30900
H  -10.97200 9.55300 42.65400
H  -12.55400 10.05800 42.59500
H  -11.71300 10.17400 44.15900
H  -7.57500 13.06400 40.70700
H  -3.90100 14.29600 42.32400
H  -4.20800 13.09300 43.50000
H  -4.88000 14.75700 43.70700

