158

Mg 1.24500 8.39100 25.66900
C  2.17700 10.33300 28.51400
C  1.46400 5.60200 27.69100
C  0.59700 6.60300 23.00100
C  1.88100 11.14800 23.74300
N  1.73500 7.93600 27.81800
C  1.90600 8.96700 28.75300
C  2.06000 8.39600 30.11800
C  2.16800 6.88500 29.80600
C  1.78500 6.79200 28.39100
C  3.55100 6.25800 30.07200
C  0.90800 8.89100 31.15400
C  1.39400 9.13300 32.61700
H  2.64200 8.32700 33.03400
N  1.09100 6.32200 25.35400
C  1.07200 5.33600 26.35400
C  0.78500 4.09400 25.72900
C  0.48200 4.32800 24.39100
C  0.73200 5.79600 24.16100
C  0.95100 2.72200 26.38700
C  0.18100 3.33100 23.30400
O  0.07800 3.59800 22.13800
C  -0.00200 1.91100 23.62200
N  1.55100 8.78900 23.59400
C  0.94400 7.92100 22.75700
C  0.91200 8.52300 21.38500
C  0.91000 10.01800 21.66500
C  1.47500 9.99500 23.04800
C  2.10800 8.07000 20.41000
C  -0.44900 10.79200 21.63900
C  -0.52900 11.88600 20.53700
N  1.84100 10.34900 26.02300
C  2.04400 11.34400 25.14200
C  2.39800 12.59000 25.81200
C  2.49300 12.18700 27.16500
C  2.16800 10.82800 27.24500
C  2.65200 13.88900 25.15300
C  2.79300 12.65400 28.50300
O  3.17900 13.75400 28.82700
C  2.49600 11.48800 29.46400
C  3.73900 11.29500 30.17200
O  4.84200 10.90700 29.73600
O  3.64500 11.80200 31.44800
C  4.78400 11.39100 32.46100
H  1.33800 4.70900 28.30800
H  0.31500 6.02100 22.12200
H  1.95900 12.05700 23.14300
H  3.03500 8.76000 30.44100
H  1.41000 6.38200 30.40600
H  4.18300 7.03900 30.49500
H  3.88600 5.77700 29.15300
H  3.49100 5.44400 30.79400
H  0.05600 8.22200 31.03500
H  0.50600 9.78000 30.66800
H  0.54900 9.13200 33.30500
H  1.72400 10.17100 32.57800
H  0.03700 2.12800 26.40800
H  1.34300 2.94200 27.38000
H  1.76000 2.22200 25.85400
H  0.97900 1.46000 23.77200
H  -0.44100 1.45300 22.73500
H  -0.81300 1.75900 24.33400
H  -0.07800 8.24300 21.02300
H  1.55700 10.53900 20.95900
H  2.96700 7.74700 20.99800
H  2.49300 8.78200 19.68000
H  1.83800 7.16600 19.86500
H  -0.60700 11.21500 22.63100
H  -1.28200 10.11500 21.44800
H  -1.54400 11.88500 20.13700
H  0.04900 11.64100 19.64600
H  -0.12700 12.74500 21.07200
H  3.49100 13.69400 24.48500
H  3.04500 14.67200 25.80100
H  1.81600 14.15700 24.50800
H  1.71000 11.72300 30.18200
H  5.44900 10.64200 32.03300
H  4.23600 11.00000 33.31900
H  5.42600 12.21100 32.78200
Mg -8.46100 40.86600 42.81200
C  -7.58900 37.59100 42.04200
C  -5.78400 41.94500 40.79200
C  -9.69500 43.86900 43.04600
C  -11.67500 39.59000 43.98700
N  -6.90700 39.88400 41.55700
C  -6.75500 38.53700 41.48500
C  -5.60400 38.23500 40.57200
C  -4.91900 39.59200 40.25000
C  -5.92500 40.54000 40.88900
C  -3.46200 39.76000 40.82700
C  -6.02700 37.48700 39.27500
C  -5.15000 36.31200 38.92000
H  -4.29200 36.63700 37.72700
N  -7.65100 42.66200 42.18800
C  -6.69900 42.92300 41.29500
C  -6.63400 44.37900 41.07700
C  -7.68800 44.99600 41.78000
C  -8.43100 43.82200 42.37800
C  -5.42100 44.96900 40.36900
C  -7.95300 46.52300 41.72900
O  -7.29700 47.30400 41.06400
C  -9.09700 47.10600 42.45600
N  -10.38300 41.60300 43.49400
C  -10.55600 42.94800 43.53800
C  -11.91400 43.36500 44.09600
C  -12.53800 42.00100 44.51500
C  -11.47000 40.97500 43.94000
C  -11.89300 44.37500 45.23000
C  -14.00300 41.78500 44.04500
C  -15.10100 41.30900 45.02600
N  -9.44200 38.99900 43.03400
C  -10.68000 38.63100 43.56900
C  -10.78200 37.18000 43.61000
C  -9.55500 36.77500 43.06300
C  -8.77600 37.90300 42.71700
C  -11.96800 36.38700 44.02700
C  -8.91900 35.57600 42.64200
O  -9.25800 34.39400 42.67400
C  -7.60100 36.09700 41.91600
C  -6.47200 35.46600 42.74400
O  -6.43800 35.53100 43.94900
O  -5.61400 34.74700 41.89400
C  -4.40700 34.11800 42.49300
H  -4.89600 42.25800 40.24000
H  -10.12500 44.87100 43.10900
H  -12.63400 39.21700 44.35000
H  -4.87200 37.62200 41.09800
H  -4.88700 39.69800 39.16500
H  -2.73300 39.51700 40.05300
H  -3.23300 38.92100 41.48300
H  -3.29300 40.67400 41.39600
H  -6.07100 38.19000 38.44300
H  -7.08700 37.24600 39.35000
H  -5.70700 35.38800 38.76800
H  -4.46000 36.04800 39.72100
H  -4.53200 44.52400 40.81500
H  -5.25100 46.03500 40.52400
H  -5.40000 44.74900 39.30200
H  -9.05700 48.19300 42.38700
H  -8.89100 46.83800 43.49200
H  -10.01900 46.75800 41.99000
H  -12.47900 43.88600 43.32400
H  -12.51900 41.84100 45.59300
H  -12.16100 43.96300 46.20300
H  -12.56400 45.22200 45.08900
H  -10.90500 44.83300 45.25600
H  -14.09100 41.24600 43.10200
H  -14.43800 42.73700 43.74100
H  -14.80900 41.22400 46.07300
H  -15.50700 40.38800 44.60800
H  -16.04000 41.86100 44.97700
H  -11.61500 35.49900 44.55100
H  -12.38100 36.11900 43.05400
H  -12.65800 36.91700 44.68400
H  -7.47400 35.74000 40.89400
H  -4.70700 33.50100 43.34100
H  -3.83900 34.91700 42.97100
H  -3.92300 33.50400 41.73400

