158

Mg 3.03800 -1.55100 44.33100
C  6.56800 -1.50700 44.09600
C  2.91100 1.16600 42.53400
C  -0.24500 -2.29700 43.66000
C  3.41800 -4.84500 45.55300
N  4.60900 -0.38400 43.30600
C  5.96300 -0.49700 43.34200
C  6.70200 0.53900 42.52400
C  5.48100 1.48800 42.16400
C  4.19600 0.74100 42.77200
C  5.51400 2.99800 42.62700
C  7.58900 -0.04200 41.32200
C  8.91100 0.63600 40.95700
H  8.99200 1.03300 39.47900
N  1.49100 -0.58000 43.31700
C  1.66900 0.56400 42.70500
C  0.41500 1.03100 42.15500
C  -0.53300 -0.01300 42.39800
C  0.18500 -1.02100 43.12900
C  0.24600 2.29600 41.34800
C  -2.02700 -0.04800 41.89100
O  -2.53300 0.91000 41.39600
C  -2.89300 -1.27400 42.07800
N  1.77800 -3.32100 44.57800
C  0.46800 -3.33500 44.25800
C  -0.23300 -4.70300 44.64300
C  1.03200 -5.54000 45.22800
C  2.13500 -4.46200 45.15100
C  -1.45900 -4.54300 45.63900
C  1.31300 -6.92700 44.46200
C  1.00000 -8.20400 45.22300
N  4.61300 -2.87500 44.97900
C  4.60000 -4.15800 45.30800
C  5.92600 -4.68100 45.55400
C  6.70200 -3.57600 45.27000
C  5.91500 -2.55800 44.73000
C  6.26600 -6.05500 46.09700
C  8.08200 -3.13600 45.29900
O  9.01400 -3.73100 45.70300
C  8.07500 -1.78200 44.43800
C  8.57200 -0.77600 45.41500
O  8.35100 -0.71400 46.58800
O  9.31700 0.12300 44.72600
C  9.54600 1.42900 45.30300
H  2.90400 2.09400 41.95800
H  -1.27600 -2.63300 43.52600
H  3.51000 -5.88600 45.86800
H  7.43600 1.01900 43.17000
H  5.29600 1.53600 41.09100
H  5.51700 3.57500 41.70300
H  6.38700 3.36000 43.17000
H  4.59000 3.22800 43.15700
H  6.92500 0.06300 40.46300
H  7.73200 -1.10800 41.49700
H  9.63200 -0.16800 41.10800
H  9.21800 1.51400 41.52600
H  0.59100 3.18200 41.88200
H  -0.80600 2.32200 41.06300
H  0.82900 2.18400 40.43400
H  -3.95500 -1.20400 41.84300
H  -2.85000 -1.48400 43.14700
H  -2.44200 -2.12000 41.56100
H  -0.53900 -5.09100 43.67100
H  0.83400 -5.77100 46.27500
H  -1.55100 -3.52600 46.02100
H  -1.40000 -5.22700 46.48500
H  -2.35800 -4.78700 45.07400
H  2.33500 -7.10400 44.12600
H  0.78700 -7.03400 43.51400
H  0.08900 -8.62700 44.79900
H  0.82600 -7.96300 46.27200
H  1.83500 -8.90300 45.18700
H  6.57900 -6.64300 45.23400
H  5.38800 -6.49200 46.57400
H  7.02000 -5.94000 46.87600
H  8.58100 -1.85600 43.47500
H  9.15800 2.14300 44.57700
H  10.56700 1.71400 45.55600
H  8.91200 1.57700 46.17700
Mg -1.08300 34.99400 27.34800
C  -3.08800 33.22900 29.55300
C  -0.41200 37.20800 29.88900
C  0.46200 36.83000 25.01600
C  -2.45500 33.00900 24.69700
N  -1.79900 35.22900 29.46300
C  -2.40000 34.23500 30.19400
C  -2.29800 34.53000 31.73700
C  -1.70200 35.97700 31.75700
C  -1.24400 36.18900 30.31100
C  -2.65600 37.13500 32.18600
C  -1.43600 33.51300 32.53600
C  -2.07200 32.71300 33.64600
H  -2.61600 33.58200 34.83100
N  0.08800 36.65400 27.53600
C  0.20900 37.42200 28.62400
C  1.14700 38.45200 28.31600
C  1.49100 38.42700 26.91000
C  0.65000 37.31600 26.41200
C  1.64100 39.42900 29.38000
C  2.54500 39.14400 26.08300
O  2.93700 38.78500 24.97800
C  3.06400 40.46300 26.58600
N  -1.08500 34.91600 25.19000
C  -0.34000 35.83700 24.48700
C  -0.25600 35.50700 22.94200
C  -1.25100 34.28300 22.90400
C  -1.62500 34.05400 24.37600
C  -0.63100 36.78400 22.09900
C  -0.50900 32.98200 22.36600
C  0.74000 32.52200 23.20400
N  -2.52400 33.49500 27.11300
C  -2.95100 32.82700 25.95700
C  -3.96100 31.87200 26.37600
C  -3.93800 31.85400 27.74100
C  -3.10100 32.95300 28.16900
C  -4.73200 30.96600 25.45700
C  -4.43000 31.18400 28.94000
O  -5.17200 30.23300 29.10400
C  -3.80600 31.92700 30.18700
C  -4.92800 32.20400 31.11900
O  -5.71700 33.14400 31.03300
O  -4.91200 31.29700 32.11700
C  -5.78200 31.59200 33.25400
H  -0.02300 37.76600 30.74300
H  1.19000 37.24500 24.31500
H  -2.78300 32.39400 23.85600
H  -3.32000 34.48000 32.11400
H  -0.81400 36.13500 32.36900
H  -3.06300 37.51900 31.25100
H  -2.11600 37.90800 32.73200
H  -3.48900 36.87200 32.83800
H  -0.57200 33.98100 33.00700
H  -1.09100 32.73700 31.85200
H  -1.21200 32.18600 34.06000
H  -2.86800 32.07200 33.26800
H  2.58900 39.02100 29.73200
H  0.91100 39.60000 30.17100
H  1.76100 40.45800 29.04300
H  2.32000 41.18900 26.91500
H  3.75300 40.95600 25.90000
H  3.67900 40.25500 27.46100
H  0.78900 35.21400 22.84100
H  -2.15700 34.58700 22.37900
H  -1.45900 36.61900 21.40900
H  0.28900 37.11700 21.61800
H  -0.99600 37.60000 22.72200
H  -0.07700 33.27300 21.40900
H  -1.10000 32.12500 22.04300
H  0.83200 32.99500 24.18100
H  1.64300 32.54600 22.59400
H  0.55800 31.46400 23.39700
H  -4.13100 30.39600 24.74900
H  -5.37500 31.67900 24.94100
H  -5.22000 30.26100 26.13000
H  -3.06300 31.39600 30.78200
H  -5.55700 32.46000 33.87400
H  -5.87600 30.64500 33.78500
H  -6.80500 31.77900 32.92900

