158

Mg -9.92500 39.38900 39.94900
C  -9.20500 36.05600 39.03500
C  -6.75600 40.15000 38.93900
C  -10.80800 42.66800 39.90400
C  -13.21600 38.42500 40.37500
N  -8.24600 38.21300 39.17600
C  -8.12000 36.86100 38.87200
C  -6.73100 36.53900 38.37300
C  -5.87900 37.74500 38.74700
C  -7.03800 38.78000 39.00600
C  -4.87100 37.56400 39.94300
C  -6.64400 36.04300 36.82800
C  -7.14700 37.05800 35.76100
H  -8.08400 36.76500 34.49500
N  -8.86700 41.21200 39.58600
C  -7.61500 41.29100 39.19300
C  -7.35900 42.65800 38.86100
C  -8.56600 43.41800 38.95000
C  -9.53400 42.43600 39.47000
C  -6.05800 43.20900 38.36600
C  -8.74100 44.92200 38.56100
O  -7.76300 45.43600 38.03500
C  -9.99600 45.55100 38.57700
N  -11.71600 40.41400 40.19400
C  -11.75200 41.71100 40.21900
C  -13.18700 42.15200 40.61900
C  -13.98000 40.84900 40.76200
C  -12.94100 39.82300 40.45400
C  -13.21800 43.07600 41.83200
C  -15.26700 40.73400 39.85100
C  -16.59900 40.69700 40.60500
N  -11.03000 37.61200 39.89500
C  -12.38200 37.41400 40.05900
C  -12.70600 35.99400 39.85900
C  -11.50700 35.41900 39.45200
C  -10.54500 36.44000 39.49700
C  -14.00000 35.35800 40.23200
C  -10.92900 34.16500 38.94800
O  -11.40400 33.06600 38.63000
C  -9.42500 34.59600 38.66300
C  -8.55200 33.79800 39.51400
O  -8.48100 33.89200 40.75700
O  -7.71000 33.07300 38.73300
C  -6.44600 32.61500 39.30800
H  -5.73900 40.45000 38.67800
H  -11.09200 43.72100 39.85700
H  -14.26200 38.10900 40.37000
H  -6.26500 35.68400 38.86300
H  -5.30200 38.06600 37.88000
H  -5.29800 38.05400 40.81800
H  -3.90500 38.05100 39.81000
H  -4.69100 36.52400 40.21300
H  -7.10600 35.11400 36.49300
H  -5.56800 36.06500 36.65600
H  -6.28100 37.53500 35.30200
H  -7.71000 37.79600 36.33300
H  -5.70900 44.11300 38.86700
H  -6.01300 43.32400 37.28300
H  -5.30200 42.45800 38.59600
H  -10.74900 44.96600 38.04900
H  -9.85000 46.45600 37.98700
H  -10.32400 45.75400 39.59700
H  -13.61000 42.77400 39.83000
H  -14.39300 40.59100 41.73700
H  -12.19200 43.36500 42.05800
H  -13.65300 42.52700 42.66700
H  -13.80500 43.96100 41.58600
H  -15.20800 39.89700 39.15600
H  -15.32500 41.55200 39.13300
H  -17.30800 41.50100 40.41000
H  -16.41700 41.01400 41.63200
H  -17.06400 39.71300 40.55400
H  -14.75100 35.59000 39.47700
H  -14.43300 35.64100 41.19100
H  -13.80400 34.29300 40.36100
H  -9.22000 34.42100 37.60700
H  -5.64400 33.27400 38.97500
H  -6.31800 31.56500 39.04700
H  -6.37900 32.89500 40.35900
Mg -4.98500 26.02000 25.68500
C  -3.89200 27.28800 28.78700
C  -7.14000 24.04100 27.69600
C  -5.83800 24.38000 22.92100
C  -2.69400 27.99200 23.94800
N  -5.26700 25.58400 28.03800
C  -4.75900 26.30400 29.00800
C  -5.49000 26.01700 30.37500
C  -6.28400 24.73200 30.02400
C  -6.32300 24.82000 28.50100
C  -5.56600 23.44900 30.51700
C  -6.48500 27.15100 30.77900
C  -6.46300 27.40400 32.27800
H  -6.52300 26.12700 33.26900
N  -6.29600 24.40500 25.34300
C  -7.10800 23.77000 26.27500
C  -8.05100 22.86700 25.57800
C  -7.60900 22.90200 24.17100
C  -6.51900 23.91200 24.08600
C  -9.07700 21.96400 26.23600
C  -8.14200 22.13100 22.94800
O  -7.51700 22.12100 21.87000
C  -9.32200 21.23900 23.03900
N  -4.25100 26.01200 23.72800
C  -4.84200 25.31300 22.78500
C  -4.20400 25.73000 21.38700
C  -3.42100 27.06600 21.72500
C  -3.44000 27.05700 23.21700
C  -3.27800 24.57500 20.77200
C  -4.10400 28.31700 20.99400
C  -3.25500 29.21700 20.10300
N  -3.46300 27.29300 26.21700
C  -2.65800 28.09000 25.37600
C  -1.91000 28.98100 26.26800
C  -2.37300 28.66800 27.56500
C  -3.36700 27.67700 27.53400
C  -0.74700 29.82500 25.92000
C  -2.15900 29.01500 28.93800
O  -1.48000 29.89500 29.50500
C  -3.19600 28.15600 29.75200
C  -2.54800 27.35100 30.88100
O  -1.56400 26.63300 30.79900
O  -3.15100 27.50400 32.11600
C  -2.45500 26.85000 33.20600
H  -7.88000 23.41200 28.19700
H  -6.11500 23.78800 22.04500
H  -2.14100 28.72500 23.35700
H  -4.73500 25.69000 31.09000
H  -7.30300 24.73500 30.41100
H  -5.19400 22.76500 29.75500
H  -6.21300 22.99400 31.26700
H  -4.63200 23.64100 31.04400
H  -7.54200 27.04100 30.53900
H  -6.13300 28.10100 30.37700
H  -7.34300 28.02900 32.43000
H  -5.53500 27.90100 32.56200
H  -9.98200 21.88600 25.63500
H  -9.30400 22.41900 27.20100
H  -8.70700 20.99000 26.55600
H  -9.34800 20.52700 22.21400
H  -10.13000 21.95900 23.16500
H  -9.39600 20.56500 23.89200
H  -5.03500 25.96300 20.72100
H  -2.38800 26.92900 21.40600
H  -3.26800 23.73000 21.45900
H  -2.32700 24.92000 20.36500
H  -3.90600 24.22100 19.95400
H  -4.65700 28.94200 21.69500
H  -4.87400 28.01800 20.28200
H  -3.09000 30.26900 20.33500
H  -3.64700 29.23000 19.08600
H  -2.32400 28.67700 19.92800
H  -1.15000 30.82500 25.76100
H  -0.26600 29.56700 24.97600
H  0.04500 29.81300 26.66900
H  -3.91900 28.83500 30.20400
H  -1.46600 27.28000 33.35900
H  -2.33300 25.76800 33.15900
H  -2.97100 26.98500 34.15700

