158

Mg 41.06100 9.24200 29.82500
C  42.93100 10.35400 32.56700
C  38.81300 7.88500 31.86100
C  39.71400 7.96100 27.10700
C  44.05400 9.91800 27.88900
N  40.83500 9.18600 31.96000
C  41.70300 9.80800 32.93900
C  41.00000 9.68100 34.33300
C  39.84900 8.64700 34.02000
C  39.80200 8.55300 32.54000
C  39.93200 7.25800 34.74500
C  40.56700 11.09500 34.84700
C  39.78800 11.10500 36.19600
H  40.31400 11.79700 37.42000
N  39.37800 8.16500 29.50600
C  38.50900 7.67700 30.44300
C  37.39200 7.12200 29.82100
C  37.57900 7.21300 28.36400
C  38.95600 7.75300 28.28400
C  36.21000 6.47700 30.63200
C  36.61500 6.90700 27.25200
O  36.91800 6.85300 26.04500
C  35.11200 6.54500 27.56900
N  41.80500 9.05800 27.72900
C  40.95400 8.50600 26.77600
C  41.66700 8.52800 25.41700
C  43.00700 9.39800 25.71100
C  42.98200 9.39500 27.21400
C  41.86500 7.04700 24.74800
C  43.09400 10.86500 25.15600
C  41.86500 11.81200 25.41300
N  43.00400 10.04200 30.09700
C  44.09200 10.26000 29.21600
C  45.13900 10.91900 29.85000
C  44.73100 10.98900 31.17900
C  43.43200 10.45100 31.26900
C  46.36300 11.42400 29.22600
C  45.04700 11.45000 32.56800
O  46.02900 12.13200 32.89900
C  43.93800 11.04100 33.53000
C  44.50900 10.16200 34.50100
O  45.13300 9.17900 34.22300
O  44.14700 10.52300 35.78300
C  44.22900 9.59100 36.90500
H  38.07100 7.55100 32.59000
H  39.26800 7.57300 26.18900
H  44.87800 10.13700 27.20700
H  41.71000 9.17200 34.98400
H  38.86300 8.99700 34.32500
H  39.50100 7.35800 35.74200
H  40.97700 6.97700 34.87200
H  39.41400 6.48400 34.17900
H  39.95700 11.57500 34.08200
H  41.49000 11.65700 34.98800
H  39.55900 10.05400 36.36600
H  38.84300 11.53500 35.86400
H  35.98300 5.48500 30.24300
H  35.33200 7.12300 30.65500
H  36.51200 6.32000 31.66800
H  34.62300 6.42800 26.60300
H  34.59000 7.40000 27.99900
H  35.05600 5.55600 28.02200
H  41.09500 9.01800 24.62900
H  43.94100 8.90200 25.44500
H  41.32000 7.04500 23.80500
H  41.55200 6.27500 25.45100
H  42.94100 6.91800 24.63700
H  43.05600 10.78000 24.07000
H  43.98900 11.41800 25.43900
H  42.10600 12.56700 26.16100
H  41.09200 11.15600 25.81400
H  41.65900 12.23700 24.43100
H  46.13200 11.99600 28.32800
H  47.06700 10.66200 28.89300
H  46.96800 12.01600 29.91200
H  43.58800 11.96100 33.99700
H  45.30200 9.50100 37.07400
H  43.69300 8.67000 36.67600
H  43.77700 9.96600 37.82400
Mg 26.89700 49.71400 26.34600
C  24.69300 51.06100 28.96500
C  28.77600 48.38900 28.61000
C  28.81300 48.71900 23.76400
C  24.97200 51.62000 24.17000
N  26.68400 49.70600 28.51400
C  25.73900 50.24900 29.40600
C  26.09400 49.88600 30.93300
C  27.46700 49.16600 30.69800
C  27.65900 49.03100 29.20900
C  28.67900 49.87300 31.49100
C  25.03600 48.87700 31.46700
C  24.37800 49.35300 32.82400
H  24.74300 48.61500 34.18000
N  28.51600 48.55600 26.15900
C  29.20800 48.12400 27.24200
C  30.35000 47.35100 26.83100
C  30.52200 47.63200 25.44600
C  29.31200 48.36400 25.03300
C  31.31500 46.62300 27.81000
C  31.65700 47.29200 24.57800
O  31.59800 47.62400 23.39200
C  32.84800 46.52400 25.11900
N  26.87500 50.03700 24.23500
C  27.71700 49.53500 23.31400
C  27.37700 49.83000 21.84400
C  26.10700 50.61600 22.11300
C  25.95900 50.77500 23.59500
C  28.47900 50.69200 21.24900
C  24.78900 50.12200 21.46000
C  24.50400 48.67800 21.69700
N  25.09600 50.97600 26.49200
C  24.54500 51.68200 25.50100
C  23.43200 52.44200 26.01500
C  23.49200 52.24400 27.36400
C  24.52500 51.39500 27.62500
C  22.30600 53.23400 25.26800
C  22.81600 52.51200 28.67600
O  21.87800 53.22300 28.93800
C  23.67300 51.84600 29.77200
C  24.22500 52.80500 30.71200
O  25.09800 53.66200 30.55900
O  23.38300 52.74300 31.84900
C  23.71600 53.70100 32.94200
H  29.34600 47.97900 29.44600
H  29.47600 48.56600 22.91000
H  24.41100 52.26000 23.48600
H  26.16800 50.78200 31.54900
H  27.52400 48.17000 31.13800
H  28.26600 50.67000 32.10800
H  29.40400 50.37800 30.85300
H  29.18700 49.21000 32.19200
H  25.48400 47.93700 31.78800
H  24.29400 48.67300 30.69400
H  23.30600 49.48000 32.67100
H  24.81200 50.35300 32.85300
H  32.34600 46.96400 27.72000
H  31.33000 45.57600 27.50700
H  30.88400 46.73500 28.80500
H  33.47600 47.25800 25.62400
H  33.34700 46.14300 24.22800
H  32.55100 45.65000 25.69800
H  27.20700 49.03100 21.12300
H  26.31500 51.66100 21.88400
H  29.24700 50.95000 21.97800
H  28.13300 51.64400 20.84700
H  29.01300 50.20100 20.43600
H  24.79700 50.31700 20.38800
H  23.90200 50.73900 21.60100
H  23.47200 48.58600 22.03500
H  25.20600 48.25800 22.41700
H  24.57700 48.16000 20.74100
H  21.40300 53.23000 25.87900
H  22.04000 52.67700 24.36900
H  22.65400 54.22800 24.98700
H  23.24100 51.08000 30.41700
H  22.83900 53.77200 33.58500
H  23.92000 54.71800 32.60900
H  24.57000 53.43600 33.56600

