158

Mg 29.51000 58.90800 41.21400
C  26.38900 57.48600 40.17300
C  31.07800 56.05600 39.82600
C  32.44700 60.51200 41.46200
C  27.84100 61.85400 41.88400
N  28.82700 56.95900 40.12100
C  27.51800 56.70000 39.82500
C  27.43600 55.53200 38.85500
C  28.91100 54.97600 39.03000
C  29.71500 56.02800 39.69400
C  29.08100 53.62400 39.80100
C  26.96300 56.03100 37.45200
C  25.85600 55.22200 36.65900
H  26.19700 54.60200 35.29200
N  31.43900 58.34900 40.91600
C  31.91100 57.13400 40.35300
C  33.36200 57.11100 40.33800
C  33.74700 58.43000 40.81400
C  32.51100 59.13800 41.09000
C  34.11400 55.98100 39.76900
C  35.21500 58.86100 40.97700
O  36.08800 58.03800 40.57400
C  35.69500 60.19600 41.58500
N  30.14600 61.00100 41.36300
C  31.38600 61.37000 41.62100
C  31.40400 62.84700 41.84900
C  29.90900 63.22000 42.03600
C  29.21400 61.95000 41.65200
C  32.31600 63.46200 42.99500
C  29.40100 64.48800 41.17400
C  28.93400 65.75600 41.93000
N  27.56300 59.51200 41.26600
C  27.03200 60.71300 41.55100
C  25.61900 60.69600 41.44600
C  25.33000 59.42300 40.94900
C  26.56000 58.73200 40.80800
C  24.61100 61.72700 41.76100
C  24.21900 58.63400 40.51400
O  23.05400 58.95300 40.43300
C  24.92200 57.26000 39.91000
C  24.42400 56.08500 40.63500
O  24.27500 56.00600 41.86100
O  24.19400 55.10700 39.69100
C  23.68300 53.83100 40.18900
H  31.62000 55.20100 39.41900
H  33.35900 61.11200 41.46000
H  27.25300 62.67600 42.29800
H  26.78700 54.79200 39.32400
H  29.19500 54.98000 37.97700
H  29.75800 53.81000 40.63600
H  29.53300 52.82700 39.21100
H  28.17800 53.23200 40.27000
H  27.91200 55.97700 36.91900
H  26.65200 57.07400 37.39700
H  25.02500 55.92000 36.55900
H  25.42300 54.48900 37.33900
H  33.71100 55.81900 38.76900
H  33.89700 55.07100 40.32800
H  35.20300 56.02600 39.79800
H  35.47200 60.98900 40.87100
H  36.68900 59.96900 41.96900
H  35.05300 60.30300 42.46000
H  31.80800 63.29500 40.94200
H  29.82800 63.26800 43.12200
H  32.55800 64.46300 42.63700
H  33.18900 62.82200 43.12200
H  31.69200 63.52000 43.88700
H  28.59500 64.07600 40.56700
H  30.17400 64.71200 40.43900
H  27.96900 66.12300 41.58300
H  29.69100 66.53100 41.80700
H  28.89100 65.63000 43.01200
H  23.61700 61.29700 41.88000
H  24.71500 62.31200 40.84700
H  25.04500 62.40800 42.49300
H  24.83500 57.21500 38.82500
H  22.80800 53.96700 40.82500
H  24.47100 53.30400 40.72900
H  23.37200 53.22500 39.33800
Mg -10.08900 40.79200 42.94700
C  -8.61600 37.87300 41.73900
C  -7.78200 42.64100 41.17400
C  -11.69100 43.40600 44.11700
C  -13.01100 38.80800 43.84600
N  -8.29800 40.23100 41.61500
C  -7.89900 38.98100 41.23300
C  -6.67800 39.04800 40.38600
C  -6.44000 40.59600 40.17200
C  -7.57700 41.25700 41.04500
C  -4.98600 41.06900 40.42300
C  -6.83200 38.29900 39.04000
C  -5.67600 37.32300 38.82800
H  -4.88500 37.42500 37.48900
N  -9.75400 42.76600 42.70300
C  -8.72900 43.36600 41.97300
C  -8.87200 44.79700 42.20800
C  -10.00600 45.05500 43.11000
C  -10.52500 43.68700 43.42700
C  -8.10300 45.78800 41.48800
C  -10.49500 46.41500 43.39200
O  -9.97600 47.42800 42.97200
C  -11.74500 46.70800 44.14600
N  -12.01700 41.03600 43.77600
C  -12.30900 42.20100 44.43900
C  -13.68100 42.11000 45.07300
C  -14.24200 40.84200 44.54700
C  -13.08300 40.19800 43.96600
C  -13.70800 42.29100 46.64600
C  -15.26700 41.05700 43.38100
C  -16.32200 40.05900 43.24400
N  -10.72900 38.74300 42.86600
C  -11.88000 38.08300 43.31600
C  -11.64700 36.67300 43.29400
C  -10.42100 36.52600 42.65600
C  -9.90000 37.83800 42.36900
C  -12.60800 35.66600 43.80900
C  -9.50700 35.58200 42.14800
O  -9.55000 34.37200 42.15700
C  -8.30600 36.38400 41.59900
C  -7.07900 35.93500 42.27600
O  -6.65100 36.36600 43.36000
O  -6.55600 34.85100 41.60900
C  -5.28400 34.28000 42.02100
H  -6.98400 43.15900 40.63900
H  -12.35200 44.18100 44.51300
H  -13.89800 38.25100 44.15500
H  -5.86700 38.79100 41.06800
H  -6.60400 40.92400 39.14600
H  -4.42500 40.13600 40.35700
H  -4.81000 41.64900 41.32900
H  -4.66100 41.71400 39.60700
H  -6.76000 38.94200 38.16300
H  -7.79900 37.79800 39.08100
H  -6.24400 36.39600 38.75100
H  -5.06200 37.35000 39.72700
H  -7.39900 45.26300 40.84200
H  -7.46100 46.42800 42.09400
H  -8.77100 46.37100 40.85300
H  -11.59200 46.04300 44.99600
H  -12.59700 46.39100 43.54400
H  -11.78600 47.75300 44.45400
H  -14.19200 42.98500 44.67300
H  -14.60800 40.10900 45.26600
H  -12.74000 42.63900 47.00700
H  -14.11000 41.44200 47.20000
H  -14.30700 43.14200 46.96900
H  -14.72400 41.14600 42.44000
H  -15.78500 42.00900 43.49600
H  -17.15500 40.34300 43.88800
H  -15.96800 39.05000 43.45800
H  -16.80100 40.16400 42.27000
H  -13.09400 36.01500 44.72000
H  -12.17300 34.67900 43.96700
H  -13.39900 35.66300 43.05900
H  -8.06700 36.13500 40.56500
H  -5.23500 33.70700 42.94700
H  -4.52300 35.06000 42.03400
H  -5.07200 33.53500 41.25500

