158

Mg 16.01900 -2.58700 28.32900
C  14.92900 -0.31000 30.80300
C  17.96900 -4.11000 30.69400
C  17.62500 -4.34600 25.88500
C  14.69700 -0.33000 26.05200
N  16.41100 -2.24000 30.49900
C  15.79600 -1.29100 31.30900
C  16.24900 -1.41000 32.76200
C  17.29500 -2.60100 32.76400
C  17.26700 -3.02300 31.21200
C  18.69900 -2.21500 33.20300
C  15.09400 -1.64500 33.83900
C  15.13900 -0.76600 35.17500
H  16.49000 -0.05300 35.57600
N  17.44300 -4.16600 28.26700
C  18.09700 -4.68500 29.35300
C  18.95200 -5.77700 28.95000
C  18.79200 -5.85700 27.58200
C  17.92800 -4.78000 27.15200
C  19.71500 -6.68900 29.94000
C  19.35900 -6.89200 26.63100
O  19.16500 -6.88700 25.40500
C  20.37900 -7.97700 27.11500
N  16.22200 -2.36100 26.29900
C  16.80400 -3.24200 25.48100
C  16.72800 -2.76200 24.01800
C  15.76200 -1.53700 24.08900
C  15.56700 -1.33900 25.60600
C  18.03200 -2.45000 23.27700
C  14.39600 -1.86000 23.34500
C  13.80100 -0.79200 22.39800
N  14.70200 -0.91400 28.37600
C  14.35600 -0.04400 27.31200
C  13.61900 1.09300 27.80500
C  13.70900 0.94400 29.22500
C  14.47500 -0.21700 29.45700
C  13.02100 2.05700 26.96900
C  13.39600 1.65800 30.50600
O  12.71500 2.67100 30.69700
C  14.22900 0.88100 31.63300
C  15.03400 1.86700 32.30900
O  16.20000 2.13000 32.06200
O  14.29000 2.54900 33.16800
C  14.96100 3.69800 33.83800
H  18.63200 -4.56400 31.43400
H  18.00700 -4.89400 25.02100
H  14.36000 0.36100 25.27600
H  16.70400 -0.45500 33.02400
H  16.89400 -3.39600 33.39200
H  19.40400 -2.45900 32.40900
H  18.94100 -2.97100 33.95000
H  18.73900 -1.16100 33.48000
H  15.13800 -2.68100 34.17700
H  14.11500 -1.55500 33.36700
H  14.85200 -1.33400 36.06000
H  14.35500 -0.01400 35.07800
H  19.41500 -7.71500 29.72800
H  19.40500 -6.55400 30.97600
H  20.79900 -6.58200 29.93800
H  21.17900 -7.46100 27.64600
H  20.76000 -8.56500 26.28100
H  19.96100 -8.66200 27.85300
H  16.32800 -3.57000 23.40600
H  16.09100 -0.58400 23.67400
H  17.89600 -2.66400 22.21700
H  18.89400 -3.06800 23.53000
H  18.43300 -1.43700 23.33000
H  13.64100 -2.19800 24.05600
H  14.62100 -2.66400 22.64500
H  12.75200 -0.76500 22.69400
H  14.04800 -1.13500 21.39400
H  14.34400 0.15200 22.40800
H  12.23600 2.58600 27.50900
H  12.61100 1.59800 26.06900
H  13.75600 2.76300 26.58100
H  13.47400 0.58000 32.36000
H  14.96400 4.62700 33.26800
H  15.96800 3.40500 34.13600
H  14.41100 4.03600 34.71600
Mg 0.97700 42.17600 25.97100
C  2.12000 42.31700 29.32000
C  -1.99600 41.18300 27.05000
C  0.19600 41.54700 22.78800
C  4.26300 42.98100 24.92400
N  0.24400 41.77100 27.98100
C  0.77400 42.01400 29.19900
C  -0.27300 41.88300 30.28200
C  -1.56100 41.34900 29.63500
C  -1.13100 41.45000 28.11800
C  -1.88200 39.87500 30.02900
C  -0.39700 43.27700 30.93500
C  -0.42900 43.29500 32.52800
H  -0.54400 41.90800 33.29900
N  -0.69200 41.43500 25.01000
C  -1.81100 41.04100 25.66100
C  -2.80700 40.66100 24.73100
C  -2.20200 40.87400 23.41700
C  -0.82800 41.35700 23.72400
C  -4.21800 40.22300 25.11200
C  -2.68800 40.57100 22.00800
O  -2.12600 40.93300 20.96900
C  -4.02900 39.79400 21.81400
N  2.13500 42.31300 24.15600
C  1.51600 42.03300 22.96400
C  2.46100 42.08700 21.76900
C  3.73200 42.74500 22.36000
C  3.38300 42.69900 23.88400
C  2.79800 40.70900 21.16500
C  3.90900 44.22100 21.95900
C  4.03200 44.57200 20.52200
N  2.82700 42.60500 26.90500
C  4.03800 42.99300 26.35400
C  5.00000 43.19000 27.42400
C  4.23300 43.03700 28.61600
C  2.98100 42.60100 28.22700
C  6.46600 43.54100 27.26000
C  4.29600 43.22900 30.04300
O  5.13900 43.64200 30.78400
C  2.92700 42.62000 30.54600
C  3.26700 41.35300 31.34600
O  3.16800 40.18300 30.98900
O  3.41000 41.67300 32.66900
C  3.25700 40.78400 33.83400
H  -3.01700 41.00900 27.39700
H  0.00500 41.25100 21.75400
H  5.28800 43.21900 24.63300
H  0.11800 41.13800 30.97500
H  -2.34300 42.05900 29.90800
H  -2.08100 39.35400 29.09200
H  -2.73500 39.82500 30.70500
H  -1.06500 39.33900 30.51300
H  -1.25500 43.79000 30.49900
H  0.45200 43.92300 30.71000
H  -1.31500 43.82400 32.87800
H  0.46800 43.76200 32.93400
H  -4.58800 39.34700 24.58000
H  -4.85100 41.08200 24.88900
H  -4.23200 39.95700 26.16900
H  -3.75700 38.75700 22.01300
H  -4.17500 40.05600 20.76600
H  -4.76900 40.31700 22.42000
H  2.09900 42.75200 20.98500
H  4.56600 42.07400 22.15300
H  2.25200 40.60900 20.22700
H  2.49600 39.83000 21.73500
H  3.85900 40.64900 20.92400
H  4.58100 44.74100 22.64100
H  2.94000 44.62100 22.25800
H  3.12800 45.12300 20.26100
H  4.28000 43.69900 19.91800
H  4.89900 45.22400 20.41000
H  7.03300 42.61100 27.22500
H  6.74500 44.11800 28.14200
H  6.52900 44.09100 26.32100
H  2.47700 43.42200 31.13200
H  2.73600 39.87200 33.54400
H  2.71800 41.26800 34.64800
H  4.20400 40.53000 34.31000

