158

Mg 16.56000 52.15500 24.80800
C  18.46800 51.31000 27.72600
C  13.81700 52.60300 26.90600
C  14.74100 52.46900 22.13900
C  19.43800 50.96100 22.87500
N  16.23600 51.98900 26.99400
C  17.20500 51.75800 28.00400
C  16.56300 51.99300 29.40900
C  15.06500 52.30800 29.13300
C  15.04500 52.40300 27.56900
C  13.90200 51.35400 29.58100
C  17.41200 53.15500 30.14000
C  17.69000 52.87900 31.64300
H  16.89400 51.91700 32.41300
N  14.51400 52.55900 24.55300
C  13.53400 52.66800 25.53100
C  12.26100 52.95800 24.85000
C  12.57500 53.06000 23.45100
C  13.98100 52.77000 23.30900
C  11.01200 53.17900 25.59000
C  11.61600 53.38800 22.25000
O  12.04000 53.43700 21.09200
C  10.07400 53.66600 22.48000
N  16.98600 51.63700 22.87300
C  16.08000 52.02400 21.87900
C  16.65600 51.95100 20.47500
C  18.20300 51.76600 20.75800
C  18.26600 51.46600 22.31000
C  16.01900 50.83300 19.65300
C  19.05400 53.04900 20.40900
C  20.46300 52.86000 19.99600
N  18.52300 51.18400 25.19600
C  19.59000 50.82500 24.36500
C  20.68600 50.38400 25.15200
C  20.29200 50.57900 26.46800
C  18.93800 51.01600 26.45300
C  22.01700 50.08900 24.60200
C  20.69600 50.47800 27.82600
O  21.79100 50.18000 28.27600
C  19.50600 50.92100 28.74400
C  19.10200 49.71600 29.43200
O  18.55500 48.75200 28.90200
O  19.55400 49.68100 30.72600
C  19.37700 48.45300 31.51900
H  13.03700 52.94100 27.59100
H  14.44500 52.82300 21.15000
H  20.29100 50.94300 22.19400
H  16.74900 51.05300 29.92900
H  14.93300 53.30200 29.55900
H  13.23400 51.85400 30.28200
H  14.41400 50.59300 30.17000
H  13.33700 50.89300 28.77100
H  16.83800 54.08100 30.09600
H  18.30300 53.38800 29.55700
H  17.70500 53.84600 32.14600
H  18.71800 52.52400 31.71800
H  10.41500 52.31000 25.31400
H  10.45700 54.09900 25.40300
H  11.10800 53.14000 26.67500
H  9.63900 54.08800 21.57400
H  9.95900 54.47400 23.20200
H  9.55100 52.78900 22.86100
H  16.45700 52.88500 19.94900
H  18.61100 50.91200 20.21800
H  15.49200 51.32800 18.83700
H  15.25900 50.39800 20.30200
H  16.79700 50.13300 19.34900
H  19.01600 53.70900 21.27600
H  18.46700 53.54100 19.63400
H  20.79700 53.52200 19.19600
H  20.68800 51.84500 19.67000
H  21.19000 52.92300 20.80500
H  22.01900 50.15100 23.51400
H  22.23700 49.02300 24.66400
H  22.75100 50.72400 25.09800
H  19.88500 51.60100 29.50700
H  18.35700 48.30800 31.87800
H  19.95300 48.52000 32.44200
H  19.66000 47.61100 30.88800
Mg -9.66500 18.14900 42.74100
C  -6.25200 17.28000 42.69400
C  -8.81100 21.33900 41.85200
C  -12.92800 18.78600 42.52200
C  -10.26700 14.66600 43.05400
N  -7.62900 19.15400 42.25700
C  -6.39000 18.63100 42.48600
C  -5.38700 19.70600 42.29000
C  -6.25700 20.99900 42.10000
C  -7.69000 20.51700 42.09900
C  -6.01200 22.22700 42.99700
C  -4.24200 19.44700 41.24400
C  -4.69100 18.69000 39.95100
H  -4.10000 19.16400 38.60400
N  -10.73000 19.89800 42.27400
C  -10.20000 21.09500 41.96000
C  -11.27000 22.04900 41.74700
C  -12.50300 21.33600 41.91500
C  -12.08200 19.93600 42.25600
C  -11.05700 23.40000 41.21100
C  -13.89600 21.84100 41.68100
O  -14.11800 23.06000 41.56100
C  -15.02600 20.94000 41.55600
N  -11.33000 16.89000 42.37900
C  -12.55900 17.40200 42.61000
C  -13.64600 16.31000 42.95200
C  -12.72200 15.02000 42.92500
C  -11.33900 15.52000 42.74800
C  -14.32500 16.54100 44.33200
C  -12.99000 14.03400 41.72500
C  -13.80100 12.72900 42.12500
N  -8.51200 16.23900 42.96600
C  -8.90700 14.98600 43.03000
C  -7.83300 14.08300 43.19800
C  -6.72600 14.95400 43.13300
C  -7.18800 16.25400 42.85500
C  -7.90100 12.55500 43.29300
C  -5.29600 15.00200 43.14200
O  -4.44600 14.13900 43.17800
C  -4.90900 16.47000 42.88200
C  -4.07900 16.95600 43.95000
O  -2.91700 17.19800 43.88300
O  -4.85500 17.26900 45.05800
C  -4.20500 18.04600 46.11000
H  -8.48200 22.33600 41.55200
H  -14.00200 18.81200 42.71800
H  -10.58900 13.65400 43.30500
H  -4.95500 19.79400 43.28700
H  -6.06200 21.29300 41.06900
H  -6.94000 22.67200 43.35700
H  -5.74500 23.01700 42.29600
H  -5.31000 22.08400 43.81800
H  -3.42200 18.88600 41.69400
H  -3.73800 20.38500 41.01200
H  -5.76400 18.87400 39.91800
H  -4.51400 17.61700 40.02400
H  -10.99300 24.09200 42.05000
H  -11.87700 23.75400 40.58600
H  -10.19300 23.53900 40.56100
H  -14.86400 20.09100 40.89200
H  -15.89600 21.42700 41.11700
H  -15.27900 20.70700 42.59100
H  -14.48400 16.35000 42.25600
H  -12.84500 14.45700 43.85100
H  -14.04700 15.81300 45.09300
H  -15.41200 16.54800 44.25600
H  -14.21600 17.53100 44.77600
H  -12.10400 13.78700 41.13900
H  -13.70800 14.60100 41.13200
H  -14.73500 12.79100 41.56700
H  -14.12100 12.72700 43.16700
H  -13.15900 11.85800 41.99500
H  -7.37900 12.14200 42.43000
H  -8.94000 12.22900 43.34900
H  -7.49400 12.23200 44.25100
H  -4.39200 16.53100 41.92400
H  -3.19400 18.32400 45.81100
H  -4.09400 17.51300 47.05400
H  -4.68700 19.00900 46.28200

