158

Mg 48.38700 35.11400 26.93000
C  46.37400 33.69300 29.44000
C  49.09200 37.72000 29.06800
C  49.90000 36.60600 24.42200
C  47.29300 32.49600 24.70100
N  47.77600 35.61900 29.00700
C  47.00300 34.90000 29.88900
C  47.17300 35.43200 31.37100
C  47.53500 36.93500 30.99500
C  48.18800 36.78200 29.54800
C  46.38900 37.96100 31.01400
C  48.27500 34.67100 32.14500
C  47.92600 34.23800 33.52900
H  47.13400 35.20500 34.34400
N  49.33400 36.99100 26.76500
C  49.66000 37.84700 27.78300
C  50.52600 38.83100 27.23800
C  50.61500 38.68000 25.85300
C  49.92500 37.40100 25.63000
C  51.11200 39.88400 28.20300
C  51.33400 39.48800 24.78700
O  51.23300 39.28000 23.56500
C  52.13400 40.53700 25.16700
N  48.47000 34.66600 24.78000
C  49.23900 35.43400 23.97800
C  49.31400 34.87800 22.52400
C  48.74100 33.34700 22.76900
C  48.11600 33.51000 24.18000
C  48.70500 35.79300 21.44700
C  49.80000 32.18900 22.78500
C  49.44800 30.94000 21.99000
N  47.11900 33.44900 26.99400
C  46.82600 32.47000 26.01100
C  45.94200 31.56900 26.60800
C  45.73300 31.97300 27.93200
C  46.44600 33.15100 28.10300
C  45.41200 30.30100 25.89400
C  45.03600 31.67000 29.14000
O  44.17700 30.82900 29.38900
C  45.29200 32.91500 30.07800
C  45.64800 32.35500 31.43400
O  46.59900 31.65100 31.64700
O  44.57500 32.60000 32.27500
C  44.64000 31.88300 33.58200
H  49.45800 38.50500 29.73400
H  50.44000 37.08300 23.60100
H  47.19300 31.70600 23.95300
H  46.23700 35.24500 31.89700
H  48.31800 37.34900 31.63200
H  45.39900 37.59200 31.28000
H  46.41700 38.26200 29.96700
H  46.59600 38.79800 31.68000
H  49.22200 35.19300 32.27700
H  48.36200 33.71500 31.62800
H  48.92400 34.13300 33.95300
H  47.40900 33.28100 33.59800
H  52.08600 40.24600 27.87300
H  51.18300 39.37500 29.16500
H  50.42300 40.72500 28.27600
H  52.42900 41.02000 24.23600
H  53.00200 40.20000 25.73300
H  51.49000 41.24600 25.68800
H  50.36600 34.84500 22.24000
H  47.92000 33.05200 22.11600
H  48.06300 35.18900 20.80600
H  49.55000 36.20700 20.89700
H  48.05100 36.61100 21.74800
H  50.06800 31.95200 23.81500
H  50.68300 32.64400 22.33700
H  50.25100 30.92100 21.25400
H  48.46100 31.02400 21.53500
H  49.44600 30.07600 22.65500
H  45.32500 30.60500 24.85100
H  44.47800 29.91900 26.30500
H  46.17600 29.52900 25.98800
H  44.35600 33.46900 30.14900
H  45.47700 31.22600 33.81600
H  43.67300 31.40500 33.73700
H  44.61900 32.66000 34.34600
Mg 6.40600 53.82000 40.03100
C  5.50500 50.46900 40.02800
C  9.65200 52.86000 39.42500
C  7.11300 56.91800 39.18400
C  2.96900 54.57200 40.30400
N  7.43400 51.84500 39.54500
C  6.89900 50.64400 39.77400
C  7.99500 49.51000 39.65000
C  9.22600 50.39700 40.03800
C  8.77800 51.80200 39.50700
C  9.62300 50.33900 41.56600
C  8.10000 48.88300 38.23800
C  7.29100 49.44800 37.05300
H  8.11700 49.80400 35.75700
N  8.14800 54.76000 39.29800
C  9.39600 54.22400 39.21600
C  10.35900 55.20000 38.75900
C  9.64700 56.46100 38.71300
C  8.21500 56.10800 39.04000
C  11.78100 54.90300 38.41700
C  10.32700 57.81200 38.49900
O  11.47600 57.94600 38.22400
C  9.43200 59.04900 38.50700
N  5.19300 55.50800 39.84400
C  5.76800 56.62700 39.38400
C  4.73300 57.76300 39.50100
C  3.41000 57.02600 39.80500
C  3.83000 55.61200 39.99200
C  5.15500 58.96700 40.42100
C  2.22700 57.33300 38.77400
C  0.95000 57.81100 39.41200
N  4.57800 52.78100 40.18900
C  3.27800 53.23500 40.39500
C  2.35000 52.10700 40.72000
C  3.19200 51.00900 40.53100
C  4.49500 51.44100 40.23800
C  0.98900 52.17100 41.21300
C  3.17300 49.58500 40.61200
O  2.33300 48.76700 40.96300
C  4.73000 49.17400 40.24700
C  4.70700 48.33000 39.11100
O  4.13300 48.49800 38.00700
O  5.41100 47.18200 39.46800
C  5.57500 46.16400 38.39700
H  10.70600 52.57600 39.46300
H  7.16000 57.99500 39.00800
H  1.95600 54.90800 40.53400
H  7.92300 48.68300 40.35600
H  10.06600 49.94300 39.51200
H  10.71300 50.34600 41.53300
H  9.32500 49.50000 42.19500
H  9.21000 51.20600 42.08100
H  7.76200 47.86400 38.42800
H  9.15800 48.82600 37.98200
H  6.81600 50.38400 37.34800
H  6.59700 48.65000 36.78900
H  11.93100 55.06400 37.34900
H  12.06400 53.93300 38.82600
H  12.33100 55.65300 38.98500
H  10.07400 59.92000 38.64200
H  8.90700 59.09800 39.46000
H  8.78200 59.07200 37.63100
H  4.69900 58.09800 38.46400
H  3.22800 57.25500 40.85600
H  4.26700 59.37900 40.90200
H  5.59600 59.71600 39.76300
H  5.88900 58.66100 41.16600
H  1.98800 56.36100 38.34300
H  2.53400 58.09100 38.05200
H  0.12700 57.70800 38.70500
H  0.91700 58.82200 39.81800
H  0.76100 57.10600 40.22100
H  0.73500 53.20800 40.99700
H  0.97900 52.03200 42.29400
H  0.31200 51.52100 40.65800
H  5.28200 48.69000 41.05300
H  4.55600 45.81600 38.22500
H  6.25600 45.35600 38.66400
H  5.99100 46.69700 37.54300

