158

Mg 53.88800 24.07100 46.21200
C  51.19300 26.08000 45.01100
C  52.01700 21.28000 45.03500
C  56.50600 22.22600 46.68700
C  55.64300 26.97400 46.91800
N  51.81500 23.79700 45.14400
C  50.93800 24.76400 44.76700
C  49.71500 24.14600 44.08000
C  49.79300 22.71600 44.69500
C  51.31200 22.57300 44.94000
C  49.08900 22.51900 46.04800
C  49.73700 24.13600 42.47900
C  48.40800 24.70800 41.96500
H  47.96900 24.43700 40.47500
N  54.26800 22.03900 45.93800
C  53.34900 21.12500 45.31500
C  54.08900 19.86300 45.25000
C  55.35300 20.07300 45.81900
C  55.44800 21.45600 46.21400
C  53.47200 18.61300 44.58900
C  56.37100 18.95700 46.01500
O  56.24600 17.80800 45.53100
C  57.55100 19.13500 46.90000
N  55.75700 24.53300 46.70400
C  56.70700 23.55600 46.95300
C  58.01700 24.05100 47.52300
C  57.73000 25.63100 47.55000
C  56.27900 25.74100 47.08500
C  58.52800 23.41600 48.80300
C  58.66700 26.51900 46.68900
C  59.15400 27.87300 47.24800
N  53.48200 26.09800 46.13100
C  54.30000 27.12700 46.49700
C  53.52600 28.35300 46.48800
C  52.37000 28.05800 45.80600
C  52.31400 26.67500 45.64900
C  53.80600 29.64000 47.24600
C  51.05600 28.56500 45.36200
O  50.56100 29.68000 45.43900
C  50.36300 27.35100 44.67200
C  50.35400 27.65400 43.21700
O  51.22500 27.44600 42.39400
O  49.09500 27.97000 42.84900
C  48.87000 28.28100 41.46900
H  51.31100 20.45600 44.91300
H  57.44400 21.69300 46.85700
H  56.13700 27.91700 47.16300
H  48.78100 24.58400 44.43100
H  49.49700 21.89100 44.04600
H  48.41900 21.65900 46.05200
H  48.45600 23.36500 46.31400
H  49.82100 22.33300 46.83400
H  49.80300 23.07800 42.22500
H  50.53800 24.75300 42.07100
H  48.40100 25.76900 42.21300
H  47.54600 24.26800 42.46700
H  54.07700 18.31100 43.73500
H  52.50000 18.86700 44.16600
H  53.29100 17.86900 45.36500
H  57.43000 19.88600 47.68100
H  58.37400 19.40300 46.23600
H  57.66200 18.16300 47.37900
H  58.80500 23.88400 46.78800
H  57.85600 25.92200 48.59300
H  57.95100 22.51000 48.98700
H  58.40300 24.00300 49.71300
H  59.58900 23.21200 48.65300
H  58.04100 26.92100 45.89200
H  59.52800 25.94200 46.35200
H  60.24100 27.87100 47.16000
H  58.98800 27.95000 48.32300
H  58.60000 28.70800 46.82100
H  52.84000 30.14300 47.28200
H  54.47300 30.21100 46.60000
H  54.27900 29.51200 48.21900
H  49.34100 27.31100 45.05100
H  49.61800 28.12900 40.69100
H  48.61500 29.34100 41.44000
H  47.98200 27.67000 41.30900
Mg 47.63700 16.11900 28.98900
C  45.54300 15.96000 31.71000
C  49.60400 18.25000 30.90400
C  49.70000 16.49200 26.35400
C  45.18100 14.67200 26.96200
N  47.65700 16.88300 31.07300
C  46.65900 16.66200 31.99100
C  46.95600 17.26300 33.38300
C  48.07000 18.30400 32.94400
C  48.46600 17.87900 31.54700
C  47.61200 19.79400 32.83300
C  47.44700 16.18200 34.37600
C  47.49900 16.62500 35.81100
H  47.26400 18.12700 36.30900
N  49.41200 17.12300 28.72700
C  50.03600 17.96600 29.56100
C  51.31700 18.39800 29.08300
C  51.44800 17.80500 27.75100
C  50.18700 17.09400 27.54800
C  52.45600 19.10200 29.87700
C  52.64300 17.74100 26.79000
O  52.63900 17.11300 25.75100
C  53.86600 18.49300 27.15800
N  47.51100 15.63300 26.95100
C  48.46000 15.85400 26.05000
C  48.11800 15.32400 24.61800
C  46.70000 14.60800 24.83800
C  46.41500 15.04600 26.32100
C  47.94000 16.49600 23.56800
C  46.76000 13.10200 24.53000
C  47.49100 12.12200 25.49200
N  45.75700 15.47400 29.18700
C  44.86400 14.78800 28.31200
C  43.72800 14.38800 29.05300
C  43.98300 14.73000 30.42000
C  45.20800 15.43100 30.47400
C  42.49500 13.75400 28.43100
C  43.44700 14.67200 31.73200
O  42.35500 14.24600 32.15700
C  44.42900 15.49700 32.64900
C  43.66900 16.56600 33.38200
O  43.34100 17.69000 32.98700
O  43.42400 16.13600 34.68000
C  42.87800 17.10500 35.64700
H  50.27200 18.93800 31.42600
H  50.37500 16.52600 25.49600
H  44.42400 14.16800 26.35800
H  46.06400 17.74800 33.77700
H  48.94200 18.27300 33.59700
H  47.42100 20.05400 31.79200
H  48.43300 20.47000 33.07400
H  46.73300 20.05700 33.42100
H  48.44400 15.83400 34.10500
H  46.74000 15.36100 34.49200
H  48.56600 16.57600 36.03100
H  46.84700 15.97200 36.39100
H  53.22600 18.47800 30.33100
H  52.07600 19.62500 30.75400
H  52.86500 19.84000 29.18800
H  54.31100 18.26100 28.12500
H  53.82000 19.58000 27.21600
H  54.67700 18.35700 26.44300
H  48.86200 14.62600 24.23400
H  45.83700 15.03200 24.32500
H  47.92800 16.17300 22.52700
H  48.92100 16.97000 23.54700
H  47.18500 17.24200 23.81600
H  47.28400 13.00300 23.57900
H  45.70800 12.82400 24.47800
H  47.71500 12.56100 26.46500
H  48.30000 11.53500 25.05700
H  46.80300 11.33800 25.80900
H  42.13700 14.33100 27.57900
H  41.64100 13.80500 29.10500
H  42.70200 12.75400 28.04900
H  44.82200 14.72800 33.31300
H  42.02700 17.62100 35.20300
H  43.55500 17.88800 35.98800
H  42.66400 16.60800 36.59300

