158

Mg 40.35700 9.78000 29.35500
C  42.13300 10.52700 32.32900
C  38.06300 8.03300 31.26900
C  38.87100 8.72500 26.51700
C  43.01100 10.96200 27.46800
N  40.28700 9.22300 31.56900
C  41.09500 9.60600 32.57500
C  40.50200 9.25600 33.93800
C  39.39200 8.21100 33.53600
C  39.18300 8.53700 32.05000
C  39.62000 6.69200 33.85200
C  39.92100 10.48700 34.66500
C  40.30600 10.61200 36.17400
H  40.53800 11.98000 36.76200
N  38.67400 8.65100 28.90000
C  37.89900 8.01300 29.83200
C  36.82100 7.25800 29.15400
C  36.97700 7.54300 27.77600
C  38.17700 8.36100 27.65500
C  35.89000 6.36500 29.81500
C  36.15900 7.02900 26.60500
O  36.38500 7.37900 25.45100
C  35.07200 6.10800 26.93700
N  40.94700 9.77100 27.27200
C  40.17100 9.23100 26.34900
C  40.80000 9.39300 24.93900
C  42.04000 10.21400 25.22900
C  41.99300 10.34900 26.77200
C  40.99600 8.03200 24.21300
C  41.88700 11.63600 24.55200
C  40.60200 12.40200 24.78800
N  42.23700 10.56100 29.76600
C  43.17900 11.07900 28.89500
C  44.20400 11.69500 29.65400
C  43.82400 11.60600 30.97700
C  42.61100 10.88900 31.01700
C  45.38700 12.39700 29.23700
C  44.14100 11.86100 32.44700
O  45.13400 12.43500 32.90100
C  43.03100 11.18100 33.36700
C  43.77500 10.23900 34.26800
O  44.47100 9.33000 33.89700
O  43.50500 10.59500 35.53400
C  44.36000 9.93900 36.54500
H  37.34900 7.46300 31.86600
H  38.43200 8.44600 25.55700
H  43.90000 11.37900 26.98900
H  41.09300 8.69000 34.65700
H  38.45200 8.41200 34.05100
H  40.06500 6.21600 32.97800
H  38.69800 6.14300 34.04600
H  40.35800 6.46100 34.62000
H  38.83700 10.42800 34.56500
H  40.24700 11.39300 34.15400
H  41.18900 10.07800 36.52600
H  39.48700 10.16400 36.73700
H  34.84700 6.55900 29.56500
H  35.76000 6.68700 30.84800
H  36.19500 5.32300 29.71000
H  35.37000 5.10500 27.24200
H  34.50100 5.95800 26.02100
H  34.42700 6.76300 27.52300
H  40.03300 9.94800 24.39900
H  42.98200 9.75700 24.92700
H  42.07100 8.01700 24.03700
H  40.62400 7.97300 23.19000
H  40.66100 7.19100 24.81900
H  41.96600 11.53800 23.46900
H  42.80700 12.16300 24.80600
H  40.77700 13.37800 25.24000
H  39.85200 11.92000 25.41500
H  40.09700 12.77200 23.89600
H  45.39100 13.27700 29.88100
H  45.32600 12.75400 28.20900
H  46.31400 11.83400 29.34400
H  42.42600 11.88700 33.93600
H  45.42100 9.92100 36.29400
H  43.86300 8.98300 36.71100
H  44.18700 10.41900 37.50900
Mg 35.35500 48.93900 25.49500
C  35.95600 47.22300 28.44100
C  33.70900 51.39100 27.22400
C  34.43800 50.37700 22.55100
C  36.74500 46.31900 23.65900
N  34.92400 49.20700 27.56100
C  35.45600 48.53300 28.61900
C  35.33100 49.24300 29.90900
C  34.56600 50.56500 29.46300
C  34.46800 50.42200 27.94000
C  33.17300 50.67000 30.11700
C  36.71100 49.53800 30.52900
C  36.75800 49.37900 32.11000
H  35.40900 49.48700 32.80700
N  34.17400 50.62400 24.95700
C  33.51800 51.43500 25.85600
C  32.60800 52.34700 25.09700
C  32.77500 51.99700 23.69000
C  33.84400 50.96200 23.66200
C  31.72800 53.39800 25.71500
C  32.17000 52.64500 22.40700
O  32.32900 52.26300 21.26500
C  31.15100 53.82400 22.61600
N  35.82600 48.54900 23.45200
C  35.29600 49.29300 22.41600
C  35.65500 48.77100 21.00400
C  36.57500 47.50700 21.32400
C  36.43800 47.44300 22.93000
C  34.37200 48.44500 20.15100
C  38.11300 47.57100 20.98300
C  38.83200 46.25700 20.55800
N  36.07500 47.07900 25.86800
C  36.63500 46.10100 25.02100
C  36.96600 44.94600 25.85000
C  36.79900 45.34500 27.18700
C  36.21400 46.65300 27.15200
C  37.41400 43.57600 25.34400
C  36.96200 44.91200 28.54200
O  37.41400 43.87200 28.96000
C  36.23100 46.09600 29.39800
C  35.08400 45.63600 30.21200
O  34.20800 44.83400 29.91400
O  35.28300 46.04500 31.44100
C  34.41400 45.42000 32.48800
H  33.23100 52.19100 27.79300
H  34.08200 50.73000 21.58100
H  37.13400 45.44800 23.12700
H  34.74700 48.56900 30.53600
H  35.19900 51.42400 29.68500
H  32.75500 49.79400 30.61200
H  32.42300 50.75200 29.33100
H  33.14400 51.56200 30.74400
H  36.97800 50.58300 30.36800
H  37.42300 48.78400 30.19300
H  37.42000 50.15200 32.50100
H  37.19300 48.39500 32.28800
H  31.80900 53.33500 26.80000
H  30.69300 53.13500 25.49700
H  31.96900 54.39700 25.35200
H  31.77000 54.59100 23.08200
H  30.33400 53.49900 23.25900
H  30.78800 54.12200 21.63200
H  36.22900 49.54100 20.48900
H  36.12800 46.62700 20.86000
H  33.45800 48.88800 20.54600
H  34.19200 47.37000 20.15100
H  34.49500 48.71500 19.10200
H  38.60500 48.07900 21.81200
H  38.33600 48.26500 20.17300
H  39.36000 46.47000 19.62800
H  38.22100 45.35500 20.53300
H  39.63300 46.15300 21.29100
H  38.49100 43.59100 25.51000
H  37.14500 43.35100 24.31200
H  37.05900 42.81800 26.04300
H  37.07100 46.44800 29.99700
H  33.54700 46.06400 32.63400
H  34.94200 45.68700 33.40300
H  34.22600 44.34700 32.54200

