158

Mg 1.76200 -0.97400 44.13000
C  5.17000 -0.25700 43.45300
C  0.96500 1.82500 42.42000
C  -1.45000 -2.01700 43.88900
C  2.84900 -4.13500 45.16200
N  2.99900 0.52100 43.05400
C  4.34300 0.68900 42.89800
C  4.83200 1.84100 42.07700
C  3.40700 2.62100 41.95700
C  2.38100 1.55000 42.49600
C  3.36700 4.02000 42.73800
C  5.27400 1.37200 40.70600
C  6.45300 2.06400 40.08700
H  6.08900 2.85800 38.75200
N  -0.02300 -0.15100 43.34500
C  -0.18400 1.06100 42.71100
C  -1.55700 1.44100 42.61000
C  -2.29800 0.33400 43.09000
C  -1.28300 -0.70800 43.45300
C  -2.08000 2.69900 41.90800
C  -3.77100 0.34100 43.31200
O  -4.50200 1.34900 43.08200
C  -4.50200 -0.84700 43.81800
N  0.91600 -2.79800 44.36800
C  -0.46500 -2.99000 44.22200
C  -0.86500 -4.42700 44.61900
C  0.45700 -4.98800 45.18200
C  1.45900 -3.91500 44.88800
C  -2.10900 -4.58400 45.53600
C  0.79000 -6.44600 44.64800
C  1.62700 -7.47400 45.50000
N  3.59300 -1.94400 44.43300
C  3.87100 -3.20900 44.97000
C  5.25500 -3.40200 45.15700
C  5.84000 -2.25200 44.48100
C  4.74400 -1.40100 44.16500
C  5.82700 -4.66300 45.60200
C  7.06900 -1.64400 44.06700
O  8.26000 -2.00700 44.20700
C  6.75100 -0.23800 43.40600
C  7.29900 0.83400 44.24900
O  7.26000 0.89300 45.51900
O  7.96400 1.71400 43.43000
C  8.68100 2.84400 44.07700
H  0.72400 2.82800 42.06100
H  -2.43800 -2.44000 43.69600
H  3.21400 -5.12400 45.44700
H  5.64000 2.35200 42.60000
H  3.03000 2.81900 40.95400
H  2.64700 4.75300 42.37300
H  4.33900 4.50400 42.64800
H  2.97700 3.74500 43.71800
H  4.41800 1.46400 40.03600
H  5.50600 0.31000 40.62500
H  7.35600 1.50100 39.85000
H  6.74900 2.88900 40.73500
H  -2.75800 2.38300 41.11600
H  -1.32700 3.33500 41.44300
H  -2.65600 3.29500 42.61600
H  -4.74600 -1.35200 42.88400
H  -5.48200 -0.56100 44.19900
H  -3.96800 -1.43000 44.56800
H  -0.95500 -5.02600 43.71200
H  0.29300 -4.90200 46.25600
H  -2.19600 -3.77800 46.26500
H  -2.27300 -5.60600 45.87700
H  -3.01800 -4.50000 44.93900
H  1.26600 -6.43300 43.66800
H  -0.15900 -6.94500 44.45400
H  2.16900 -8.11000 44.80000
H  0.97900 -8.16800 46.03500
H  2.27700 -6.89800 46.15900
H  5.79900 -5.44400 44.84300
H  5.27200 -5.04900 46.45700
H  6.84100 -4.31600 45.79900
H  7.14100 -0.19300 42.38900
H  7.95700 3.65200 44.17900
H  9.43300 3.20800 43.37700
H  9.17400 2.44400 44.96300
Mg -1.53700 33.86600 27.55200
C  -2.95000 32.16700 30.39900
C  -0.05100 35.92900 29.81500
C  -1.15600 36.21200 25.03000
C  -3.42000 31.91400 25.45700
N  -1.60200 34.02500 29.86400
C  -2.13300 33.16700 30.79300
C  -1.64300 33.42700 32.22700
C  -0.88400 34.74000 31.99500
C  -0.83500 35.01600 30.47400
C  -1.32400 36.00400 32.84100
C  -1.02100 32.19500 33.05500
C  -1.65500 31.81700 34.37800
H  -0.69500 32.01100 35.57900
N  -0.55900 35.67000 27.37200
C  0.07100 36.29100 28.41100
C  0.73600 37.45000 27.95300
C  0.34900 37.63400 26.57900
C  -0.50200 36.47000 26.26400
C  1.72500 38.21100 28.75000
C  0.95200 38.56300 25.51500
O  0.72800 38.47500 24.28600
C  1.86400 39.71700 25.85800
N  -2.05000 33.91700 25.46200
C  -1.86600 35.00200 24.63100
C  -2.59100 34.83500 23.29600
C  -2.88200 33.30300 23.34200
C  -2.73600 32.97300 24.80400
C  -3.76900 35.84200 23.00700
C  -1.94600 32.45900 22.32400
C  -0.79300 31.71500 22.86700
N  -2.80500 32.31700 27.80700
C  -3.53900 31.62000 26.86400
C  -4.24700 30.54200 27.46300
C  -4.04600 30.68900 28.79300
C  -3.20500 31.83500 28.99000
C  -5.03900 29.55700 26.76700
C  -4.46600 30.24200 30.09800
O  -5.26100 29.34600 30.36100
C  -3.73100 31.12400 31.20600
C  -4.70400 31.59900 32.22300
O  -5.38900 32.61300 32.15200
O  -4.75600 30.68800 33.24400
C  -5.71600 30.86900 34.32800
H  0.66400 36.31900 30.54300
H  -1.14400 37.01800 24.29300
H  -3.98300 31.23100 24.81700
H  -2.56400 33.66000 32.76200
H  0.12000 34.42800 32.28100
H  -1.97700 35.76800 33.68100
H  -1.72300 36.80500 32.21800
H  -0.39600 36.47200 33.16900
H  0.06500 32.29000 33.07600
H  -1.11900 31.26900 32.48900
H  -1.87600 30.75000 34.38400
H  -2.57900 32.39200 34.43000
H  1.32600 39.22300 28.82100
H  2.65000 38.21400 28.17200
H  2.00200 37.79700 29.71900
H  1.29400 40.30100 26.58100
H  2.12200 40.34500 25.00600
H  2.69700 39.21000 26.34500
H  -1.85400 34.99100 22.50900
H  -3.94100 33.11400 23.16500
H  -3.81700 36.56300 23.82300
H  -4.72500 35.31900 22.96800
H  -3.56300 36.33600 22.05700
H  -1.51700 33.12500 21.57500
H  -2.61500 31.75500 21.82900
H  -0.90000 31.62200 23.94800
H  0.17500 32.15200 22.62400
H  -0.79000 30.71300 22.43700
H  -4.63100 29.43300 25.76400
H  -6.04300 29.97300 26.67600
H  -5.19200 28.69400 27.41600
H  -3.06900 30.42400 31.71700
H  -5.81200 29.94700 34.90200
H  -6.65400 31.14600 33.84800
H  -5.45100 31.67500 35.01200

