158

Mg 40.60700 8.92900 29.26100
C  42.35900 10.03300 31.94100
C  38.26500 7.49100 31.42000
C  38.95900 7.59900 26.54100
C  43.01200 10.19700 27.06900
N  40.33300 8.91900 31.43700
C  41.17500 9.46600 32.34100
C  40.56400 9.46600 33.72300
C  39.21700 8.67400 33.57800
C  39.22700 8.28600 32.07800
C  39.10900 7.42400 34.48800
C  40.54100 10.86700 34.43600
C  39.35100 11.11700 35.50300
H  39.74800 11.77800 36.78600
N  38.83600 7.78600 29.04300
C  38.09500 7.17600 30.05300
C  37.06200 6.35100 29.46400
C  37.11600 6.51000 28.05700
C  38.29800 7.34200 27.78000
C  36.10100 5.46300 30.15100
C  36.26200 5.86700 26.99400
O  36.42400 6.12600 25.82100
C  35.18100 4.83800 27.40200
N  40.85200 9.01700 27.03800
C  40.12100 8.35800 26.16700
C  40.48500 8.74800 24.74600
C  41.80500 9.58100 24.90400
C  41.96100 9.58800 26.42600
C  40.51200 7.59800 23.66300
C  41.80900 10.98000 24.18300
C  41.11000 12.16600 24.89300
N  42.39900 9.71300 29.46700
C  43.29100 10.23400 28.46800
C  44.39600 10.87600 29.12900
C  44.07100 10.84200 30.52500
C  42.86500 10.11800 30.65200
C  45.57100 11.57900 28.54300
C  44.50400 11.27800 31.79300
O  45.42700 11.97900 32.13200
C  43.36100 10.83500 32.78500
C  44.03600 9.98300 33.76900
O  44.84800 9.11900 33.57100
O  43.76400 10.48700 34.99700
C  44.37800 9.77100 36.13700
H  37.57600 7.04900 32.14300
H  38.48600 7.15500 25.66300
H  43.73100 10.61700 26.36200
H  41.24500 8.85800 34.31800
H  38.38300 9.34400 33.78700
H  38.73200 6.55900 33.94200
H  38.40900 7.78300 35.24200
H  40.08600 7.20400 34.91900
H  40.41000 11.63300 33.67200
H  41.43600 11.09100 35.01600
H  38.84300 10.18100 35.73800
H  38.73500 11.85900 34.99500
H  36.28900 5.63500 31.21100
H  36.30100 4.45100 29.79700
H  35.07000 5.75600 29.95600
H  34.40500 5.36300 27.95800
H  35.59200 3.98000 27.93400
H  34.71800 4.48700 26.48000
H  39.75800 9.49000 24.41600
H  42.65400 8.96900 24.59900
H  40.50000 6.65200 24.20500
H  41.43200 7.66900 23.08300
H  39.69900 7.69800 22.94400
H  41.28100 10.73300 23.26200
H  42.84600 11.22200 23.94900
H  40.23000 12.47900 24.33000
H  41.82400 12.98100 25.00900
H  40.73900 11.92900 25.89000
H  46.42000 10.89700 28.58600
H  45.76500 12.49500 29.10100
H  45.38900 11.82500 27.49700
H  43.00300 11.80000 33.14500
H  43.58100 10.06000 36.82200
H  45.37100 10.13600 36.40100
H  44.26400 8.69400 36.00900
Mg 9.36700 47.99800 26.17600
C  7.11400 48.69100 28.69000
C  11.86600 49.49400 28.07300
C  11.53700 47.89500 23.49800
C  6.79900 47.21000 24.09500
N  9.43400 48.92500 28.19800
C  8.40100 49.06000 29.06200
C  8.97600 49.50800 30.43200
C  10.36600 50.13600 30.10500
C  10.55600 49.49300 28.71800
C  10.50500 51.73300 30.05200
C  8.93500 48.38300 31.45200
C  8.23500 48.93300 32.75700
H  8.16000 47.95500 34.04600
N  11.40000 48.50300 25.91000
C  12.23900 49.01700 26.79300
C  13.62100 48.82900 26.25700
C  13.53100 48.47200 24.91400
C  12.09700 48.22900 24.72600
C  14.87400 49.09400 27.10200
C  14.66500 48.33500 23.87700
O  14.49500 47.98900 22.71500
C  16.10300 48.47300 24.23300
N  9.18700 47.70000 24.06600
C  10.19400 47.67800 23.18100
C  9.79400 47.17600 21.76700
C  8.25200 46.85500 21.99700
C  8.06100 47.25800 23.47200
C  9.98400 48.15700 20.67300
C  7.89600 45.28700 21.68500
C  6.62400 45.01300 20.91100
N  7.37200 47.90100 26.38000
C  6.43100 47.50300 25.43400
C  5.15100 47.63000 26.04500
C  5.39900 48.06300 27.34800
C  6.73900 48.32700 27.44700
C  3.86900 47.46600 25.40000
C  4.75000 48.43300 28.59300
O  3.54300 48.34900 28.84800
C  5.85300 48.78000 29.58000
C  5.87000 47.66000 30.50700
O  6.42100 46.57200 30.40200
O  5.05100 47.94400 31.59700
C  4.64500 46.86700 32.53400
H  12.70600 49.89200 28.64500
H  12.17000 47.60400 22.65700
H  5.93600 46.89600 23.50500
H  8.34500 50.31400 30.80700
H  11.08400 49.67100 30.78000
H  10.89200 52.02600 29.07600
H  11.40600 51.94500 30.62700
H  9.55200 52.21200 30.27800
H  9.91300 48.07500 31.82300
H  8.48600 47.49900 30.99900
H  7.16000 49.04200 32.61700
H  8.66400 49.88600 33.06700
H  14.61900 49.09200 28.16200
H  15.07700 50.13400 26.84400
H  15.64100 48.36900 26.83400
H  16.44500 47.58600 24.76600
H  16.21600 49.35800 24.85900
H  16.59600 48.64000 23.27500
H  10.32900 46.23000 21.68100
H  7.56800 47.45500 21.39700
H  9.32200 48.04200 19.81500
H  10.86700 47.89600 20.08900
H  10.18200 49.17200 21.02000
H  7.82400 44.75300 22.63200
H  8.72800 44.90600 21.09400
H  6.91300 44.73900 19.89600
H  5.95900 45.87600 20.87300
H  6.07000 44.24500 21.45300
H  3.99800 46.77100 24.57100
H  3.42600 48.40800 25.07700
H  3.25200 46.99500 26.16600
H  5.78000 49.72200 30.12500
H  4.82300 47.26700 33.53300
H  5.31300 46.01200 32.43300
H  3.58500 46.66100 32.38600

