158

Mg 24.52400 2.10600 29.77300
C  26.53000 2.18800 32.61500
C  21.75000 2.02300 31.83200
C  22.48600 2.06500 26.99700
C  27.27500 1.63900 27.85400
N  24.19800 2.17300 32.04000
C  25.19700 2.24200 32.99700
C  24.57100 2.31500 34.38600
C  23.04200 2.17400 34.12200
C  22.94300 2.09300 32.57700
C  22.42200 1.07000 34.96000
C  25.06100 3.67100 35.04500
C  25.65600 3.62900 36.46300
H  25.27500 4.57400 37.59900
N  22.42000 2.03900 29.44000
C  21.49300 2.09900 30.45500
C  20.18100 2.01900 29.88000
C  20.35200 1.86700 28.48300
C  21.81300 2.05000 28.25300
C  18.85000 1.96800 30.67800
C  19.39400 1.50300 27.32700
O  19.75200 1.36200 26.18500
C  17.93200 1.21100 27.61600
N  24.80100 1.93600 27.68400
C  23.79800 1.97700 26.73500
C  24.37000 1.91100 25.29800
C  25.95700 1.96900 25.62700
C  26.07700 1.81600 27.16800
C  23.94900 0.63500 24.46700
C  26.80400 3.26300 25.16700
C  26.05600 4.61400 25.30800
N  26.53200 1.94400 30.08800
C  27.56100 1.75800 29.15900
C  28.77900 1.66800 29.88100
C  28.40200 1.78400 31.21700
C  27.02100 1.98400 31.33300
C  30.11000 1.56200 29.27300
C  28.97100 1.77300 32.59300
O  30.13500 1.66000 32.98800
C  27.79900 2.07900 33.54900
C  27.72900 1.06000 34.56100
O  27.53200 -0.16500 34.41600
O  28.32300 1.49300 35.66500
C  28.44100 0.51700 36.79700
H  20.93300 2.06500 32.55600
H  21.88200 2.10500 26.08800
H  28.16900 1.39200 27.27700
H  24.88800 1.44700 34.96400
H  22.40400 3.04700 34.25900
H  21.38600 1.33200 35.17600
H  22.99300 0.90700 35.87400
H  22.55800 0.16300 34.37100
H  24.17500 4.30400 35.09600
H  25.71900 4.27000 34.41600
H  26.72100 3.73500 36.25500
H  25.54500 2.57800 36.72900
H  18.96300 2.58800 31.56800
H  18.74400 1.00300 31.17500
H  17.92900 2.27600 30.18300
H  17.35300 1.87400 28.25900
H  17.75300 0.31900 28.21600
H  17.40000 1.02600 26.68200
H  23.92100 2.74400 24.75700
H  26.36500 1.06600 25.17100
H  23.22100 0.18000 25.13900
H  24.70900 -0.12400 24.28600
H  23.47800 0.94800 23.53500
H  27.11500 3.21400 24.12300
H  27.66900 3.24600 25.82900
H  25.67100 4.74500 26.32000
H  25.21400 4.64900 24.61600
H  26.75100 5.41400 25.05500
H  30.09500 1.93000 28.24800
H  30.36900 0.50300 29.26300
H  30.78600 2.07000 29.96100
H  28.05700 3.05900 33.95200
H  29.40100 0.03100 36.62200
H  27.65200 -0.23000 36.87500
H  28.45000 1.02600 37.76100
Mg 31.29300 57.74600 40.12700
C  28.57600 56.18400 38.63200
C  33.36100 55.48800 38.59300
C  33.99100 59.75000 40.84400
C  29.18500 60.31600 41.25900
N  30.93500 56.03500 38.79500
C  29.76200 55.52500 38.30900
C  29.96700 54.26200 37.35600
C  31.46600 53.91300 37.75700
C  31.95300 55.20700 38.47700
C  31.56500 52.63700 38.56400
C  29.70700 54.71900 35.89800
C  28.93500 53.68000 35.02000
H  28.38700 54.17100 33.64100
N  33.38900 57.56300 39.85500
C  34.00000 56.58200 39.10500
C  35.43800 56.72300 39.26700
C  35.70200 58.01400 39.93100
C  34.34300 58.51600 40.28300
C  36.39300 55.73000 38.71400
C  37.06900 58.63400 40.19200
O  38.11300 58.01300 39.92800
C  37.21000 59.85600 40.99000
N  31.49300 59.72800 40.75500
C  32.75000 60.23900 41.07000
C  32.67200 61.66200 41.74400
C  31.19500 61.69800 42.13300
C  30.56600 60.53400 41.33800
C  33.59200 61.98800 42.99500
C  30.43200 63.03800 41.95800
C  30.47900 63.98900 43.10500
N  29.31000 58.16800 40.06600
C  28.51900 59.25500 40.56000
C  27.11200 59.00200 40.44300
C  27.13500 57.82900 39.61300
C  28.44000 57.36400 39.45700
C  25.94000 59.82300 40.92800
C  26.22000 56.98100 38.88100
O  24.96700 56.90200 38.70300
C  27.21700 55.96300 38.12200
C  26.76200 54.58300 38.25500
O  27.08300 53.87400 39.20500
O  25.84500 54.15900 37.27500
C  25.25900 52.85400 37.43100
H  33.96100 54.69700 38.13800
H  34.77200 60.49400 41.01300
H  28.44200 60.95900 41.73700
H  29.25500 53.47700 37.60700
H  32.01400 53.74500 36.83000
H  30.71400 51.96400 38.66000
H  31.76500 52.88600 39.60600
H  32.40400 52.04600 38.19600
H  30.64000 54.93800 35.37900
H  29.14500 55.65200 35.91800
H  28.01500 53.42700 35.54800
H  29.56500 52.80500 34.86100
H  35.87000 54.97400 38.12900
H  36.92500 55.25700 39.54000
H  37.07100 56.09400 37.94300
H  38.27200 59.88600 41.23400
H  36.68700 59.67000 41.92800
H  36.82600 60.66500 40.36900
H  32.97400 62.40900 41.01000
H  30.93900 61.41700 43.15400
H  34.29100 61.18800 43.23500
H  32.95300 62.19400 43.85400
H  34.27300 62.77100 42.66300
H  29.40000 62.92800 41.62400
H  30.98200 63.53800 41.16000
H  31.13700 64.85500 43.03400
H  30.99300 63.44800 43.89900
H  29.51500 64.41800 43.37700
H  25.60900 59.42600 41.88800
H  25.10200 59.66700 40.24900
H  26.30300 60.84700 41.01600
H  27.22400 56.18900 37.05600
H  25.42000 52.35300 38.38600
H  25.50900 52.10900 36.67600
H  24.18200 53.01700 37.39800

