158

Mg 40.47000 9.24100 29.85500
C  42.38300 10.56000 32.38500
C  38.16800 8.32400 32.07000
C  38.85600 7.87300 27.24000
C  43.16200 9.67800 27.64600
N  40.33600 9.26200 32.09600
C  41.31700 9.78700 32.93500
C  40.80600 9.73400 34.40100
C  39.38300 9.08700 34.29600
C  39.26300 8.88300 32.75700
C  39.22000 7.79000 35.14400
C  40.78200 11.21600 35.08000
C  39.81700 11.28500 36.32100
H  40.50700 11.81400 37.61500
N  38.70700 8.36800 29.62400
C  37.88700 8.09000 30.69400
C  36.62100 7.60500 30.17800
C  36.75900 7.49100 28.75100
C  38.13900 7.90600 28.49300
C  35.42200 7.32500 31.05200
C  35.76700 7.01900 27.74600
O  36.02900 7.01600 26.53600
C  34.39500 6.41200 28.24100
N  41.08300 8.51600 27.83400
C  40.18300 8.04300 26.95500
C  40.69400 8.09700 25.43000
C  42.14700 8.59900 25.60400
C  42.16500 8.98400 27.12700
C  40.54800 6.67700 24.69700
C  42.54600 9.64900 24.55700
C  42.46400 11.16600 25.06100
N  42.31400 9.99800 29.91100
C  43.17300 10.25800 28.91600
C  44.20100 11.16800 29.48500
C  43.91800 11.26900 30.84500
C  42.77400 10.54700 31.07800
C  45.32200 11.79700 28.73100
C  44.38500 11.83600 32.05700
O  45.39400 12.47300 32.23800
C  43.31300 11.41700 33.15800
C  44.01100 10.74500 34.28900
O  44.20000 9.53100 34.46900
O  44.39300 11.71600 35.22200
C  44.71200 11.19200 36.59500
H  37.39600 8.16100 32.82500
H  38.32600 7.50800 26.35800
H  44.03200 9.92900 27.03600
H  41.46600 9.18000 35.06900
H  38.49800 9.70300 34.45600
H  38.34900 7.77800 35.80000
H  40.05700 7.63100 35.82300
H  39.14100 6.93400 34.47400
H  40.51300 11.97200 34.34200
H  41.78000 11.46900 35.43700
H  39.43800 10.28600 36.53500
H  39.11400 12.02800 35.94500
H  34.52400 7.61500 30.50600
H  35.35600 7.85200 32.00400
H  35.20300 6.30800 31.37500
H  34.41400 5.79700 29.14100
H  34.04200 5.74000 27.45900
H  33.79400 7.31800 28.31800
H  40.04600 8.79600 24.90100
H  42.89300 7.80900 25.51500
H  41.48400 6.31300 24.27300
H  39.70500 6.71800 24.00700
H  40.33400 5.97100 25.50000
H  42.09900 9.67700 23.56300
H  43.57700 9.49700 24.23900
H  43.45700 11.52800 25.32900
H  41.74200 11.26600 25.87200
H  42.08300 11.84600 24.30000
H  45.11000 11.95500 27.67300
H  46.17000 11.12500 28.85800
H  45.53700 12.70400 29.29500
H  42.84200 12.36800 33.40700
H  43.97700 10.47900 36.96800
H  44.64600 12.02100 37.29900
H  45.73800 10.82800 36.64000
Mg 17.33700 52.97000 26.08400
C  19.36700 51.66700 28.68700
C  14.91800 53.68500 28.46700
C  15.38300 54.08500 23.65000
C  19.53400 51.55200 23.80200
N  17.15200 52.63000 28.30200
C  18.16000 52.20500 29.14100
C  17.72700 52.33400 30.67700
C  16.22000 52.60500 30.44700
C  16.06400 53.05200 28.96100
C  15.16900 51.49800 30.75000
C  18.56500 53.45900 31.41300
C  19.07700 53.13900 32.85200
H  18.10200 52.40400 33.71100
N  15.45400 53.74700 26.09900
C  14.68400 54.10800 27.15600
C  13.51200 54.90100 26.76400
C  13.52100 54.82200 25.34600
C  14.86900 54.31600 24.95500
C  12.50900 55.55900 27.77400
C  12.38600 55.26200 24.34200
O  12.41200 55.21500 23.13200
C  11.12400 55.69200 24.93100
N  17.38700 52.75600 24.00900
C  16.46400 53.34300 23.20900
C  16.85800 53.37800 21.75600
C  18.17700 52.45500 21.75300
C  18.39800 52.22300 23.31000
C  15.75600 52.75800 20.82100
C  19.36800 53.13900 20.97600
C  20.31400 53.92500 21.75300
N  19.18100 51.91400 26.11600
C  19.98800 51.42100 25.12100
C  21.14300 50.86500 25.65900
C  20.99700 50.89100 27.09000
C  19.79100 51.52700 27.29600
C  22.22300 50.41500 24.79400
C  21.56000 50.56800 28.38400
O  22.61900 50.10100 28.72500
C  20.50300 51.03100 29.43000
C  20.00400 49.82500 30.17700
O  19.26800 49.04400 29.75700
O  20.43900 49.76900 31.52500
C  19.63300 48.96500 32.36600
H  14.20300 53.99200 29.23300
H  14.80900 54.54100 22.84100
H  20.19700 51.21000 23.00400
H  17.97000 51.39500 31.17500
H  15.93900 53.40600 31.13000
H  14.20700 51.91400 31.05000
H  15.60400 50.83900 31.50100
H  14.92700 50.95400 29.83700
H  18.03200 54.40300 31.52500
H  19.48200 53.57200 30.83400
H  19.28800 54.07500 33.37100
H  20.01900 52.59100 32.82400
H  11.53700 55.90600 27.42400
H  13.10600 56.42400 28.06500
H  12.31800 55.02700 28.70600
H  10.80600 54.90700 25.61700
H  10.40300 55.89200 24.13900
H  11.17200 56.62100 25.49900
H  17.13600 54.36200 21.37700
H  17.95000 51.49200 21.29400
H  15.48000 53.51100 20.08300
H  14.93000 52.47000 21.47300
H  16.13300 51.90300 20.26100
H  19.03900 53.82500 20.19500
H  19.94200 52.31600 20.54900
H  20.44100 54.92800 21.34500
H  21.34600 53.61300 21.59500
H  20.09800 54.11300 22.80400
H  22.34000 50.97800 23.86800
H  21.97800 49.38800 24.52100
H  23.16200 50.44800 25.34500
H  20.89200 51.71400 30.18400
H  19.93100 47.97100 32.03300
H  18.56000 49.00900 32.17700
H  19.77700 49.10800 33.43700

