158

Mg 48.10400 16.42200 29.61000
C  45.54700 16.10800 32.00800
C  50.01700 17.85500 32.06600
C  50.21700 16.78800 27.23100
C  45.79200 14.87000 27.31300
N  47.72100 17.04100 31.80500
C  46.72700 16.61400 32.54800
C  47.01200 16.81400 33.95300
C  48.41700 17.61900 34.01300
C  48.77100 17.52400 32.53900
C  48.39400 19.04300 34.53000
C  46.92200 15.56100 34.87800
C  47.78000 15.50900 36.10400
H  47.83500 16.65200 37.10900
N  49.89600 17.22900 29.62800
C  50.60500 17.65400 30.74700
C  51.96800 18.01500 30.27000
C  51.95300 17.89700 28.81000
C  50.63700 17.26800 28.50700
C  52.98400 18.52700 31.26800
C  53.04500 18.26900 27.80800
O  52.92700 18.18400 26.56400
C  54.31600 18.88600 28.32400
N  47.94100 16.12900 27.41500
C  49.04200 16.26000 26.71200
C  48.83600 15.70700 25.28500
C  47.47100 14.91900 25.37100
C  47.05500 15.29700 26.83700
C  48.81900 16.86300 24.20900
C  47.54200 13.33700 25.24700
C  46.91600 12.68500 23.94000
N  46.19700 15.52800 29.64600
C  45.39600 14.96400 28.64800
C  44.13300 14.51800 29.24900
C  44.17300 14.97500 30.56500
C  45.37200 15.63300 30.71900
C  43.02500 13.78600 28.49200
C  43.41100 14.90700 31.85800
O  42.34500 14.42100 32.18200
C  44.28000 15.69600 32.82100
C  43.62900 16.83300 33.63300
O  43.76600 18.04000 33.49400
O  43.02100 16.12600 34.64400
C  42.61600 16.99200 35.74000
H  50.77500 18.28500 32.72400
H  51.05700 16.64600 26.54800
H  45.28700 14.11700 26.70300
H  46.22800 17.51100 34.25000
H  49.18700 16.96600 34.42300
H  49.24900 19.27200 35.16500
H  47.53800 19.12300 35.20000
H  48.43600 19.83100 33.77900
H  47.12900 14.69900 34.24500
H  45.90000 15.52200 35.25600
H  48.73900 15.13200 35.74800
H  47.37600 14.65700 36.65100
H  53.48100 17.64300 31.66800
H  52.48700 18.99700 32.11700
H  53.68200 19.21900 30.79800
H  54.63600 18.23300 29.13700
H  54.12900 19.91600 28.62800
H  55.06400 18.83800 27.53300
H  49.62200 14.97300 25.10100
H  46.74800 15.26000 24.63000
H  49.45600 16.68700 23.34200
H  49.16700 17.77200 24.70000
H  47.81200 17.02700 23.82800
H  46.92300 12.91600 26.03900
H  48.55000 12.99400 25.48000
H  47.57000 12.05000 23.34200
H  46.69700 13.51900 23.27200
H  46.02500 12.09300 24.14700
H  43.02400 14.01300 27.42600
H  42.11900 14.20100 28.93500
H  43.14000 12.71000 28.61900
H  44.57500 14.96300 33.57100
H  41.89700 16.44100 36.34700
H  41.92000 17.80500 35.52900
H  43.42400 17.08800 36.46500
Mg 4.51700 53.21600 40.59600
C  4.76500 49.70400 40.72300
C  7.78900 53.28500 39.45100
C  3.96500 56.31100 39.73500
C  1.38000 53.03200 42.11400
N  6.01100 51.56400 39.94700
C  5.93700 50.21900 40.15500
C  7.31000 49.51900 39.87000
C  8.23900 50.74200 39.79600
C  7.33800 51.97400 39.72500
C  9.42100 50.81400 40.90300
C  7.47200 48.47400 38.66100
C  6.58900 48.59300 37.38300
H  7.00700 49.39300 36.12400
N  5.70400 54.61900 39.56000
C  7.02900 54.48600 39.18400
C  7.48900 55.70900 38.53100
C  6.35900 56.57200 38.66900
C  5.23600 55.84800 39.33800
C  8.83100 55.79200 37.89500
C  6.34500 58.01000 38.18900
O  7.31900 58.58200 37.71700
C  5.04400 58.80800 38.17900
N  2.84800 54.42900 40.75800
C  2.95900 55.67300 40.35300
C  1.77500 56.45200 40.82900
C  0.88900 55.36400 41.58600
C  1.70400 54.15900 41.47900
C  2.13700 57.76900 41.67900
C  -0.60600 55.35000 41.04800
C  -1.66100 55.38300 42.08200
N  3.34000 51.74800 41.40700
C  2.11700 51.79800 42.07500
C  1.74500 50.53600 42.59600
C  2.68100 49.64700 42.04300
C  3.62500 50.44400 41.37100
C  0.56400 50.19300 43.43800
C  3.15100 48.28500 41.99000
O  2.55200 47.35700 42.54900
C  4.55400 48.25000 41.12800
C  4.41100 47.44400 39.92700
O  3.61800 47.61900 39.02700
O  5.08700 46.29100 40.13800
C  4.64800 45.09100 39.29500
H  8.79100 53.43800 39.04600
H  3.68700 57.36500 39.66400
H  0.44100 53.06700 42.67100
H  7.50100 48.84200 40.70200
H  8.85500 50.68700 38.89900
H  9.27700 51.72600 41.48200
H  10.45800 50.81500 40.56800
H  9.27500 50.00800 41.62200
H  7.17600 47.49900 39.04900
H  8.51500 48.49000 38.34500
H  5.60800 48.98300 37.65400
H  6.32200 47.57900 37.08400
H  8.93800 55.09200 37.06600
H  9.60600 55.71200 38.65800
H  8.85300 56.75000 37.37600
H  5.14300 59.63500 37.47500
H  4.96300 59.23100 39.18100
H  4.20800 58.23200 37.78200
H  1.21900 56.72400 39.93200
H  0.93900 55.73100 42.61100
H  1.57100 57.90300 42.60100
H  1.84100 58.66800 41.13900
H  3.19100 57.77300 41.95600
H  -0.75900 54.42800 40.48700
H  -0.80100 56.19800 40.39100
H  -1.36200 55.24300 43.12100
H  -2.45800 54.64500 41.99000
H  -2.22800 56.30700 41.97000
H  0.73200 50.33500 44.50600
H  0.41500 49.11600 43.36200
H  -0.34500 50.66300 43.06300
H  5.31600 47.92600 41.83800
H  5.08300 45.19400 38.30100
H  3.56300 45.03800 39.20200
H  4.94500 44.20300 39.85400

