158

Mg -2.23200 17.87400 27.34500
C  -2.61500 15.56900 30.17200
C  -2.33300 20.25300 29.61300
C  -2.24600 19.78800 24.80200
C  -2.96100 15.01300 25.26700
N  -2.62000 17.88500 29.62600
C  -2.52900 16.90700 30.59100
C  -2.52500 17.48900 32.03300
C  -2.83800 18.96500 31.71100
C  -2.63600 19.04600 30.17000
C  -4.19800 19.53300 32.03700
C  -1.20800 17.19900 32.83100
C  -0.87300 18.11300 34.02600
H  -0.60300 17.43700 35.35200
N  -2.09500 19.78100 27.26200
C  -2.07500 20.64300 28.27300
C  -1.84000 21.93200 27.68700
C  -1.62300 21.78500 26.26200
C  -2.01700 20.39100 26.08000
C  -1.95300 23.21000 28.51500
C  -1.31900 22.80100 25.20700
O  -1.22200 22.55900 24.01900
C  -0.99800 24.23300 25.66600
N  -2.46900 17.40100 25.36500
C  -2.50600 18.46100 24.48300
C  -2.83100 17.94800 23.02800
C  -2.98900 16.48200 23.24600
C  -2.78000 16.29900 24.71700
C  -3.92400 18.69800 22.41100
C  -2.12300 15.59100 22.32700
C  -0.65000 15.43200 22.67200
N  -2.67300 15.68900 27.56600
C  -2.94100 14.70900 26.65700
C  -2.90700 13.43200 27.28600
C  -2.91600 13.72300 28.64400
C  -2.77000 15.12000 28.83600
C  -2.80800 12.11400 26.65400
C  -2.90000 13.15800 29.98800
O  -2.89700 11.92200 30.25900
C  -2.81100 14.38900 30.99500
C  -1.70000 14.07100 31.91800
O  -0.51400 14.18400 31.72700
O  -2.29800 13.45700 33.07800
C  -1.34600 13.32600 34.19000
H  -2.11100 21.11500 30.24600
H  -2.24800 20.56300 24.03300
H  -3.21900 14.14400 24.65800
H  -3.32900 16.94700 32.53000
H  -2.30100 19.75500 32.23600
H  -4.91800 19.61100 31.22200
H  -4.24600 20.40600 32.68800
H  -4.63900 18.74100 32.64200
H  -0.37700 17.21600 32.12600
H  -1.47400 16.23900 33.27400
H  -1.74600 18.75600 34.14200
H  -0.01000 18.73700 33.79300
H  -2.29300 23.05000 29.53800
H  -2.57100 23.93400 27.98400
H  -1.02200 23.77500 28.46800
H  -0.34100 24.19500 26.53500
H  -1.95200 24.74600 25.78900
H  -0.57200 24.74500 24.80300
H  -1.94900 18.12600 22.41300
H  -4.03100 16.16600 23.19200
H  -3.71000 19.76700 22.41200
H  -4.97000 18.56000 22.68400
H  -3.92500 18.59600 21.32600
H  -2.13300 15.99200 21.31300
H  -2.69000 14.66200 22.27400
H  -0.42000 15.83300 23.65900
H  -0.06800 15.95000 21.91000
H  -0.27000 14.41200 22.71900
H  -2.20500 11.50300 27.32600
H  -2.37600 12.15500 25.65400
H  -3.82000 11.73800 26.50200
H  -3.81700 14.51900 31.39500
H  -1.89800 13.37300 35.12800
H  -0.63900 14.15600 34.18000
H  -0.89100 12.34700 34.03900
Mg 41.00200 9.52100 30.24100
C  43.07000 10.64100 32.58300
C  38.89500 8.12500 32.63300
C  38.95400 8.37500 27.74300
C  43.30300 10.60500 27.74400
N  40.98700 9.32400 32.28600
C  41.92900 10.02200 33.09300
C  41.58400 9.92300 34.57900
C  40.35700 8.85100 34.57700
C  40.11200 8.69400 33.07800
C  40.62300 7.53800 35.35700
C  41.25900 11.29300 35.31300
C  41.96500 11.48600 36.64700
H  41.32300 12.21000 37.90300
N  39.17100 8.45000 30.17700
C  38.49000 7.97800 31.30000
C  37.16600 7.41000 30.79800
C  37.18300 7.41700 29.36500
C  38.48300 8.09200 29.01500
C  36.18500 6.69900 31.69700
C  36.19700 6.83300 28.36500
O  36.37700 6.67200 27.17200
C  34.92700 6.18200 28.87400
N  41.11200 9.58900 28.03400
C  40.15700 8.93900 27.27000
C  40.41700 9.16700 25.69200
C  41.83500 9.86300 25.75500
C  42.12400 10.04000 27.25300
C  40.26100 7.84100 24.87900
C  41.90000 11.18200 24.87300
C  41.19100 12.40800 25.54100
N  42.96700 10.33900 30.10700
C  43.68600 10.85900 29.09100
C  44.84500 11.52800 29.59900
C  44.69200 11.51600 31.01600
C  43.51600 10.73300 31.23900
C  45.96700 12.10700 28.83300
C  45.12200 11.98000 32.31300
O  46.09400 12.66100 32.68800
C  44.14200 11.38700 33.38000
C  44.92500 10.65400 34.38600
O  45.32100 9.47900 34.33300
O  45.08600 11.42400 35.48200
C  45.66700 10.90400 36.74000
H  38.08500 7.91700 33.33600
H  38.40300 8.02200 26.86900
H  44.00900 10.79000 26.93200
H  42.50500 9.63900 35.08800
H  39.43900 9.27900 34.98000
H  40.61100 6.72200 34.63400
H  39.97100 7.39800 36.21900
H  41.65000 7.49700 35.72000
H  40.20800 11.32700 35.60000
H  41.42400 12.12100 34.62300
H  42.81900 12.08600 36.33400
H  42.46100 10.58000 36.99500
H  36.49800 6.68100 32.74100
H  36.06300 5.65900 31.39600
H  35.20300 7.16800 31.74600
H  34.24500 5.85200 28.09000
H  34.45300 7.00400 29.41000
H  35.04700 5.29100 29.49100
H  39.78000 9.99900 25.39600
H  42.52700 9.07400 25.46000
H  39.99700 6.94700 25.44400
H  41.07000 7.45600 24.25900
H  39.38500 8.06400 24.26900
H  41.36200 11.08900 23.93000
H  42.92400 11.41500 24.58000
H  40.69700 12.95200 24.73700
H  42.03500 12.97600 25.93200
H  40.44100 11.95300 26.18900
H  45.73100 12.94000 28.17000
H  46.27200 11.33100 28.13100
H  46.73700 12.27500 29.58700
H  43.75000 12.29300 33.84300
H  46.32500 10.05400 36.56000
H  44.89300 10.66400 37.46900
H  46.28100 11.74100 37.07200

