158

Mg 55.67000 24.94500 43.94800
C  52.85900 26.83100 42.89100
C  54.50500 22.27700 42.22500
C  58.69400 23.43900 44.32600
C  56.89500 27.91400 45.40100
N  54.02200 24.75400 42.62700
C  52.98900 25.58200 42.34800
C  52.13500 24.94200 41.28200
C  52.34100 23.44700 41.60200
C  53.70800 23.45800 42.18600
C  51.22100 22.80900 42.48100
C  52.40700 25.38600 39.85200
C  51.06100 25.46000 39.00500
H  51.23500 25.85100 37.46600
N  56.44300 23.03900 43.44500
C  55.74400 22.02600 42.77000
C  56.58100 20.77400 42.71800
C  57.76100 21.06400 43.44900
C  57.71000 22.55400 43.78700
C  56.20900 19.56500 41.97100
C  58.88000 20.08000 43.73300
O  58.78100 18.89400 43.40800
C  60.23100 20.58100 44.31000
N  57.61500 25.66300 44.61200
C  58.66800 24.80500 44.76400
C  59.86000 25.59800 45.27500
C  59.29600 27.04500 45.65600
C  57.84700 26.92400 45.12300
C  60.62400 24.90000 46.41600
C  60.18000 28.30100 45.12500
C  60.72700 29.32400 46.21400
N  55.02000 26.95800 44.25000
C  55.57600 28.04100 44.87500
C  54.60400 29.14900 44.94500
C  53.50100 28.66700 44.23800
C  53.82600 27.39000 43.77500
C  54.81600 30.43300 45.67300
C  52.22200 29.02500 43.76900
O  51.59100 29.99900 44.04300
C  51.63000 27.80700 42.97500
C  50.97400 28.26000 41.66000
O  51.57600 28.76800 40.72500
O  49.64100 27.99600 41.73100
C  48.80700 28.27200 40.54100
H  54.05800 21.41700 41.72100
H  59.69600 23.05900 44.53800
H  57.14600 28.83400 45.93200
H  51.10800 25.15800 41.57800
H  52.37000 22.82400 40.70800
H  51.32400 23.11600 43.52200
H  51.28000 21.72300 42.42200
H  50.23500 23.12700 42.14400
H  52.97600 24.60700 39.34500
H  52.95400 26.32100 39.97400
H  50.22100 26.05800 39.35900
H  50.71500 24.45400 38.76900
H  55.47200 19.80200 41.20400
H  55.62400 18.90100 42.60700
H  57.01200 19.06800 41.42600
H  60.10400 20.98300 45.31600
H  60.63400 21.28700 43.58400
H  60.82100 19.66500 44.29800
H  60.48700 25.85700 44.42200
H  59.24500 27.17700 46.73700
H  60.00300 24.20300 46.97800
H  61.00600 25.53300 47.21700
H  61.33400 24.24400 45.91100
H  59.47000 28.88900 44.54300
H  61.08600 27.99600 44.60000
H  61.80600 29.17300 46.22600
H  60.16200 29.28200 47.14600
H  60.64000 30.29900 45.73300
H  54.31200 30.40000 46.63900
H  54.47500 31.23200 45.01400
H  55.86300 30.52200 45.96100
H  50.79600 27.39600 43.54400
H  49.06900 27.74700 39.62200
H  48.85600 29.35500 40.43100
H  47.78200 28.00700 40.80100
Mg 0.00300 43.84200 25.88500
C  2.17300 44.10300 28.71100
C  -2.47600 43.06000 28.03400
C  -1.49100 42.90900 23.27600
C  2.96200 44.46300 23.92700
N  -0.22100 43.71400 28.13100
C  0.81200 43.93500 29.02100
C  0.20000 43.92500 30.49000
C  -1.26000 43.45500 30.27900
C  -1.34400 43.42400 28.76300
C  -1.59800 42.06600 30.96300
C  0.33500 45.29100 31.17000
C  0.43400 45.21200 32.67500
H  -0.12500 44.01500 33.44300
N  -1.75300 43.10300 25.73200
C  -2.72300 42.79400 26.64600
C  -3.79600 42.17600 26.06300
C  -3.58600 42.27400 24.65700
C  -2.23300 42.76900 24.46100
C  -4.95800 41.73200 26.86500
C  -4.61800 41.95100 23.44500
O  -4.37100 41.87200 22.24500
C  -6.06400 41.75300 23.88300
N  0.62300 43.89000 23.87000
C  -0.28800 43.43300 22.99200
C  0.29000 43.42600 21.55400
C  1.62300 44.13400 21.77100
C  1.74800 44.31400 23.25900
C  0.39200 42.01800 20.91000
C  1.71400 45.56100 21.14000
C  0.79200 46.62800 21.82200
N  2.17800 44.37900 26.21100
C  3.16000 44.48700 25.31000
C  4.45400 44.50800 26.02700
C  4.09900 44.42100 27.36300
C  2.71600 44.29000 27.41800
C  5.73800 44.63500 25.40900
C  4.60200 44.16300 28.75400
O  5.76700 44.01900 29.11800
C  3.34400 44.14600 29.62800
C  3.37600 43.01700 30.52100
O  2.97000 41.92700 30.20100
O  3.84000 43.36900 31.82500
C  3.99600 42.31400 32.79400
H  -3.30000 42.77100 28.69000
H  -2.08400 42.46700 22.47200
H  3.81200 44.50900 23.24200
H  0.78900 43.24300 31.10200
H  -2.01900 44.16700 30.60100
H  -0.78600 41.53900 31.46400
H  -1.92200 41.32100 30.23700
H  -2.42500 42.30300 31.63300
H  -0.48600 45.95500 30.90200
H  1.16700 45.85200 30.74500
H  -0.03800 46.09300 33.10900
H  1.51200 45.13900 32.82400
H  -5.78500 42.43200 26.74200
H  -4.70700 41.64300 27.92200
H  -5.37100 40.80900 26.45800
H  -6.85100 42.00800 23.17300
H  -6.32500 42.36200 24.74900
H  -6.21700 40.70200 24.12900
H  -0.24400 44.15200 20.94100
H  2.49000 43.54900 21.46400
H  0.11700 41.24400 21.62700
H  1.30900 41.72200 20.40000
H  -0.30900 41.92200 20.08200
H  1.42000 45.51300 20.09200
H  2.72200 45.97300 21.20000
H  -0.19500 46.28100 22.12900
H  0.47200 47.27500 21.00500
H  1.40800 47.21900 22.50000
H  6.02100 45.66900 25.60600
H  5.69300 44.32500 24.36500
H  6.45800 43.95700 25.86800
H  3.43400 45.07200 30.19600
H  5.08000 42.20800 32.83300
H  3.48700 41.43800 32.39300
H  3.63800 42.55800 33.79400

