158

Mg 45.15200 3.61500 47.40400
C  43.14500 6.43700 46.67100
C  42.25700 1.67600 46.83000
C  47.10500 0.90500 47.39300
C  47.88900 5.75200 47.36300
N  43.05600 3.99600 46.72600
C  42.51700 5.21200 46.56900
C  40.99200 5.13000 46.47200
C  40.65600 3.65700 46.79400
C  42.04600 3.06100 46.76700
C  40.04800 3.40900 48.17400
C  40.45800 5.52500 45.11700
C  39.50800 6.72300 44.98400
H  39.83700 7.71000 43.88300
N  44.77300 1.61900 47.03300
C  43.55000 1.06200 46.84900
C  43.70500 -0.33700 46.78400
C  45.08000 -0.60400 47.05700
C  45.76100 0.67000 47.18900
C  42.58800 -1.29000 46.65000
C  45.69300 -2.00800 47.31300
O  44.91300 -2.97200 47.39400
C  47.13100 -2.24800 47.56000
N  47.21300 3.35600 47.04400
C  47.80600 2.15200 47.43400
C  49.30700 2.35000 47.69400
C  49.48600 3.89700 47.48100
C  48.10100 4.37500 47.26300
C  49.73900 1.74300 49.08400
C  50.42200 4.30000 46.30300
C  51.65100 5.09800 46.79400
N  45.48300 5.67500 47.22000
C  46.64900 6.40800 47.24100
C  46.34000 7.83000 47.21400
C  44.97400 7.90800 47.00600
C  44.49300 6.55200 46.91900
C  47.30500 8.95600 47.09900
C  43.87400 8.85400 46.81600
O  43.77800 10.12300 46.81700
C  42.59900 7.84600 46.70800
C  41.70000 8.14600 47.86400
O  41.65100 7.59000 48.93400
O  40.72500 9.01300 47.40700
C  39.65400 9.29900 48.37700
H  41.36800 1.06300 46.66500
H  47.84800 0.12700 47.57900
H  48.79200 6.28300 47.67200
H  40.50700 5.78300 47.19700
H  39.94800 3.09000 46.19100
H  40.77000 2.89000 48.80500
H  39.27700 2.67700 47.93400
H  39.54700 4.25200 48.65000
H  40.20600 4.60900 44.58200
H  41.31700 5.70500 44.47100
H  39.51800 7.31100 45.90200
H  38.48800 6.34800 44.90700
H  41.59400 -0.93900 46.37400
H  42.62100 -1.85400 47.58200
H  42.78700 -2.09200 45.93900
H  47.26700 -3.32000 47.69800
H  47.44200 -1.65400 48.41900
H  47.76400 -1.81300 46.78700
H  49.80100 1.86900 46.85000
H  49.75800 4.27300 48.46800
H  49.97600 0.69200 48.91600
H  48.84900 1.89100 49.69600
H  50.57100 2.31000 49.50100
H  49.81900 4.88900 45.61200
H  50.64900 3.38200 45.76000
H  52.57800 4.52800 46.72600
H  51.55700 5.54800 47.78200
H  51.60900 5.89900 46.05600
H  46.88900 9.82700 47.60500
H  47.58900 9.10800 46.05800
H  48.20000 8.67300 47.65200
H  42.09000 8.07000 45.77100
H  39.74000 10.31600 48.76000
H  39.55200 8.59700 49.20500
H  38.71100 9.38700 47.83700
Mg 48.10500 15.66200 27.87900
C  46.21100 15.55400 30.86800
C  50.47400 17.55000 29.31100
C  49.65700 16.05600 24.69700
C  45.34800 14.52200 26.18900
N  48.32300 16.51900 29.84900
C  47.48700 16.26400 30.95200
C  48.15500 16.75700 32.25900
C  49.32600 17.61900 31.65300
C  49.42500 17.19400 30.18300
C  49.19200 19.16800 31.80300
C  48.56500 15.56800 33.27500
C  48.47700 15.94400 34.76100
H  48.44100 17.44100 35.20800
N  49.90200 16.51300 27.16600
C  50.80000 17.12800 27.98300
C  52.05900 17.25800 27.25800
C  51.81100 16.93000 25.86400
C  50.37400 16.50800 25.84400
C  53.18500 17.89300 27.99200
C  52.76600 16.99900 24.73700
O  52.47600 16.71700 23.60500
C  54.24000 17.40400 24.95400
N  47.66300 15.25600 25.73600
C  48.41200 15.55300 24.63900
C  47.63600 15.37100 23.29600
C  46.28500 14.73600 23.85000
C  46.44400 14.79500 25.35100
C  47.44300 16.74700 22.56100
C  45.98400 13.34800 23.31200
C  44.71600 13.26600 22.42300
N  46.22500 14.98200 28.42000
C  45.23300 14.54600 27.63500
C  44.05300 14.16000 28.40400
C  44.39600 14.56500 29.75400
C  45.69200 15.07900 29.62300
C  42.84500 13.54900 27.85500
C  43.98800 14.66400 31.12800
O  42.90400 14.37100 31.56600
C  45.24200 15.22400 31.91000
C  44.86000 16.45300 32.59700
O  44.75100 17.57200 32.06800
O  44.84600 16.26300 33.94900
C  44.40600 17.50700 34.61200
H  51.20200 18.16000 29.84900
H  50.03900 16.21100 23.68600
H  44.47400 14.09100 25.69700
H  47.37500 17.40100 32.66600
H  50.23300 17.22700 32.11300
H  49.08300 19.56600 30.79400
H  50.06200 19.60100 32.29600
H  48.29800 19.41700 32.37400
H  49.55500 15.20800 32.99400
H  47.93200 14.69100 33.13700
H  49.29000 15.49900 35.33600
H  47.61800 15.40300 35.15900
H  53.49500 18.88000 27.64700
H  54.05100 17.24300 27.86700
H  53.03500 17.96700 29.06900
H  54.79200 16.78100 25.65800
H  54.33300 18.44400 25.26800
H  54.72300 17.36500 23.97800
H  48.13300 14.68200 22.61300
H  45.42600 15.35900 23.60000
H  47.85800 17.49600 23.23600
H  46.36600 16.87600 22.45100
H  48.00100 16.74700 21.62500
H  45.80100 12.60400 24.08700
H  46.83100 13.06600 22.68700
H  43.83600 13.06400 23.03400
H  44.88200 12.43700 21.73500
H  44.50900 14.21100 21.92100
H  42.12100 13.48600 28.66700
H  43.03500 12.49100 27.67800
H  42.43700 14.07400 26.99100
H  45.55500 14.55500 32.71100
H  44.21700 17.21800 35.64500
H  43.51000 17.88700 34.12000
H  45.15100 18.29900 34.68900

