158

Mg 24.99500 1.30300 30.37400
C  27.29800 1.31100 33.08100
C  22.37400 1.58500 32.67200
C  22.88000 1.06200 27.95000
C  27.71900 0.78800 28.26600
N  24.90300 1.34600 32.62200
C  25.98700 1.40000 33.51500
C  25.48000 1.73500 34.91300
C  23.96000 1.54100 34.74100
C  23.70700 1.50600 33.22800
C  23.28300 0.46800 35.58200
C  25.89400 3.16800 35.35500
C  26.62800 3.19200 36.76900
H  26.03600 4.13300 37.77800
N  22.86000 1.20200 30.31900
C  22.00200 1.34400 31.33900
C  20.65200 1.25300 30.79500
C  20.80800 1.15900 29.39500
C  22.22800 1.16000 29.14700
C  19.38600 1.30000 31.60900
C  19.67300 1.05100 28.40000
O  19.85800 0.99400 27.16700
C  18.27600 0.74400 28.78800
N  25.29500 0.92300 28.40500
C  24.22100 0.99000 27.53800
C  24.59000 0.87200 26.05000
C  26.16900 0.88600 26.12800
C  26.42700 0.79500 27.69400
C  23.85700 -0.31000 25.31800
C  26.82700 2.19200 25.37000
C  26.77600 3.54800 26.13500
N  27.12200 1.03500 30.55400
C  28.05900 0.86500 29.61200
C  29.33000 0.66700 30.26500
C  29.10000 0.95100 31.63500
C  27.75300 1.09300 31.74200
C  30.66900 0.30300 29.48700
C  29.70300 1.13300 32.94500
O  30.85900 1.05100 33.24000
C  28.54500 1.36900 33.88900
C  28.68800 0.36600 34.96700
O  28.54700 -0.82700 34.77600
O  29.20700 0.81200 36.13000
C  29.34100 -0.13900 37.29300
H  21.55700 1.79200 33.36700
H  22.19700 0.95800 27.10500
H  28.43100 0.61800 27.45700
H  25.87100 0.95900 35.57200
H  23.47200 2.46900 35.04100
H  22.66800 -0.15900 34.93700
H  22.47700 0.85500 36.20600
H  23.99400 -0.15000 36.13100
H  25.06000 3.86700 35.41700
H  26.54300 3.59600 34.59100
H  27.70000 3.37300 36.69400
H  26.46300 2.17700 37.13000
H  19.70600 1.60700 32.60500
H  18.93200 0.30900 31.59600
H  18.60700 2.00300 31.31400
H  17.77600 1.54100 29.33900
H  18.52300 -0.18100 29.30800
H  17.64100 0.39900 27.97200
H  24.27800 1.71200 25.43100
H  26.61600 -0.00900 25.69700
H  24.56500 -0.82500 24.66900
H  23.14500 0.08600 24.59300
H  23.43000 -0.99500 26.05000
H  26.46700 2.32300 24.34900
H  27.91300 2.10700 25.39900
H  26.52100 3.39500 27.18300
H  26.19300 4.30100 25.60500
H  27.73200 4.04100 26.31100
H  31.21600 1.23800 29.60500
H  30.45600 -0.02500 28.47000
H  31.21800 -0.38700 30.12800
H  28.65600 2.32900 34.39400
H  28.51600 -0.11600 38.00500
H  30.27300 0.11800 37.79800
H  29.43300 -1.16500 36.93600
Mg 36.32900 49.47500 24.95700
C  36.18800 47.57600 27.98900
C  34.98300 52.10800 26.64000
C  36.12700 51.25100 22.12800
C  37.38200 46.63900 23.31300
N  35.79800 49.73900 27.04800
C  35.94500 48.89900 28.10200
C  35.59300 49.60800 29.38500
C  34.95800 50.93900 28.91400
C  35.34300 50.96600 27.46000
C  33.36200 51.04300 29.27700
C  36.80200 49.77300 30.39400
C  36.62400 49.64900 31.89300
H  35.18600 49.72100 32.40000
N  35.47800 51.40600 24.42500
C  35.06500 52.38200 25.28900
C  34.79400 53.61600 24.58200
C  35.18600 53.37200 23.23300
C  35.58100 51.95800 23.20700
C  34.04200 54.78500 25.15500
C  35.11900 54.41100 22.00800
O  35.41500 54.04700 20.88300
C  34.63100 55.85700 22.15900
N  36.69000 48.97200 22.98400
C  36.54800 49.90600 21.99900
C  36.79800 49.22300 20.61800
C  37.41200 47.79600 21.01400
C  37.17500 47.76100 22.54400
C  35.54900 49.22500 19.72300
C  38.95700 47.61300 20.69900
C  39.97300 48.61000 21.45500
N  36.80100 47.51000 25.48400
C  37.18100 46.46600 24.67200
C  37.27700 45.27700 25.50800
C  36.82500 45.66600 26.76000
C  36.49300 46.97400 26.72000
C  37.73100 43.85300 24.98200
C  36.63900 45.22900 28.13700
O  36.83400 44.12500 28.59700
C  36.29100 46.48900 29.00600
C  35.01400 46.14900 29.67600
O  33.86700 46.26100 29.20000
O  35.33400 45.49400 30.85000
C  34.21600 45.04700 31.71400
H  34.60400 52.96300 27.20500
H  36.13000 51.82000 21.19600
H  37.60900 45.69600 22.81100
H  34.93300 49.03200 30.03300
H  35.47000 51.78200 29.37800
H  32.76100 51.10500 28.36900
H  33.20300 51.96100 29.84300
H  33.05900 50.16900 29.85300
H  37.35800 50.70400 30.28600
H  37.55200 49.03600 30.10700
H  37.22900 50.50200 32.20400
H  37.16400 48.82900 32.36700
H  32.96400 54.76400 24.99800
H  34.37500 55.77600 24.84700
H  34.16300 54.84300 26.23700
H  34.57700 56.43600 21.23700
H  35.29400 56.40000 22.83200
H  33.71400 55.78700 22.74500
H  37.56200 49.77200 20.06700
H  36.94300 46.97900 20.46500
H  35.62400 49.79200 18.79500
H  34.68800 49.68100 20.21100
H  35.27100 48.23200 19.37000
H  39.11900 47.84600 19.64700
H  39.10700 46.55300 20.90200
H  40.06200 48.42600 22.52600
H  39.62700 49.63800 21.34500
H  40.96000 48.56500 20.99400
H  38.53500 43.97200 24.25600
H  36.84700 43.39500 24.53800
H  38.11600 43.36600 25.87700
H  37.05500 46.72000 29.74800
H  33.39100 45.75600 31.78800
H  34.67100 44.93000 32.69700
H  33.93300 44.09700 31.26200

