158

Mg 26.62500 50.82700 27.02800
C  24.41200 51.83700 29.52800
C  29.02600 50.26700 29.51700
C  28.87400 50.37400 24.62800
C  24.31900 52.01700 24.62900
N  26.76700 51.33500 29.21700
C  25.66900 51.49000 30.03200
C  25.93400 51.08100 31.49800
C  27.50800 50.83300 31.52700
C  27.79900 50.75100 29.97700
C  28.38500 51.92800 32.23200
C  25.03500 49.95100 32.06100
C  24.18100 50.18700 33.29600
H  24.35700 49.22500 34.40200
N  28.69200 50.23400 27.08000
C  29.44500 49.97100 28.14900
C  30.70500 49.49200 27.70900
C  30.66200 49.53100 26.31800
C  29.36600 50.11000 25.92300
C  31.74600 49.07300 28.68600
C  31.73500 49.05400 25.43100
O  31.68000 49.13900 24.18300
C  33.03300 48.45500 25.93800
N  26.63800 51.21500 24.94600
C  27.64000 50.79200 24.20500
C  27.26000 50.66100 22.70500
C  25.80700 51.21300 22.68300
C  25.52300 51.45300 24.14700
C  28.33100 51.43300 21.71900
C  24.73800 50.38600 21.92800
C  24.14800 51.05400 20.69400
N  24.70700 51.78900 26.95800
C  23.87900 52.27200 25.95700
C  22.66400 52.75000 26.49700
C  22.76600 52.50800 27.88800
C  24.06600 51.98500 28.11500
C  21.51700 53.27800 25.81400
C  22.04600 52.56800 29.12300
O  20.93300 52.90000 29.34800
C  23.11400 52.21800 30.27300
C  23.21400 53.35500 31.15800
O  23.64500 54.46600 30.93600
O  22.81600 52.91500 32.41000
C  22.92300 53.91800 33.50500
H  29.59700 49.80700 30.32600
H  29.52000 50.14700 23.77700
H  23.45500 52.09700 23.96600
H  25.76100 51.97600 32.09700
H  27.84400 49.89100 31.95900
H  29.13800 51.49500 32.89000
H  27.72100 52.55600 32.82500
H  28.83700 52.51100 31.42900
H  25.62200 49.03800 32.16000
H  24.41900 49.70500 31.19500
H  23.17200 50.23300 32.88400
H  24.35700 51.20500 33.64000
H  31.42600 49.00400 29.72600
H  32.62200 49.71800 28.61300
H  31.92000 48.02100 28.45900
H  33.71900 48.38000 25.09500
H  32.79700 47.44700 26.28000
H  33.45500 49.03700 26.75700
H  27.20900 49.61300 22.41200
H  25.78800 52.21500 22.25400
H  29.30900 51.66000 22.14300
H  27.87700 52.32100 21.27900
H  28.46100 50.68500 20.93700
H  23.97300 50.08900 22.64600
H  25.24300 49.48600 21.57600
H  23.21200 51.56100 20.92700
H  23.96300 50.29900 19.92900
H  24.82800 51.79400 20.27200
H  21.78200 54.03800 25.07900
H  20.87500 53.78600 26.53300
H  21.02000 52.38300 25.43900
H  22.64200 51.39100 30.80400
H  22.93900 54.97500 33.24000
H  23.87500 53.81600 34.02700
H  22.13800 53.81000 34.25400
Mg -6.12100 24.67300 25.83800
C  -4.65300 26.30600 28.57300
C  -7.99400 22.78200 28.09500
C  -7.18900 22.83600 23.25200
C  -3.84600 26.29300 23.81000
N  -6.27100 24.65500 28.03000
C  -5.63600 25.37700 28.95900
C  -6.06200 24.98900 30.35700
C  -6.85200 23.67500 30.24200
C  -7.10200 23.69300 28.68600
C  -6.09600 22.50900 30.90600
C  -6.87100 26.14900 31.05600
C  -6.64200 26.49900 32.59000
H  -5.80500 25.52600 33.51100
N  -7.54000 23.16700 25.66500
C  -8.20800 22.55000 26.69700
C  -9.17900 21.64100 26.12900
C  -8.93300 21.61300 24.70800
C  -7.82800 22.54200 24.50100
C  -10.28700 21.03100 26.90200
C  -9.74000 20.87000 23.61300
O  -9.43600 20.88000 22.39200
C  -10.89000 20.08900 24.03600
N  -5.62500 24.56600 23.87000
C  -6.12800 23.67400 22.96600
C  -5.70100 23.87500 21.51300
C  -4.61000 24.99200 21.66500
C  -4.68000 25.34400 23.20100
C  -5.27900 22.52400 20.81400
C  -4.92900 26.22400 20.77600
C  -3.72200 26.70600 20.08600
N  -4.55700 26.05300 26.16000
C  -3.76900 26.66200 25.19400
C  -2.82700 27.65800 25.77700
C  -3.16900 27.56200 27.17400
C  -4.23200 26.61100 27.34300
C  -1.91600 28.54700 25.04100
C  -2.78400 28.05900 28.44900
O  -2.01300 28.91100 28.78000
C  -3.78300 27.27300 29.44700
C  -2.91900 26.52300 30.35700
O  -2.51700 25.34600 30.18300
O  -2.51400 27.28300 31.36100
C  -1.62900 26.72400 32.39500
H  -8.62700 22.15400 28.72600
H  -7.58800 22.27100 22.40700
H  -3.23400 26.80400 23.06400
H  -5.10800 24.80200 30.85000
H  -7.85100 23.65600 30.67700
H  -6.50200 22.43800 31.91500
H  -5.01200 22.62100 30.94900
H  -6.44700 21.60600 30.40800
H  -7.93400 25.92900 30.95200
H  -6.64400 27.03900 30.47000
H  -7.62800 26.56200 33.05100
H  -6.30300 27.52900 32.70100
H  -10.27800 21.51000 27.88200
H  -10.14000 19.98700 27.17800
H  -11.31700 21.12300 26.55700
H  -10.60900 19.31000 24.74500
H  -11.11200 19.40100 23.22000
H  -11.75700 20.68300 24.32400
H  -6.58200 24.21100 20.96600
H  -3.64800 24.54300 21.41500
H  -4.22400 22.64300 20.56700
H  -5.94700 22.31200 19.97900
H  -5.29900 21.76500 21.59700
H  -5.36200 27.05000 21.34100
H  -5.72100 26.02400 20.05400
H  -3.80600 27.25900 19.15000
H  -2.90800 26.02400 19.84100
H  -3.30700 27.45800 20.75700
H  -2.41400 29.45200 24.69400
H  -1.48000 27.90800 24.27300
H  -1.12100 28.73700 25.76100
H  -4.47400 27.98400 29.89900
H  -1.30200 27.61000 32.93900
H  -0.74800 26.26300 31.94700
H  -2.20900 25.97900 32.93900

