158

Mg 8.96600 4.53100 27.46300
C  10.26200 2.89600 30.39500
C  7.05700 6.36800 29.66700
C  7.48000 6.02700 24.85700
C  10.41200 2.15000 25.57900
N  8.55400 4.45800 29.77400
C  9.30400 3.85000 30.80500
C  8.98500 4.35600 32.24500
C  8.00100 5.48700 31.92900
C  7.84000 5.45300 30.34600
C  6.60000 5.42400 32.73800
C  10.19700 4.84100 33.08000
C  9.82400 5.44200 34.45600
H  10.87500 5.13500 35.60000
N  7.52400 5.94900 27.28800
C  6.88100 6.60200 28.32300
C  5.97600 7.62400 27.76300
C  6.21200 7.59500 26.37100
C  7.03400 6.41900 26.11400
C  5.07900 8.53900 28.68300
C  5.66200 8.48000 25.26700
O  5.88400 8.30400 24.05200
C  4.81700 9.73200 25.66000
N  8.95500 4.10300 25.52900
C  8.42100 4.96800 24.57300
C  8.87200 4.61900 23.15000
C  9.68100 3.31200 23.41400
C  9.79100 3.23200 24.90900
C  7.69600 4.40800 22.13700
C  11.07700 3.25300 22.72100
C  12.17800 4.00600 23.51300
N  10.14300 2.89400 27.84900
C  10.65100 2.01200 26.90900
C  11.48000 1.07500 27.58000
C  11.27600 1.35700 28.95600
C  10.50400 2.47500 29.06000
C  12.30600 -0.07200 27.05000
C  11.62800 0.94900 30.28700
O  12.45700 0.15500 30.59000
C  11.00500 1.99300 31.26300
C  10.27200 1.12500 32.28000
O  9.19800 0.64400 32.06300
O  10.97400 1.17400 33.52400
C  10.26000 0.68700 34.72600
H  6.60800 7.12700 30.31200
H  7.11200 6.40900 23.90300
H  11.00100 1.47400 24.95400
H  8.57300 3.47900 32.74500
H  8.43500 6.41000 32.31400
H  6.45100 6.37300 33.25500
H  6.69900 4.70200 33.54800
H  5.86000 5.27700 31.95200
H  10.96400 5.42300 32.56900
H  10.62700 3.92200 33.47800
H  8.84800 5.06600 34.76400
H  9.68300 6.51700 34.34200
H  5.55200 9.46400 29.01200
H  4.93300 7.91800 29.56800
H  4.13400 8.76400 28.19100
H  5.10800 10.23000 26.58600
H  3.80900 9.31800 25.64700
H  4.81700 10.51400 24.90000
H  9.50800 5.45100 22.84500
H  9.18800 2.42500 23.01700
H  7.73000 5.10300 21.29700
H  6.75200 4.31400 22.67300
H  7.71700 3.40400 21.71200
H  11.04700 3.81900 21.79000
H  11.35200 2.20100 22.63500
H  11.66300 4.61700 24.25500
H  12.63600 4.67600 22.78600
H  12.97100 3.32900 23.82900
H  13.14700 -0.14000 27.74100
H  12.54300 0.24000 26.03300
H  11.65300 -0.94500 27.04500
H  11.85400 2.47500 31.74700
H  10.94100 0.44100 35.54000
H  9.66200 -0.20200 34.52300
H  9.58000 1.45700 35.09000
Mg 0.57600 44.36300 26.32000
C  2.83400 44.27100 29.06300
C  -1.94900 43.70400 28.68700
C  -1.44500 43.80000 23.84000
C  3.35700 44.55100 24.21000
N  0.50000 44.01200 28.69200
C  1.52000 44.20500 29.56300
C  1.05500 44.05500 30.96100
C  -0.43900 43.57700 30.79200
C  -0.70800 43.78300 29.30300
C  -0.63400 42.07800 31.30400
C  1.23100 45.43300 31.72700
C  1.60400 45.41800 33.24300
H  1.06000 44.23000 34.04400
N  -1.48500 44.08800 26.23700
C  -2.32200 43.77100 27.34500
C  -3.63600 43.89200 26.88300
C  -3.60800 43.74900 25.41800
C  -2.16800 43.87600 25.11100
C  -4.86400 44.12000 27.82300
C  -4.75400 43.60000 24.42700
O  -4.59100 43.50300 23.25200
C  -6.18100 43.50700 25.03300
N  0.94900 43.96600 24.33500
C  -0.06500 43.86900 23.51500
C  0.47500 43.90500 22.05100
C  1.79700 44.68600 22.19200
C  2.07900 44.39000 23.67900
C  0.51400 42.51600 21.38600
C  1.70500 46.16300 21.91400
C  2.40000 46.60900 20.60000
N  2.63600 44.38700 26.50800
C  3.66300 44.49400 25.57200
C  4.94800 44.63800 26.16000
C  4.63900 44.48800 27.52800
C  3.24600 44.35800 27.70800
C  6.26300 44.67300 25.47200
C  5.29500 44.48600 28.81000
O  6.47200 44.51400 29.09300
C  4.14000 44.25300 29.85000
C  4.33900 43.01400 30.70800
O  4.47800 41.90200 30.22200
O  4.22000 43.28200 32.02000
C  4.32900 42.14300 32.98600
H  -2.65600 43.39900 29.46100
H  -2.10200 43.74100 22.97000
H  4.17400 44.92700 23.59100
H  1.54600 43.24100 31.49600
H  -1.16100 44.09900 31.42000
H  0.26900 41.47500 31.40400
H  -1.22600 41.50900 30.58700
H  -1.21400 42.22700 32.21500
H  0.32000 46.00000 31.53400
H  1.94300 45.99500 31.12300
H  1.12700 46.33300 33.59300
H  2.68300 45.55000 33.32600
H  -5.47900 43.22900 27.95500
H  -5.49300 44.89400 27.38500
H  -4.61200 44.60500 28.76700
H  -6.24100 42.93600 25.96000
H  -6.73500 42.82100 24.39200
H  -6.68700 44.47200 25.04700
H  -0.26600 44.47500 21.48900
H  2.52800 44.15600 21.58200
H  -0.11500 41.81400 21.93300
H  1.47900 42.02200 21.49500
H  0.23800 42.66200 20.34100
H  2.06100 46.74600 22.76300
H  0.72400 46.58300 21.69300
H  3.15800 47.35800 20.83100
H  1.69900 47.16900 19.98100
H  2.98600 45.88800 20.03100
H  6.13600 45.52100 24.79900
H  6.55200 43.73600 24.99600
H  7.01500 44.96500 26.20500
H  4.05100 45.10600 30.52300
H  5.25300 41.59000 32.81600
H  3.48900 41.46300 32.83800
H  4.41200 42.54900 33.99300

