158

Mg 16.81000 -3.33500 28.49400
C  16.09400 -1.06100 31.11200
C  18.31500 -5.38000 30.70800
C  18.07700 -5.02100 25.89800
C  15.52000 -0.86400 26.26300
N  17.24200 -3.11900 30.64300
C  16.85900 -2.20200 31.53700
C  17.18400 -2.68200 32.98700
C  18.08100 -3.96100 32.73200
C  17.87800 -4.14800 31.28600
C  19.62600 -3.81300 33.09000
C  15.89800 -3.03100 33.86300
C  15.70200 -2.27400 35.16500
H  16.83300 -1.87800 35.95700
N  17.87300 -5.04200 28.25500
C  18.36500 -5.76300 29.35200
C  18.88800 -7.03600 28.86300
C  18.82800 -6.94200 27.42000
C  18.25500 -5.64700 27.12500
C  19.36200 -8.18800 29.70100
C  19.35200 -7.96000 26.34700
O  19.32000 -7.70200 25.17300
C  19.97000 -9.23900 26.78900
N  16.61400 -3.08800 26.40400
C  17.30500 -3.89300 25.54500
C  17.11500 -3.46600 24.12900
C  16.17900 -2.23200 24.17000
C  16.03400 -2.03300 25.70700
C  18.50700 -3.25100 23.37500
C  14.84300 -2.35100 23.33500
C  13.55800 -2.04600 24.04700
N  15.84500 -1.42200 28.60800
C  15.37200 -0.53100 27.63400
C  14.76300 0.70600 28.29500
C  14.99700 0.45800 29.62600
C  15.67100 -0.81900 29.74500
C  14.15600 1.80900 27.53900
C  14.96200 1.12800 30.96800
O  14.48500 2.22000 31.20600
C  15.55600 0.09400 31.97900
C  16.53300 0.83100 32.75900
O  17.67100 1.09500 32.39700
O  15.93300 1.38700 33.82400
C  16.55000 2.45200 34.59000
H  18.70600 -6.15000 31.37800
H  18.43500 -5.58300 25.03300
H  15.08200 -0.13800 25.57500
H  17.78900 -1.90700 33.45800
H  17.61100 -4.83000 33.19200
H  20.17300 -3.65700 32.16000
H  20.01500 -4.74800 33.49200
H  19.72900 -3.03800 33.85000
H  15.68000 -4.05800 34.15700
H  15.06700 -2.76000 33.21200
H  14.90600 -2.70400 35.77300
H  15.23800 -1.35300 34.80900
H  18.76100 -9.02800 29.35500
H  19.05700 -8.05100 30.73900
H  20.42100 -8.43500 29.62200
H  20.85500 -9.24300 27.42600
H  20.26500 -9.83700 25.92600
H  19.14900 -9.79800 27.23800
H  16.60000 -4.37200 23.81300
H  16.65600 -1.37000 23.70300
H  18.67800 -2.17900 23.27300
H  18.51800 -3.70000 22.38100
H  19.30400 -3.50800 24.07200
H  14.79600 -3.33500 22.86900
H  14.88000 -1.70300 22.45900
H  13.37400 -2.60900 24.96200
H  12.78600 -2.29200 23.31800
H  13.58600 -0.97100 24.22200
H  14.47100 1.64000 26.50900
H  14.51000 2.80600 27.79900
H  13.07100 1.70500 27.53400
H  14.86900 -0.32800 32.71300
H  15.96000 3.36600 34.65800
H  17.58300 2.65700 34.30600
H  16.43900 2.18700 35.64100
Mg 6.67100 54.97500 40.56300
C  5.88700 51.52700 40.39000
C  9.96600 54.19000 40.07800
C  7.33900 58.29800 40.40000
C  3.26100 55.69800 40.67500
N  7.76600 53.02300 40.07200
C  7.22700 51.73200 40.11700
C  8.41800 50.63300 40.11700
C  9.67900 51.58300 40.33100
C  9.14900 52.99400 40.16400
C  10.50800 51.35800 41.56400
C  8.44400 49.75300 38.79700
C  8.32200 50.47700 37.43700
H  7.02100 50.81000 36.82900
N  8.42600 56.08200 40.30100
C  9.66400 55.54700 40.10200
C  10.63100 56.57700 39.86700
C  9.92800 57.76900 40.05700
C  8.48100 57.41800 40.29800
C  12.06400 56.44100 39.55100
C  10.51600 59.15800 40.02000
O  11.73400 59.29900 39.85500
C  9.77800 60.37000 40.50100
N  5.51400 56.72200 40.31900
C  6.01700 58.00500 40.45500
C  4.95100 59.09600 40.54000
C  3.65200 58.18200 40.47900
C  4.12800 56.76400 40.49000
C  5.07000 60.07400 41.72000
C  2.65500 58.59400 39.39500
C  1.94700 59.93600 39.52000
N  4.88200 53.92100 40.58500
C  3.56500 54.36300 40.68900
C  2.74300 53.27200 40.95500
C  3.55200 52.14700 40.82900
C  4.88700 52.57000 40.57100
C  1.26800 53.26900 41.28000
C  3.58300 50.72900 40.89900
O  2.72400 49.89700 41.23300
C  5.13700 50.29700 40.69900
C  5.06600 49.27600 39.60200
O  4.74300 49.45700 38.44300
O  5.27300 48.03000 40.18500
C  5.11600 46.90300 39.18800
H  10.99300 53.85400 39.92100
H  7.54700 59.36700 40.31500
H  2.19800 55.89700 40.82400
H  8.21700 50.01400 40.99100
H  10.29600 51.38600 39.45400
H  10.36500 52.23900 42.19100
H  11.53400 51.22800 41.22000
H  10.12900 50.60300 42.25300
H  7.70100 48.95800 38.87600
H  9.40800 49.25600 38.68700
H  8.93400 49.88500 36.75600
H  8.77600 51.44900 37.63100
H  12.37300 55.43300 39.27400
H  12.58800 56.76100 40.45100
H  12.31300 57.13400 38.74700
H  9.19600 60.87100 39.72800
H  10.59600 61.05500 40.72500
H  9.26900 60.27500 41.46000
H  4.93500 59.67900 39.61900
H  3.12400 58.32800 41.42200
H  5.96100 60.01600 42.34500
H  4.21100 59.80900 42.33700
H  4.89500 61.04600 41.25900
H  1.88400 57.82300 39.40200
H  3.19200 58.49600 38.45200
H  2.25100 60.53300 38.66000
H  2.35100 60.34600 40.44500
H  0.89700 59.85100 39.80100
H  0.88800 52.25500 41.40700
H  0.67800 53.75700 40.50400
H  1.08600 53.78200 42.22400
H  5.53300 49.82200 41.59600
H  5.70500 47.07000 38.28600
H  4.06600 46.79500 38.91600
H  5.45700 45.99400 39.68300

