158

Mg 42.05200 41.23500 26.02200
C  41.11200 43.48500 28.48300
C  43.18200 39.00400 28.39000
C  43.07200 39.17400 23.47900
C  41.30900 43.69100 23.65900
N  42.23100 41.31300 28.17000
C  41.60100 42.23100 28.99800
C  41.69000 41.80000 30.48500
C  42.49800 40.45300 30.41300
C  42.66800 40.17700 28.92500
C  43.87100 40.38100 31.12700
C  40.34200 41.80400 31.28000
C  40.34200 41.21400 32.71700
H  39.84800 42.09600 33.78300
N  43.02700 39.31700 25.95600
C  43.40200 38.58900 27.07000
C  43.83100 37.22800 26.62700
C  43.79900 37.22200 25.19800
C  43.32500 38.66100 24.79500
C  44.23100 36.23000 27.66200
C  44.23900 36.18200 24.22400
O  44.16000 36.36400 22.98600
C  44.81200 34.83600 24.78300
N  42.34700 41.48700 24.01500
C  42.69000 40.49600 23.13100
C  42.34300 40.74000 21.71800
C  41.51200 42.00300 21.84400
C  41.78300 42.48200 23.24500
C  43.56500 40.89900 20.79300
C  40.01200 41.81000 21.58200
C  39.25800 40.84500 22.51100
N  41.48900 43.27300 26.03700
C  41.25800 44.12700 25.00700
C  40.88700 45.43800 25.65300
C  40.69100 45.26800 26.96400
C  41.19500 43.89200 27.14800
C  40.47700 46.60000 24.75400
C  40.27500 45.88400 28.24000
O  39.88600 46.94500 28.68700
C  40.67100 44.73500 29.31700
C  41.60700 45.36900 30.26000
O  42.82300 45.29200 30.06600
O  41.08100 45.75500 31.50200
C  42.09900 46.34900 32.41600
H  43.44100 38.28600 29.17100
H  43.22400 38.44600 22.67900
H  40.95700 44.37200 22.88200
H  42.39700 42.54500 30.85100
H  41.92400 39.58300 30.73200
H  44.70200 40.05200 30.50300
H  43.73900 39.51900 31.78100
H  44.05700 41.33500 31.62200
H  39.63700 41.34600 30.58600
H  40.04400 42.84400 31.41100
H  41.41700 41.10600 32.86400
H  39.82700 40.25600 32.79000
H  45.22800 36.23200 28.10200
H  44.14000 35.26000 27.17300
H  43.47700 36.13900 28.44400
H  45.22900 34.31300 23.92200
H  44.06200 34.18500 25.23200
H  45.53300 34.95700 25.59100
H  41.70800 39.93400 21.35000
H  41.84800 42.83000 21.21800
H  44.42000 40.38300 21.22800
H  43.83700 41.95200 20.71800
H  43.41600 40.51800 19.78300
H  39.99800 41.36700 20.58600
H  39.48300 42.76300 21.60500
H  39.22800 39.86400 22.03800
H  38.28000 41.11900 22.90600
H  39.80300 40.66700 23.43900
H  39.90300 46.34600 23.86300
H  41.38500 47.14800 24.50200
H  39.84900 47.27100 25.34100
H  39.78000 44.56900 29.92400
H  42.97700 46.82600 31.98000
H  42.43200 45.47000 32.96700
H  41.62400 47.08400 33.06500
Mg 30.57000 57.23100 40.18900
C  27.78700 55.13200 38.97600
C  32.58900 54.76700 39.27700
C  32.98000 59.46000 40.03500
C  28.21400 59.69900 40.81300
N  30.16600 55.22900 39.19700
C  29.05300 54.52200 38.78500
C  29.50200 53.14800 38.31800
C  30.89800 52.87900 38.95900
C  31.28600 54.37100 39.17600
C  30.91200 52.06400 40.32100
C  29.43800 53.02600 36.76300
C  28.12200 52.23800 36.20700
H  27.28700 53.03600 35.16400
N  32.60800 57.13400 39.85300
C  33.23200 55.99600 39.46100
C  34.62500 56.33300 39.21300
C  34.80800 57.67000 39.56000
C  33.47300 58.15800 39.92000
C  35.69400 55.34400 38.74900
C  36.11100 58.43200 39.60400
O  37.15700 57.88700 39.37200
C  36.17500 59.79900 39.97500
N  30.52500 59.35400 40.21900
C  31.71100 60.00700 40.18500
C  31.50600 61.43400 40.63500
C  30.05700 61.45900 41.20400
C  29.54000 60.09800 40.72700
C  32.51400 62.00900 41.64300
C  29.15700 62.66600 40.71800
C  28.31900 63.47700 41.80200
N  28.36900 57.44000 39.99200
C  27.55600 58.52100 40.31400
C  26.15400 58.24300 39.96200
C  26.24800 56.88800 39.50800
C  27.60200 56.49800 39.48300
C  24.99300 59.07700 40.08600
C  25.42400 55.72900 39.07800
O  24.24800 55.54800 39.00600
C  26.40200 54.59800 38.85100
C  26.15200 53.53400 39.81300
O  26.19800 53.57400 40.99500
O  25.82700 52.42900 39.00600
C  25.47400 51.32000 39.87500
H  33.30900 53.95700 39.14300
H  33.77400 60.20300 39.93000
H  27.54200 60.53800 41.00500
H  28.74100 52.44100 38.64700
H  31.68500 52.42300 38.35800
H  30.90500 52.80500 41.12100
H  31.87200 51.55800 40.41700
H  30.10200 51.33500 40.31300
H  30.19800 52.28000 36.53100
H  29.55800 53.97800 36.24600
H  27.41900 52.04000 37.01600
H  28.44500 51.26500 35.83700
H  36.17600 55.74200 37.85600
H  35.32900 54.34100 38.52700
H  36.42800 55.16600 39.53500
H  35.67700 60.27800 39.13200
H  37.18200 60.18500 40.13400
H  35.58800 59.91500 40.88600
H  31.64400 62.10300 39.78500
H  30.13600 61.44300 42.29100
H  33.24900 61.27600 41.97500
H  32.05900 62.67300 42.37700
H  33.12600 62.69100 41.05200
H  28.46800 62.20600 40.01000
H  29.70700 63.25900 39.98700
H  27.30600 63.73300 41.49000
H  28.84200 64.40200 42.04400
H  28.22100 62.85100 42.68900
H  24.37800 59.05900 39.18700
H  25.24400 60.10500 40.35000
H  24.26900 58.65900 40.78500
H  26.32600 54.22500 37.82900
H  26.40900 50.84300 40.16800
H  24.94600 50.60900 39.23900
H  24.85700 51.62600 40.72000

