158

Mg 23.32300 -6.26400 45.18500
C  25.59000 -3.98000 43.70800
C  20.78200 -4.72500 43.41200
C  21.26200 -8.86200 46.03100
C  25.98700 -7.80700 46.73200
N  23.17300 -4.47200 43.81400
C  24.24600 -3.72500 43.38200
C  23.78700 -2.54700 42.49600
C  22.23500 -2.64100 42.64700
C  22.00900 -3.95500 43.34500
C  21.49600 -1.44300 43.38400
C  24.23100 -2.83900 41.05600
C  24.61100 -1.57100 40.21100
H  23.98700 -1.43900 38.87900
N  21.31700 -6.71900 44.71700
C  20.43600 -5.92100 44.01700
C  19.11200 -6.52900 43.97200
C  19.24400 -7.70700 44.77700
C  20.65600 -7.78500 45.24600
C  17.90300 -5.92300 43.25400
C  18.08300 -8.66100 45.03900
O  16.93900 -8.37600 44.59400
C  18.26300 -9.88200 45.94100
N  23.54800 -8.07700 46.36800
C  22.59400 -9.00400 46.48500
C  23.05600 -10.15200 47.38900
C  24.52300 -9.74600 47.78700
C  24.74400 -8.50400 46.86000
C  22.19200 -10.49800 48.58500
C  25.54600 -10.96400 47.69000
C  26.18300 -11.34100 49.06900
N  25.41600 -6.03500 45.24400
C  26.34400 -6.70000 45.95300
C  27.61600 -6.04100 45.81300
C  27.40100 -5.05700 44.88900
C  26.00400 -5.09500 44.55200
C  28.85600 -6.32500 46.54400
C  28.07200 -3.92300 44.22500
O  29.24400 -3.52100 44.25700
C  26.87800 -3.15200 43.39400
C  26.89100 -1.72800 43.82700
O  26.26100 -1.29200 44.75800
O  27.79500 -1.01500 43.14000
C  27.95800 0.39000 43.55000
H  19.97900 -4.26800 42.82900
H  20.70100 -9.73700 46.36500
H  26.82700 -8.36500 47.15100
H  24.22400 -1.61500 42.85500
H  21.70700 -2.73200 41.69800
H  22.15700 -0.60700 43.61600
H  21.22400 -1.71900 44.40300
H  20.59500 -1.11200 42.86800
H  23.40400 -3.23100 40.46500
H  25.09000 -3.50900 41.02500
H  25.68100 -1.64300 40.01700
H  24.38600 -0.62000 40.69400
H  17.25800 -6.64200 42.74900
H  18.09900 -5.13100 42.53200
H  17.33200 -5.42900 44.04100
H  17.24600 -10.26600 46.02600
H  18.59800 -9.57800 46.93300
H  18.93900 -10.63500 45.53800
H  22.98000 -11.02200 46.73600
H  24.51400 -9.36800 48.80900
H  22.01100 -11.56700 48.47300
H  21.23400 -9.98400 48.66100
H  22.75400 -10.39600 49.51300
H  26.29200 -10.91600 46.89700
H  24.96400 -11.80100 47.30500
H  25.76400 -12.27500 49.44500
H  26.01400 -10.50700 49.74900
H  27.27000 -11.26800 49.09700
H  29.19600 -5.35100 46.89700
H  29.64600 -6.82600 45.98600
H  28.69600 -6.83500 47.49500
H  27.07600 -3.09000 42.32400
H  27.04900 0.90300 43.23600
H  28.84200 0.88300 43.14500
H  28.07600 0.34300 44.63200
Mg 17.40800 51.01000 26.20700
C  19.03500 49.61000 28.89600
C  14.99800 52.14100 28.26800
C  15.60300 52.04900 23.43100
C  19.71400 49.51100 24.07900
N  17.00100 50.75500 28.34600
C  17.87800 50.28400 29.26800
C  17.38300 50.71800 30.62900
C  15.99000 51.27900 30.34900
C  15.99500 51.42200 28.92900
C  14.81300 50.53600 30.99400
C  18.46500 51.73300 31.27100
C  18.18900 52.28100 32.69800
H  17.28800 51.39300 33.60000
N  15.68000 52.09000 25.93000
C  14.82900 52.38900 26.92700
C  13.71000 53.21700 26.38100
C  13.86800 53.15200 24.96600
C  15.11400 52.41900 24.72700
C  12.58800 53.79800 27.20900
C  12.79600 53.68000 23.87500
O  12.96900 53.63300 22.64200
C  11.55100 54.28100 24.33800
N  17.58200 50.89100 24.05400
C  16.73100 51.33100 23.16500
C  17.17600 51.10800 21.74100
C  18.57300 50.34900 21.96200
C  18.64800 50.25700 23.49900
C  16.25600 50.25300 20.87700
C  19.83700 51.07100 21.33200
C  20.70200 52.03700 22.15600
N  19.07700 49.82700 26.40200
C  19.93100 49.28300 25.44800
C  20.94100 48.49300 26.05900
C  20.66300 48.57900 27.45800
C  19.50800 49.40400 27.58100
C  21.89900 47.63400 25.31600
C  21.01600 48.16300 28.79300
O  21.82000 47.37100 29.22200
C  20.08500 48.95200 29.75700
C  19.52200 48.12600 30.77800
O  18.62300 47.28000 30.70800
O  20.03400 48.44500 31.94700
C  19.58500 47.71700 33.09600
H  14.25900 52.51000 28.98200
H  14.95400 52.24000 22.57400
H  20.51500 49.09000 23.46800
H  17.26500 49.79500 31.19700
H  16.01900 52.33800 30.60700
H  14.97900 50.47200 32.06900
H  14.65700 49.52500 30.61900
H  13.87600 51.09300 30.97300
H  18.44700 52.58500 30.59100
H  19.46700 51.33900 31.10400
H  17.90700 53.31600 32.50400
H  19.16900 52.31500 33.17300
H  12.66200 53.66300 28.28800
H  11.58600 53.44700 26.96500
H  12.65600 54.84500 26.91400
H  11.85700 55.06200 25.03300
H  11.02200 53.54800 24.94600
H  10.95200 54.59500 23.48300
H  17.33400 52.08200 21.27700
H  18.48700 49.30700 21.65400
H  16.78400 49.60100 20.18100
H  15.51500 50.90400 20.41300
H  15.92200 49.56500 21.65300
H  19.38700 51.54000 20.45600
H  20.57300 50.36800 20.94200
H  20.99500 52.87900 21.53000
H  21.51000 51.51500 22.66900
H  20.11500 52.55100 22.91800
H  21.48700 47.04300 24.49700
H  22.44000 46.88100 25.89000
H  22.51600 48.43800 24.91500
H  20.58900 49.74300 30.31100
H  19.79500 46.65800 32.94500
H  18.52000 47.78300 33.31600
H  20.11700 48.07100 33.97900

