158

Mg 53.63000 23.67900 44.33900
C  51.25900 26.25300 43.86200
C  51.51600 21.49600 42.71600
C  56.16300 21.40100 44.39700
C  55.86000 26.24500 45.40800
N  51.70500 23.91700 43.26200
C  50.92500 25.06000 43.21800
C  49.70700 24.87500 42.30900
C  49.51700 23.29300 42.54600
C  50.97100 22.84200 42.84400
C  48.60400 22.97900 43.73500
C  50.01900 25.23800 40.78200
C  51.42700 25.39200 40.28600
H  51.74900 26.14100 39.02200
N  53.74400 21.65500 43.72400
C  52.74800 20.94900 43.17100
C  53.15100 19.55600 43.07400
C  54.50600 19.47300 43.46600
C  54.86800 20.85000 43.94000
C  52.25200 18.50400 42.58700
C  55.30700 18.18200 43.51400
O  54.82800 17.15800 43.06200
C  56.66500 18.02700 44.02200
N  55.75500 23.83200 44.58600
C  56.54600 22.74200 44.72300
C  57.98100 23.08400 45.14500
C  57.83200 24.63400 45.45400
C  56.37300 24.95300 45.10200
C  58.49700 22.28900 46.31100
C  58.77000 25.46000 44.60500
C  59.19500 26.86700 45.03700
N  53.66900 25.88000 44.54000
C  54.56000 26.71400 45.05900
C  53.98700 28.07100 45.16200
C  52.65200 27.94600 44.73600
C  52.53400 26.59200 44.33700
C  54.62300 29.37600 45.70600
C  51.40500 28.64500 44.55900
O  51.09100 29.79200 44.89100
C  50.46100 27.59100 43.92700
C  50.07600 28.20800 42.55500
O  50.82500 28.33900 41.59000
O  48.75900 28.46500 42.58900
C  48.03300 28.56200 41.35900
H  50.67500 20.89400 42.36600
H  56.99700 20.69900 44.33300
H  56.45600 26.97500 45.96000
H  48.87500 25.44700 42.72100
H  49.24400 22.85600 41.58500
H  48.17200 23.91400 44.09000
H  49.38000 22.82100 44.48400
H  48.01700 22.12100 43.40700
H  49.40900 26.09500 40.49600
H  49.60600 24.49100 40.10400
H  51.71500 24.34100 40.25300
H  52.08500 25.74400 41.08100
H  52.84200 17.79000 42.01100
H  51.48900 18.90900 41.92300
H  51.85400 17.99200 43.46300
H  57.03000 17.04200 44.31300
H  56.51500 18.47500 45.00400
H  57.39800 18.41800 43.31600
H  58.57500 22.91700 44.24700
H  57.94100 24.80700 46.52400
H  59.50600 21.92600 46.11300
H  57.88400 21.39200 46.21900
H  58.42600 22.74500 47.29800
H  58.36100 25.66800 43.61600
H  59.63800 24.82900 44.41500
H  58.92000 27.57800 44.25800
H  60.27400 27.02300 45.03600
H  58.90300 27.10400 46.06000
H  55.65500 29.23700 45.38500
H  54.58600 29.28800 46.79200
H  54.02300 30.17000 45.26200
H  49.65800 27.52100 44.66100
H  48.42700 28.03400 40.49100
H  47.86800 29.59700 41.06000
H  47.06400 28.13000 41.60600
Mg 48.79200 45.20700 43.72700
C  45.26000 45.35700 42.61300
C  48.81000 41.90400 42.53800
C  52.19200 45.11200 43.51400
C  48.79900 48.58000 43.81800
N  47.17300 43.88900 42.56900
C  45.87100 44.08600 42.34600
C  45.30800 42.92200 41.54200
C  46.40300 41.77700 41.68600
C  47.54100 42.51300 42.35900
C  46.00000 40.50400 42.49600
C  44.90300 43.34600 40.07200
C  45.77200 44.30700 39.26000
H  45.31200 44.43600 37.81800
N  50.25600 43.71700 43.44300
C  50.01100 42.44000 43.06700
C  51.19900 41.67300 43.14600
C  52.26500 42.54800 43.28600
C  51.62500 43.85400 43.39600
C  51.34400 40.19000 42.66800
C  53.73900 42.21500 43.47000
O  54.11600 41.03400 43.48300
C  54.75200 43.27500 43.79700
N  50.33800 46.65000 43.75600
C  51.69600 46.41600 43.72300
C  52.47300 47.74400 43.76600
C  51.41800 48.76200 44.00000
C  50.08600 47.96400 43.88500
C  53.55900 47.78000 44.89800
C  51.48400 49.88800 42.96900
C  50.83800 51.23300 43.33500
N  47.34400 46.68300 43.53600
C  47.52100 48.07300 43.53800
C  46.22700 48.74500 43.34500
C  45.34100 47.69300 43.00700
C  46.06900 46.44900 43.13300
C  46.00400 50.29400 43.32700
C  43.95100 47.45300 42.67400
O  42.97200 48.13900 42.59800
C  43.93200 45.96600 42.28100
C  42.69400 45.34600 42.94300
O  41.81500 44.63000 42.45600
O  42.64400 45.64000 44.29300
C  41.34600 45.54400 44.91000
H  48.85600 40.83600 42.31300
H  53.26000 45.13800 43.29100
H  48.90200 49.66700 43.79900
H  44.32800 42.71800 41.97400
H  46.69800 41.43500 40.69400
H  45.87800 39.53000 42.02200
H  45.00900 40.75100 42.87600
H  46.58400 40.33400 43.40000
H  43.97000 43.85100 40.32200
H  44.66200 42.52000 39.40300
H  46.81100 43.98400 39.18200
H  45.61600 45.31200 39.65000
H  51.60200 39.49800 43.47000
H  52.07700 40.25800 41.86500
H  50.48800 39.69400 42.21000
H  55.60800 42.68500 44.12500
H  54.38000 43.81600 44.66600
H  55.07600 43.95600 43.01100
H  53.00800 47.85500 42.82300
H  51.46200 49.20000 44.99700
H  53.72700 46.75800 45.23700
H  53.49900 48.51100 45.70500
H  54.49800 48.05000 44.41600
H  51.02000 49.47400 42.07400
H  52.46700 50.19100 42.60800
H  51.67700 51.92900 43.34100
H  50.49600 51.24300 44.37000
H  50.07400 51.54800 42.62400
H  45.94900 50.55900 44.38300
H  45.07900 50.51300 42.79300
H  46.78800 50.95600 42.96200
H  43.82900 45.91400 41.19700
H  41.27000 44.59100 45.43300
H  40.47500 45.70100 44.27400
H  41.15500 46.30400 45.66700

