158

Mg 25.77600 51.21200 27.02300
C  23.67200 51.89400 29.84400
C  28.05000 49.89600 29.13800
C  27.86300 51.00200 24.39500
C  23.45500 52.68800 24.96100
N  25.78700 50.88300 29.25100
C  24.82700 51.24300 30.21500
C  25.21000 50.81000 31.60500
C  26.71800 50.34000 31.37900
C  26.86000 50.34000 29.81700
C  27.83000 51.11100 32.13000
C  24.31200 49.68400 32.23700
C  23.95600 49.63200 33.73600
H  24.88300 50.30400 34.83700
N  27.63700 50.48400 26.75900
C  28.40400 49.93700 27.75500
C  29.65600 49.42900 27.12600
C  29.57600 49.64100 25.70200
C  28.27600 50.32200 25.53700
C  30.75900 48.78200 27.99400
C  30.56800 49.28800 24.64500
O  30.41700 49.41100 23.44300
C  31.78100 48.55100 25.05600
N  25.72300 51.87100 25.01300
C  26.71700 51.70400 24.14900
C  26.41100 52.25600 22.72200
C  24.93900 52.72600 22.84700
C  24.68500 52.41800 24.35200
C  27.31600 53.47900 22.34300
C  23.85900 51.97400 21.97200
C  23.90400 52.46900 20.50000
N  23.92200 52.08000 27.31900
C  23.06800 52.52200 26.33300
C  21.85600 52.85600 26.98400
C  22.08600 52.70100 28.41600
C  23.35300 52.13700 28.49300
C  20.63200 53.24300 26.30100
C  21.55700 52.85400 29.69200
O  20.45100 53.19000 30.14600
C  22.53200 52.38000 30.66100
C  22.85900 53.55000 31.51200
O  23.30400 54.64100 31.15000
O  22.49500 53.26800 32.79200
C  22.54300 54.36000 33.70800
H  28.92600 49.50700 29.66200
H  28.64000 50.91100 23.63400
H  22.57300 53.10300 24.46800
H  25.27700 51.76200 32.13200
H  26.77400 49.27000 31.57600
H  27.45500 51.83600 32.85300
H  28.53600 51.64500 31.49400
H  28.48900 50.42300 32.65900
H  24.62300 48.68100 31.94500
H  23.38200 49.75200 31.67200
H  23.70200 48.61000 34.01800
H  23.00600 50.16100 33.80800
H  30.59200 47.70500 28.00300
H  30.80400 49.22600 28.98800
H  31.73300 49.05300 27.58700
H  31.44900 47.63900 25.55100
H  32.48600 49.10900 25.67200
H  32.31200 48.22500 24.16100
H  26.47000 51.42600 22.01700
H  24.75600 53.79800 22.78100
H  27.94400 53.93600 23.10800
H  26.69100 54.09500 21.69700
H  28.06100 53.03500 21.68200
H  22.85600 52.11500 22.37400
H  24.07900 50.90600 21.96300
H  24.58000 53.32000 20.41500
H  22.95700 52.74000 20.03300
H  24.42900 51.73200 19.89200
H  19.84400 53.52900 26.99700
H  20.14500 52.44600 25.73900
H  20.79400 54.17300 25.75600
H  21.97900 51.58500 31.16200
H  21.67200 54.99900 33.56200
H  23.45600 54.94700 33.59900
H  22.40500 53.91100 34.69100
Mg -5.39400 24.69900 26.54600
C  -3.71200 26.46200 29.26100
C  -6.22000 22.36800 28.92500
C  -6.80900 22.85900 24.19200
C  -3.98400 26.90700 24.35400
N  -5.15900 24.55700 28.82000
C  -4.49700 25.35800 29.74700
C  -4.66500 24.95000 31.19500
C  -5.33900 23.57100 30.98600
C  -5.68100 23.51700 29.45200
C  -4.49500 22.28200 31.49800
C  -5.38100 26.06700 32.03900
C  -6.70900 25.84900 32.81700
H  -6.64800 25.28700 34.28700
N  -6.40700 22.88900 26.50300
C  -6.54600 22.06800 27.57900
C  -6.99400 20.80600 27.18300
C  -7.33800 20.97200 25.81000
C  -6.92300 22.33800 25.42100
C  -7.09600 19.68400 28.16200
C  -8.03500 20.01000 24.87800
O  -8.19400 20.28200 23.71000
C  -8.60900 18.72200 25.38800
N  -5.36800 24.77300 24.59100
C  -6.11000 24.02100 23.73000
C  -6.14300 24.56400 22.26800
C  -5.23600 25.85400 22.36300
C  -4.87400 25.92100 23.94300
C  -5.58400 23.56900 21.20400
C  -5.91200 27.14700 21.95700
C  -5.03300 27.86400 20.89200
N  -4.12500 26.38500 26.70800
C  -3.54900 27.19900 25.70200
C  -2.75800 28.25000 26.33800
C  -2.81000 27.96900 27.69200
C  -3.61200 26.78400 27.91100
C  -2.11400 29.34800 25.52400
C  -2.27000 28.38400 28.86600
O  -1.33400 29.18300 29.06500
C  -2.84200 27.45700 29.99900
C  -1.73200 26.83700 30.80700
O  -0.89900 26.03600 30.49200
O  -1.73400 27.41400 32.06200
C  -0.93000 26.78900 33.15900
H  -6.50400 21.61800 29.66600
H  -7.15900 22.28900 23.32900
H  -3.61200 27.66000 23.65700
H  -3.64600 24.76300 31.53400
H  -6.27600 23.50500 31.53900
H  -3.53000 22.57800 31.90800
H  -4.28100 21.67100 30.62100
H  -4.98700 21.61600 32.20600
H  -5.54700 26.91600 31.37600
H  -4.57000 26.37800 32.69600
H  -7.31400 25.24000 32.14500
H  -7.08300 26.87300 32.81800
H  -6.15000 19.70700 28.70200
H  -7.40500 18.70800 27.78800
H  -7.97200 19.86100 28.78700
H  -9.00100 18.28900 24.46800
H  -9.38800 19.06900 26.06800
H  -7.84000 18.09900 25.84500
H  -7.19400 24.78900 22.08600
H  -4.31800 25.66100 21.80900
H  -4.68700 23.04300 21.53400
H  -5.20200 23.93400 20.25100
H  -6.43400 22.91700 21.00500
H  -5.94000 27.83900 22.79800
H  -6.95000 26.90900 21.72500
H  -3.96500 27.79100 21.09700
H  -5.21000 28.90400 21.16500
H  -5.33400 27.75200 19.85100
H  -2.85000 29.93700 24.97700
H  -1.58300 28.85900 24.70700
H  -1.44800 29.92200 26.16800
H  -3.42200 28.07800 30.68100
H  -0.71700 27.52500 33.93400
H  0.04600 26.47900 32.78600
H  -1.46700 25.90600 33.50600

