158

Mg 44.39800 4.72400 46.47800
C  42.02900 7.18500 46.02000
C  41.89900 2.35400 46.21600
C  46.73200 2.23700 46.35600
C  46.95100 7.15500 46.07100
N  42.19700 4.77300 46.04000
C  41.46400 5.93800 45.97700
C  39.98400 5.56300 45.97300
C  39.96600 4.06300 46.11400
C  41.44300 3.68400 46.09200
C  39.20200 3.70500 47.46500
C  39.27500 6.08900 44.76300
C  40.10000 6.02200 43.41100
H  39.18900 5.84000 42.17200
N  44.38400 2.58500 46.39300
C  43.21600 1.83000 46.33800
C  43.55000 0.41500 46.29300
C  44.96100 0.37300 46.54100
C  45.43900 1.79000 46.47600
C  42.50100 -0.72900 46.19600
C  45.76300 -0.91800 46.85100
O  45.23800 -1.98800 47.04800
C  47.21600 -0.94200 46.84600
N  46.55000 4.69000 46.01700
C  47.26200 3.55600 46.26600
C  48.72900 3.87500 46.12900
C  48.81200 5.39200 46.07900
C  47.35300 5.82300 45.92300
C  49.53900 3.25500 47.37100
C  49.68300 5.94400 44.89300
C  51.19600 5.85600 45.03300
N  44.55000 6.76800 46.22900
C  45.59900 7.62200 46.16400
C  45.12500 8.96600 46.18800
C  43.73100 8.85700 46.10700
C  43.46100 7.47700 46.16400
C  45.86800 10.24100 46.12800
C  42.48600 9.58800 45.91600
O  42.30400 10.77000 45.88800
C  41.35700 8.55700 45.94100
C  40.53200 8.86500 47.09500
O  40.78400 8.41400 48.20400
O  39.38100 9.51100 46.76800
C  38.47800 9.81100 47.92400
H  41.06200 1.66000 46.31500
H  47.52700 1.49000 46.39700
H  47.82800 7.79200 46.20200
H  39.48700 5.97600 46.85100
H  39.41800 3.61500 45.28500
H  38.47900 4.48500 47.70300
H  39.79500 3.73200 48.37900
H  38.70100 2.75100 47.29800
H  38.80100 7.03900 45.00800
H  38.38600 5.49300 44.55700
H  40.86300 5.24700 43.34900
H  40.65300 6.95800 43.32500
H  41.46500 -0.39400 46.14100
H  42.49300 -1.41100 47.04600
H  42.62900 -1.24400 45.24300
H  47.64900 -0.29300 47.60800
H  47.54900 -0.71700 45.83300
H  47.61700 -1.90100 47.17500
H  49.12900 3.30400 45.29100
H  49.11300 5.99300 46.93700
H  48.78300 2.96700 48.10300
H  50.03900 4.14200 47.75900
H  50.18500 2.42700 47.08000
H  49.58700 7.02600 44.80500
H  49.50400 5.20100 44.11600
H  51.55300 6.88500 44.99300
H  51.65100 5.26100 44.24100
H  51.48500 5.44200 45.99900
H  46.64800 10.10000 45.37900
H  46.24500 10.68500 47.04900
H  45.27500 11.03800 45.68000
H  40.75000 8.64200 45.03900
H  38.29900 8.84800 48.40200
H  37.55400 10.26800 47.56900
H  39.05800 10.46400 48.57600
Mg -4.75300 25.16200 25.35800
C  -3.52800 26.29200 28.49700
C  -6.69600 22.95700 27.02200
C  -5.40300 23.62100 22.45000
C  -2.41900 27.22300 23.78800
N  -4.79700 24.51800 27.47900
C  -4.36700 25.27500 28.57100
C  -4.92900 24.74300 29.87100
C  -5.78900 23.51600 29.31100
C  -5.74600 23.63900 27.82800
C  -5.43800 22.03600 29.89800
C  -5.78000 25.75300 30.75100
C  -5.25100 25.86300 32.20700
H  -6.19700 25.35200 33.35300
N  -5.97300 23.62000 24.80500
C  -6.80600 22.98700 25.63900
C  -7.74500 22.11700 24.94400
C  -7.23500 22.08400 23.62400
C  -6.15600 23.10500 23.56100
C  -8.97000 21.42500 25.51900
C  -7.52800 21.13200 22.45600
O  -6.87900 20.94000 21.50400
C  -8.80300 20.34900 22.67300
N  -3.86200 25.24400 23.45900
C  -4.39600 24.54500 22.45000
C  -3.77200 24.89900 21.09000
C  -3.08600 26.28600 21.46700
C  -3.12100 26.27300 22.98400
C  -2.84300 23.82300 20.48200
C  -3.83000 27.52400 20.79500
C  -3.66900 27.54800 19.30600
N  -3.34400 26.65300 25.94300
C  -2.46100 27.36500 25.20900
C  -1.66200 28.23600 26.11600
C  -2.00000 27.84900 27.39500
C  -3.05200 26.86200 27.24000
C  -0.58500 29.24200 25.80700
C  -1.64800 28.03400 28.75500
O  -0.88300 28.79600 29.37300
C  -2.74500 27.10900 29.55600
C  -1.88700 26.36800 30.47700
O  -1.45900 25.20200 30.38600
O  -1.71600 27.02400 31.68100
C  -1.00500 26.32900 32.72800
H  -7.42400 22.30700 27.51300
H  -5.59400 23.06300 21.53100
H  -1.74000 27.83600 23.19100
H  -4.02300 24.46300 30.40800
H  -6.84200 23.53100 29.59300
H  -4.48100 22.05400 30.42000
H  -5.17800 21.30600 29.13200
H  -6.23100 21.58000 30.49100
H  -6.84500 25.56800 30.88900
H  -5.82800 26.70300 30.21900
H  -5.02600 26.89800 32.46500
H  -4.27100 25.40200 32.33700
H  -8.91500 20.33700 25.51400
H  -9.96400 21.68000 25.15000
H  -9.15500 21.58700 26.58100
H  -9.69300 20.97500 22.73000
H  -8.64200 19.69400 23.52900
H  -8.87500 19.62700 21.86000
H  -4.55600 25.05000 20.34800
H  -2.05100 26.41000 21.15000
H  -1.81200 24.17600 20.48000
H  -3.19100 23.45400 19.51700
H  -2.94400 23.02700 21.21900
H  -3.32700 28.41900 21.16400
H  -4.87300 27.58700 21.10400
H  -4.59000 27.11100 18.92000
H  -2.83500 26.99400 18.87400
H  -3.45600 28.55700 18.95400
H  -0.88300 29.83400 24.94200
H  0.42600 28.84500 25.72300
H  -0.56300 29.88900 26.68400
H  -3.43200 27.65800 30.20000
H  0.03900 26.30500 32.41500
H  -1.28900 25.27900 32.78400
H  -1.16800 26.85400 33.67000

