158

Mg 9.12200 4.13900 27.72500
C  10.28800 2.51700 30.56600
C  7.37700 6.31200 29.72200
C  7.70800 5.60100 24.95900
C  10.67500 1.84400 25.69000
N  8.92600 4.38200 29.91200
C  9.47100 3.63000 30.93000
C  9.11900 4.11800 32.32400
C  8.07700 5.23100 31.99800
C  8.09300 5.31100 30.43600
C  6.65100 5.06300 32.41900
C  10.40300 4.63100 33.23000
C  10.38600 4.20200 34.69800
H  10.65700 5.35900 35.71400
N  7.67800 5.78500 27.38000
C  7.17400 6.60200 28.36200
C  6.33100 7.62200 27.77100
C  6.49700 7.43400 26.36300
C  7.26900 6.24300 26.15700
C  5.47700 8.64600 28.50000
C  6.04400 8.30900 25.29600
O  6.19300 8.09100 24.11300
C  5.47400 9.65400 25.57500
N  9.12500 3.66300 25.62000
C  8.56400 4.49500 24.71700
C  8.88000 4.07600 23.31200
C  9.98800 3.02900 23.51800
C  9.87100 2.76300 24.98200
C  7.57500 3.61600 22.50800
C  11.45700 3.38500 23.11200
C  12.24500 2.19500 22.63200
N  10.23500 2.56100 28.04500
C  10.82600 1.62200 27.06100
C  11.57500 0.63600 27.79400
C  11.36400 0.95600 29.12800
C  10.54200 2.08800 29.26100
C  12.45800 -0.40300 27.28400
C  11.79300 0.52700 30.41400
O  12.46200 -0.42700 30.76600
C  11.21400 1.59900 31.42900
C  10.50100 0.79600 32.50400
O  9.57300 0.04900 32.38100
O  10.95500 1.20800 33.74000
C  10.30300 0.52700 34.86800
H  6.77600 6.92400 30.39800
H  7.36400 6.15000 24.08000
H  11.21600 1.11900 25.07900
H  8.59900 3.28300 32.79300
H  8.30100 6.19600 32.45400
H  6.49300 5.93400 33.05400
H  6.55300 4.19100 33.06500
H  5.90400 5.12600 31.62800
H  10.28500 5.70700 33.36000
H  11.39100 4.39900 32.83100
H  11.16000 3.44000 34.79100
H  9.38500 3.88000 34.98600
H  5.69000 8.54500 29.56500
H  4.41600 8.48400 28.31000
H  5.78500 9.65200 28.21500
H  4.49800 9.63400 26.06200
H  5.42800 10.06500 24.56700
H  6.18800 10.19600 26.19500
H  9.16100 4.98600 22.78200
H  9.56900 2.21900 22.92100
H  7.19700 4.46400 21.93700
H  6.86300 3.37400 23.29700
H  7.62900 2.75300 21.84400
H  11.88500 3.93100 23.95300
H  11.41600 4.06100 22.25800
H  12.88000 2.41100 21.77300
H  11.62100 1.33800 22.37700
H  12.91700 1.99500 23.46700
H  13.52900 -0.20400 27.31200
H  12.15800 -0.47700 26.23900
H  12.26400 -1.35500 27.77700
H  12.04800 2.17500 31.83200
H  10.28800 1.15700 35.75700
H  10.80300 -0.41300 35.10200
H  9.25700 0.33000 34.63600
Mg 48.09400 34.15900 27.12400
C  46.25300 32.72000 29.75400
C  48.97200 36.64000 29.35600
C  49.90600 35.43200 24.69800
C  47.27000 31.33500 25.08900
N  47.65000 34.56100 29.24100
C  46.99100 33.80400 30.16200
C  47.34400 34.27000 31.62500
C  47.79300 35.71900 31.37200
C  48.11400 35.66600 29.84300
C  46.66600 36.71100 31.65100
C  48.39900 33.44700 32.29700
C  48.34900 33.41900 33.85400
H  47.36700 34.26500 34.78300
N  49.16200 35.89800 26.97800
C  49.42000 36.84200 28.06000
C  50.41500 37.77800 27.52300
C  50.73900 37.38500 26.20200
C  49.88700 36.19800 25.88800
C  50.99300 38.88600 28.48000
C  51.68100 38.07400 25.17200
O  51.94400 37.55300 24.07100
C  52.32100 39.46100 25.52500
N  48.36000 33.55900 25.09400
C  49.18300 34.29500 24.22800
C  49.54000 33.53100 22.93000
C  48.78800 32.11100 23.15500
C  48.03700 32.31000 24.51600
C  49.22800 34.29000 21.59100
C  49.75900 30.89900 23.16600
C  50.02900 30.23700 21.83200
N  46.84600 32.52600 27.30900
C  46.61200 31.48200 26.40900
C  45.67300 30.56000 26.98900
C  45.50800 31.01000 28.31400
C  46.25900 32.17600 28.45600
C  45.11200 29.34900 26.31600
C  44.84300 30.68300 29.55500
O  44.14700 29.69000 29.84000
C  45.26200 31.82200 30.57000
C  45.86500 31.07300 31.62900
O  46.85500 30.37200 31.51400
O  45.05800 31.03600 32.73600
C  45.62300 30.25300 33.83800
H  49.14500 37.51000 29.99200
H  50.57500 35.71100 23.88200
H  47.22000 30.43300 24.47500
H  46.50700 34.26600 32.32400
H  48.65300 36.01500 31.97300
H  45.95500 36.40100 32.41700
H  46.10000 36.82000 30.72500
H  47.09900 37.67400 31.91800
H  49.37600 33.86200 32.05300
H  48.45100 32.45700 31.84500
H  49.36400 33.71900 34.11500
H  48.30200 32.39600 34.22600
H  51.99100 38.57400 28.78700
H  50.27600 39.00600 29.29200
H  51.13200 39.85200 27.99300
H  51.56700 40.23500 25.66700
H  53.01000 39.65000 24.70300
H  52.88500 39.26600 26.43700
H  50.61500 33.36300 22.99100
H  48.01800 32.10700 22.38300
H  48.69900 35.23100 21.74400
H  48.62800 33.71900 20.88100
H  50.17500 34.23900 21.05500
H  49.62100 30.18400 23.97700
H  50.74300 31.32600 23.35800
H  49.54400 30.72000 20.98300
H  49.61300 29.22900 21.82400
H  51.09500 30.08500 21.66700
H  45.00000 29.59400 25.26000
H  44.14300 29.10400 26.75100
H  45.87300 28.58800 26.48600
H  44.40900 32.41600 30.90000
H  45.60500 29.24000 33.43500
H  44.96600 30.21700 34.70700
H  46.64800 30.47200 34.13700

