158

Mg 0.48200 7.26500 25.30400
C  1.11700 9.17800 28.08500
C  0.69000 4.40300 27.27300
C  0.17000 5.37200 22.50800
C  0.96600 10.06800 23.26000
N  0.64500 6.85000 27.45300
C  0.89000 7.84200 28.40500
C  1.00400 7.23000 29.84500
C  0.96400 5.68900 29.48100
C  0.81900 5.58300 27.97100
C  2.18200 4.86400 29.91100
C  -0.14900 7.76700 30.64600
C  -0.03000 7.78900 32.19900
H  1.12200 7.19100 33.00400
N  0.42400 5.20900 24.95100
C  0.46900 4.20400 25.91600
C  0.40600 2.93700 25.25300
C  0.16900 3.20700 23.87900
C  0.21600 4.63100 23.70000
C  0.55900 1.56500 25.95300
C  -0.15300 2.23900 22.75600
O  -0.18500 2.53100 21.56500
C  -0.30000 0.73000 23.09500
N  0.60900 7.66600 23.28200
C  0.23000 6.74300 22.32500
C  0.07900 7.34400 20.93900
C  0.15800 8.91100 21.22100
C  0.56300 8.89600 22.67600
C  1.04500 6.85100 19.92500
C  -1.18200 9.71700 20.96700
C  -1.23100 11.20600 20.60400
N  1.03000 9.23700 25.54400
C  1.15900 10.28400 24.64000
C  1.40400 11.51100 25.36500
C  1.46700 11.11800 26.70600
C  1.16900 9.76500 26.76600
C  1.44300 12.91400 24.75300
C  1.68400 11.56500 28.07700
O  1.86700 12.71200 28.57600
C  1.47700 10.32500 28.99200
C  2.73800 10.19500 29.75100
O  3.82000 10.05400 29.20300
O  2.39700 10.44600 31.06500
C  3.52800 10.67800 31.97900
H  0.65400 3.49800 27.88300
H  0.03400 4.82900 21.57000
H  1.00000 11.02400 22.73300
H  1.92100 7.53300 30.34900
H  0.02100 5.33000 29.89400
H  2.73400 4.49800 29.04500
H  1.78000 4.06200 30.52900
H  2.79100 5.42700 30.61900
H  -1.00300 7.10700 30.49100
H  -0.49900 8.73900 30.29900
H  -1.00300 7.40200 32.50100
H  -0.02600 8.83100 32.52100
H  1.33300 0.97600 25.46100
H  -0.41400 1.07500 25.90500
H  0.92000 1.71500 26.97100
H  -0.66300 0.29000 22.16600
H  -1.00800 0.63600 23.91900
H  0.68800 0.31600 23.29400
H  -0.91400 7.07900 20.57600
H  1.03200 9.37200 20.76100
H  1.88900 7.48700 19.65900
H  0.56000 6.66300 18.96800
H  1.49200 5.88800 20.17100
H  -1.80900 9.41800 21.80700
H  -1.55900 9.31400 20.02700
H  -1.82800 11.62800 21.41200
H  -1.56800 11.49400 19.60800
H  -0.29700 11.76800 20.62400
H  1.49800 13.73400 25.46900
H  0.58100 13.13900 24.12500
H  2.28900 12.89200 24.06600
H  0.69600 10.44200 29.74400
H  3.16900 11.40800 32.70400
H  4.47100 11.00800 31.54400
H  3.65800 9.74000 32.52000
Mg 49.21500 44.80100 43.06800
C  45.86300 45.41000 42.02000
C  48.92800 41.62100 41.79400
C  52.50600 44.66900 43.04000
C  49.43000 48.37500 43.69000
N  47.52900 43.62100 42.10300
C  46.30100 44.08800 41.75300
C  45.55100 43.03500 40.95300
C  46.32100 41.76900 41.29500
C  47.68800 42.35300 41.74200
C  45.66100 40.83100 42.30200
C  45.56800 43.38800 39.46200
C  44.39400 42.76000 38.59700
H  44.77200 41.91900 37.32900
N  50.53200 43.32100 42.65100
C  50.21300 42.06400 42.14700
C  51.35800 41.23800 42.24100
C  52.45500 42.09400 42.51800
C  51.87000 43.44600 42.75900
C  51.34500 39.70700 41.91100
C  53.86900 41.67400 42.81100
O  54.15700 40.45800 42.76400
C  55.03000 42.63100 43.12800
N  50.79100 46.36600 43.20900
C  52.08800 45.95600 43.33700
C  52.95100 47.14100 43.84600
C  52.00200 48.38600 44.09000
C  50.63500 47.67200 43.67900
C  53.87700 46.83300 45.03600
C  52.39100 49.66500 43.21700
C  52.63100 50.95000 43.97700
N  47.89600 46.53600 42.95500
C  48.15500 47.84100 43.30500
C  46.93000 48.59500 43.23500
C  46.03300 47.68700 42.73100
C  46.60700 46.43100 42.62400
C  46.77400 50.08400 43.43500
C  44.68100 47.65700 42.20600
O  43.84600 48.55100 41.94500
C  44.51100 46.03600 41.80100
C  43.31200 45.38900 42.36400
O  42.69300 44.38900 41.88400
O  42.92600 46.08500 43.46900
C  41.60200 45.82500 43.98200
H  48.70500 40.60600 41.46000
H  53.59700 44.63000 43.07300
H  49.48000 49.42200 43.99500
H  44.54300 42.83400 41.31400
H  46.48400 41.19200 40.38500
H  45.49800 39.86300 41.82900
H  44.67000 41.18700 42.58500
H  46.23700 40.67400 43.21300
H  46.49000 43.00000 39.03100
H  45.55300 44.47700 39.42400
H  43.71800 43.57400 38.33500
H  43.85400 42.12400 39.29700
H  51.59200 39.08000 42.76800
H  51.88700 39.50300 40.98800
H  50.37100 39.30100 41.63700
H  56.00600 42.19600 43.34300
H  54.80300 43.26400 43.98600
H  55.19400 43.24400 42.24200
H  53.56800 47.40900 42.98900
H  51.96500 48.62800 45.15200
H  53.99300 47.74600 45.62100
H  54.89400 46.78500 44.64600
H  53.61900 45.86300 45.46200
H  51.50200 49.91200 42.63700
H  53.09500 49.45700 42.41100
H  53.07700 50.64400 44.92300
H  51.65800 51.39900 44.17800
H  53.27600 51.66600 43.46700
H  45.79700 50.16600 43.91200
H  46.76700 50.46000 42.41200
H  47.56800 50.58500 43.98800
H  44.32600 46.02400 40.72700
H  41.54600 44.79900 44.34600
H  40.97400 46.31300 43.23600
H  41.49700 46.36000 44.92500

