158

Mg 23.95800 -4.52500 45.78200
C  26.14200 -2.13900 44.26800
C  21.64600 -3.61700 43.58400
C  22.32800 -7.40300 46.53300
C  26.78800 -5.73300 47.58600
N  23.90300 -2.98300 44.13000
C  24.87200 -2.15100 43.65000
C  24.41100 -1.38100 42.40400
C  22.84900 -1.67100 42.45100
C  22.74900 -2.76600 43.50700
C  22.04600 -0.38300 42.93900
C  25.08600 -1.95200 41.11400
C  25.69400 -0.94000 40.16700
H  25.20500 -0.96300 38.72100
N  22.20900 -5.41900 45.12900
C  21.39400 -4.89800 44.21500
C  20.30500 -5.78500 43.95900
C  20.42400 -6.85200 44.93600
C  21.64300 -6.57100 45.63600
C  19.20100 -5.44100 43.03000
C  19.41900 -7.95200 45.08400
O  18.50400 -8.04300 44.24200
C  19.43700 -8.90400 46.29200
N  24.55500 -6.38900 46.88400
C  23.63400 -7.35700 47.09800
C  24.26800 -8.49500 47.86000
C  25.65200 -7.91600 48.35500
C  25.68600 -6.63800 47.52300
C  23.44100 -9.01200 49.11200
C  26.91000 -8.83200 48.10200
C  27.90400 -8.98700 49.31700
N  26.01900 -4.00200 45.98900
C  26.99900 -4.56000 46.82600
C  28.22400 -3.83700 46.60100
C  27.92700 -2.82800 45.64500
C  26.61600 -3.01700 45.23200
C  29.51400 -4.21800 47.27300
C  28.44500 -1.65600 44.97300
O  29.58500 -1.16300 45.05400
C  27.33700 -1.23400 44.01000
C  27.14200 0.20500 44.16000
O  26.36800 0.72100 44.95300
O  27.85800 0.92400 43.30400
C  27.43300 2.37700 43.23300
H  20.86400 -3.24700 42.91700
H  21.81400 -8.30900 46.85800
H  27.60400 -6.11800 48.20100
H  24.53800 -0.33000 42.66200
H  22.39700 -1.95600 41.50100
H  22.63700 0.52700 43.03800
H  21.54300 -0.57000 43.88800
H  21.38600 -0.24700 42.08200
H  24.40000 -2.55100 40.51500
H  25.94700 -2.55500 41.40300
H  26.77700 -1.06000 40.13200
H  25.46400 0.05800 40.54100
H  18.26700 -5.65800 43.55000
H  19.38200 -5.99400 42.10900
H  19.12600 -4.37400 42.82300
H  19.73300 -8.38600 47.20400
H  20.02700 -9.79600 46.07700
H  18.38400 -9.18200 46.34000
H  24.47200 -9.27900 47.13100
H  25.62300 -7.64000 49.40900
H  22.89000 -9.92800 48.89900
H  22.75000 -8.24400 49.45900
H  24.09600 -9.19600 49.96400
H  27.50600 -8.50900 47.24800
H  26.54300 -9.80900 47.78800
H  28.78200 -8.44700 48.96300
H  28.15200 -10.03400 49.49600
H  27.51700 -8.51100 50.21900
H  29.23100 -4.49600 48.28800
H  30.30300 -3.47200 47.18400
H  29.73100 -5.11400 46.69200
H  27.59200 -1.37900 42.96000
H  28.32300 3.00500 43.26900
H  26.73500 2.80800 43.95000
H  27.14500 2.35500 42.18200
Mg 42.64700 41.70000 26.64800
C  41.60400 44.09400 29.03700
C  43.56900 39.75300 29.34300
C  43.32400 39.45800 24.44300
C  41.66000 44.01000 24.17400
N  42.49100 41.86800 28.93600
C  42.08300 42.94000 29.70000
C  42.13600 42.66100 31.26400
C  42.92000 41.30600 31.22800
C  42.99000 40.93000 29.77900
C  44.44400 41.27400 31.86500
C  40.70300 42.52500 31.95000
C  40.18700 43.44800 33.10200
H  39.96900 42.81100 34.46700
N  43.45800 39.94400 26.83300
C  43.76500 39.25200 28.01100
C  44.35900 38.01200 27.67500
C  44.37000 37.88000 26.29000
C  43.75400 39.11800 25.79000
C  44.71600 36.90000 28.77800
C  44.91500 36.74900 25.42200
O  44.79400 36.74900 24.23200
C  45.61800 35.55500 26.00000
N  42.54800 41.75300 24.58600
C  42.80500 40.62500 23.86200
C  42.57900 40.90200 22.36200
C  41.94700 42.32300 22.24600
C  42.01600 42.73600 23.74200
C  43.76000 40.59900 21.38600
C  40.54100 42.38000 21.50300
C  40.43400 43.48900 20.41200
N  41.91000 43.65000 26.58200
C  41.56600 44.51100 25.45800
C  40.93600 45.76000 25.96100
C  40.91100 45.56800 27.30500
C  41.57000 44.30600 27.65200
C  40.13700 46.81900 25.18500
C  40.56300 46.16200 28.60000
O  39.96500 47.19000 28.77300
C  41.09300 45.23800 29.86300
C  42.16500 45.97600 30.63300
O  43.27900 46.10200 30.31100
O  41.61100 46.44800 31.73600
C  42.44500 46.89400 32.86600
H  43.84600 39.06400 30.14300
H  43.63000 38.81300 23.61700
H  41.32100 44.59900 23.32000
H  42.61200 43.48600 31.79500
H  42.33400 40.55300 31.75400
H  44.28400 40.73700 32.80000
H  44.76800 42.29900 32.04300
H  45.10700 40.69200 31.22400
H  40.76600 41.60200 32.52600
H  39.92600 42.39300 31.19700
H  39.23100 43.94000 32.92500
H  40.93600 44.23600 33.18400
H  44.33400 36.97400 29.79700
H  45.78800 36.72000 28.84400
H  44.17700 36.08300 28.30000
H  46.04100 35.00700 25.15800
H  44.82600 34.94200 26.43100
H  46.43500 35.96500 26.59400
H  41.81300 40.17500 22.09000
H  42.68400 42.86200 21.65100
H  43.42800 39.94100 20.58200
H  44.54700 40.10400 21.95500
H  44.18300 41.53100 21.01000
H  39.81600 42.64600 22.27200
H  40.12800 41.44600 21.12200
H  41.42300 43.91000 20.23000
H  39.82700 44.29300 20.82800
H  39.95100 43.03100 19.54900
H  40.70500 47.74500 25.27100
H  39.23400 46.97600 25.77500
H  39.97800 46.49200 24.15800
H  40.28500 44.96200 30.54100
H  42.36000 47.95800 33.08900
H  43.50300 46.70200 32.68800
H  42.14100 46.32000 33.74100

