158

Mg 36.53800 49.49900 24.93100
C  36.62400 47.52200 28.01900
C  35.01900 52.07400 26.78800
C  35.76600 50.90700 22.07000
C  37.60600 46.54000 23.27100
N  35.79700 49.71700 27.13700
C  36.10900 48.84800 28.21600
C  35.81700 49.60900 29.51700
C  35.19800 50.95000 29.06100
C  35.26000 50.91400 27.52300
C  33.66400 51.18400 29.45800
C  37.02700 49.77200 30.45700
C  36.82100 49.42600 32.02200
H  35.37900 49.17500 32.54900
N  35.65300 51.29900 24.46500
C  35.13600 52.22000 25.36000
C  34.81200 53.38800 24.64300
C  34.90800 53.09400 23.23000
C  35.43600 51.74800 23.14400
C  34.38300 54.66200 25.41000
C  34.53800 53.94600 21.98900
O  34.62900 53.48400 20.86900
C  34.13000 55.33900 22.17400
N  36.62600 48.73300 22.98900
C  36.32700 49.60600 21.96500
C  36.59600 48.96300 20.57200
C  37.36600 47.59100 20.98100
C  37.15700 47.58500 22.52000
C  35.28800 48.65300 19.76000
C  38.83300 47.52500 20.53000
C  39.77300 48.42200 21.41500
N  37.16400 47.48200 25.49800
C  37.55500 46.43100 24.67500
C  37.74600 45.19000 25.46600
C  37.43500 45.65400 26.80500
C  37.08900 47.03200 26.77100
C  38.16300 43.80500 24.99000
C  37.47600 45.24300 28.23000
O  37.94300 44.20300 28.71600
C  36.90800 46.43400 29.04700
C  35.75700 46.11900 29.99300
O  34.65500 46.62600 29.92100
O  36.13800 45.17600 30.94100
C  35.09800 44.81000 32.01200
H  34.69500 52.89900 27.42700
H  35.57100 51.24800 21.05100
H  38.07000 45.71400 22.72800
H  35.11500 49.04400 30.13100
H  35.77800 51.79000 29.44300
H  33.37000 50.26000 29.95600
H  33.05300 51.42200 28.58800
H  33.55200 52.01300 30.15700
H  37.38500 50.79300 30.31800
H  37.87600 49.23700 30.03000
H  37.23600 50.31200 32.50400
H  37.48500 48.61800 32.32600
H  33.31000 54.53200 25.55700
H  34.47700 55.52300 24.74900
H  34.88900 54.82900 26.36100
H  33.96000 55.80100 21.20200
H  35.00100 55.91000 22.49600
H  33.22800 55.47000 22.77200
H  37.20500 49.60100 19.93200
H  36.79600 46.76300 20.55900
H  34.44100 49.04900 20.31900
H  35.18900 47.58300 19.57700
H  35.32500 49.13600 18.78300
H  39.01700 47.98000 19.55700
H  39.20000 46.49900 20.52500
H  39.24900 48.99000 22.18400
H  40.28500 49.19700 20.84500
H  40.54400 47.79700 21.86600
H  39.22700 43.82200 24.75000
H  37.53000 43.42600 24.18800
H  37.94700 43.14000 25.82600
H  37.72300 46.72000 29.71200
H  35.17900 43.80400 32.42500
H  34.11400 44.93100 31.56000
H  35.23400 45.46500 32.87300
Mg 9.60900 47.78200 25.36800
C  7.35500 48.22500 28.10300
C  12.01900 49.24300 27.30200
C  11.70800 47.60200 22.65300
C  6.83400 46.69700 23.34100
N  9.55500 48.75800 27.42000
C  8.66000 48.63200 28.40500
C  9.14800 49.18900 29.74600
C  10.59300 49.75700 29.33700
C  10.77000 49.19900 27.90100
C  10.82800 51.35100 29.32600
C  9.24500 48.18000 30.91600
C  9.74800 48.56200 32.31200
H  8.99500 48.07300 33.51500
N  11.57900 48.33100 25.03100
C  12.39500 48.85900 25.99100
C  13.78000 48.77500 25.50000
C  13.70800 48.19300 24.18400
C  12.29400 48.05500 23.91000
C  14.95500 49.15400 26.32400
C  14.85300 47.83100 23.26500
O  14.74800 47.49500 22.10700
C  16.24900 47.91800 23.79300
N  9.31400 47.38200 23.25700
C  10.39100 47.29100 22.37300
C  9.95200 46.66100 21.04300
C  8.49400 46.21300 21.30100
C  8.18000 46.73900 22.70300
C  10.12300 47.52100 19.77100
C  8.27600 44.72100 20.85600
C  8.30200 43.76900 22.04800
N  7.53900 47.60300 25.62800
C  6.51300 47.03600 24.68200
C  5.22300 47.07200 25.39800
C  5.60100 47.39100 26.77100
C  6.97100 47.73000 26.85300
C  3.91200 46.80500 24.83300
C  5.07700 47.37600 28.09500
O  4.01900 46.95500 28.54300
C  6.17700 47.83600 29.06200
C  6.45500 46.54800 29.79100
O  7.19800 45.71600 29.32200
O  5.84200 46.53500 31.00900
C  6.16700 45.46600 31.96600
H  12.74900 49.75700 27.93200
H  12.41900 47.32900 21.87100
H  6.02700 46.31700 22.71100
H  8.45900 49.99000 30.01300
H  11.33900 49.29800 29.98600
H  10.93400 51.72200 28.30700
H  11.75300 51.54500 29.87000
H  9.99900 51.90700 29.76300
H  9.81700 47.34500 30.51200
H  8.21100 47.84700 31.00000
H  9.70600 49.64700 32.21500
H  10.76700 48.33900 32.62700
H  14.71300 49.56700 27.30400
H  15.53700 49.90800 25.79300
H  15.52900 48.25400 26.54700
H  16.96000 47.57400 23.04200
H  16.35300 47.28100 24.67200
H  16.38700 48.92800 24.17900
H  10.62400 45.83700 20.80400
H  7.74600 46.73300 20.70200
H  9.24800 48.10000 19.47600
H  10.44900 46.85200 18.97400
H  10.98400 48.17200 19.92200
H  9.00600 44.34200 20.14200
H  7.28000 44.69000 20.41300
H  7.30200 43.39500 22.27100
H  8.53000 44.26300 22.99200
H  8.80900 42.83700 21.79800
H  3.53100 47.66300 24.27900
H  3.21100 46.51800 25.61600
H  3.91900 45.86500 24.28100
H  5.81100 48.63200 29.71100
H  5.74000 45.92400 32.85800
H  7.25300 45.41100 31.89400
H  5.70300 44.49800 31.77800

