158

Mg 37.01400 49.77900 24.71500
C  37.26400 47.98700 27.63600
C  35.45200 52.27900 26.28700
C  36.54300 51.32500 21.68800
C  38.09200 46.91100 22.93900
N  36.43100 49.99500 26.68800
C  36.76000 49.25000 27.79000
C  36.44100 49.96600 29.08000
C  35.65000 51.23400 28.57300
C  35.84700 51.17400 27.06800
C  34.23800 51.41800 29.03400
C  37.68600 50.20100 29.90100
C  37.43100 50.06800 31.42300
H  35.99200 50.34800 32.00600
N  36.28400 51.58700 24.10400
C  35.65400 52.49700 24.95000
C  35.17800 53.65900 24.20900
C  35.55200 53.40900 22.85000
C  36.17700 52.07600 22.83300
C  34.38300 54.83500 24.82300
C  35.42100 54.28000 21.63100
O  35.80800 53.89800 20.52000
C  34.89400 55.64100 21.66400
N  37.20900 49.14900 22.59300
C  36.98800 50.01200 21.55400
C  37.23000 49.39900 20.15800
C  37.92300 48.02800 20.62800
C  37.64500 47.98100 22.15700
C  35.92200 49.11700 19.33100
C  39.40300 47.86900 20.14600
C  40.51200 48.40700 21.11000
N  37.57100 47.86200 25.17300
C  38.08300 46.82900 24.36500
C  38.64800 45.80500 25.12600
C  38.26800 46.17000 26.43600
C  37.63900 47.41600 26.39800
C  39.52500 44.65500 24.57200
C  38.33500 45.84400 27.80900
O  38.80200 44.87600 28.40300
C  37.63600 47.00800 28.61700
C  36.41500 46.48000 29.26500
O  35.35700 46.18900 28.70900
O  36.65700 46.42100 30.60000
C  35.56900 45.78600 31.39400
H  35.08700 53.18000 26.78400
H  36.26300 51.82700 20.76000
H  38.58700 46.16100 22.31900
H  35.75900 49.35100 29.66800
H  36.24600 52.04200 28.99800
H  33.87400 50.53500 29.55800
H  33.45600 51.53100 28.28200
H  34.12200 52.28400 29.68600
H  38.01100 51.23000 29.74400
H  38.49600 49.58100 29.51600
H  38.07300 50.84300 31.84100
H  37.75000 49.04400 31.61700
H  33.40400 54.67500 24.37000
H  34.68000 55.78600 24.38100
H  34.22000 54.87200 25.90000
H  34.93700 56.03700 20.64900
H  35.45100 56.32700 22.30400
H  33.86900 55.63000 22.03500
H  37.90900 50.02300 19.57700
H  37.35300 47.18100 20.24600
H  34.98800 49.19900 19.88700
H  36.08700 48.26200 18.67500
H  35.83100 49.97400 18.66500
H  39.42500 48.34000 19.16400
H  39.58800 46.79700 20.07500
H  40.13000 49.05500 21.89900
H  41.12300 48.97900 20.41200
H  41.20100 47.73900 21.62700
H  39.41500 44.47600 23.50300
H  39.29500 43.75700 25.14600
H  40.59600 44.81900 24.69000
H  38.28900 47.30600 29.43700
H  35.80300 44.73000 31.53000
H  34.59600 45.66400 30.91900
H  35.37700 46.31200 32.32900
Mg 1.58000 41.77600 25.54000
C  3.69300 41.83300 28.31500
C  -1.09000 41.12300 27.48500
C  -0.04700 41.06000 22.68200
C  4.53700 42.40300 23.60900
N  1.37500 41.59000 27.64100
C  2.35100 41.59700 28.66400
C  1.75100 41.57000 30.10800
C  0.27400 41.14700 29.76400
C  0.13400 41.42300 28.23200
C  -0.23500 39.64800 30.17400
C  1.99600 42.92500 30.76800
C  2.10400 42.85900 32.31700
H  0.73100 43.00600 32.97300
N  -0.32000 41.28300 25.10800
C  -1.25800 41.07600 26.08100
C  -2.51300 40.67700 25.42500
C  -2.29500 40.65100 24.03800
C  -0.84200 40.94500 23.84800
C  -3.81400 40.37600 26.19000
C  -3.28200 40.27200 22.93300
O  -2.77500 40.14500 21.83300
C  -4.72100 40.06000 23.14700
N  2.09100 41.88100 23.42600
C  1.30000 41.38100 22.51800
C  2.02300 41.54200 21.15000
C  3.32300 42.31400 21.42500
C  3.36500 42.14300 22.86300
C  2.35700 40.11200 20.65100
C  3.20600 43.75800 21.03900
C  4.25400 44.44000 20.16400
N  3.64500 41.95300 25.81900
C  4.69800 42.27600 24.96500
C  5.97300 42.35200 25.65900
C  5.61800 42.12200 26.96700
C  4.21200 42.04900 27.01400
C  7.35000 42.63600 25.14500
C  6.11200 41.98900 28.33800
O  7.29000 41.86600 28.70800
C  4.86500 41.86000 29.31300
C  5.04900 40.67800 30.28900
O  4.86000 39.52500 30.04500
O  5.52800 41.17400 31.51300
C  5.33000 40.30000 32.69600
H  -1.95300 40.96400 28.13400
H  -0.56100 40.70400 21.78600
H  5.46900 42.59100 23.07200
H  2.28800 40.91500 30.79400
H  -0.37600 41.80800 30.33800
H  -0.92700 39.72300 31.01300
H  0.54800 38.95100 30.47200
H  -0.85100 39.25100 29.36600
H  1.10100 43.51900 30.58300
H  2.89300 43.44700 30.43400
H  2.78300 43.65000 32.63200
H  2.51200 41.88100 32.57200
H  -4.52900 41.13000 25.86300
H  -3.60100 40.43400 27.25800
H  -4.11900 39.36000 25.94000
H  -5.07100 41.06200 23.39600
H  -4.91500 39.27400 23.87700
H  -5.11400 39.73500 22.18400
H  1.39100 42.05200 20.42300
H  4.02500 41.77800 20.78600
H  2.99900 39.57500 21.34900
H  2.95200 40.21600 19.74400
H  1.56200 39.46500 20.27900
H  3.11500 44.40800 21.90900
H  2.19700 43.88000 20.64500
H  5.02700 43.73900 19.84900
H  4.62800 45.34400 20.64600
H  3.76700 44.82800 19.27000
H  7.38500 42.65100 24.05600
H  7.95300 41.93200 25.71900
H  7.63600 43.58500 25.59800
H  4.76900 42.81300 29.83500
H  4.66900 40.83300 33.37900
H  6.33500 40.20900 33.10900
H  4.90800 39.29600 32.65600

