158

Mg 25.29000 1.34100 29.21900
C  27.25400 1.04500 32.19400
C  22.57600 1.43500 31.38200
C  23.46200 1.07200 26.54900
C  28.09800 0.54800 27.41400
N  25.05000 1.26700 31.59400
C  25.95000 1.24600 32.56900
C  25.26800 1.36300 33.92900
C  23.73900 1.22100 33.66000
C  23.79500 1.29300 32.09800
C  23.19200 -0.11100 34.26100
C  25.71400 2.74100 34.66200
C  26.32800 2.58000 36.06500
H  26.16200 3.74400 37.12000
N  23.30600 1.37700 28.98500
C  22.32200 1.44400 29.97200
C  21.08100 1.40500 29.35900
C  21.22700 1.29500 27.90800
C  22.73400 1.20800 27.73800
C  19.76400 1.63900 30.12700
C  20.16700 1.14000 26.76400
O  20.39300 1.26400 25.55800
C  18.68300 1.03600 27.12600
N  25.71700 1.04600 27.21200
C  24.77700 1.02800 26.24600
C  25.35700 0.94600 24.87400
C  26.88100 0.66900 25.14800
C  26.92100 0.80100 26.68200
C  24.73300 -0.06700 23.89900
C  27.83700 1.60900 24.41500
C  29.15700 1.01600 23.86500
N  27.28700 0.84000 29.68800
C  28.30500 0.54700 28.83600
C  29.52000 0.31000 29.58100
C  29.17700 0.51100 30.90300
C  27.79100 0.81100 30.92100
C  30.88800 -0.09500 29.08300
C  29.64900 0.51200 32.26200
O  30.76500 0.32000 32.73800
C  28.46700 1.02100 33.16700
C  28.28900 0.02400 34.29300
O  27.49800 -0.92400 34.31500
O  29.05700 0.41400 35.34500
C  28.99000 -0.53100 36.49800
H  21.75900 1.35700 32.10100
H  22.94600 1.21100 25.59600
H  28.95400 0.29900 26.78300
H  25.60900 0.56400 34.58700
H  23.13800 2.04900 34.03700
H  23.61600 -0.30700 35.24500
H  23.48500 -0.88300 33.54900
H  22.11300 -0.10100 34.41500
H  24.76400 3.21100 34.91600
H  26.30700 3.25500 33.90600
H  27.41100 2.52400 35.95500
H  25.86500 1.68900 36.48800
H  19.34300 0.63700 30.04800
H  19.18400 2.41800 29.63300
H  19.79600 1.94400 31.17300
H  18.29100 1.91100 27.64500
H  18.65400 0.24800 27.87900
H  18.09400 0.75400 26.25400
H  25.20000 1.94600 24.47000
H  27.19800 -0.37200 25.08200
H  25.41400 -0.87900 23.64300
H  24.30700 0.35300 22.98800
H  23.89200 -0.62600 24.30900
H  28.07400 2.44700 25.07000
H  27.35000 2.03000 23.53600
H  28.96000 -0.03700 23.66500
H  29.94400 1.08300 24.61600
H  29.40700 1.55200 22.94900
H  31.35100 0.86500 28.85600
H  30.81600 -0.73900 28.20700
H  31.46300 -0.62700 29.84100
H  28.68700 2.05700 33.42400
H  28.17100 -0.19800 37.13500
H  29.94700 -0.58800 37.01700
H  28.74700 -1.57500 36.30000
Mg 26.90700 50.66000 26.98400
C  24.78800 51.76200 29.59700
C  29.33500 49.82800 29.28300
C  28.87000 50.06100 24.42500
C  24.43900 51.99100 24.76100
N  27.03200 50.82600 29.10200
C  26.05800 51.21100 30.01100
C  26.44200 50.94300 31.45000
C  28.00600 50.68800 31.27800
C  28.11900 50.37000 29.82400
C  28.91900 51.85100 31.66900
C  25.66400 49.78600 32.16600
C  25.08100 50.26200 33.51800
H  26.08600 50.56800 34.59300
N  28.86600 49.99200 26.89300
C  29.70600 49.56500 27.89800
C  30.95100 49.00000 27.37100
C  30.87300 49.28900 25.89200
C  29.52300 49.83200 25.68000
C  31.91200 48.28600 28.24900
C  31.84000 48.90200 24.79200
O  31.62600 49.16700 23.61700
C  33.15100 48.16400 25.08600
N  26.71200 51.02900 24.95700
C  27.70400 50.72800 24.07300
C  27.28200 50.90400 22.54900
C  25.76300 51.27600 22.73300
C  25.65800 51.46300 24.29300
C  28.08700 51.77200 21.60700
C  24.79300 50.18500 22.04000
C  24.30000 49.08600 22.92200
N  25.00800 51.71100 27.11300
C  24.16800 52.08500 26.11100
C  23.05100 52.71100 26.70900
C  23.22500 52.63500 28.05800
C  24.44000 51.98000 28.30400
C  21.84800 53.32100 25.95400
C  22.72600 53.08800 29.26300
O  21.75500 53.84700 29.50500
C  23.69100 52.54100 30.40200
C  24.26200 53.69600 31.22500
O  25.23700 54.33500 30.90600
O  23.47400 53.78400 32.39600
C  23.73500 54.80100 33.40200
H  30.14100 49.55700 29.96800
H  29.54200 49.86700 23.58700
H  23.69300 52.42400 24.09100
H  26.16500 51.84400 31.99800
H  28.17800 49.80500 31.89400
H  29.06500 51.83100 32.74900
H  28.34500 52.72800 31.36800
H  29.86700 51.78800 31.13500
H  26.30700 48.92600 32.35200
H  24.87000 49.46500 31.49200
H  24.45300 49.43100 33.84000
H  24.38300 51.09400 33.41800
H  31.57500 47.25000 28.20700
H  31.98800 48.73000 29.24200
H  32.93100 48.34100 27.86600
H  33.04800 47.10000 25.30000
H  33.72100 48.62400 25.89300
H  33.74100 48.27200 24.17600
H  27.51700 49.90300 22.18700
H  25.60900 52.27500 22.32500
H  28.22800 51.29200 20.63800
H  29.08600 51.96100 21.99800
H  27.64900 52.73100 21.33100
H  25.17800 49.77800 21.10500
H  23.96500 50.82800 21.74200
H  24.92600 48.93700 23.80300
H  24.34800 48.14000 22.38200
H  23.24000 49.31000 23.03900
H  21.64200 52.87300 24.98200
H  21.91300 54.39800 25.80500
H  20.88900 53.09500 26.42000
H  23.12800 51.89100 31.07200
H  24.26600 55.53100 32.79100
H  24.36500 54.28500 34.12700
H  22.77000 55.06000 33.83700

