158

Mg 2.34700 -1.46900 43.29700
C  5.63700 -0.51000 43.11800
C  1.54600 1.51200 41.71800
C  -0.86500 -2.63200 42.65500
C  3.29900 -4.46700 44.80000
N  3.49800 0.24900 42.36900
C  4.80400 0.50400 42.58300
C  5.18500 1.83000 41.99700
C  3.78100 2.57500 41.90200
C  2.89200 1.39300 42.02300
C  3.61300 3.86600 42.77500
C  6.22300 1.83800 40.77300
C  5.97400 0.71900 39.82300
H  5.15600 1.19300 38.56800
N  0.60200 -0.71700 42.24700
C  0.53900 0.57000 41.78600
C  -0.76600 0.80400 41.22100
C  -1.51200 -0.44200 41.46800
C  -0.58400 -1.34700 42.17100
C  -1.21500 2.03300 40.52900
C  -2.82100 -0.64200 40.78800
O  -3.29100 0.21200 40.03200
C  -3.57300 -1.96000 41.03900
N  1.42600 -3.31200 43.51700
C  0.05900 -3.50400 43.32000
C  -0.41100 -4.87400 43.87200
C  0.91200 -5.37500 44.60300
C  2.00700 -4.39300 44.25000
C  -1.60900 -4.88300 44.85800
C  1.24700 -6.84900 44.18900
C  1.24200 -7.77500 45.38800
N  4.02100 -2.42800 43.80600
C  4.32700 -3.64600 44.38900
C  5.72900 -3.83300 44.61600
C  6.34300 -2.58800 44.12900
C  5.21600 -1.81300 43.60600
C  6.31400 -4.96200 45.45300
C  7.57400 -1.83500 44.04300
O  8.71900 -2.14000 44.33400
C  7.18100 -0.55000 43.31200
C  7.60400 0.55900 44.28600
O  7.22100 0.64400 45.46700
O  8.45600 1.50300 43.68400
C  8.79000 2.61200 44.50400
H  1.31500 2.54000 41.43000
H  -1.85200 -3.07000 42.49300
H  3.50200 -5.39500 45.33800
H  5.84000 2.32600 42.71400
H  3.64700 2.83100 40.85100
H  3.45500 3.68100 43.83800
H  2.66300 4.29300 42.45400
H  4.43800 4.54900 42.57300
H  7.22700 1.94700 41.18300
H  6.16100 2.75200 40.18200
H  5.22900 0.00800 40.18000
H  6.90400 0.18700 39.62300
H  -2.15800 2.35100 40.97300
H  -1.45200 1.80700 39.48900
H  -0.52500 2.86600 40.66200
H  -3.16600 -2.77800 40.44600
H  -4.58600 -1.76800 40.68500
H  -3.62600 -2.16700 42.10800
H  -0.68900 -5.36100 42.93800
H  0.84500 -5.35500 45.69100
H  -1.43900 -5.40700 45.79900
H  -2.44700 -5.36000 44.35000
H  -1.84200 -3.85200 45.12600
H  2.19000 -6.82200 43.64400
H  0.50100 -7.22800 43.49000
H  0.85300 -8.78600 45.26700
H  0.62500 -7.46000 46.22900
H  2.16800 -7.83200 45.95900
H  7.27800 -4.57600 45.78600
H  6.52600 -5.81900 44.81400
H  5.63400 -5.29800 46.23600
H  7.64800 -0.25100 42.37400
H  8.00100 2.86800 45.21000
H  8.87400 3.29300 43.65700
H  9.73700 2.44100 45.01700
Mg 46.98600 34.91000 27.98100
C  45.27400 33.02600 30.33000
C  47.24100 37.46500 30.34800
C  48.12200 36.78500 25.61700
C  46.42000 32.29900 25.64600
N  46.19900 35.23100 29.96800
C  45.66500 34.27500 30.82300
C  45.73000 34.73800 32.29400
C  45.86300 36.24800 32.10400
C  46.42300 36.36500 30.69300
C  44.50900 37.03700 32.23400
C  47.02800 34.12700 32.88400
C  47.06600 33.89300 34.38800
H  46.05600 34.71300 35.32200
N  47.68700 36.86000 28.02800
C  47.80900 37.73100 29.07800
C  48.46100 39.00100 28.61600
C  48.88900 38.71100 27.29500
C  48.21700 37.43400 26.90800
C  48.74200 40.09200 29.52900
C  49.74700 39.59800 26.37300
O  49.94000 39.13000 25.26000
C  50.16500 40.95100 26.73500
N  47.11900 34.61000 25.91400
C  47.68300 35.54000 25.15700
C  47.62500 35.14700 23.61700
C  47.43200 33.67700 23.74200
C  46.91600 33.47500 25.19600
C  46.35200 35.90500 22.97800
C  48.56900 32.70300 23.37300
C  50.09500 33.15700 23.43600
N  46.23200 32.91300 27.98500
C  46.06900 32.00800 26.94600
C  45.44200 30.76800 27.49700
C  45.11100 31.06400 28.81000
C  45.56600 32.40700 29.02300
C  45.14700 29.57300 26.59500
C  44.42900 30.66600 29.98900
O  43.80100 29.63600 30.23100
C  44.48000 31.91500 31.01600
C  44.92400 31.40200 32.32300
O  45.91800 30.78300 32.52800
O  44.01800 31.72600 33.25100
C  44.26500 31.03000 34.47600
H  47.27400 38.31200 31.03700
H  48.49900 37.34600 24.76000
H  46.23000 31.49100 24.93700
H  44.89000 34.31500 32.84600
H  46.60500 36.67800 32.77700
H  44.14700 37.61500 31.38400
H  44.55200 37.70400 33.09500
H  43.83500 36.25100 32.57600
H  47.81400 34.88000 32.82900
H  47.38200 33.18400 32.46900
H  48.05500 34.05200 34.81700
H  46.68800 32.88600 34.56600
H  49.81500 40.00700 29.70200
H  48.23300 40.08600 30.49300
H  48.51100 41.07000 29.10600
H  49.40800 41.61600 27.15000
H  50.65800 41.44500 25.89800
H  50.95200 40.78300 27.46900
H  48.53500 35.46200 23.10500
H  46.51800 33.39300 23.22000
H  46.80500 36.61600 22.28600
H  45.74400 36.38800 23.74200
H  45.73100 35.30900 22.30900
H  48.45500 32.44400 22.32000
H  48.47100 31.79000 23.96000
H  50.19300 34.17500 23.81000
H  50.46800 33.09600 22.41400
H  50.83800 32.54700 23.95100
H  45.95000 29.45300 25.86800
H  44.18500 29.64900 26.08900
H  45.10000 28.61900 27.12100
H  43.43100 32.20200 31.07800
H  43.46200 31.04700 35.21300
H  45.15200 31.53000 34.86500
H  44.43400 29.97800 34.24200

