158

Mg 43.09600 42.28900 26.48200
C  42.50300 44.73100 28.98100
C  44.51100 40.16900 28.76400
C  43.71100 40.16100 24.02000
C  42.56100 44.89400 24.07200
N  43.64200 42.56100 28.59300
C  43.05100 43.51500 29.47100
C  43.12300 42.99000 30.87800
C  44.18200 41.79200 30.77900
C  44.03600 41.43400 29.27700
C  45.62000 42.18500 31.01100
C  41.69300 42.66300 31.39400
C  41.27800 43.22200 32.73400
H  42.13500 42.96000 33.95900
N  43.96000 40.44000 26.43700
C  44.43600 39.70000 27.46200
C  44.74000 38.38300 27.06100
C  44.41400 38.31500 25.67200
C  43.98900 39.61800 25.31300
C  45.42000 37.30000 27.96500
C  44.55100 37.09800 24.69300
O  44.57500 37.16900 23.49300
C  44.98700 35.79800 25.31600
N  43.17400 42.57300 24.37500
C  43.33800 41.46200 23.59500
C  43.11700 41.82900 22.04000
C  42.55400 43.26200 22.20800
C  42.69200 43.60700 23.65500
C  44.47600 41.78800 21.34800
C  41.17000 43.42600 21.60300
C  40.04000 42.61800 22.34500
N  42.56100 44.30900 26.47500
C  42.49800 45.23100 25.41500
C  42.14600 46.54000 25.88400
C  41.99900 46.32400 27.26100
C  42.40900 44.98900 27.57800
C  41.97500 47.83300 25.02600
C  41.64900 46.99500 28.49000
O  41.19800 48.09800 28.72800
C  41.86200 45.90300 29.71300
C  42.73000 46.57900 30.67400
O  43.88100 46.90400 30.40900
O  42.09000 46.70500 31.86100
C  42.71200 47.78300 32.78400
H  44.83800 39.44700 29.51600
H  43.90200 39.54500 23.14000
H  42.31200 45.70700 23.38700
H  43.56100 43.80600 31.45200
H  43.92400 40.87900 31.31400
H  46.39600 41.77700 30.36300
H  45.86400 42.00700 32.05800
H  45.64400 43.27000 30.91400
H  41.60300 41.58500 31.53000
H  41.01300 43.09400 30.65900
H  40.20400 43.04700 32.80200
H  41.35200 44.28900 32.52400
H  45.49400 37.70400 28.97400
H  46.45200 37.30300 27.61600
H  44.93400 36.33400 28.11000
H  45.08900 35.06400 24.51600
H  44.50000 35.29900 26.15400
H  46.03700 35.98400 25.54000
H  42.44400 41.07900 21.62600
H  43.26300 43.96500 21.77200
H  45.30500 41.68400 22.04800
H  44.65700 42.73500 20.84000
H  44.46400 41.02000 20.57500
H  41.09400 42.98900 20.60800
H  40.82300 44.45100 21.47200
H  39.15100 43.12000 22.72900
H  40.51300 41.93300 23.04800
H  39.62100 41.88200 21.65900
H  42.84900 47.99100 24.39300
H  41.78200 48.65600 25.71300
H  41.10000 47.67800 24.39600
H  40.88000 45.68700 30.13400
H  43.09300 48.58900 32.15700
H  43.55200 47.36200 33.33600
H  41.97700 48.24500 33.44400
Mg 37.46500 50.29900 25.11200
C  37.40100 48.36900 27.98800
C  36.01600 52.73600 26.79100
C  37.21100 51.88100 22.13900
C  38.45600 47.33300 23.20700
N  36.86700 50.55100 27.16800
C  37.02000 49.64800 28.20300
C  36.52000 50.31200 29.46600
C  36.22400 51.74900 29.10200
C  36.36700 51.67200 27.60100
C  34.81100 52.31000 29.46700
C  37.55400 50.08100 30.72900
C  37.01400 49.46400 32.03300
H  35.44800 49.52200 32.13500
N  36.65500 52.08300 24.54300
C  36.07500 52.95200 25.37300
C  35.65300 54.14400 24.65200
C  35.95200 53.86500 23.30300
C  36.73800 52.57000 23.30200
C  34.84000 55.26400 25.33900
C  35.62000 54.70200 22.06400
O  36.10300 54.53300 20.88700
C  34.83500 56.07400 22.16000
N  37.78300 49.62500 22.93900
C  37.63000 50.57100 21.93600
C  37.90100 49.92600 20.55400
C  38.55600 48.55200 20.90500
C  38.25700 48.47900 22.39200
C  36.63900 49.85300 19.64400
C  40.02900 48.46200 20.61300
C  41.08300 48.84200 21.62400
N  37.91100 48.26900 25.47800
C  38.25700 47.19600 24.63400
C  38.49300 46.03800 25.48900
C  38.18000 46.44100 26.84000
C  37.79600 47.79400 26.76500
C  39.04600 44.79300 24.98000
C  38.18400 45.97400 28.16300
O  38.41700 44.86500 28.63400
C  37.61600 47.21700 29.01200
C  36.38600 46.74900 29.74900
O  35.19600 46.79500 29.41400
O  36.83300 46.05300 30.87800
C  35.83600 45.55200 31.85700
H  35.64700 53.50400 27.47500
H  37.09000 52.43400 21.20500
H  38.81000 46.46000 22.65400
H  35.60200 49.73500 29.58500
H  37.00800 52.36200 29.54600
H  34.54900 51.82900 30.40900
H  34.03600 52.06400 28.74100
H  34.68000 53.38000 29.63400
H  38.10300 50.99500 30.95500
H  38.41700 49.48400 30.43500
H  37.43500 49.91900 32.92900
H  37.25500 48.40200 31.99900
H  33.75800 55.14400 25.39700
H  35.19000 56.23900 25.00100
H  35.10300 55.36500 26.39200
H  33.84100 55.95600 22.59200
H  34.88900 56.49000 21.15400
H  35.40600 56.80300 22.73400
H  38.65800 50.65600 20.26600
H  38.12400 47.63500 20.50300
H  36.53700 48.82000 19.31100
H  36.86200 50.48400 18.78400
H  35.75500 50.15000 20.20900
H  40.28300 49.09500 19.76200
H  40.23400 47.47200 20.20500
H  40.77000 48.70200 22.65900
H  41.47500 49.84900 21.48100
H  41.92700 48.16300 21.50300
H  38.17100 44.32100 24.53300
H  39.26000 44.21300 25.87800
H  39.88100 45.08600 24.34400
H  38.32000 47.35400 29.83300
H  34.82500 45.55500 31.44800
H  35.81300 46.34400 32.60600
H  36.17400 44.65300 32.37200

