158

Mg 55.39900 25.74300 44.62100
C  52.35600 27.35300 43.76900
C  53.98700 22.86300 43.66300
C  58.38700 24.48800 44.59300
C  56.62200 28.96900 45.72900
N  53.41500 25.20700 43.38000
C  52.28600 25.98300 43.43100
C  51.12000 25.14200 42.96700
C  51.60300 23.72600 43.50500
C  53.14400 23.93600 43.46300
C  51.15000 23.40200 45.00300
C  50.57700 25.17000 41.51700
C  49.11100 24.73600 41.39400
H  48.72000 23.73300 40.25600
N  56.12700 23.83300 44.16900
C  55.33700 22.82000 43.77800
C  56.17100 21.66800 43.78100
C  57.48500 22.08100 44.12200
C  57.43500 23.53900 44.31300
C  55.61200 20.26400 43.46300
C  58.62000 21.12700 44.07000
O  58.43000 19.90800 43.73400
C  60.05700 21.65500 44.22900
N  57.14900 26.59600 45.11300
C  58.28100 25.80700 45.03500
C  59.58400 26.72400 45.33500
C  58.97400 28.05200 45.85800
C  57.49700 27.85200 45.52600
C  60.58400 26.12800 46.38600
C  59.69600 29.35000 45.32000
C  59.09800 30.06200 44.08100
N  54.69100 27.75800 44.80300
C  55.23500 28.87200 45.42600
C  54.19600 29.90700 45.49100
C  53.09000 29.38200 44.84700
C  53.40000 28.00600 44.47400
C  54.30300 31.24700 46.04400
C  51.77600 29.67800 44.37000
O  51.21200 30.70600 44.51000
C  51.24500 28.42300 43.63100
C  51.06800 28.75500 42.19900
O  51.94600 29.17900 41.47100
O  49.79400 28.50900 41.86100
C  49.47500 29.09500 40.55600
H  53.56700 21.85700 43.60600
H  59.38600 24.04700 44.59700
H  57.07300 29.90200 46.07200
H  50.25800 25.46200 43.55200
H  51.24100 22.91000 42.87900
H  52.03200 23.29700 45.63400
H  50.67400 22.43500 44.84200
H  50.39100 24.12100 45.31200
H  51.15300 24.47900 40.90100
H  50.71500 26.20900 41.21900
H  48.59300 25.66600 41.15800
H  48.71700 24.34100 42.33000
H  55.63100 20.13600 42.38100
H  54.55800 20.20200 43.73500
H  56.09000 19.43500 43.98500
H  60.37300 22.38500 43.48400
H  60.80300 20.86000 44.21500
H  60.16100 22.15400 45.19200
H  59.98100 26.83200 44.32500
H  59.09300 27.99500 46.94000
H  60.86200 26.76900 47.22200
H  61.46500 25.70700 45.90200
H  60.01800 25.34400 46.88700
H  60.73000 29.05400 45.14600
H  59.69200 30.10200 46.11000
H  59.99600 30.22100 43.48300
H  58.55700 30.94800 44.41100
H  58.35200 29.42300 43.61000
H  53.68000 31.29700 46.93700
H  53.96600 31.99200 45.32400
H  55.32000 31.50200 46.34100
H  50.39800 28.03500 44.19600
H  50.15400 29.84600 40.15200
H  48.42400 29.38200 40.61200
H  49.45300 28.33600 39.77400
Mg 49.53700 45.62000 41.45800
C  46.17900 45.72200 40.32600
C  49.55900 42.17500 40.57000
C  52.89000 45.61600 41.47300
C  49.44600 49.17200 41.60100
N  48.04900 44.18200 40.50200
C  46.82200 44.49200 40.15000
C  46.19900 43.30100 39.47700
C  46.91200 42.12900 40.14100
C  48.29600 42.87400 40.40900
C  46.23500 41.42500 41.31100
C  46.23800 43.36500 37.83800
C  44.88600 43.24300 37.16900
H  44.68800 44.26200 36.02100
N  51.00900 44.09000 41.07000
C  50.86300 42.72100 40.81200
C  52.11900 42.06700 40.79000
C  53.06500 43.05200 41.08600
C  52.33100 44.37600 41.17800
C  52.24700 40.62100 40.49200
C  54.53100 42.74500 41.12700
O  54.95600 41.61800 40.82800
C  55.51500 43.78100 41.52100
N  50.99600 47.22300 41.49600
C  52.32400 46.90600 41.64600
C  53.17400 48.15500 41.71400
C  52.06500 49.30800 41.81500
C  50.75000 48.59500 41.62800
C  54.17000 48.05400 42.87800
C  52.27300 50.52900 40.90000
C  52.13900 51.93500 41.56500
N  48.09800 47.13900 41.37700
C  48.19900 48.56900 41.51000
C  46.87900 49.15900 41.40500
C  46.09400 48.04800 40.89800
C  46.82500 46.84900 40.97500
C  46.65700 50.68000 41.45500
C  44.75500 47.69200 40.39300
O  43.75900 48.40700 40.13200
C  44.78300 46.17500 40.02200
C  43.71200 45.61600 40.84400
O  43.61700 45.52000 42.06000
O  42.68000 45.32000 39.93400
C  41.38200 45.16800 40.52300
H  49.38200 41.10800 40.42100
H  53.98000 45.60800 41.41900
H  49.50800 50.24700 41.78400
H  45.19600 43.36800 39.89800
H  47.13600 41.30700 39.46200
H  45.19000 41.71800 41.21600
H  46.62300 41.70100 42.29100
H  46.16400 40.35400 41.11800
H  46.78600 42.50400 37.45500
H  46.80200 44.24700 37.53500
H  44.13500 43.54000 37.90000
H  44.60400 42.23900 36.85200
H  52.73500 40.60200 39.51800
H  51.31500 40.06100 40.42500
H  52.92800 40.05800 41.13200
H  55.15200 44.20800 42.45600
H  55.64900 44.57900 40.79100
H  56.51000 43.33800 41.56400
H  53.74700 48.32900 40.80300
H  52.09000 49.72200 42.82300
H  54.02100 47.07700 43.33800
H  54.24200 48.92900 43.52300
H  55.11500 48.22500 42.36200
H  51.53200 50.60400 40.10500
H  53.23700 50.43100 40.40100
H  53.14000 52.12800 41.95000
H  51.49200 51.85600 42.43900
H  51.86100 52.72500 40.86800
H  46.54800 51.08900 42.45900
H  45.67500 50.72100 40.98500
H  47.45600 51.13900 40.87300
H  44.77200 46.07100 38.93700
H  41.31000 44.27800 41.14900
H  40.65300 45.04200 39.72200
H  41.18100 46.03600 41.15000

