158

Mg 16.56700 -1.92400 28.11800
C  15.45500 0.01200 31.00000
C  18.71200 -3.49400 30.20100
C  17.76900 -3.29100 25.36000
C  14.89900 0.55100 26.14200
N  17.03800 -1.67800 30.29800
C  16.53600 -0.85600 31.27500
C  17.17200 -1.09100 32.60700
C  18.24600 -2.12900 32.30600
C  18.06200 -2.42000 30.84800
C  19.70600 -1.72100 32.70900
C  16.15800 -1.61700 33.69400
C  16.20700 -0.97600 35.10900
H  17.53200 -0.23400 35.47400
N  17.88200 -3.36100 27.84300
C  18.55800 -3.99400 28.87300
C  19.14400 -5.23200 28.31600
C  18.93400 -5.19500 26.88800
C  18.09600 -3.94300 26.63700
C  19.83100 -6.21700 29.20700
C  19.38500 -6.18000 25.83400
O  19.06300 -6.04900 24.68400
C  20.18000 -7.43800 26.24800
N  16.29400 -1.47700 26.05400
C  17.02100 -2.17000 25.12100
C  16.89200 -1.45300 23.74100
C  15.74700 -0.45300 23.92800
C  15.61300 -0.44200 25.41100
C  18.27600 -0.91800 23.25300
C  14.43100 -0.78300 23.18600
C  14.20000 -0.03900 21.84100
N  15.23200 -0.26900 28.38500
C  14.60700 0.56300 27.49600
C  13.83500 1.57400 28.17100
C  14.10100 1.36300 29.56700
C  14.99600 0.22700 29.66500
C  13.14700 2.70100 27.56600
C  13.87400 1.89300 30.91600
O  13.18300 2.88800 31.27500
C  14.78500 0.99200 31.95400
C  15.67600 2.05200 32.62500
O  16.84600 2.41900 32.38200
O  14.99800 2.65400 33.70500
C  15.69100 3.66200 34.48200
H  19.44700 -4.08000 30.75700
H  18.20100 -3.82600 24.51200
H  14.34500 1.21000 25.47000
H  17.61000 -0.15800 32.96100
H  18.16300 -3.01800 32.93100
H  20.37600 -1.71100 31.85000
H  20.03200 -2.41500 33.48400
H  19.73300 -0.77100 33.24200
H  16.20700 -2.69200 33.86700
H  15.18700 -1.44500 33.23100
H  15.77300 -1.63900 35.85600
H  15.47600 -0.16800 35.13400
H  19.22000 -6.42500 30.08600
H  20.76500 -5.80400 29.58600
H  19.92800 -7.22100 28.79500
H  19.41100 -8.02100 26.75500
H  21.08600 -7.20700 26.80800
H  20.37700 -7.96500 25.31400
H  16.64900 -2.28100 23.07500
H  16.09600 0.54600 23.66800
H  18.17100 0.15900 23.12300
H  18.63600 -1.37100 22.32900
H  19.04500 -1.08600 24.00700
H  13.62800 -0.47600 23.85500
H  14.40100 -1.87100 23.11400
H  15.12700 0.38300 21.45100
H  13.66000 0.84800 22.17200
H  13.51600 -0.65500 21.25800
H  13.22500 3.48100 28.32300
H  12.11500 2.38500 27.41800
H  13.43700 3.04600 26.57300
H  14.09500 0.47900 32.62400
H  15.67200 4.53600 33.83100
H  16.72400 3.39200 34.70300
H  15.13200 3.88600 35.39000
Mg 2.25000 42.17900 25.25600
C  3.39200 42.18500 28.69700
C  -0.75600 41.18800 26.29400
C  1.60100 41.46300 22.05400
C  5.50300 43.08800 24.32400
N  1.46800 41.69200 27.30900
C  2.02800 41.80400 28.55100
C  1.02000 41.64200 29.66900
C  -0.28400 41.08700 28.83400
C  0.13300 41.35800 27.36800
C  -0.71900 39.64100 29.22700
C  0.85800 42.91400 30.45500
C  0.81800 42.92500 31.98300
H  0.15200 41.83300 32.78800
N  0.70200 41.36400 24.30800
C  -0.56300 41.06500 24.89700
C  -1.49100 40.75900 23.84700
C  -0.77700 40.71200 22.60400
C  0.60700 41.12900 22.97900
C  -2.96500 40.60000 24.16300
C  -1.28000 40.51500 21.12700
O  -0.54500 40.68400 20.20000
C  -2.73600 40.32700 20.91000
N  3.44200 42.20600 23.41600
C  2.85900 41.92800 22.24100
C  3.89000 42.15800 21.08400
C  4.99800 42.84500 21.79200
C  4.63400 42.78100 23.26400
C  4.24400 40.93600 20.22000
C  5.25500 44.21300 21.19200
C  4.22400 45.37200 21.48500
N  4.09000 42.69600 26.27600
C  5.29000 42.97500 25.73600
C  6.29000 43.15200 26.85600
C  5.61600 42.78800 27.99900
C  4.22100 42.53500 27.60300
C  7.70900 43.57500 26.68600
C  5.67600 42.61300 29.42500
O  6.65100 42.62500 30.13400
C  4.21300 42.21600 29.87300
C  4.25200 40.94000 30.73300
O  4.70500 39.82600 30.43800
O  3.89200 41.35100 31.92900
C  3.88100 40.30800 32.91400
H  -1.74600 40.86700 26.62400
H  1.46800 41.15300 21.01500
H  6.54700 43.26400 24.05700
H  1.29200 40.88700 30.40600
H  -1.14100 41.73800 29.00800
H  -0.95000 39.14500 28.28500
H  -1.56500 39.70000 29.91200
H  0.13400 39.14600 29.69100
H  -0.02400 43.51300 30.23000
H  1.71100 43.48800 30.09300
H  0.52400 43.95200 32.20000
H  1.81300 42.94600 32.42900
H  -3.33800 39.78800 23.53800
H  -3.46600 41.48900 23.78200
H  -3.21900 40.36300 25.19600
H  -3.26500 41.16400 21.36500
H  -3.08800 39.37300 21.30500
H  -2.90300 40.23000 19.83800
H  3.46600 42.81800 20.32700
H  5.94100 42.30300 21.71300
H  3.61900 40.11900 20.58100
H  5.26200 40.54700 20.22400
H  4.05200 41.06500 19.15500
H  5.27200 44.14100 20.10400
H  6.22400 44.60200 21.50600
H  3.34700 44.94300 21.96800
H  3.92300 45.70500 20.49200
H  4.73900 46.08100 22.13400
H  7.78500 44.55800 27.15200
H  8.01100 43.65300 25.64200
H  8.38600 42.96800 27.28700
H  4.00500 43.01200 30.58700
H  3.21900 39.52900 32.53400
H  3.37800 40.67300 33.80900
H  4.85700 39.87600 33.13400

