158

Mg 54.43500 24.16200 44.45500
C  51.62000 26.31200 43.70700
C  52.27200 21.66600 43.25900
C  57.13600 22.40900 44.44800
C  56.00200 26.99700 45.68100
N  52.27200 24.02000 43.43400
C  51.29500 25.03000 43.36500
C  49.99000 24.53400 42.74000
C  50.07500 23.00000 43.15000
C  51.60600 22.87300 43.25000
C  49.41200 22.67500 44.52600
C  49.82500 24.76500 41.23100
C  51.11100 24.61600 40.26400
H  50.83700 25.02000 38.78800
N  54.65800 22.33300 44.01800
C  53.68300 21.45000 43.51200
C  54.35100 20.16400 43.42300
C  55.69800 20.29700 43.88000
C  55.87900 21.73700 44.09000
C  53.77600 18.84000 42.90500
C  56.74800 19.22400 44.01700
O  56.40400 18.04900 43.70000
C  58.09500 19.44500 44.55100
N  56.47500 24.78900 44.73700
C  57.37100 23.76400 44.84100
C  58.64400 24.33000 45.50300
C  58.14200 25.68100 46.23900
C  56.78400 25.78800 45.54800
C  59.55400 23.28800 46.34000
C  59.05700 26.96700 46.05900
C  59.28500 27.52300 44.60100
N  54.07000 26.26900 44.49300
C  54.74000 27.21400 45.11100
C  54.01500 28.44500 45.30500
C  52.74500 28.17600 44.61200
C  52.83300 26.77800 44.29900
C  54.46700 29.75300 45.82000
C  51.38600 28.69000 44.31000
O  50.81400 29.77900 44.52100
C  50.67300 27.50200 43.63700
C  50.23200 28.08300 42.25500
O  50.90600 28.15100 41.22700
O  48.86300 28.28100 42.38100
C  48.09400 28.31600 41.12600
H  51.63900 20.77700 43.25600
H  58.08200 21.88100 44.30900
H  56.36600 27.76900 46.36200
H  49.20600 25.06300 43.28200
H  49.63200 22.29100 42.45000
H  48.60400 21.96400 44.35700
H  48.96500 23.54000 45.01600
H  50.19200 22.21100 45.13100
H  49.46600 25.78800 41.11800
H  49.23500 23.98200 40.75400
H  51.59100 23.64400 40.37400
H  51.87200 25.30200 40.63700
H  54.50800 18.63800 42.12300
H  52.83700 18.93400 42.35800
H  53.72200 18.00900 43.60800
H  57.93900 19.96100 45.49700
H  58.70300 20.01400 43.84700
H  58.60300 18.52200 44.83200
H  59.29000 24.63700 44.68000
H  58.15400 25.48300 47.31000
H  59.33500 22.23600 46.15700
H  59.59000 23.49700 47.40900
H  60.58800 23.53000 46.09200
H  60.05700 26.72000 46.41700
H  58.68000 27.74300 46.72600
H  60.09100 26.98300 44.10400
H  59.39700 28.60400 44.67800
H  58.41100 27.30700 43.98600
H  55.35400 29.81400 46.45100
H  53.56400 30.12200 46.30700
H  54.65100 30.44400 44.99700
H  49.81300 27.27900 44.26900
H  47.37000 27.50100 41.13300
H  48.72700 28.30200 40.24000
H  47.43400 29.18300 41.09600
Mg -12.77100 38.88600 41.84700
C  -10.67200 35.97300 41.47800
C  -10.07200 40.72400 40.71600
C  -14.68100 41.65000 42.19200
C  -15.43800 36.84200 42.20900
N  -10.66700 38.35700 40.90900
C  -10.04100 37.13000 40.94600
C  -8.59700 37.24100 40.45300
C  -8.39000 38.74400 40.40500
C  -9.75900 39.33800 40.71300
C  -7.39300 39.29000 41.40700
C  -8.54600 36.59000 39.00200
C  -7.46700 35.51300 38.83500
H  -7.14000 34.85700 37.43200
N  -12.41600 40.91400 41.47100
C  -11.28300 41.47900 40.98200
C  -11.45100 42.91100 40.97300
C  -12.74400 43.23100 41.47100
C  -13.39000 41.92200 41.69400
C  -10.37700 43.83200 40.50600
C  -13.23500 44.66900 41.76700
O  -12.53800 45.64000 41.45400
C  -14.54500 44.97400 42.38700
N  -14.76100 39.21200 42.13500
C  -15.29600 40.37800 42.55500
C  -16.72300 40.19900 43.16500
C  -17.04800 38.66800 42.82600
C  -15.65900 38.18000 42.38100
C  -16.82600 40.73000 44.64200
C  -18.16000 38.52600 41.68400
C  -17.74500 38.62100 40.19400
N  -13.04900 36.83200 41.82300
C  -14.21700 36.15500 42.00200
C  -13.96700 34.70700 42.17800
C  -12.56600 34.59700 41.98600
C  -12.02200 35.91000 41.75700
C  -14.97700 33.67700 42.48600
C  -11.45200 33.69200 41.98900
O  -11.36400 32.55500 42.38200
C  -10.08700 34.54800 41.64100
C  -9.17200 34.40000 42.72000
O  -9.35300 34.61100 43.86200
O  -8.06500 33.73500 42.17400
C  -6.93300 33.66900 43.08300
H  -9.13900 41.23400 40.46600
H  -15.39500 42.45500 42.37600
H  -16.29700 36.19300 42.39100
H  -7.91700 36.68400 41.09800
H  -8.12900 39.06700 39.39700
H  -7.86600 39.77500 42.26100
H  -6.78500 40.00000 40.84700
H  -6.71100 38.52300 41.77400
H  -8.45100 37.24000 38.13200
H  -9.55000 36.17800 38.90600
H  -7.82400 34.70400 39.47300
H  -6.56100 35.90300 39.29800
H  -10.20900 44.68300 41.16700
H  -10.63100 44.19700 39.51100
H  -9.44300 43.28900 40.36500
H  -14.77000 44.45700 43.31900
H  -15.25900 44.79600 41.58300
H  -14.57900 45.99400 42.77000
H  -17.45400 40.80600 42.63100
H  -17.30900 38.08600 43.70900
H  -16.91900 39.86400 45.29700
H  -17.53800 41.52000 44.88300
H  -15.84300 41.18400 44.76400
H  -18.94700 39.27400 41.78600
H  -18.65300 37.56000 41.79100
H  -17.71800 37.59200 39.83700
H  -16.85800 39.19500 39.92700
H  -18.49600 39.11800 39.57900
H  -15.62300 33.93200 43.32600
H  -14.64500 32.69000 42.81000
H  -15.68500 33.34700 41.72500
H  -9.71100 34.16200 40.69400
H  -6.49000 32.67400 43.02800
H  -7.09800 33.87200 44.14100
H  -6.19400 34.42100 42.80500

