158

Mg 36.01900 1.70200 29.52100
C  34.23400 2.86500 32.39700
C  38.87000 1.88600 31.40600
C  37.59800 1.31100 26.61000
C  32.87300 1.84300 27.76000
N  36.47000 2.22100 31.77900
C  35.60100 2.68800 32.71500
C  36.46000 2.99100 33.99100
C  37.97400 2.76600 33.62800
C  37.81200 2.15700 32.17400
C  38.55400 4.16000 33.51300
C  36.04700 2.03500 35.21000
C  36.74800 2.35100 36.57500
H  35.84300 2.48700 37.82800
N  37.92000 1.44800 29.09900
C  39.00700 1.48500 30.00900
C  40.22200 1.16500 29.29200
C  39.86600 1.14800 27.87800
C  38.33300 1.21200 27.81800
C  41.59300 1.18000 29.91400
C  40.78600 1.00800 26.69800
O  40.29800 1.05100 25.52600
C  42.31200 0.75200 26.96400
N  35.30300 1.44900 27.52100
C  36.20300 1.45200 26.48700
C  35.56500 1.48000 25.05600
C  34.03400 1.46500 25.59000
C  34.05100 1.60900 27.09500
C  35.88100 2.72700 24.19200
C  33.30500 0.11500 25.21500
C  32.86400 0.05000 23.67900
N  34.03100 2.16200 29.94600
C  32.88900 2.09400 29.15700
C  31.77700 2.59500 29.96700
C  32.23200 2.82800 31.28800
C  33.60900 2.60500 31.19400
C  30.40100 2.81500 29.46200
C  31.88600 3.37100 32.55600
O  30.89100 3.82600 32.98700
C  33.25200 3.41800 33.33400
C  33.47800 4.76400 33.77100
O  34.25700 5.58300 33.32700
O  32.57600 5.06000 34.75800
C  32.65000 6.40900 35.34600
H  39.82400 2.05300 31.91000
H  38.09900 1.33600 25.64000
H  32.00300 1.75700 27.10500
H  36.12400 3.96200 34.35600
H  38.55500 2.12400 34.29000
H  37.86700 4.98900 33.68100
H  38.90700 4.21400 32.48300
H  39.39300 4.23500 34.20500
H  36.26000 0.99400 34.96500
H  34.98000 2.14600 35.39900
H  37.35000 3.25800 36.63200
H  37.35600 1.44900 36.62800
H  42.28100 0.39700 29.59400
H  41.39200 0.99700 30.96900
H  42.01800 2.17400 29.77700
H  42.79600 0.62200 25.99600
H  42.30400 -0.21600 27.46500
H  42.72100 1.59400 27.52100
H  35.73400 0.55000 24.51200
H  33.48900 2.35200 25.26700
H  36.68000 3.32100 24.63600
H  34.94400 3.24300 23.98100
H  36.36100 2.41200 23.26600
H  32.37800 -0.02300 25.77200
H  34.07500 -0.61000 25.48000
H  33.51900 -0.67400 23.19400
H  33.00500 1.01000 23.18200
H  31.80500 -0.19900 23.62100
H  30.34200 2.38600 28.46100
H  30.33200 3.88700 29.27500
H  29.75200 2.34700 30.20200
H  33.03800 2.78600 34.19600
H  31.65400 6.79700 35.56000
H  33.04400 7.21300 34.72500
H  33.27200 6.35700 36.23900
Mg 6.16200 54.76500 42.18600
C  5.70900 51.36500 41.52200
C  9.20900 54.40000 40.62100
C  6.46400 58.08200 42.16600
C  2.86100 54.88500 43.00400
N  7.29400 53.03200 41.07000
C  6.93500 51.78900 40.97800
C  7.94200 50.95400 40.27800
C  9.27900 51.89800 40.43200
C  8.57000 53.21400 40.71400
C  10.43300 51.53700 41.41300
C  7.62000 50.64500 38.69900
C  7.54500 51.78900 37.71100
H  6.30800 51.77500 36.75800
N  7.59900 56.03600 41.38600
C  8.80500 55.71700 40.93200
C  9.71500 56.93800 40.89200
C  8.93600 58.01700 41.36800
C  7.56400 57.42300 41.59800
C  11.16400 56.88100 40.45000
C  9.44200 59.45700 41.51800
O  10.61300 59.79800 41.06800
C  8.53500 60.54200 42.07600
N  4.77100 56.31700 42.34000
C  5.14500 57.65000 42.41200
C  4.07300 58.41600 43.11400
C  2.78200 57.51400 42.98000
C  3.46000 56.13300 42.74900
C  4.46000 58.66100 44.65900
C  1.88400 57.84600 41.79600
C  0.38900 58.24700 42.06700
N  4.59200 53.44800 42.48600
C  3.32400 53.62100 42.90100
C  2.57100 52.38400 43.01600
C  3.55300 51.37000 42.59900
C  4.70500 52.19600 42.16400
C  1.16000 52.26000 43.55100
C  3.87200 49.98100 42.44600
O  3.16300 48.99600 42.60100
C  5.26300 49.94700 41.75000
C  5.16600 49.18600 40.46400
O  4.40200 49.40200 39.52700
O  5.81300 48.01800 40.65700
C  5.65100 46.98600 39.60600
H  10.25000 54.24600 40.32900
H  6.56100 59.14500 42.39500
H  1.80800 54.93900 43.28900
H  8.02200 50.01400 40.82500
H  9.72000 51.90300 39.43500
H  10.39100 52.28200 42.20700
H  11.27300 51.87500 40.80600
H  10.47100 50.50400 41.75900
H  6.72000 50.03300 38.64700
H  8.29400 49.96200 38.18300
H  8.42100 51.57700 37.09800
H  7.60200 52.77400 38.17500
H  11.52200 55.92600 40.06500
H  11.77900 57.08900 41.32500
H  11.34500 57.75000 39.81800
H  7.57000 60.65200 41.58200
H  8.98100 61.53600 42.06200
H  8.31700 60.27300 43.10900
H  4.08500 59.41800 42.68500
H  2.17600 57.54300 43.88500
H  3.69200 58.18800 45.27100
H  4.57600 59.70100 44.96300
H  5.40900 58.14600 44.81000
H  1.88800 57.13200 40.97200
H  2.45600 58.66900 41.36800
H  0.30200 59.04500 42.80500
H  0.03300 57.35900 42.58900
H  -0.07600 58.44300 41.10100
H  0.61500 53.18000 43.33600
H  1.17300 52.04600 44.62000
H  0.65300 51.44700 43.03300
H  5.90700 49.41300 42.44800
H  6.08300 46.01000 39.82700
H  6.17400 47.33600 38.71700
H  4.61400 46.81600 39.31700

