158

Mg 24.62900 -4.64100 46.26400
C  26.61800 -1.99000 44.76700
C  22.11400 -3.65100 44.13900
C  22.93900 -7.43600 47.06400
C  27.52700 -5.67700 47.79700
N  24.41100 -2.97100 44.67200
C  25.28100 -1.99000 44.28500
C  24.92200 -1.39100 43.00300
C  23.42200 -1.64900 42.98100
C  23.29900 -2.85000 43.97200
C  22.51900 -0.42300 43.36400
C  25.70400 -1.84900 41.80600
C  26.21700 -0.78600 40.82300
H  25.37700 -0.57900 39.53300
N  22.69700 -5.52500 45.69900
C  21.85300 -4.91400 44.80900
C  20.72300 -5.75400 44.58200
C  20.93800 -6.88900 45.35800
C  22.17900 -6.66500 46.14000
C  19.62800 -5.48400 43.51400
C  19.96400 -8.13700 45.40000
O  18.98500 -8.15900 44.65500
C  20.10100 -9.19100 46.39800
N  25.18300 -6.44800 47.04500
C  24.31000 -7.39400 47.51000
C  25.05900 -8.47400 48.25600
C  26.39600 -7.76900 48.71600
C  26.39800 -6.56600 47.77700
C  24.22800 -9.05000 49.42600
C  27.73300 -8.57400 48.52400
C  28.64900 -8.60800 49.73600
N  26.60300 -3.95500 46.42700
C  27.64300 -4.48700 47.15100
C  28.74200 -3.51000 47.09400
C  28.38600 -2.64000 46.10500
C  27.11300 -2.97000 45.68100
C  29.99800 -3.48700 47.89300
C  28.93600 -1.51600 45.39900
O  30.04400 -0.97500 45.44500
C  27.81800 -1.18900 44.35400
C  27.56800 0.27700 44.45500
O  27.05500 0.80100 45.39300
O  27.97800 0.89100 43.33600
C  27.72300 2.34700 43.22400
H  21.25900 -3.22500 43.61100
H  22.37900 -8.24300 47.54100
H  28.38200 -5.95400 48.41700
H  25.09500 -0.33800 43.22200
H  23.16600 -2.11700 42.03000
H  23.05100 0.35200 43.91500
H  21.60900 -0.78100 43.84600
H  22.21400 -0.03700 42.39100
H  25.08300 -2.50800 41.19900
H  26.48300 -2.57200 42.04900
H  27.24700 -0.90300 40.48800
H  26.25700 0.13200 41.40900
H  19.62400 -6.34800 42.84900
H  19.91800 -4.60600 42.93700
H  18.57500 -5.41600 43.78700
H  19.45500 -10.04800 46.20700
H  19.79500 -8.78900 47.36400
H  21.12300 -9.53900 46.54200
H  25.31400 -9.20200 47.48600
H  26.27200 -7.40400 49.73500
H  23.27700 -8.51800 49.44600
H  24.87100 -8.93000 50.29800
H  24.09600 -10.10900 49.20200
H  28.26400 -8.06300 47.72000
H  27.49100 -9.59400 48.22600
H  28.77400 -9.63600 50.07500
H  28.21900 -7.93500 50.47800
H  29.60900 -8.26400 49.35100
H  30.02800 -4.41200 48.46900
H  30.04300 -2.66600 48.60800
H  30.86300 -3.51300 47.23000
H  28.13800 -1.24200 43.31400
H  28.56200 2.77300 43.77500
H  26.83300 2.70100 43.74400
H  27.70300 2.60600 42.16600
Mg 36.06000 48.41300 25.96800
C  35.89500 46.63000 29.07300
C  35.37900 51.25100 27.56800
C  35.79200 49.87800 23.00800
C  36.74000 45.40200 24.44200
N  35.71200 48.87600 28.11700
C  35.75300 48.09200 29.20000
C  35.55700 48.85400 30.54200
C  35.27300 50.32800 30.00500
C  35.40900 50.18100 28.46500
C  33.83300 50.76800 30.57400
C  36.83900 48.75900 31.46200
C  36.58600 48.08100 32.81400
H  35.51200 48.67900 33.84800
N  35.69700 50.28000 25.35700
C  35.47700 51.33800 26.19600
C  35.24300 52.50900 25.46400
C  35.18400 52.11000 24.08700
C  35.53400 50.67000 24.09800
C  35.06900 53.95100 26.17500
C  34.88900 52.91800 22.86800
O  34.84100 52.47000 21.73900
C  34.73100 54.33000 23.06800
N  36.15200 47.72700 24.03800
C  36.01800 48.51800 22.94200
C  36.42600 47.80900 21.66700
C  36.96200 46.44700 22.18000
C  36.63300 46.54200 23.63800
C  35.23700 47.74400 20.67100
C  38.49100 46.23900 22.00400
C  38.80800 45.06600 21.09600
N  36.39100 46.43200 26.57000
C  36.66100 45.28100 25.83300
C  36.78400 44.16600 26.71900
C  36.47100 44.68500 27.99000
C  36.17300 46.00100 27.82400
C  37.17700 42.76800 26.38300
C  36.48700 44.27400 29.38800
O  36.77100 43.27400 29.96000
C  35.99400 45.59400 30.16200
C  34.65900 45.29400 30.69000
O  33.75900 44.78300 30.01100
O  34.68000 45.38100 32.09300
C  33.52900 44.78700 32.81100
H  35.07700 52.16600 28.08200
H  35.68900 50.31900 22.01400
H  37.06500 44.46300 23.98800
H  34.81100 48.29300 31.10500
H  36.07800 50.97800 30.34900
H  33.87100 51.81100 30.89200
H  33.43900 50.10400 31.34300
H  33.13200 50.68800 29.74300
H  37.22300 49.76100 31.65400
H  37.53400 48.13300 30.90200
H  37.54500 48.03900 33.33100
H  36.44900 47.00500 32.70800
H  35.42600 54.84000 25.65500
H  35.54500 53.95600 27.15500
H  34.03100 54.25700 26.31400
H  34.67200 54.78900 22.08100
H  35.61200 54.72300 23.57500
H  33.79600 54.52600 23.59300
H  37.25200 48.30900 21.16200
H  36.30700 45.67500 21.77600
H  34.32200 47.74300 21.26400
H  35.30600 46.83800 20.06900
H  35.25800 48.54300 19.93000
H  38.86000 45.97900 22.99600
H  39.02100 47.14700 21.71500
H  38.02400 44.31500 20.99400
H  39.67600 44.60400 21.56700
H  39.17600 45.34300 20.10800
H  36.91900 42.31600 25.42500
H  36.84500 42.15100 27.21900
H  38.26600 42.73000 26.40300
H  36.65500 45.85100 30.98900
H  33.15300 43.94600 32.22900
H  32.69300 45.47700 32.93400
H  33.84100 44.39600 33.77900

