158

Mg 8.76700 3.97800 28.02000
C  10.15500 2.18700 30.81300
C  6.93900 5.81300 30.34400
C  7.24600 5.44500 25.57600
C  10.16100 1.56300 25.94800
N  8.58600 3.97600 30.37000
C  9.39000 3.21800 31.23800
C  9.18100 3.74800 32.64800
C  7.98500 4.78400 32.45600
C  7.75500 4.83400 30.96000
C  6.67900 4.29800 33.15700
C  10.47000 4.52300 33.23600
C  10.34100 5.20300 34.60000
H  11.14800 4.57500 35.68100
N  7.33900 5.54300 27.96400
C  6.70800 6.13900 28.98200
C  5.84900 7.12500 28.51700
C  5.93700 7.06400 27.05700
C  6.89000 6.02700 26.79600
C  5.13300 8.04900 29.43900
C  5.17400 7.91300 25.98700
O  5.32000 7.73100 24.76700
C  4.29500 9.02000 26.41200
N  8.59100 3.44600 26.04200
C  7.99500 4.30000 25.21400
C  8.37200 3.97500 23.69800
C  9.41800 2.75800 23.84900
C  9.42200 2.61500 25.39300
C  7.10300 3.69600 22.81400
C  10.88300 3.13800 23.35200
C  11.51400 2.25400 22.15000
N  9.92600 2.23900 28.29900
C  10.37100 1.46800 27.29600
C  11.32500 0.47700 27.83700
C  11.17500 0.68800 29.27200
C  10.31400 1.78300 29.47300
C  12.10700 -0.62000 27.12400
C  11.67200 0.27300 30.52400
O  12.34300 -0.67300 30.87100
C  11.06300 1.26600 31.54700
C  10.33000 0.55800 32.70800
O  9.36600 -0.19800 32.68200
O  11.03200 0.90800 33.83500
C  10.42500 0.41700 35.06500
H  6.53900 6.43000 31.15100
H  6.85700 6.00300 24.72300
H  10.69300 0.78700 25.39400
H  8.88500 2.93100 33.30500
H  8.18000 5.77100 32.87400
H  6.66800 4.71700 34.16300
H  6.79000 3.21600 33.23400
H  5.74100 4.48400 32.63400
H  10.63800 5.32400 32.51600
H  11.31500 3.83500 33.24400
H  9.31300 5.33900 34.93500
H  10.75100 6.19700 34.42300
H  4.08100 7.86000 29.22600
H  5.40300 9.10300 29.37600
H  5.16400 7.78300 30.49500
H  3.91600 9.44500 25.48200
H  4.96800 9.74200 26.87400
H  3.47800 8.70300 27.06000
H  8.84500 4.87500 23.30400
H  8.89800 1.89200 23.43800
H  6.16700 3.76900 23.36800
H  7.19400 2.75700 22.26900
H  7.11600 4.40100 21.98300
H  11.64800 3.00400 24.11700
H  10.95200 4.17700 23.03100
H  10.89000 1.36400 22.06900
H  12.53600 1.90700 22.30200
H  11.62400 2.81900 21.22500
H  13.06000 -0.14000 26.90100
H  11.66100 -0.84300 26.15500
H  12.24700 -1.50200 27.74700
H  11.88600 1.85800 31.94800
H  9.34700 0.47400 35.21100
H  10.82900 0.99800 35.89500
H  10.79100 -0.60300 35.17700
Mg 47.19400 24.79100 28.38300
C  48.03900 27.31200 30.68800
C  46.86400 22.52700 30.91100
C  46.75700 22.58500 25.94900
C  48.08500 27.17400 25.82900
N  47.45000 24.87300 30.58400
C  47.67500 26.06400 31.29000
C  47.52200 25.77000 32.83100
C  47.41100 24.15700 32.81300
C  47.15600 23.81900 31.33700
C  48.67700 23.32200 33.39200
C  46.30700 26.57800 33.27200
C  45.92500 26.36900 34.78500
H  46.04800 27.59000 35.77200
N  46.74000 22.84800 28.48800
C  46.68700 22.05000 29.60600
C  46.22400 20.73100 29.23200
C  46.20200 20.72000 27.78900
C  46.54200 22.11800 27.34300
C  45.86300 19.69400 30.22400
C  46.07200 19.52400 26.84200
O  46.08900 19.65100 25.65500
C  45.95800 18.16400 27.36800
N  47.46300 24.84500 26.15400
C  47.15600 23.80300 25.39300
C  47.21100 23.97800 23.88600
C  47.51300 25.44100 23.88500
C  47.67600 25.90200 25.37300
C  48.39600 23.09600 23.31200
C  46.44600 26.37300 23.21500
C  46.40600 26.26200 21.69600
N  48.00600 26.81100 28.21900
C  48.32200 27.58400 27.15300
C  48.83500 28.90400 27.56900
C  48.70500 28.81500 28.98100
C  48.17300 27.54000 29.29700
C  49.41600 30.03200 26.74900
C  48.95100 29.50600 30.19700
O  49.53200 30.54300 30.42000
C  48.35000 28.64300 31.33900
C  49.37200 28.61300 32.51300
O  50.44400 28.03800 32.42400
O  48.87100 29.22200 33.64000
C  49.75900 29.24700 34.88900
H  46.69900 21.87000 31.76700
H  46.38700 21.90400 25.18000
H  48.28400 27.88600 25.02500
H  48.45600 26.18600 33.21100
H  46.60800 23.83300 33.47500
H  49.05400 22.66900 32.60500
H  48.34500 22.64900 34.18300
H  49.43800 24.01000 33.76000
H  45.49900 26.26700 32.61000
H  46.55000 27.63500 33.16500
H  46.56100 25.56800 35.16000
H  44.88600 26.04400 34.84800
H  45.04800 19.07000 29.85700
H  45.46700 20.21000 31.09900
H  46.70600 19.03100 30.42100
H  46.80600 17.91100 28.00400
H  45.95900 17.49300 26.50900
H  44.99000 18.13100 27.86900
H  46.28200 23.93100 23.31700
H  48.46000 25.58500 23.36600
H  48.72200 22.36100 24.04900
H  49.23500 23.66900 22.91900
H  47.97100 22.63500 22.42000
H  46.59900 27.42500 23.45600
H  45.51200 25.98500 23.62200
H  47.16500 25.61900 21.25200
H  46.58500 27.23600 21.24000
H  45.39000 25.98000 21.42000
H  48.86600 30.96200 26.89300
H  49.58600 29.81500 25.69400
H  50.41100 30.21600 27.15300
H  47.49300 29.21400 31.69700
H  50.78200 29.01200 34.59400
H  49.44500 28.57200 35.68500
H  49.72700 30.23100 35.35700

