158

Mg 24.36900 -5.59400 47.06800
C  26.25600 -3.40100 45.15200
C  21.75200 -5.04100 44.91000
C  22.83200 -8.26300 48.45400
C  27.48400 -6.81300 48.50600
N  24.10200 -4.52400 45.18300
C  24.93100 -3.54000 44.67100
C  24.29500 -2.66200 43.58800
C  22.85000 -3.22200 43.60300
C  22.89500 -4.31100 44.64400
C  21.72600 -2.21200 43.87800
C  25.00400 -2.61300 42.16600
C  25.18000 -1.11200 41.66100
H  25.37800 -0.96300 40.09000
N  22.53500 -6.46400 46.79000
C  21.62000 -6.10300 45.86000
C  20.44100 -6.90900 46.10200
C  20.68200 -7.80300 47.14300
C  22.11800 -7.51400 47.55100
C  19.15200 -6.56000 45.33000
C  19.70900 -8.80100 47.74600
O  18.59500 -8.82700 47.17000
C  19.93200 -9.69500 48.90500
N  25.08100 -7.46300 48.10700
C  24.19400 -8.30200 48.65600
C  24.90800 -9.37900 49.55000
C  26.27200 -8.78100 49.71900
C  26.33900 -7.64000 48.65900
C  24.31600 -9.75000 50.92800
C  27.40200 -9.86800 49.65400
C  27.88100 -10.62100 50.90400
N  26.39600 -5.10800 47.05800
C  27.50100 -5.60900 47.70600
C  28.64500 -4.91000 47.35500
C  28.20900 -3.97500 46.39200
C  26.81100 -4.18700 46.16500
C  30.08400 -5.12200 47.91900
C  28.65500 -2.94400 45.50200
O  29.78500 -2.53900 45.34700
C  27.34400 -2.49800 44.73100
C  27.12800 -1.06000 45.05300
O  26.29300 -0.63400 45.81700
O  27.86700 -0.22100 44.34700
C  27.84000 1.20300 44.66900
H  20.88000 -4.83300 44.28600
H  22.37600 -9.16700 48.86200
H  28.44400 -7.02000 48.98300
H  24.24400 -1.67400 44.04600
H  22.63300 -3.66000 42.62900
H  21.03400 -2.21200 43.03600
H  22.07100 -1.19200 44.04700
H  21.22100 -2.53000 44.79100
H  24.40100 -3.09100 41.39400
H  25.92800 -3.19200 42.16400
H  26.12700 -0.70400 42.01500
H  24.27000 -0.65800 42.05500
H  18.87000 -7.34700 44.63100
H  19.18000 -5.71900 44.63700
H  18.42600 -6.39100 46.12500
H  18.96900 -10.16200 49.11200
H  20.38500 -9.14900 49.73200
H  20.67000 -10.48300 48.75300
H  25.04300 -10.25900 48.92100
H  26.42100 -8.23500 50.65000
H  23.49300 -9.08300 51.18400
H  24.95500 -9.65300 51.80600
H  23.97600 -10.78500 50.95400
H  28.27600 -9.32100 49.30100
H  27.15100 -10.65900 48.94700
H  28.92500 -10.42800 51.15200
H  27.84100 -11.70500 50.79300
H  27.27400 -10.46700 51.79600
H  30.82300 -4.60500 47.30600
H  30.13600 -6.21000 47.96100
H  30.05900 -4.65800 48.90500
H  27.53900 -2.52000 43.65900
H  28.63400 1.36900 45.39800
H  26.88100 1.51800 45.08000
H  28.23600 1.75100 43.81400
Mg 30.64300 58.02500 39.72800
C  27.54700 56.38900 38.97900
C  32.28300 55.17100 38.91600
C  33.37600 59.94600 39.46300
C  28.57200 60.86700 40.56900
N  29.98700 56.09700 38.92000
C  28.69500 55.62000 38.67800
C  28.75000 54.13300 38.43800
C  30.14900 53.79000 38.92400
C  30.85400 55.06600 38.93900
C  30.36700 52.99200 40.24700
C  28.24700 53.68900 37.00000
C  27.83400 54.76300 36.01900
H  28.20700 54.52300 34.52200
N  32.55600 57.62300 39.35600
C  33.09200 56.34600 38.95600
C  34.49000 56.44100 38.58800
C  34.87800 57.83900 38.80700
C  33.62400 58.57300 39.26800
C  35.41500 55.29800 38.15900
C  36.21100 58.47600 38.42800
O  37.06400 57.78700 37.90200
C  36.53700 59.94100 38.56900
N  30.92800 60.10100 39.97800
C  32.18000 60.59000 39.95700
C  32.05900 62.14000 40.32600
C  30.64800 62.36700 40.82500
C  29.94900 61.06500 40.50300
C  33.18200 62.56800 41.33100
C  29.94000 63.49700 40.13600
C  29.06600 64.46800 40.87800
N  28.46300 58.55500 39.83800
C  27.84500 59.78500 40.09200
C  26.48300 59.58100 39.93300
C  26.29200 58.29300 39.44000
C  27.57500 57.68700 39.33200
C  25.40000 60.64100 40.18700
C  25.28600 57.42300 38.96900
O  24.11800 57.51900 38.67400
C  26.08900 56.04900 38.73400
C  25.60600 55.14600 39.76900
O  25.98500 55.04900 40.89600
O  24.79400 54.17400 39.22000
C  24.49000 53.12600 40.13800
H  32.93200 54.29800 38.82200
H  34.19000 60.67400 39.44800
H  27.91800 61.69300 40.85900
H  28.07300 53.64000 39.13500
H  30.69500 53.23200 38.16400
H  30.57500 53.76700 40.98500
H  31.20000 52.32700 40.02000
H  29.44000 52.47500 40.49400
H  27.45100 52.95400 37.12000
H  29.04200 53.16700 36.46700
H  28.04500 55.77900 36.35300
H  26.76100 54.73800 35.82700
H  34.79100 54.41300 38.03500
H  36.16500 54.97200 38.88000
H  35.84400 55.68300 37.23400
H  37.55500 60.10300 38.21400
H  36.37100 60.16900 39.62200
H  35.93300 60.63100 37.97900
H  32.34900 62.57100 39.36800
H  30.68200 62.37200 41.91400
H  32.79400 63.27100 42.06800
H  34.07200 62.96800 40.84600
H  33.57100 61.70200 41.86700
H  29.49200 63.13600 39.21000
H  30.78300 64.09900 39.79900
H  28.05400 64.10100 40.71000
H  29.24200 65.45100 40.44100
H  29.34700 64.48400 41.93100
H  24.66400 60.21800 40.87000
H  25.04700 61.08600 39.25700
H  25.86700 61.44100 40.76000
H  25.87900 55.67600 37.73100
H  24.22800 53.48500 41.13400
H  25.38100 52.54800 40.38500
H  23.85100 52.37100 39.68100

