158

Mg 44.05700 5.32400 47.06500
C  42.23800 8.34400 46.80000
C  41.14500 3.66900 46.28000
C  45.96100 2.61200 46.67200
C  46.99600 7.35500 46.87700
N  41.98800 5.99500 46.43200
C  41.51000 7.24000 46.57700
C  39.93000 7.21100 46.50100
C  39.52900 5.70600 46.54400
C  41.01300 5.09100 46.43400
C  38.89700 5.28100 47.89700
C  39.37100 7.99500 45.29100
C  40.08700 8.00200 43.91000
H  39.25700 7.38300 42.75400
N  43.58400 3.43100 46.62800
C  42.35300 2.93800 46.35000
C  42.46400 1.56600 46.03000
C  43.79000 1.19500 46.23800
C  44.50600 2.44000 46.61200
C  41.28400 0.75900 45.39200
C  44.32000 -0.20600 45.90000
O  43.63000 -1.05600 45.35700
C  45.67000 -0.55800 46.16200
N  46.21300 4.98000 46.77100
C  46.69000 3.78100 46.81600
C  48.21200 3.77500 46.90800
C  48.50900 5.33300 47.09800
C  47.17600 5.92200 46.85900
C  48.82100 2.86200 48.10200
C  49.70300 6.00200 46.19600
C  50.97100 5.32200 46.23600
N  44.61200 7.36500 46.84900
C  45.78800 8.03200 46.93400
C  45.55000 9.44900 47.02900
C  44.23800 9.61400 47.00000
C  43.65100 8.36500 46.88500
C  46.62300 10.47300 47.09600
C  43.20100 10.55500 47.01900
O  43.27800 11.76900 46.98700
C  41.81700 9.82700 46.88500
C  40.96000 9.99800 47.99300
O  40.95400 9.33500 49.02300
O  40.10000 10.99700 47.65300
C  38.96200 11.11500 48.63900
H  40.13200 3.28000 46.15600
H  46.49600 1.69800 46.40700
H  47.95500 7.87500 46.82300
H  39.51700 7.71600 47.37500
H  39.05300 5.45500 45.59600
H  38.83200 5.99200 48.72100
H  39.34200 4.36700 48.29000
H  37.85300 5.13200 47.62200
H  39.13500 9.03900 45.49300
H  38.40300 7.52300 45.12000
H  40.87800 7.25400 43.96100
H  40.46400 8.96500 43.56400
H  41.33100 0.44200 44.35100
H  40.33500 1.22000 45.66800
H  41.36500 -0.18100 45.93700
H  45.69600 -1.63700 46.00800
H  45.89000 -0.38000 47.21500
H  46.22000 0.00200 45.40500
H  48.61400 3.46100 45.94500
H  48.70300 5.56700 48.14400
H  48.07800 2.29600 48.66500
H  49.49700 3.44500 48.72800
H  49.39700 2.10000 47.57600
H  49.93300 7.04600 46.40500
H  49.41600 5.86600 45.15300
H  51.84800 5.77300 46.70100
H  51.24800 5.08000 45.21000
H  50.85800 4.30200 46.60400
H  47.30100 10.18700 47.90000
H  46.24200 11.44900 47.39400
H  47.21100 10.50900 46.17900
H  41.28100 10.28700 46.05500
H  38.43400 12.05000 48.44500
H  39.38400 11.17300 49.64300
H  38.34200 10.22700 48.52100
Mg 36.10000 50.30500 25.64400
C  35.96700 48.33200 28.55400
C  34.42300 52.72900 27.59800
C  36.00200 52.07900 22.93800
C  37.19400 47.40900 23.85600
N  35.19600 50.45100 27.83000
C  35.46200 49.59100 28.82500
C  35.00800 50.15800 30.13700
C  34.15300 51.37200 29.74400
C  34.52500 51.47200 28.23700
C  32.59800 51.24800 30.13800
C  36.19900 50.63500 30.99600
C  36.46700 49.75300 32.25800
H  35.16800 49.38300 33.05500
N  35.31800 52.19000 25.28100
C  34.75900 53.05200 26.21500
C  34.65000 54.34500 25.62200
C  35.08400 54.24100 24.21300
C  35.48600 52.80600 24.07000
C  34.20300 55.52800 26.42500
C  35.08100 55.28100 23.09900
O  35.54300 54.97200 21.97900
C  34.60300 56.69500 23.38800
N  36.30600 49.76600 23.61600
C  36.32800 50.74200 22.73200
C  36.91100 50.25600 21.40400
C  37.46200 48.85600 21.73200
C  36.91900 48.58300 23.16400
C  35.99900 50.34400 20.16100
C  38.95000 48.62200 21.58900
C  39.39000 47.92800 20.31700
N  36.53500 48.29400 26.02900
C  36.97000 47.22900 25.24300
C  37.26900 46.07300 26.06200
C  36.81300 46.45500 27.33800
C  36.46100 47.82800 27.31900
C  37.77400 44.67000 25.64200
C  36.63500 46.02200 28.70700
O  36.74200 44.86500 29.07100
C  36.15300 47.21200 29.56800
C  34.96500 46.75700 30.30800
O  33.81000 46.79600 29.88100
O  35.33900 46.24100 31.51300
C  34.36200 45.33400 32.14500
H  34.02700 53.54400 28.20800
H  36.23300 52.65400 22.03800
H  37.73300 46.65500 23.27900
H  34.31000 49.49400 30.64600
H  34.63000 52.28400 30.10200
H  32.25100 50.22200 30.25900
H  32.01600 51.65500 29.31100
H  32.37400 51.91100 30.97400
H  36.15600 51.65600 31.37700
H  37.07300 50.53500 30.35200
H  37.19800 50.23800 32.90600
H  36.98900 48.92900 31.77200
H  33.60500 55.15600 27.25700
H  33.46000 56.09600 25.86500
H  35.04300 56.12100 26.78600
H  35.31300 57.24800 24.00300
H  33.60800 56.69600 23.83400
H  34.47000 57.23100 22.44800
H  37.74000 50.94700 21.25200
H  36.95100 48.10400 21.13100
H  36.48100 51.08300 19.52100
H  35.06900 50.71700 20.59000
H  35.96900 49.40400 19.61200
H  39.27800 47.98400 22.40900
H  39.48800 49.52900 21.86300
H  39.28200 48.69700 19.55200
H  38.84100 46.99500 20.19200
H  40.43000 47.61200 20.40300
H  38.50100 44.35600 26.39100
H  38.25700 44.71200 24.66600
H  37.03700 43.86800 25.65200
H  36.91900 47.38500 30.32400
H  34.92700 44.76100 32.88000
H  33.98100 44.60600 31.42800
H  33.51200 45.85100 32.58900

