158

Mg 24.41400 -5.42700 45.85000
C  26.79800 -3.02800 44.47700
C  22.16700 -4.01000 43.63100
C  22.62800 -8.15800 46.31700
C  27.23800 -6.85500 47.51200
N  24.48700 -3.72900 44.28200
C  25.55400 -2.95000 43.90000
C  25.20400 -2.07500 42.71800
C  23.65300 -2.04600 42.64200
C  23.39600 -3.28300 43.64700
C  23.10000 -0.76300 43.07800
C  25.76800 -2.77300 41.43800
C  26.65500 -1.86000 40.45200
H  26.00700 -1.56600 39.08900
N  22.53000 -5.96200 45.21100
C  21.81100 -5.30400 44.23400
C  20.55700 -6.01500 44.11700
C  20.69200 -7.16900 44.93600
C  21.97000 -7.13000 45.56600
C  19.47500 -5.62800 43.18400
C  19.52500 -8.15100 45.14200
O  18.55800 -8.14200 44.38900
C  19.42600 -9.14100 46.37200
N  24.86400 -7.17300 46.86700
C  23.91800 -8.12100 47.01300
C  24.46300 -9.31400 47.83800
C  25.87300 -8.84300 48.31900
C  26.01800 -7.60300 47.50200
C  23.53200 -9.76700 48.99800
C  26.96800 -9.89000 47.98800
C  28.05100 -10.17000 49.13000
N  26.64800 -4.94900 46.17200
C  27.51500 -5.62300 46.89200
C  28.74000 -4.86400 46.76500
C  28.48900 -3.85400 45.85300
C  27.22900 -3.98300 45.47000
C  29.93300 -5.39400 47.53100
C  29.13100 -2.74600 45.24300
O  30.29700 -2.35400 45.27300
C  28.01500 -2.11800 44.26900
C  27.87700 -0.66900 44.70800
O  28.46000 0.27800 44.26600
O  26.94300 -0.58200 45.78500
C  26.95600 0.71500 46.46000
H  21.40400 -3.61300 42.95800
H  22.15400 -9.13800 46.40400
H  28.06900 -7.42000 47.94000
H  25.55600 -1.05500 42.87500
H  23.30500 -2.30400 41.64200
H  22.19900 -0.85700 43.68400
H  22.69900 -0.22500 42.21900
H  23.77300 -0.11200 43.63600
H  25.06800 -3.35200 40.83600
H  26.54600 -3.43200 41.82300
H  27.57700 -2.40500 40.24800
H  26.87200 -0.91700 40.95400
H  19.52700 -6.29600 42.32400
H  19.62600 -4.59500 42.87000
H  18.49300 -5.64900 43.65600
H  20.01100 -8.86000 47.24800
H  19.69600 -10.17900 46.18100
H  18.35100 -9.20000 46.54200
H  24.50300 -10.15400 47.14400
H  25.80500 -8.67600 49.39400
H  22.56900 -9.26500 48.90600
H  23.79500 -9.57000 50.03800
H  23.24500 -10.81700 48.94200
H  27.54300 -9.38400 47.21200
H  26.65600 -10.85100 47.58000
H  28.15800 -11.23900 49.31400
H  27.78700 -9.60200 50.02200
H  28.93900 -9.62100 48.81600
H  30.29900 -6.29900 47.04700
H  29.68300 -5.59400 48.57300
H  30.73000 -4.68200 47.31500
H  28.25200 -2.10700 43.20500
H  26.02400 0.89000 46.99700
H  27.09000 1.51200 45.72900
H  27.80200 0.81900 47.14000
Mg -11.93900 16.48200 41.91900
C  -8.88900 14.89400 41.16700
C  -10.89400 19.39500 40.32000
C  -15.06200 17.54900 41.94200
C  -13.08700 13.14400 42.93100
N  -10.19400 17.03300 40.84900
C  -9.07800 16.25200 40.65000
C  -7.95700 17.13300 39.98100
C  -8.55500 18.54800 39.96100
C  -10.00300 18.31200 40.39500
C  -7.83300 19.57000 40.88700
C  -7.43100 16.52100 38.66000
C  -5.92600 16.71000 38.36400
H  -5.53800 17.10000 36.89300
N  -12.83200 18.23200 41.28000
C  -12.22600 19.34500 40.71200
C  -13.20200 20.43200 40.63600
C  -14.43400 19.93000 41.20800
C  -14.14900 18.49900 41.46200
C  -12.92900 21.80800 40.21000
C  -15.76000 20.68300 41.25300
O  -15.92400 21.81500 40.82500
C  -16.99800 20.07500 41.99500
N  -13.80500 15.40000 42.13700
C  -14.94900 16.16300 42.23000
C  -16.16700 15.35200 42.92600
C  -15.44800 13.96300 43.25900
C  -14.03800 14.12200 42.72700
C  -16.78100 16.06500 44.27700
C  -16.17500 12.84800 42.40300
C  -15.79500 11.40800 42.61000
N  -11.14400 14.45700 42.20000
C  -11.74600 13.27000 42.73600
C  -10.71500 12.28000 42.77400
C  -9.55700 12.86800 42.18300
C  -9.89400 14.16600 41.83900
C  -10.91200 10.88200 43.21500
C  -8.10400 12.74100 41.81100
O  -7.26700 11.81400 41.93200
C  -7.65400 14.02700 41.19800
C  -6.56400 14.67400 41.96000
O  -6.74400 15.18100 43.07300
O  -5.37100 14.60200 41.31200
C  -4.15000 14.94400 42.10100
H  -10.50000 20.33800 39.93700
H  -16.05900 17.86700 42.25400
H  -13.42300 12.25600 43.47000
H  -7.12300 17.08700 40.68300
H  -8.61700 18.92600 38.94000
H  -7.44200 20.39100 40.28600
H  -7.02000 19.14200 41.47400
H  -8.62500 19.94500 41.53500
H  -8.02200 16.97700 37.86600
H  -7.60800 15.44600 38.62100
H  -5.35600 15.80200 38.56200
H  -5.68500 17.52400 39.04700
H  -13.08100 22.39000 41.11900
H  -13.66400 22.05700 39.44500
H  -11.91200 21.86600 39.82200
H  -17.69900 20.88200 42.20600
H  -16.70300 19.68400 42.96800
H  -17.40600 19.24300 41.42100
H  -16.95400 15.24800 42.17900
H  -15.60000 13.69400 44.30500
H  -16.57700 17.12600 44.42200
H  -16.36600 15.59300 45.16700
H  -17.86700 16.05600 44.17700
H  -16.01600 13.03100 41.34000
H  -17.25000 13.02200 42.45000
H  -16.68100 10.81200 42.83100
H  -15.26400 11.39400 43.56200
H  -15.17500 10.98600 41.81800
H  -10.14000 10.24900 42.77700
H  -11.83900 10.55200 42.74600
H  -10.91600 10.75000 44.29700
H  -7.22600 13.85200 40.21100
H  -4.24000 15.97400 42.44400
H  -3.22700 14.67600 41.58500
H  -4.04700 14.42200 43.05300

