158

Mg 17.08700 0.36300 27.25400
C  15.95400 2.30100 30.05100
C  18.77000 -1.62400 29.50100
C  18.75200 -0.84300 24.59000
C  15.50000 2.63400 25.15000
N  17.42700 0.44900 29.54300
C  16.73400 1.17400 30.48300
C  17.01100 0.75000 31.92200
C  17.86100 -0.56600 31.67800
C  18.04300 -0.63800 30.14700
C  19.25900 -0.51800 32.38600
C  15.79500 0.45400 32.84600
C  15.59800 1.22300 34.15500
H  16.84700 1.69200 34.94700
N  18.48200 -1.15900 27.08300
C  19.06500 -1.80800 28.12400
C  19.92100 -2.81500 27.56100
C  19.90900 -2.63700 26.11000
C  19.00800 -1.51800 25.86000
C  20.61700 -3.89400 28.41500
C  20.68100 -3.43700 25.07100
O  20.49700 -3.25100 23.87700
C  21.72400 -4.52900 25.44600
N  16.96500 0.72300 25.13300
C  17.77700 0.13900 24.27800
C  17.59200 0.78700 22.82500
C  16.43300 1.75500 22.99300
C  16.23700 1.68600 24.49700
C  18.93100 1.39800 22.30500
C  15.24800 1.49200 22.07900
C  15.62800 1.41700 20.64600
N  15.96000 2.04100 27.43000
C  15.35100 2.84600 26.56500
C  14.66600 3.85400 27.20600
C  14.92500 3.74800 28.57800
C  15.67400 2.57300 28.69500
C  13.76300 4.83500 26.55800
C  14.74500 4.47000 29.89800
O  14.23700 5.53100 30.26000
C  15.30900 3.47700 30.88200
C  16.38700 4.19000 31.64600
O  17.57600 4.24300 31.27000
O  15.85400 4.74200 32.80900
C  16.65100 5.49900 33.72200
H  19.21200 -2.25300 30.27700
H  19.13300 -1.29800 23.67300
H  14.98000 3.43000 24.61300
H  17.65900 1.57700 32.21100
H  17.41200 -1.50700 31.99700
H  19.40500 -1.33200 33.09500
H  19.31400 0.28000 33.12700
H  20.12600 -0.44500 31.72900
H  15.63500 -0.60600 33.04600
H  14.90200 0.74200 32.29300
H  14.94900 0.59100 34.76000
H  15.00200 2.11000 33.94000
H  20.58200 -4.90400 28.00600
H  20.11400 -4.10800 29.35800
H  21.62900 -3.60000 28.69300
H  22.15700 -4.82100 24.48900
H  21.28200 -5.31900 26.05300
H  22.41400 -3.89600 26.00500
H  17.30500 0.03300 22.09200
H  16.72800 2.77300 22.74100
H  18.77200 2.18400 21.56700
H  19.46500 0.61800 21.76200
H  19.60500 1.60900 23.13500
H  14.51500 2.28600 22.22500
H  14.82400 0.54100 22.40200
H  16.66300 1.25700 20.34500
H  15.22800 2.36300 20.28100
H  15.10500 0.57400 20.19400
H  12.95500 5.06200 27.25500
H  13.21600 4.38700 25.72900
H  14.30900 5.72600 26.24900
H  14.47800 3.32100 31.57000
H  16.42100 6.55500 33.57800
H  17.72200 5.30400 33.76700
H  16.12800 5.33900 34.66500
Mg 44.48600 5.49600 47.79300
C  42.59300 8.52400 47.60300
C  41.65100 3.89300 46.84800
C  46.27700 2.78500 47.50100
C  47.40500 7.46600 47.97900
N  42.32400 6.17900 47.34900
C  41.77600 7.40900 47.39600
C  40.28400 7.41100 47.07600
C  39.98200 5.89800 47.04800
C  41.38100 5.28200 47.06100
C  39.06100 5.38400 48.20900
C  39.76200 8.08300 45.77700
C  38.24800 7.90800 45.39000
H  37.96600 7.06700 44.17000
N  44.02700 3.55000 47.25100
C  42.83200 3.06900 46.92700
C  42.94300 1.61400 46.92500
C  44.30400 1.26500 47.02400
C  44.95900 2.53300 47.25900
C  41.70100 0.69100 46.77900
C  44.97900 -0.09900 46.94500
O  44.24400 -1.02800 46.65900
C  46.44500 -0.48200 47.22100
N  46.59500 5.22200 47.56900
C  46.99600 3.92600 47.62800
C  48.52000 3.85800 47.95700
C  48.92600 5.39900 48.08600
C  47.57200 6.12400 47.82500
C  48.82400 3.02800 49.27900
C  50.14000 5.85800 47.22200
C  51.19700 6.78100 47.96100
N  44.96600 7.54900 47.74800
C  46.17800 8.18900 47.88000
C  45.95600 9.54100 47.99500
C  44.60100 9.72400 47.86500
C  43.99700 8.45500 47.75500
C  47.01200 10.67300 48.31300
C  43.53900 10.69500 47.93800
O  43.69600 11.88900 48.07800
C  42.16700 9.95700 47.65000
C  41.11800 10.27100 48.64300
O  40.99000 9.63200 49.68000
O  40.26200 11.31300 48.35100
C  39.06700 11.44500 49.23800
H  40.74100 3.29500 46.76400
H  46.85200 1.86000 47.57900
H  48.31000 7.94800 48.35700
H  39.70000 7.77800 47.92000
H  39.45500 5.62600 46.13400
H  39.70200 4.88500 48.93500
H  38.39600 4.60300 47.84100
H  38.56100 6.18000 48.76100
H  40.43200 7.85200 44.94800
H  40.00800 9.14200 45.85200
H  37.77600 8.88100 45.25300
H  37.67100 7.52700 46.23300
H  40.80700 1.28100 46.57700
H  41.66200 0.07200 47.67500
H  41.82700 0.07500 45.88800
H  46.99500 -0.13000 46.34700
H  46.48000 -1.57100 47.18900
H  46.81500 -0.11500 48.17800
H  49.01100 3.28800 47.16800
H  49.21400 5.59800 49.11800
H  49.60100 2.26500 49.23900
H  47.90500 2.56500 49.64000
H  49.20000 3.70000 50.05000
H  49.70900 6.33000 46.33900
H  50.64800 4.96300 46.86200
H  51.39100 7.73200 47.46400
H  52.14200 6.25000 48.07500
H  50.81900 6.99100 48.96200
H  46.43300 11.57300 48.52000
H  47.68400 10.69200 47.45500
H  47.55200 10.44400 49.23100
H  41.77800 10.37400 46.72100
H  39.19200 11.97600 50.18200
H  38.78900 10.42500 49.50200
H  38.17300 11.82900 48.74500

