158

Mg 24.89200 -6.51500 47.94900
C  27.31700 -4.32400 46.81800
C  22.64600 -5.23600 45.60700
C  22.96500 -9.15200 48.69100
C  27.48700 -8.06300 50.12100
N  25.00800 -4.90200 46.52100
C  26.06900 -4.12400 46.17600
C  25.68700 -3.12800 45.09600
C  24.17800 -3.34900 44.85200
C  23.89500 -4.54600 45.76700
C  23.24400 -2.07700 45.05400
C  26.57900 -3.22400 43.78700
C  27.39800 -1.99400 43.31700
H  27.01500 -1.50100 41.89400
N  22.98600 -7.04600 47.24500
C  22.24800 -6.40400 46.35700
C  20.97600 -7.10000 46.29700
C  21.04500 -8.28600 47.10100
C  22.37200 -8.20200 47.73000
C  19.89500 -6.60000 45.36700
C  19.87700 -9.33300 47.29400
O  18.89200 -9.34200 46.57200
C  19.98600 -10.50500 48.31500
N  25.14700 -8.26500 49.27900
C  24.15600 -9.10900 49.41200
C  24.35000 -10.23300 50.44000
C  25.77800 -9.85600 50.94900
C  26.19500 -8.66700 50.06700
C  23.24500 -10.37400 51.49900
C  26.74000 -11.10500 50.95800
C  27.10000 -11.57400 52.36600
N  26.99000 -6.30100 48.45200
C  27.81700 -6.92100 49.35900
C  29.06800 -6.15900 49.36000
C  28.90900 -5.13600 48.41700
C  27.66500 -5.31700 47.80300
C  30.40200 -6.54800 50.18800
C  29.55500 -3.96100 47.86300
O  30.67000 -3.51300 48.07300
C  28.55700 -3.47900 46.77500
C  28.19100 -2.04700 47.18800
O  27.41600 -1.77200 48.06900
O  28.91700 -1.12700 46.38100
C  28.59300 0.28700 46.72300
H  22.02000 -4.91300 44.77300
H  22.34600 -10.01000 48.96400
H  28.24600 -8.36200 50.84700
H  25.74400 -2.17700 45.62600
H  23.96500 -3.70400 43.84400
H  23.25500 -1.54500 44.10300
H  23.70900 -1.44300 45.80900
H  22.23100 -2.26700 45.40800
H  25.85200 -3.34200 42.98400
H  27.07900 -4.19100 43.73100
H  28.46000 -2.24100 43.31100
H  27.24200 -1.15000 43.98900
H  19.93600 -5.51000 45.38800
H  18.91400 -6.91000 45.72600
H  20.16600 -6.93400 44.36600
H  20.67100 -11.19000 47.81500
H  18.95700 -10.86600 48.29800
H  20.27500 -10.11400 49.29100
H  24.34100 -11.16100 49.86900
H  25.51900 -9.42000 51.91400
H  23.66300 -10.30000 52.50200
H  22.70400 -11.32100 51.52200
H  22.48200 -9.60200 51.39200
H  27.60200 -10.88600 50.32900
H  26.18200 -11.90000 50.46400
H  26.80600 -10.97300 53.22600
H  28.18200 -11.55100 52.49300
H  26.84700 -12.62300 52.52000
H  30.26100 -6.14200 51.18900
H  31.26300 -6.24200 49.59300
H  30.45900 -7.63500 50.22700
H  28.95200 -3.42900 45.76000
H  28.84200 0.31600 47.78400
H  27.51200 0.40800 46.66000
H  29.00600 0.96300 45.97500
Mg 47.01800 16.25500 28.14500
C  44.86500 16.03800 30.93600
C  49.47100 17.59100 30.21800
C  48.62000 17.39500 25.33800
C  44.48400 14.90400 26.19800
N  46.97400 16.90900 30.26700
C  46.08300 16.68500 31.31300
C  46.69100 17.09100 32.73300
C  48.10200 17.68700 32.36700
C  48.20900 17.34300 30.80100
C  48.27600 19.21600 32.76500
C  46.76100 15.91200 33.85900
C  46.29300 16.16500 35.27400
H  46.24600 17.54100 35.87200
N  48.80500 17.26400 27.83300
C  49.72300 17.73100 28.79700
C  50.90800 18.19900 28.16700
C  50.71600 18.20700 26.77100
C  49.39200 17.53700 26.55800
C  52.08200 18.57600 28.97400
C  51.74300 18.65000 25.68200
O  51.51400 18.40500 24.52400
C  53.01100 19.39800 26.02800
N  46.66300 16.12000 26.12700
C  47.41200 16.71300 25.07000
C  46.77600 16.54400 23.71700
C  45.67300 15.44000 24.00500
C  45.62300 15.43200 25.55700
C  46.18500 17.84900 23.28900
C  46.02800 13.93100 23.56600
C  44.76100 13.13300 23.00700
N  45.11600 15.61800 28.41700
C  44.24100 14.98500 27.55400
C  43.08500 14.59500 28.23200
C  43.25700 14.92800 29.56100
C  44.51500 15.61300 29.63200
C  41.93800 13.80500 27.62000
C  42.72600 14.87200 30.95400
O  41.68000 14.46700 31.46300
C  43.77600 15.62900 31.87600
C  43.03400 16.78500 32.51600
O  42.57200 17.76200 31.91300
O  42.91200 16.61400 33.83700
C  42.03800 17.67200 34.51800
H  50.37500 17.82300 30.78400
H  49.11700 17.80400 24.45500
H  43.78900 14.52700 25.44500
H  46.08700 17.91600 33.11200
H  48.72700 17.11300 33.05100
H  47.33500 19.53900 33.21000
H  48.49500 19.77200 31.85300
H  49.08800 19.30400 33.48800
H  47.79200 15.56700 33.93300
H  46.28100 15.07500 33.35300
H  46.92700 15.52100 35.88300
H  45.29700 15.72200 35.28200
H  51.98600 18.40100 30.04500
H  52.25900 19.65000 28.91700
H  52.93100 18.00700 28.59400
H  53.63600 18.69400 26.57800
H  52.77000 20.32800 26.54300
H  53.53100 19.56000 25.08400
H  47.56100 16.23400 23.02600
H  44.67300 15.68700 23.65000
H  45.10000 17.75700 23.22800
H  46.74000 18.09000 22.38300
H  46.48300 18.57000 24.05000
H  46.50000 13.41300 24.40200
H  46.84000 13.97900 22.84000
H  44.53100 12.16100 23.44400
H  44.94400 12.88900 21.96000
H  43.83300 13.70500 23.04600
H  41.20600 13.71700 28.42300
H  42.36900 12.86300 27.28200
H  41.43300 14.36000 26.83000
H  44.20300 14.98600 32.64600
H  41.65800 18.53700 33.97400
H  42.45100 17.99400 35.47500
H  41.09500 17.19800 34.79000

