158

Mg 17.12200 -1.54900 28.04800
C  16.15500 0.48800 30.81500
C  19.31200 -3.19400 30.25000
C  18.61400 -3.01900 25.37200
C  15.45800 0.53300 25.89900
N  17.87300 -1.28200 30.27800
C  17.09400 -0.54000 31.22200
C  17.43600 -0.99000 32.65400
C  18.50100 -2.09000 32.43400
C  18.56200 -2.24200 30.90900
C  19.97600 -1.72000 32.89200
C  16.23100 -1.60400 33.42100
C  16.01300 -1.25000 34.92200
H  17.15300 -0.71500 35.76700
N  18.69900 -2.90000 27.86500
C  19.44100 -3.48200 28.89000
C  20.23000 -4.54300 28.35100
C  19.93900 -4.60100 26.94500
C  19.05700 -3.48300 26.66500
C  21.23800 -5.44700 29.13900
C  20.52700 -5.60500 25.87500
O  20.21500 -5.45600 24.67400
C  21.39900 -6.77500 26.19000
N  17.10000 -1.33100 25.85500
C  17.82900 -1.92700 25.01100
C  17.56100 -1.53100 23.50400
C  16.32800 -0.63100 23.75800
C  16.30300 -0.37700 25.26600
C  18.79500 -0.79600 22.81400
C  14.94800 -1.27100 23.28400
C  13.91700 -0.27100 22.93700
N  15.88700 0.02600 28.31000
C  15.31600 0.79800 27.26900
C  14.49900 1.81000 27.93100
C  14.77000 1.73100 29.26300
C  15.64000 0.66300 29.48800
C  13.66400 2.72700 27.17500
C  14.57500 2.32800 30.61000
O  13.87900 3.21200 30.97200
C  15.28300 1.43000 31.61800
C  16.00600 2.24500 32.55600
O  17.18300 2.63800 32.48300
O  15.17800 2.48000 33.68200
C  15.72400 3.31500 34.77400
H  19.78000 -3.85900 30.97900
H  19.10900 -3.27500 24.43300
H  14.77700 1.16400 25.32500
H  17.77000 -0.13600 33.24300
H  18.16700 -2.99000 32.95000
H  20.72600 -1.70000 32.10200
H  20.29300 -2.52400 33.55600
H  20.00100 -0.73000 33.34700
H  16.31000 -2.69100 33.41100
H  15.35800 -1.34200 32.82300
H  15.63500 -2.16900 35.37100
H  15.11700 -0.64600 35.06700
H  20.84900 -6.45600 29.27800
H  21.18700 -5.08400 30.16500
H  22.28200 -5.44300 28.82500
H  21.62000 -7.34800 25.29000
H  21.04300 -7.39900 27.00900
H  22.30800 -6.25800 26.49700
H  17.30700 -2.49100 23.05600
H  16.43500 0.37100 23.34200
H  19.42300 -1.39800 22.15800
H  19.45700 -0.57200 23.65000
H  18.40400 0.11400 22.35800
H  14.64300 -1.96600 24.06600
H  15.20600 -1.84800 22.39500
H  13.06000 -0.35700 23.60500
H  13.63500 -0.36900 21.88900
H  14.42200 0.69500 22.94300
H  13.29500 3.50800 27.83900
H  12.82600 2.28700 26.63400
H  14.28500 3.02600 26.33100
H  14.59800 0.79700 32.18200
H  14.93600 3.95800 35.16500
H  16.44100 4.04800 34.40300
H  16.31000 2.88100 35.58500
Mg 42.45400 41.48500 26.63400
C  41.43400 43.67200 29.10000
C  43.22300 39.24400 29.21300
C  44.12200 39.62700 24.46800
C  41.97200 43.99400 24.25700
N  42.25200 41.44600 28.92600
C  41.79500 42.48200 29.68100
C  41.78600 42.19700 31.19500
C  42.38500 40.76200 31.23400
C  42.62600 40.40800 29.70800
C  43.63300 40.56400 32.12200
C  40.32500 42.25600 31.74700
C  40.04300 42.96700 33.04600
H  39.31200 42.25900 34.17600
N  43.52300 39.62300 26.83100
C  43.71400 38.83400 27.93100
C  44.36100 37.60200 27.51400
C  44.71200 37.76000 26.19800
C  44.18500 39.06400 25.81700
C  44.46000 36.39700 28.40200
C  45.36100 36.83000 25.16200
O  45.63900 37.02500 24.00300
C  45.67800 35.43000 25.59900
N  42.93900 41.82600 24.60000
C  43.62100 40.84600 23.88000
C  43.55800 41.10000 22.36500
C  42.77100 42.47600 22.29400
C  42.46400 42.76500 23.78800
C  44.91200 40.97700 21.55300
C  41.39100 42.46500 21.55000
C  40.43000 41.37700 22.00700
N  41.77800 43.46200 26.63100
C  41.67500 44.37600 25.58300
C  41.23500 45.61900 26.13700
C  41.10000 45.45800 27.54500
C  41.48600 44.08300 27.71600
C  40.86500 46.85900 25.41500
C  40.81000 46.07500 28.73600
O  40.56900 47.25800 29.00400
C  41.01600 45.01300 29.81100
C  42.03000 45.51500 30.77200
O  43.23200 45.34700 30.59200
O  41.51100 45.98900 31.90600
C  42.44900 46.22600 33.03600
H  43.33600 38.59100 30.08100
H  44.71100 39.08000 23.72900
H  41.84000 44.74200 23.47300
H  42.39000 42.94300 31.71000
H  41.68900 39.99300 31.57000
H  44.52700 40.71200 31.51700
H  43.74900 39.57300 32.56100
H  43.46400 41.32400 32.88500
H  39.91600 41.24700 31.80200
H  39.69800 42.73400 30.99400
H  39.39500 43.82200 32.85500
H  41.02400 43.23200 33.44100
H  43.84200 36.50000 29.29400
H  45.49900 36.15800 28.63100
H  44.07500 35.50100 27.91500
H  46.14700 34.87100 24.78900
H  44.75700 34.87600 25.77900
H  46.32900 35.43500 26.47300
H  42.80000 40.41100 21.99300
H  43.37300 43.35300 22.05400
H  44.91400 41.95400 21.06900
H  44.79000 40.12300 20.88600
H  45.83700 40.89000 22.12400
H  41.51900 42.41000 20.46900
H  40.87700 43.40600 21.74900
H  40.65300 40.79700 22.90200
H  40.25300 40.72500 21.15100
H  39.45100 41.72300 22.34000
H  39.92800 47.12500 25.90500
H  40.84000 46.66000 24.34300
H  41.63100 47.57600 25.71100
H  40.08000 44.91400 30.35900
H  43.06800 45.34500 33.20800
H  41.86000 46.50800 33.90800
H  43.11200 47.06400 32.82000

