158

Mg -2.28400 17.35500 25.83200
C  -3.03800 14.98200 28.36000
C  -2.68300 19.79600 28.11500
C  -2.17100 19.58600 23.32700
C  -2.48700 14.72400 23.42600
N  -2.76500 17.31200 28.02500
C  -2.89400 16.31100 28.91400
C  -2.84800 16.69400 30.29800
C  -2.81700 18.25200 30.30600
C  -2.76000 18.48200 28.73500
C  -3.99900 18.98200 31.03100
C  -1.84400 15.94600 31.16500
C  -1.37900 16.65000 32.36700
H  -0.88800 15.74900 33.47500
N  -2.30500 19.33900 25.75500
C  -2.49100 20.18700 26.78100
C  -2.72800 21.59300 26.33800
C  -2.39600 21.52300 24.97300
C  -2.30700 20.09500 24.59500
C  -2.93000 22.82200 27.22700
C  -2.46200 22.71900 23.99200
O  -2.37400 22.62000 22.78600
C  -2.47300 24.10500 24.47900
N  -2.32900 17.19000 23.61900
C  -2.21000 18.25500 22.83400
C  -1.97600 17.81200 21.34700
C  -1.96300 16.24600 21.38300
C  -2.25200 16.04000 22.86400
C  -3.11400 18.27800 20.45300
C  -0.69300 15.56000 20.93000
C  -0.83300 14.40400 19.86900
N  -2.69100 15.31200 25.80400
C  -2.74100 14.41000 24.79200
C  -3.00700 13.11600 25.30800
C  -3.09000 13.31100 26.65100
C  -2.92700 14.68300 26.94500
C  -3.08300 11.83200 24.56500
C  -3.26200 12.60900 27.94800
O  -3.43400 11.42900 28.15100
C  -3.16500 13.64200 29.07800
C  -1.96900 13.12500 29.79400
O  -0.75000 13.23100 29.51800
O  -2.45600 12.56800 31.01900
C  -1.48500 11.92500 31.82800
H  -2.69300 20.62000 28.83200
H  -2.15000 20.28500 22.48800
H  -2.46800 13.79000 22.86100
H  -3.84800 16.38800 30.60600
H  -1.86100 18.65400 30.64500
H  -3.58200 19.79900 31.62000
H  -4.44400 18.35000 31.79900
H  -4.87200 19.23400 30.42900
H  -0.94800 15.67400 30.60600
H  -2.21000 15.01300 31.59200
H  -2.18100 17.28600 32.74000
H  -0.52200 17.31900 32.27400
H  -1.99500 23.37900 27.15900
H  -3.07500 22.52100 28.26500
H  -3.79800 23.40500 26.92100
H  -2.12300 24.76400 23.68400
H  -1.67200 24.10600 25.21800
H  -3.44200 24.55400 24.69900
H  -0.97200 18.08100 21.01900
H  -2.84200 15.89600 20.84300
H  -2.61000 19.13900 20.01500
H  -3.83700 18.63100 21.18900
H  -3.58400 17.65300 19.69400
H  -0.16000 15.06700 21.74300
H  0.04500 16.27700 20.56800
H  -0.37400 13.47100 20.19600
H  -0.17800 14.63200 19.02800
H  -1.83400 14.28800 19.45100
H  -2.16500 11.71700 23.98800
H  -3.81600 11.97300 23.77100
H  -3.41300 10.96800 25.14200
H  -4.01000 13.75000 29.75800
H  -1.05600 11.12500 31.22400
H  -1.92700 11.58300 32.76300
H  -0.64800 12.59300 32.03100
Mg 41.19000 9.53600 30.00800
C  43.05000 11.04500 32.56500
C  39.07300 8.13300 32.36900
C  39.36700 8.32100 27.55500
C  43.55400 10.78000 27.74100
N  41.02400 9.67500 32.24200
C  41.85100 10.38300 33.02800
C  41.44200 10.16900 34.50200
C  40.43000 8.96500 34.40500
C  40.13400 8.93800 32.91400
C  40.90500 7.60900 34.92900
C  41.03300 11.60700 35.04800
C  41.81400 12.20200 36.17100
H  41.05500 12.76500 37.38700
N  39.42700 8.42100 29.95700
C  38.73200 7.92200 31.01200
C  37.69900 7.12200 30.52400
C  37.55300 7.38600 29.12500
C  38.82800 8.03400 28.81100
C  36.89800 6.30600 31.48000
C  36.46200 6.91000 28.19900
O  36.60800 7.09900 26.97900
C  35.18500 6.26000 28.70700
N  41.49700 9.49900 27.99500
C  40.59300 8.86000 27.20600
C  41.14300 8.77100 25.80500
C  42.40900 9.69900 25.75000
C  42.45200 10.07200 27.18800
C  41.40800 7.31600 25.29000
C  42.23800 10.95400 24.93000
C  41.45800 12.15800 25.49000
N  42.98300 10.62000 30.06400
C  43.91200 11.02400 29.11200
C  44.96200 11.74300 29.72600
C  44.66800 11.78000 31.10800
C  43.45500 11.06400 31.24800
C  46.08900 12.42900 28.97500
C  45.11900 12.22700 32.43000
O  46.19400 12.75300 32.76000
C  44.05500 11.75200 33.44300
C  44.93700 10.99600 34.36600
O  45.41200 9.87700 34.21400
O  45.20200 11.81700 35.47700
C  45.79500 11.10900 36.66800
H  38.58500 7.53500 33.14200
H  38.86800 7.89600 26.68100
H  44.27100 11.27500 27.08300
H  42.32900 9.81000 35.02500
H  39.52800 9.23300 34.95600
H  40.12500 7.16600 35.54900
H  41.82000 7.63200 35.52100
H  40.98900 6.89000 34.11500
H  39.97700 11.58600 35.31700
H  41.08300 12.40500 34.30700
H  42.32000 13.08400 35.77700
H  42.62300 11.54600 36.49100
H  36.07700 6.86600 31.92800
H  37.46400 5.89900 32.31800
H  36.43900 5.43200 31.01800
H  34.24200 6.54000 28.23600
H  34.86100 6.55600 29.70500
H  35.30700 5.17700 28.70400
H  40.41500 9.18200 25.10700
H  43.33600 9.15700 25.56300
H  40.86700 6.97000 24.40900
H  41.34900 6.58600 26.09700
H  42.43200 7.25500 24.92100
H  41.85500 10.79000 23.92300
H  43.28700 11.22100 24.80100
H  41.03600 12.67300 24.62700
H  42.10100 12.89100 25.97800
H  40.76400 11.73200 26.21400
H  45.67500 12.78400 28.03100
H  46.92300 11.73100 28.90700
H  46.35300 13.30300 29.57000
H  43.53700 12.64500 33.79100
H  45.01200 10.49900 37.11900
H  46.12800 11.86900 37.37500
H  46.62900 10.50100 36.31900

