158

Mg -1.67400 18.26700 26.75100
C  -1.96600 15.90100 29.36400
C  -2.29400 20.72400 28.96600
C  -1.78300 20.37300 24.25600
C  -1.73100 15.47600 24.49400
N  -2.09600 18.22800 28.86100
C  -2.18300 17.18900 29.79800
C  -2.45400 17.74400 31.17000
C  -3.04800 19.18400 30.87200
C  -2.32500 19.43100 29.52100
C  -4.57900 19.25100 30.74900
C  -1.25900 17.75000 32.09500
C  -1.65900 17.27500 33.46400
H  -0.60400 17.40500 34.63600
N  -1.65400 20.28300 26.68200
C  -1.93300 21.15400 27.67800
C  -1.79500 22.45800 27.20600
C  -1.38700 22.33500 25.78600
C  -1.64600 20.95500 25.49500
C  -2.05800 23.73600 28.05500
C  -1.01200 23.38900 24.83200
O  -0.68500 23.18000 23.65500
C  -0.85500 24.71700 25.31500
N  -1.75300 18.00600 24.69800
C  -1.89400 19.00800 23.85600
C  -1.84100 18.58600 22.42200
C  -1.57700 16.99600 22.50700
C  -1.74100 16.77400 23.98200
C  -3.22400 18.70200 21.63800
C  -0.16700 16.61700 21.98300
C  1.08600 17.08100 22.76700
N  -1.89400 16.15500 26.79700
C  -1.91300 15.21300 25.82800
C  -2.14700 13.94800 26.40400
C  -2.00500 14.13800 27.83100
C  -1.96000 15.54100 28.01800
C  -2.30900 12.62100 25.74300
C  -1.93900 13.39300 29.14200
O  -1.97700 12.21900 29.46900
C  -2.05300 14.53200 30.18800
C  -0.94500 14.41300 31.14700
O  0.17300 14.76700 31.00900
O  -1.29400 13.84000 32.36000
C  -0.32200 13.57300 33.52200
H  -2.25000 21.49500 29.73900
H  -1.83800 21.09700 23.44000
H  -1.70600 14.70100 23.72600
H  -3.18400 17.05800 31.60000
H  -2.63100 19.87600 31.60300
H  -5.13600 18.32800 30.91200
H  -4.79100 19.51800 29.71300
H  -4.92600 20.11500 31.31500
H  -0.91100 18.76800 32.27200
H  -0.42900 17.19500 31.65800
H  -1.99000 16.23600 33.44500
H  -2.52300 17.86700 33.76400
H  -2.50400 24.40700 27.32000
H  -1.17500 24.17100 28.52400
H  -2.75500 23.55900 28.87300
H  -0.47500 25.39200 24.54800
H  -0.16000 24.72700 26.15400
H  -1.80300 25.18800 25.57400
H  -1.08700 19.07900 21.80900
H  -2.24500 16.46300 21.83200
H  -3.89300 17.95700 22.06800
H  -3.21400 18.56500 20.55600
H  -3.70600 19.66200 21.82300
H  -0.01600 17.00200 20.97500
H  -0.20700 15.52800 22.01100
H  0.88800 17.39300 23.79200
H  1.58600 17.90600 22.25900
H  1.82800 16.29300 22.90500
H  -2.98500 12.57600 24.88900
H  -2.89200 12.08400 26.49100
H  -1.35800 12.16700 25.46500
H  -2.96900 14.36900 30.75500
H  0.52800 14.24800 33.42300
H  0.11200 12.57500 33.45300
H  -0.86400 13.69600 34.45900
Mg 1.74400 -0.93600 44.07400
C  5.21100 -0.19400 43.38000
C  1.00600 1.74100 42.06300
C  -1.41100 -1.91800 44.30300
C  2.85000 -3.91200 45.63500
N  3.01200 0.51100 42.70100
C  4.32700 0.69700 42.73900
C  4.74900 1.94800 41.85900
C  3.38300 2.63600 41.66000
C  2.40800 1.59400 42.24000
C  3.14500 4.03500 42.38500
C  5.57200 1.72500 40.51000
C  6.47800 2.90500 40.06900
H  6.31100 3.57500 38.70100
N  0.00000 -0.15000 43.31900
C  -0.11200 0.91400 42.52300
C  -1.57900 1.20900 42.35700
C  -2.32400 0.14100 42.98400
C  -1.22800 -0.66300 43.60300
C  -2.11100 2.41800 41.63600
C  -3.76200 0.02100 42.99300
O  -4.46200 0.78600 42.27900
C  -4.53200 -0.97800 43.86500
N  0.85300 -2.69600 44.84200
C  -0.52400 -2.85400 44.88000
C  -0.97400 -4.07900 45.62500
C  0.40000 -4.68900 46.07300
C  1.47100 -3.75300 45.52700
C  -1.94100 -3.91100 46.81000
C  0.63200 -6.21000 45.71900
C  0.72100 -7.06100 47.07000
N  3.63700 -2.00100 44.37800
C  3.93700 -3.19100 45.04700
C  5.35200 -3.39000 45.20200
C  5.90000 -2.17800 44.58900
C  4.77400 -1.34000 44.15600
C  6.04200 -4.51000 45.84100
C  7.13300 -1.48700 44.35900
O  8.32300 -1.74400 44.70500
C  6.72500 -0.23100 43.48200
C  7.19800 0.97000 44.17900
O  6.82500 1.33400 45.29900
O  8.14200 1.64300 43.56700
C  8.72600 2.82500 44.15000
H  0.73700 2.62800 41.48500
H  -2.48500 -2.00900 44.48000
H  3.15500 -4.80500 46.18500
H  5.35600 2.54400 42.54100
H  3.32000 2.82200 40.58700
H  4.05900 4.31700 42.90800
H  2.29700 4.05300 43.06900
H  2.95000 4.80900 41.64200
H  4.88500 1.55500 39.68100
H  6.24400 0.86800 40.56200
H  7.49600 2.51600 40.08400
H  6.29900 3.69000 40.80300
H  -2.66100 2.20200 40.72000
H  -1.44300 3.26500 41.48000
H  -2.84800 2.85800 42.30800
H  -5.60600 -0.79600 43.89100
H  -4.19300 -0.79400 44.88500
H  -4.33200 -1.95800 43.43400
H  -1.36000 -4.75800 44.86500
H  0.59200 -4.49300 47.12800
H  -2.31300 -2.89800 46.66100
H  -1.44500 -4.19600 47.73800
H  -2.86300 -4.45800 46.61100
H  1.54500 -6.30900 45.13200
H  -0.03000 -6.52800 44.91300
H  1.59700 -7.69200 47.22000
H  -0.18400 -7.66800 47.04600
H  0.55900 -6.43700 47.94900
H  6.55000 -4.99900 45.01000
H  5.42500 -5.24400 46.35800
H  6.76900 -4.04200 46.50600
H  7.31800 -0.21600 42.56700
H  9.76200 2.53600 44.32500
H  8.18400 3.21600 45.01000
H  8.60700 3.67400 43.47700

