158

Mg 8.98700 3.97900 27.99400
C  10.34200 2.22200 30.67800
C  7.13700 5.80700 30.18200
C  7.67700 5.37700 25.33600
C  10.51400 1.46700 25.87900
N  8.75000 3.98500 30.20800
C  9.44600 3.22600 31.10600
C  9.18800 3.73100 32.57700
C  7.98700 4.78900 32.35800
C  8.02100 4.98700 30.82500
C  6.62900 4.23100 32.85500
C  10.50000 4.25800 33.39100
C  10.76600 3.71900 34.74400
H  11.10200 4.77500 35.82400
N  7.74800 5.43300 27.79900
C  7.04900 6.00200 28.81100
C  6.28100 7.11400 28.22100
C  6.58500 7.17000 26.79800
C  7.35300 5.89600 26.54200
C  5.51900 8.18100 28.98500
C  6.28700 8.21700 25.77700
O  6.71900 8.15900 24.63300
C  5.39500 9.46000 26.14900
N  8.97200 3.39300 25.90900
C  8.40800 4.21900 25.00200
C  8.68400 3.77500 23.55200
C  9.63000 2.54200 23.69400
C  9.72100 2.39900 25.24100
C  7.38700 3.54700 22.71000
C  10.99200 2.57100 22.99700
C  11.44200 1.29400 22.27100
N  10.15700 2.21000 28.15000
C  10.72900 1.31000 27.28100
C  11.37900 0.21500 27.96000
C  11.35900 0.55600 29.31800
C  10.64400 1.73500 29.36800
C  12.13000 -0.98000 27.32500
C  11.87300 0.18500 30.63500
O  12.62700 -0.74700 30.95300
C  11.17400 1.21700 31.58600
C  10.39000 0.38800 32.48700
O  9.27700 -0.07300 32.20500
O  11.04900 0.30400 33.68000
C  10.36900 -0.35300 34.76900
H  6.41800 6.32000 30.82400
H  7.33300 5.85400 24.41600
H  10.91800 0.68900 25.22900
H  8.76900 2.92800 33.18400
H  8.09000 5.72800 32.90300
H  6.48600 4.70600 33.82600
H  6.64600 3.15000 32.98800
H  5.76300 4.52900 32.26400
H  10.38000 5.33700 33.48900
H  11.41500 3.94800 32.88800
H  11.67700 3.13700 34.61200
H  9.96000 3.11900 35.16700
H  4.63800 8.38900 28.37800
H  6.04300 9.12900 29.11100
H  5.08200 7.93600 29.95400
H  4.37500 9.20500 26.43600
H  5.28500 9.98800 25.20200
H  5.83600 10.12500 26.89200
H  9.17900 4.65000 23.13100
H  9.00800 1.71600 23.34900
H  6.59100 4.13800 23.16400
H  7.11100 2.53100 22.42500
H  7.68300 4.04700 21.78800
H  11.77300 2.90200 23.68100
H  10.91800 3.30200 22.19200
H  12.12300 1.50600 21.44700
H  10.55700 0.76900 21.91100
H  11.85500 0.65900 23.05400
H  12.13200 -1.83100 28.00600
H  13.04800 -0.65500 26.83500
H  11.48600 -1.34600 26.52600
H  12.01800 1.70600 32.07300
H  11.01800 -0.85900 35.48400
H  9.62600 -1.08900 34.46200
H  9.90600 0.42800 35.37200
Mg 54.60800 24.04800 44.46100
C  51.94800 26.22400 43.35900
C  52.83400 21.42400 42.69800
C  57.28600 22.12200 44.76300
C  56.36400 26.97100 45.33300
N  52.62800 23.87700 43.13100
C  51.71000 24.88200 42.91900
C  50.43800 24.39100 42.18600
C  50.63800 22.82300 42.39000
C  52.10900 22.68100 42.73600
C  49.80900 21.97900 43.45700
C  50.22900 24.67900 40.70200
C  51.49800 24.61200 39.84300
H  51.40400 25.36600 38.52900
N  54.98500 22.05300 43.87700
C  54.13300 21.14300 43.18000
C  54.87500 19.95700 43.06500
C  56.12400 20.10900 43.78800
C  56.20500 21.51000 44.16600
C  54.30200 18.73500 42.39100
C  57.04100 18.87800 44.07700
O  56.88700 17.76200 43.52000
C  58.17100 19.04900 45.06700
N  56.57300 24.52100 44.80200
C  57.50700 23.51700 44.98000
C  58.83200 24.10600 45.49700
C  58.53500 25.70400 45.40000
C  57.10600 25.74600 45.17300
C  59.26500 23.59400 46.95700
C  59.26700 26.51500 44.27100
C  59.99200 27.81600 44.61000
N  54.23800 26.05200 44.58800
C  55.02200 27.13600 45.03700
C  54.23800 28.36400 45.00200
C  53.02000 28.01600 44.34700
C  53.10200 26.64000 44.10300
C  54.62500 29.71800 45.55300
C  51.70700 28.55700 43.98100
O  51.27900 29.68200 44.10900
C  50.98800 27.40600 43.26000
C  50.50300 27.91100 41.89700
O  51.06700 28.59400 41.08800
O  49.13900 27.57100 41.80300
C  48.57600 28.21000 40.59800
H  52.23200 20.64000 42.23200
H  58.13000 21.44300 44.90100
H  56.85300 27.87900 45.69100
H  49.53100 24.68900 42.71200
H  50.51500 22.37900 41.40200
H  49.02300 22.55400 43.94700
H  50.40800 21.75900 44.34100
H  49.47000 21.01400 43.08100
H  49.76300 25.65300 40.54900
H  49.54600 23.99100 40.20300
H  51.74800 23.56500 39.67300
H  52.23100 25.21700 40.37600
H  53.34200 18.87400 41.89600
H  54.05000 18.09100 43.23400
H  55.04500 18.25300 41.75600
H  58.03200 19.75600 45.88500
H  58.96500 19.35600 44.38600
H  58.33400 18.07200 45.52200
H  59.62500 23.78800 44.82100
H  58.81200 26.00800 46.40900
H  59.43800 24.48800 47.55700
H  60.22200 23.07400 46.90600
H  58.43500 23.08300 47.44400
H  58.59000 26.72100 43.44200
H  59.95500 25.80400 43.81200
H  59.43500 28.72100 44.36900
H  61.00400 27.93800 44.22100
H  60.12500 27.84400 45.69200
H  54.46900 30.47100 44.78100
H  55.67700 29.66700 45.83100
H  54.07000 29.90500 46.47200
H  50.08400 27.15200 43.81500
H  48.55500 29.29900 40.56900
H  47.55200 27.85600 40.47300
H  49.10100 27.84300 39.71600

