158

Mg 8.07400 2.51200 28.01500
C  9.87700 1.04100 30.63900
C  6.49900 4.57000 30.02500
C  6.38500 3.64600 25.28200
C  9.44600 -0.07800 25.90700
N  8.17200 2.66600 30.07500
C  8.99900 2.10500 30.98600
C  8.84000 2.74500 32.39300
C  7.67700 3.81300 32.11600
C  7.44600 3.64000 30.59300
C  6.41400 3.70300 32.99000
C  10.13100 3.23200 33.06600
C  10.24400 2.82700 34.54600
H  11.09800 3.66400 35.48400
N  6.82300 4.10100 27.65800
C  6.26900 4.81900 28.68400
C  5.29800 5.72300 28.07000
C  5.36600 5.56500 26.62600
C  6.22500 4.38500 26.43700
C  4.23000 6.51000 28.87100
C  4.58400 6.26200 25.50200
O  4.70100 5.91700 24.32800
C  3.89300 7.53600 25.85000
N  7.87600 1.77500 25.94300
C  7.14200 2.49900 25.02300
C  7.36900 2.03900 23.55200
C  8.20500 0.76500 23.84200
C  8.52700 0.79700 25.30800
C  6.12000 1.72600 22.64500
C  9.38500 0.50200 22.87000
C  9.36700 -0.84100 22.11900
N  9.51700 0.87400 28.21400
C  9.93600 -0.01900 27.24000
C  10.87500 -1.01300 27.92100
C  10.90600 -0.54900 29.27800
C  10.05300 0.51500 29.38200
C  11.53700 -2.23400 27.29500
C  11.40600 -0.80800 30.54600
O  12.01000 -1.81900 31.01600
C  10.82000 0.27000 31.55500
C  10.05700 -0.39600 32.66600
O  8.84300 -0.63300 32.67700
O  10.84100 -0.61000 33.78700
C  10.22000 -0.82700 35.07000
H  5.93900 5.23600 30.68500
H  5.88200 4.04300 24.39700
H  9.63100 -0.91100 25.22600
H  8.26900 1.97500 32.91100
H  8.09900 4.80700 32.26700
H  6.44000 4.69100 33.44800
H  6.39800 2.92300 33.75100
H  5.59700 3.57100 32.28000
H  10.15800 4.31800 32.97100
H  10.98400 2.84500 32.50900
H  10.51600 1.77200 34.58200
H  9.21000 2.84300 34.89200
H  4.01700 6.00700 29.81400
H  3.28000 6.61000 28.34600
H  4.69500 7.48900 28.98600
H  4.49600 7.98300 26.64000
H  2.96200 7.40700 26.40300
H  3.87100 8.15600 24.95400
H  7.98700 2.79500 23.06800
H  7.56600 -0.08300 23.59200
H  5.21700 1.89700 23.23200
H  6.14500 0.74700 22.16700
H  6.11900 2.53200 21.91100
H  10.27100 0.70100 23.47400
H  9.32200 1.33600 22.17000
H  8.69600 -0.63100 21.28500
H  9.02400 -1.58500 22.83800
H  10.34000 -1.10200 21.70300
H  12.32500 -1.83400 26.65600
H  10.72800 -2.77200 26.80200
H  12.00600 -2.85700 28.05700
H  11.63300 0.84200 32.00000
H  10.92500 -0.68300 35.88800
H  9.88800 -1.85500 35.21600
H  9.35800 -0.17500 35.20900
Mg 36.22400 49.91500 24.61100
C  36.70700 48.32500 27.86000
C  34.81200 52.57700 26.38500
C  35.69100 51.16800 21.69900
C  37.74800 47.10400 23.18300
N  35.97700 50.42600 26.91400
C  36.20000 49.64100 28.00900
C  35.80700 50.34000 29.33000
C  35.14900 51.74300 28.77500
C  35.30000 51.62700 27.27300
C  33.73200 51.99500 29.26900
C  37.08500 50.53800 30.29400
C  36.79800 50.60600 31.79600
H  35.38000 50.35500 32.38900
N  35.46100 51.61600 24.08200
C  34.93300 52.61900 24.88500
C  34.32000 53.62700 24.05900
C  34.61200 53.23900 22.73100
C  35.29900 51.96800 22.77500
C  33.54900 54.80300 24.65400
C  34.41700 54.03300 21.43300
O  34.96200 53.77600 20.32800
C  33.55100 55.29400 21.40000
N  36.79300 49.22400 22.78000
C  36.40000 49.92600 21.73000
C  36.77900 49.23900 20.36400
C  37.70600 48.03200 20.86700
C  37.42300 48.09900 22.36500
C  35.56100 48.89000 19.49000
C  39.25200 48.23000 20.60100
C  40.08300 49.15800 21.48700
N  37.02000 48.12100 25.33300
C  37.52600 47.00100 24.59800
C  37.85500 45.98900 25.49200
C  37.55600 46.46100 26.71700
C  37.01400 47.75900 26.62700
C  38.54900 44.77300 25.13900
C  37.61800 46.03300 28.10100
O  37.98000 44.97000 28.62300
C  36.98600 47.17400 28.89100
C  35.84300 46.74000 29.68100
O  34.63800 47.04200 29.51100
O  36.28200 45.81500 30.59000
C  35.20300 45.42000 31.47400
H  34.34800 53.46800 26.81400
H  35.38600 51.46800 20.69500
H  38.11000 46.18100 22.72500
H  35.07900 49.68500 29.80800
H  35.69000 52.62200 29.12600
H  33.38000 51.20700 29.93600
H  32.99800 52.10200 28.47100
H  33.82800 52.89800 29.87100
H  37.62300 51.47600 30.15900
H  37.78400 49.71100 30.17600
H  37.21700 51.56300 32.11000
H  37.51700 49.88000 32.17500
H  32.63400 54.93500 24.07700
H  34.18400 55.68500 24.57100
H  33.29000 54.60300 25.69300
H  34.06300 55.92700 22.12500
H  32.60600 54.85800 21.72300
H  33.46000 55.71700 20.39900
H  37.35300 50.01100 19.85200
H  37.38400 47.07200 20.46600
H  34.71400 48.75200 20.16100
H  35.65500 47.97800 18.90000
H  35.41000 49.64900 18.72200
H  39.31700 48.57800 19.57000
H  39.65300 47.21600 20.61000
H  39.48500 49.80500 22.12800
H  40.78000 49.73000 20.87300
H  40.69000 48.54200 22.15100
H  39.47700 44.96000 24.59900
H  37.96100 44.27000 24.37100
H  38.75000 44.24700 26.07200
H  37.76500 47.51600 29.57100
H  34.48300 44.79000 30.95200
H  34.51800 46.18400 31.83900
H  35.61000 44.78100 32.25800

