158

Mg 26.11700 51.26000 25.55400
C  23.78700 52.13200 27.98800
C  28.35000 50.61600 27.89000
C  28.45400 50.93800 23.11400
C  23.83400 52.32300 23.04000
N  26.11600 51.49600 27.72200
C  24.99400 51.80100 28.55100
C  25.31500 51.49600 29.98500
C  26.88300 51.20100 29.92000
C  27.17500 51.04900 28.45100
C  27.87000 52.23200 30.47000
C  24.42100 50.37700 30.60500
C  23.61300 50.79900 31.83400
H  23.92900 50.11000 33.13900
N  28.02100 50.68400 25.48300
C  28.74700 50.42600 26.57100
C  30.11300 50.05800 26.15800
C  30.17400 50.18100 24.76900
C  28.84300 50.60500 24.40300
C  31.19000 49.69800 27.08400
C  31.35500 49.96000 23.79900
O  31.35100 50.02800 22.54500
C  32.68700 49.41900 24.33000
N  26.22200 51.75400 23.40100
C  27.23700 51.37800 22.64100
C  27.11500 51.97400 21.25400
C  25.57200 52.09500 21.11500
C  25.18900 52.18900 22.60000
C  28.03000 53.17800 20.99900
C  24.82900 50.90400 20.46500
C  24.15400 51.20500 19.10400
N  24.22600 52.03600 25.43800
C  23.37100 52.30700 24.35900
C  22.05900 52.78300 24.84800
C  22.24600 52.77900 26.23000
C  23.48900 52.21100 26.58200
C  20.95400 53.28200 24.00200
C  21.49600 53.00500 27.38400
O  20.37700 53.51400 27.59800
C  22.51600 52.55900 28.56900
C  22.67600 53.65500 29.57500
O  23.26500 54.71900 29.45500
O  22.04200 53.37900 30.71300
C  21.88000 54.42600 31.75200
H  29.08400 50.36500 28.65900
H  29.23100 50.72800 22.37600
H  23.17400 52.41600 22.17500
H  25.30100 52.42500 30.55600
H  27.02300 50.24700 30.42900
H  27.50000 53.25000 30.34300
H  28.88900 52.19600 30.08600
H  27.73200 52.06300 31.53800
H  25.11500 49.56900 30.83500
H  23.68600 50.03000 29.87900
H  22.56400 50.69900 31.55500
H  23.83900 51.85800 31.96400
H  31.33600 48.61900 27.13800
H  30.99400 49.98200 28.11800
H  32.14700 50.17700 26.87600
H  32.49400 48.49100 24.86900
H  32.99900 50.30700 24.88000
H  33.37600 49.31200 23.49300
H  27.37100 51.15300 20.58500
H  25.37400 53.02000 20.57400
H  27.45500 54.05500 20.70500
H  28.66400 52.88000 20.16400
H  28.64200 53.49200 21.84500
H  24.07800 50.48400 21.13500
H  25.48000 50.03200 20.40300
H  23.25400 50.59300 19.03600
H  24.84900 51.01000 18.28700
H  23.79500 52.22000 19.26700
H  20.73800 52.56700 23.20800
H  21.35000 54.12500 23.43500
H  20.06600 53.56100 24.56900
H  22.10800 51.71600 29.12700
H  22.44900 54.13200 32.63400
H  20.81300 54.51400 31.95700
H  22.21500 55.42000 31.45600
Mg 16.21100 51.29400 24.40400
C  18.04800 50.71000 27.26800
C  13.57300 52.21400 26.32400
C  14.43700 51.60600 21.59100
C  18.99200 50.04800 22.55200
N  15.85500 51.47300 26.55800
C  16.78700 51.17100 27.55400
C  16.19500 51.59000 28.91600
C  14.66400 51.91100 28.67500
C  14.66400 51.76800 27.11300
C  13.66900 50.93600 29.33700
C  16.86900 52.81900 29.55900
C  17.05100 52.82800 31.10800
H  16.25500 51.77200 31.94300
N  14.23300 51.73800 23.96700
C  13.34800 52.23300 24.93400
C  12.19200 52.63700 24.21800
C  12.31700 52.39500 22.81800
C  13.75000 51.94000 22.72900
C  10.96900 53.18400 24.88200
C  11.39300 52.55900 21.62100
O  11.70800 52.17900 20.50500
C  10.11500 53.13900 21.79300
N  16.68900 51.03100 22.39400
C  15.79500 51.13900 21.35700
C  16.31900 50.95100 19.96800
C  17.79400 50.64500 20.33000
C  17.82000 50.52700 21.81900
C  15.65400 49.69600 19.39400
C  18.97300 51.49500 19.66700
C  20.09100 50.55100 19.10400
N  18.23400 50.59200 24.76000
C  19.21900 50.13000 23.92600
C  20.33400 49.72800 24.64200
C  19.99300 50.01800 26.02300
C  18.62400 50.44800 26.02300
C  21.62800 49.29500 24.06900
C  20.47000 49.96900 27.40200
O  21.48900 49.53300 27.88300
C  19.27200 50.44900 28.29200
C  18.96700 49.34700 29.26200
O  18.38500 48.30000 28.96300
O  19.44600 49.57400 30.53400
C  19.19500 48.58500 31.52200
H  12.82800 52.57700 27.03600
H  13.95400 51.78600 20.62900
H  19.75000 49.54400 21.94900
H  16.38900 50.69600 29.50800
H  14.34800 52.91700 28.95100
H  14.08400 50.07200 29.85700
H  13.07600 50.51200 28.52600
H  12.99700 51.43100 30.03800
H  16.41600 53.79500 29.38500
H  17.84500 52.94900 29.09000
H  16.85500 53.81800 31.52000
H  18.11300 52.61100 31.22100
H  11.30300 53.70400 25.78000
H  10.26700 52.40900 25.18900
H  10.35800 53.89800 24.32900
H  9.65900 52.37600 22.42300
H  9.62000 53.22700 20.82600
H  10.05400 54.11200 22.28100
H  16.12900 51.72700 19.22600
H  18.01700 49.60600 20.08700
H  16.22000 49.18000 18.61900
H  14.65300 49.92700 19.03100
H  15.45300 48.98800 20.19800
H  19.39700 51.97400 20.54900
H  18.53800 52.10800 18.87800
H  19.75700 49.52300 18.95800
H  20.86900 50.61100 19.86600
H  20.38800 50.87400 18.10600
H  22.16800 49.13500 25.00200
H  21.96500 50.20800 23.57700
H  21.70100 48.38100 23.48000
H  19.55300 51.39000 28.76500
H  18.13300 48.58500 31.76900
H  19.83400 48.91200 32.34200
H  19.46100 47.57400 31.21400

