158

Mg 1.94700 -2.15900 42.77900
C  5.31500 -1.88500 42.22500
C  1.50400 0.95900 41.32500
C  -1.27400 -2.90200 42.39700
C  2.60500 -5.60300 43.54000
N  3.31500 -0.76100 41.66000
C  4.65900 -0.79100 41.75200
C  5.24100 0.40800 41.10500
C  4.10500 1.44900 41.06200
C  2.86800 0.55200 41.39700
C  4.31700 2.70000 41.97700
C  6.11300 0.33400 39.78400
C  5.58600 -0.70000 38.80700
H  5.24400 -0.29000 37.38700
N  0.37400 -1.10400 41.98600
C  0.33500 0.22400 41.38200
C  -1.02900 0.56000 41.12000
C  -1.88100 -0.49900 41.52400
C  -0.93600 -1.53800 42.05200
C  -1.53100 1.99600 40.71100
C  -3.46100 -0.50900 41.69800
O  -4.13500 0.41300 41.26600
C  -4.15700 -1.58000 42.35200
N  0.83500 -3.92500 42.92500
C  -0.51000 -3.99300 42.82000
C  -1.13000 -5.34400 42.99200
C  0.13400 -6.20400 43.36200
C  1.28100 -5.18700 43.30200
C  -2.27800 -5.39100 44.01300
C  0.44900 -7.43400 42.56500
C  0.52500 -8.79800 43.34900
N  3.59600 -3.44600 43.21300
C  3.73200 -4.78000 43.44000
C  5.07800 -5.16500 43.71400
C  5.79400 -4.06800 43.23200
C  4.76200 -3.05600 42.86400
C  5.46200 -6.55600 44.21700
C  7.08800 -3.54000 42.97800
O  8.26300 -3.86300 43.07400
C  6.82500 -2.15200 42.18900
C  7.68800 -1.04800 42.91600
O  8.84500 -0.76500 42.62300
O  7.02400 -0.48000 43.89800
C  7.47800 0.80100 44.36500
H  1.40700 2.01400 41.06000
H  -2.27900 -3.32400 42.32100
H  2.72500 -6.61800 43.92500
H  5.90200 0.81300 41.87200
H  3.95800 1.78500 40.03500
H  5.26700 2.72000 42.51100
H  3.61000 2.62200 42.80200
H  4.01400 3.65500 41.54700
H  7.16100 0.16500 40.02800
H  6.00500 1.26300 39.22400
H  4.75900 -1.28200 39.21400
H  6.31600 -1.50700 38.74500
H  -2.45400 2.25000 41.23200
H  -1.73400 1.87200 39.64700
H  -0.74500 2.74500 40.80300
H  -5.18900 -1.30700 42.57000
H  -3.71300 -1.91400 43.29000
H  -4.04100 -2.36100 41.60000
H  -1.46100 -5.75900 42.04000
H  0.08000 -6.58100 44.38300
H  -3.01900 -6.00500 43.50100
H  -2.63300 -4.37100 44.16000
H  -1.97900 -5.92400 44.91600
H  1.40400 -7.23300 42.07900
H  -0.29500 -7.60300 41.78700
H  1.51700 -9.01800 43.74500
H  0.03400 -9.58900 42.78300
H  -0.10500 -8.75000 44.23700
H  5.70600 -7.27800 43.43800
H  4.76200 -6.95700 44.95000
H  6.39300 -6.36300 44.75000
H  7.15600 -2.34900 41.16900
H  7.75300 0.64700 45.40900
H  6.75100 1.60700 44.27300
H  8.44200 1.14600 43.99200
Mg 6.26300 54.89400 39.56400
C  5.78000 51.38200 39.23600
C  9.63200 54.37900 39.34000
C  6.70000 58.28300 39.32200
C  2.76200 55.36700 39.29300
N  7.51500 53.07800 39.30100
C  7.13800 51.73800 39.25900
C  8.40500 50.88300 39.10400
C  9.59400 51.88100 39.43500
C  8.89300 53.22400 39.29300
C  10.34700 51.72600 40.75900
C  8.59300 50.26400 37.67100
C  8.40000 51.17900 36.51900
H  7.72400 50.53400 35.27000
N  7.97100 56.16100 39.34700
C  9.28500 55.71200 39.22000
C  10.15400 56.92200 39.09500
C  9.35000 58.03900 39.31100
C  7.90700 57.53400 39.35200
C  11.60300 56.78700 38.81000
C  9.84700 59.44500 39.45700
O  10.99500 59.69700 39.55200
C  8.92800 60.65300 39.47400
N  4.92100 56.58400 39.35100
C  5.34100 57.87300 39.36900
C  4.14800 58.89000 39.34900
C  2.90100 57.94800 39.24500
C  3.52700 56.53600 39.23300
C  3.87600 59.82100 40.55800
C  1.96000 58.19400 38.04600
C  0.36600 58.24300 38.31000
N  4.53400 53.69500 39.52600
C  3.22100 53.98000 39.41200
C  2.49700 52.73600 39.52200
C  3.41000 51.68500 39.49000
C  4.67600 52.32300 39.41700
C  1.04800 52.82600 39.61300
C  3.63500 50.20700 39.50300
O  2.91000 49.23400 39.61800
C  5.19800 50.01400 39.32000
C  5.56600 49.03900 38.24000
O  5.42700 49.27500 37.03100
O  6.10400 47.85200 38.71200
C  6.21800 46.78900 37.63900
H  10.72300 54.32000 39.33800
H  6.69000 59.36700 39.18700
H  1.71000 55.65900 39.33100
H  8.37200 50.10300 39.86400
H  10.32300 51.89000 38.62500
H  10.43000 52.56500 41.45000
H  11.36800 51.51800 40.44200
H  9.93200 50.85700 41.26900
H  8.16600 49.26200 37.65300
H  9.67500 50.13200 37.69700
H  9.40100 51.46500 36.19500
H  7.89800 52.13900 36.63500
H  11.73600 55.86200 38.24900
H  12.09500 56.69400 39.77900
H  11.94100 57.56500 38.12500
H  9.58900 61.49800 39.66800
H  8.13200 60.51400 40.20600
H  8.49700 60.68400 38.47300
H  4.07300 59.50300 38.45100
H  2.34500 57.86900 40.17900
H  4.63200 60.60600 40.54100
H  3.97900 59.27600 41.49600
H  2.89700 60.27800 40.41500
H  2.21200 57.37100 37.37700
H  2.24900 59.09500 37.50600
H  0.25700 58.23500 39.39500
H  -0.11600 57.35100 37.91000
H  -0.00000 59.17000 37.86900
H  0.62300 52.42000 38.69500
H  0.61500 53.82500 39.66200
H  0.79300 52.27200 40.51600
H  5.48900 49.66100 40.30900
H  6.95900 47.15400 36.92700
H  5.21900 46.72900 37.20800
H  6.43800 45.78900 38.01300

