158

Mg 48.16800 15.82800 29.02700
C  46.09900 15.79700 31.67800
C  50.55400 17.65700 30.69700
C  50.08300 15.71500 26.20800
C  45.58200 14.16000 27.11600
N  48.27900 16.55000 30.99000
C  47.28600 16.39900 31.95200
C  47.89500 16.82800 33.32200
C  49.09700 17.69200 32.90700
C  49.37300 17.31600 31.39900
C  48.95700 19.24100 33.11100
C  48.27800 15.54500 34.20700
C  48.04500 15.69000 35.74800
H  47.74600 17.10600 36.29500
N  50.12600 16.47500 28.56700
C  50.92100 17.19700 29.46500
C  52.16800 17.47500 28.72800
C  52.09700 16.76700 27.46700
C  50.73600 16.37400 27.35200
C  53.41100 18.04000 29.45000
C  53.10500 16.46400 26.46400
O  52.84500 15.84400 25.43500
C  54.58000 16.79600 26.83300
N  47.88600 15.10700 27.00800
C  48.76000 15.26800 26.05100
C  48.16100 14.95900 24.62100
C  46.92800 14.24000 24.94900
C  46.75900 14.47900 26.46400
C  48.12900 16.21400 23.70600
C  46.95700 12.73800 24.53600
C  46.16900 12.19400 23.42500
N  46.26700 15.10900 29.28400
C  45.37800 14.43000 28.48500
C  44.19400 14.01000 29.16000
C  44.39800 14.51300 30.44200
C  45.68000 15.20000 30.46400
C  43.11900 13.09400 28.62100
C  43.85700 14.54300 31.77900
O  42.79600 14.15600 32.20800
C  45.02700 15.31600 32.69400
C  44.40900 16.44800 33.47900
O  44.05100 17.51100 33.09700
O  44.11800 15.93200 34.74000
C  43.16200 16.65500 35.59000
H  51.35800 18.13600 31.26000
H  50.57800 15.83800 25.24200
H  44.73000 13.80300 26.53300
H  47.15900 17.35600 33.92700
H  50.07200 17.48000 33.34600
H  47.99500 19.55300 33.51800
H  48.91400 19.68100 32.11500
H  49.73300 19.69700 33.72700
H  49.34600 15.59100 33.99600
H  47.85900 14.61100 33.83200
H  48.88400 15.38600 36.37300
H  47.25100 15.04000 36.11500
H  53.06000 18.85800 30.07900
H  54.04600 18.61900 28.78000
H  53.85200 17.20400 29.99300
H  55.02300 16.32900 27.71300
H  54.58800 17.87900 26.94900
H  55.13500 16.56900 25.92300
H  48.77500 14.23700 24.08300
H  46.08600 14.64900 24.38900
H  48.53200 17.04900 24.28000
H  47.11300 16.49400 23.42800
H  48.73800 15.99300 22.82900
H  46.52100 12.17400 25.36100
H  47.96700 12.34100 24.43200
H  46.57800 11.23100 23.12000
H  46.22500 12.94000 22.63200
H  45.11900 12.14300 23.71100
H  43.25000 12.70200 27.61200
H  42.17700 13.62400 28.48300
H  43.02700 12.21300 29.25600
H  45.42300 14.56700 33.38000
H  43.72500 17.41600 36.13000
H  42.73700 16.12500 36.44300
H  42.38600 17.06400 34.94300
Mg 48.43200 34.76800 26.42600
C  46.53400 33.32100 28.92500
C  48.86100 37.59200 28.23400
C  49.28200 36.45500 23.57000
C  47.49000 31.96100 24.21800
N  47.67800 35.39100 28.24600
C  47.08600 34.60400 29.18300
C  47.27300 35.27100 30.52300
C  47.44000 36.76600 30.18700
C  48.07600 36.61500 28.75500
C  46.15900 37.62500 30.18600
C  48.55500 34.68600 31.28300
C  48.44900 34.44500 32.78600
H  47.49000 35.26300 33.66700
N  49.16000 36.65700 25.97700
C  49.34100 37.65700 26.90300
C  50.11500 38.72200 26.30000
C  50.15600 38.45000 24.89800
C  49.55000 37.13100 24.75400
C  50.70600 39.84200 27.20400
C  50.92100 39.16700 23.78800
O  50.85600 38.82900 22.60300
C  51.66700 40.38500 24.11800
N  48.48900 34.24600 24.23700
C  48.76700 35.21300 23.28900
C  48.68100 34.60600 21.85700
C  48.34700 33.10300 22.20800
C  48.13500 33.07400 23.70300
C  47.68600 35.38200 20.90000
C  49.49100 32.23100 21.69900
C  49.29100 31.83300 20.28200
N  47.29400 32.89400 26.54400
C  46.97800 31.93400 25.62000
C  46.17600 30.90300 26.34800
C  46.01700 31.41100 27.63600
C  46.62000 32.62300 27.69400
C  45.65000 29.67400 25.78300
C  45.43800 31.22300 28.94200
O  44.76400 30.26700 29.33700
C  45.60400 32.46000 29.82600
C  46.15300 32.04300 31.12300
O  47.24700 31.63200 31.38500
O  45.20800 32.11700 32.14400
C  45.58600 31.53200 33.49100
H  48.94100 38.51200 28.81600
H  49.72900 36.96900 22.71600
H  47.28300 31.20900 23.45500
H  46.47900 35.17200 31.26400
H  48.09000 37.26300 30.90700
H  45.91300 37.97100 29.18200
H  46.37200 38.53400 30.74800
H  45.36300 37.07100 30.68500
H  49.42700 35.31000 31.08500
H  48.71400 33.70300 30.83900
H  49.45300 34.55900 33.19400
H  48.10900 33.42000 32.93400
H  51.78400 39.93600 27.07500
H  50.51900 39.60000 28.25000
H  50.29500 40.78800 26.85300
H  50.97000 41.22100 24.18200
H  52.26300 40.64400 23.24300
H  52.41900 40.23400 24.89200
H  49.59700 34.57000 21.26800
H  47.37400 32.86100 21.77900
H  46.78500 34.81400 20.66900
H  48.26000 35.56200 19.99100
H  47.28700 36.24100 21.43900
H  49.67600 31.40100 22.38100
H  50.45700 32.73000 21.77300
H  49.89300 32.49300 19.65800
H  48.25000 31.88400 19.96200
H  49.68100 30.82300 20.16200
H  46.43600 29.19600 25.19700
H  44.80100 29.77300 25.10700
H  45.29600 29.10600 26.64400
H  44.66700 32.95600 30.07900
H  46.64900 31.37800 33.67800
H  44.95900 30.67900 33.75000
H  45.35800 32.21600 34.30800

