158

Mg 1.53800 -1.60500 44.35500
C  4.77600 -0.72400 43.40100
C  0.36000 1.27800 42.60000
C  -1.69600 -2.79600 44.37000
C  2.73300 -4.68300 45.52200
N  2.47200 0.12000 43.18600
C  3.80700 0.20900 42.93100
C  4.05600 1.51400 42.11300
C  2.70800 2.31700 42.18200
C  1.79700 1.16800 42.69000
C  2.65400 3.49600 43.19600
C  4.38600 1.15500 40.63300
C  5.53200 2.04000 40.10200
H  5.24400 2.64000 38.72700
N  -0.51400 -0.79300 43.70200
C  -0.71400 0.34800 42.98700
C  -2.09100 0.38500 42.61800
C  -2.78700 -0.73600 43.10400
C  -1.65400 -1.52100 43.76100
C  -2.62600 1.53400 41.77900
C  -4.28800 -1.10800 43.10900
O  -5.02200 -0.40400 42.42700
C  -4.87000 -2.13300 44.00100
N  0.59600 -3.45900 44.91100
C  -0.69700 -3.74000 44.83800
C  -0.92700 -5.15500 45.47600
C  0.45200 -5.82300 45.62600
C  1.35700 -4.56800 45.26400
C  -1.89300 -5.13600 46.75600
C  0.68100 -7.03700 44.73000
C  1.60600 -8.11600 45.36200
N  3.39100 -2.50300 44.64600
C  3.75400 -3.76500 45.12500
C  5.18400 -3.93100 44.99500
C  5.58600 -2.78500 44.32200
C  4.48300 -1.99100 44.11900
C  5.88800 -5.11600 45.40000
C  6.80500 -2.13200 43.80500
O  7.96900 -2.46200 43.74500
C  6.28000 -0.67200 43.27900
C  6.87700 0.47100 43.98700
O  6.75500 0.73900 45.17200
O  7.57900 1.23800 43.04500
C  8.40700 2.30200 43.65500
H  -0.03200 2.23600 42.25200
H  -2.65900 -3.30300 44.45900
H  2.96800 -5.69900 45.84600
H  4.82900 2.00900 42.70200
H  2.38500 2.69600 41.21200
H  2.37200 4.35800 42.59200
H  3.70800 3.57500 43.46300
H  2.04700 3.42500 44.09800
H  3.48400 1.19200 40.02300
H  4.65300 0.10900 40.47900
H  6.47700 1.49700 40.11400
H  5.72100 2.91900 40.71800
H  -2.89900 1.20700 40.77600
H  -2.01000 2.43300 41.80900
H  -3.54100 1.95300 42.19900
H  -5.90100 -1.85100 44.21800
H  -4.46800 -2.00000 45.00500
H  -4.90400 -3.16300 43.64600
H  -1.43100 -5.59000 44.61400
H  0.51000 -6.10000 46.67800
H  -2.86400 -5.57700 46.53000
H  -2.00800 -4.14400 47.19200
H  -1.39700 -5.65400 47.57700
H  1.25000 -6.81200 43.82700
H  -0.30200 -7.48000 44.57100
H  1.97300 -8.72400 44.53500
H  1.02500 -8.92600 45.80400
H  2.43800 -7.69200 45.92500
H  5.85800 -5.91400 44.65800
H  5.43300 -5.50400 46.31200
H  6.90100 -4.76700 45.60200
H  6.57300 -0.61100 42.23100
H  9.26800 2.55300 43.03600
H  8.75200 1.90600 44.61000
H  7.83400 3.20000 43.88600
Mg -13.31700 15.91000 43.43300
C  -10.00600 14.84900 42.61000
C  -12.52000 18.92800 41.99600
C  -16.57200 16.62200 43.45900
C  -13.90400 12.67500 44.62500
N  -11.35400 16.87500 42.49100
C  -10.20400 16.16400 42.17300
C  -9.24100 17.10200 41.42100
C  -10.11700 18.40300 41.22100
C  -11.41500 18.10600 41.94800
C  -9.49200 19.74500 41.70300
C  -8.79500 16.42100 40.05300
C  -7.24300 16.36900 39.92700
H  -6.66000 15.19800 39.20400
N  -14.37700 17.59300 42.84000
C  -13.81300 18.80600 42.52900
C  -14.86600 19.77400 42.35100
C  -16.11300 19.14100 42.62800
C  -15.77000 17.70100 43.02500
C  -14.63300 21.13500 41.77700
C  -17.41000 19.74000 42.48700
O  -17.61600 20.87100 42.02400
C  -18.65600 18.99300 42.84300
N  -15.01900 14.80700 43.86400
C  -16.26500 15.40000 43.96900
C  -17.28400 14.50900 44.79500
C  -16.33300 13.27500 45.12300
C  -14.94900 13.57600 44.45900
C  -17.85100 15.10700 46.10000
C  -16.82000 11.94500 44.49300
C  -17.73800 11.13700 45.39400
N  -12.23800 14.12000 43.61700
C  -12.56200 12.90600 44.16600
C  -11.40900 12.01000 44.13300
C  -10.39200 12.73600 43.53400
C  -10.90000 13.96800 43.31800
C  -11.39000 10.63400 44.61200
C  -9.00400 12.67800 43.19400
O  -8.24700 11.72300 43.34200
C  -8.70500 14.09800 42.64000
C  -7.76100 14.66400 43.60700
O  -7.91400 15.48400 44.50100
O  -6.47200 14.28100 43.18200
C  -5.43400 15.18900 43.72600
H  -12.25700 19.82900 41.43800
H  -17.65000 16.78500 43.52400
H  -14.20100 11.72700 45.07900
H  -8.42400 17.26700 42.12400
H  -10.30100 18.55400 40.15700
H  -10.06700 20.08100 42.56600
H  -9.34000 20.58300 41.02300
H  -8.43800 19.60600 41.94200
H  -9.17700 17.01600 39.22400
H  -9.15900 15.43000 39.77900
H  -6.84100 16.34600 40.94000
H  -6.90700 17.30500 39.48000
H  -15.10100 21.18700 40.79400
H  -13.58200 21.42600 41.77300
H  -15.25500 21.89900 42.24400
H  -18.90900 18.12000 42.24200
H  -19.49000 19.69500 42.84900
H  -18.54500 18.66400 43.87600
H  -18.01200 14.21700 44.03800
H  -16.17100 13.31900 46.20000
H  -17.28800 15.96900 46.45700
H  -17.95000 14.31200 46.84000
H  -18.86100 15.48000 45.93200
H  -16.00000 11.30000 44.17500
H  -17.27700 12.22300 43.54400
H  -18.61400 10.83400 44.82100
H  -18.16800 11.68900 46.22900
H  -17.37500 10.17600 45.75700
H  -10.53500 10.19500 44.09800
H  -12.33100 10.21100 44.25900
H  -11.39900 10.60800 45.70200
H  -8.24600 14.09500 41.65100
H  -4.46000 14.82100 43.40500
H  -5.39500 15.08000 44.81000
H  -5.53800 16.23500 43.43800

