158

Mg 26.41200 50.78100 26.96200
C  24.44900 51.93900 29.59500
C  28.89200 50.14900 29.22900
C  28.53100 50.10800 24.39600
C  23.99000 51.65200 24.66200
N  26.58100 51.00400 29.11100
C  25.62600 51.30700 30.04600
C  25.97000 50.85100 31.50000
C  27.52300 50.53200 31.31800
C  27.68000 50.54100 29.78500
C  28.55200 51.41100 31.96900
C  25.10700 49.63400 32.00400
C  23.99700 49.97600 33.05600
H  24.08500 49.45100 34.52700
N  28.40000 50.25200 26.88800
C  29.25300 49.99000 27.94000
C  30.54000 49.61300 27.42900
C  30.50500 49.82500 25.97900
C  29.10200 50.10800 25.65400
C  31.63900 49.22500 28.39200
C  31.60800 49.64100 24.91800
O  31.41000 49.72500 23.75900
C  32.98500 49.39200 25.41700
N  26.30700 50.97600 24.78700
C  27.24100 50.51300 23.96400
C  26.73900 50.21800 22.54600
C  25.26400 50.74600 22.61600
C  25.14000 51.06200 24.08800
C  27.61000 50.79900 21.42300
C  24.14700 49.78100 22.11000
C  23.01100 50.39500 21.34400
N  24.66100 51.74000 27.09700
C  23.76400 52.04000 26.03400
C  22.53200 52.62600 26.68000
C  22.85000 52.53100 28.07100
C  24.11100 52.11200 28.25100
C  21.28400 53.05600 26.08900
C  22.21900 52.88700 29.36100
O  21.10400 53.33000 29.63600
C  23.22400 52.46400 30.47000
C  23.61800 53.45200 31.46100
O  24.59600 54.11300 31.51500
O  22.59800 53.42400 32.40100
C  22.80600 54.33700 33.49800
H  29.61300 49.96400 30.02800
H  29.14100 49.81300 23.54100
H  23.13900 51.79200 23.99200
H  25.81800 51.68600 32.18400
H  27.71300 49.49900 31.60600
H  29.41700 51.61500 31.33800
H  28.99100 50.85200 32.79600
H  28.11500 52.32500 32.36900
H  25.80100 48.95400 32.49800
H  24.58000 49.30700 31.10800
H  23.00600 49.75000 32.66100
H  23.95700 51.06400 33.10100
H  31.06100 48.83400 29.22900
H  32.04400 50.14900 28.80600
H  32.45100 48.54600 28.13100
H  33.04600 48.41100 25.88700
H  33.28800 50.08900 26.19900
H  33.72800 49.44600 24.62100
H  26.72200 49.14300 22.36200
H  25.22600 51.72600 22.14000
H  28.37300 51.46600 21.82500
H  27.04400 51.34100 20.66500
H  28.16900 49.97000 20.98900
H  23.59300 49.29000 22.91000
H  24.55000 48.94600 21.53600
H  23.04300 50.14600 20.28400
H  23.08300 51.47700 21.46000
H  22.06300 50.05000 21.75600
H  21.33600 54.12100 25.86500
H  20.46000 52.89100 26.78300
H  21.06300 52.46000 25.20400
H  22.85700 51.59300 31.01200
H  23.13100 55.34700 33.24700
H  23.59800 53.97900 34.15500
H  21.83500 54.56800 33.93700
Mg -2.02000 34.77000 25.96400
C  -3.63900 33.06700 28.62600
C  -0.69100 36.89300 28.20000
C  -1.06100 36.50800 23.43100
C  -3.89700 32.58900 23.79400
N  -2.40500 35.00500 28.18500
C  -2.92500 34.17700 29.10500
C  -2.57600 34.61900 30.57400
C  -1.75400 35.96500 30.33500
C  -1.61600 36.00400 28.79100
C  -2.46700 37.18300 30.84900
C  -1.76200 33.51000 31.24400
C  -2.50200 32.45400 32.18400
H  -2.01700 32.31900 33.59000
N  -0.82300 36.37500 25.86100
C  -0.30500 37.13500 26.88300
C  0.69200 38.10900 26.32800
C  0.55600 38.00200 24.88500
C  -0.51100 36.95200 24.65200
C  1.57800 39.07500 27.21700
C  1.32900 38.76200 23.69600
O  1.04400 38.67300 22.51000
C  2.44000 39.74700 24.16700
N  -2.46700 34.61300 23.95500
C  -1.88700 35.51900 23.04700
C  -2.37600 35.21400 21.61100
C  -2.81000 33.70300 21.78300
C  -3.11500 33.62400 23.27200
C  -3.45300 36.17600 21.12100
C  -1.78900 32.66800 21.34200
C  -0.42100 32.45300 22.03700
N  -3.51400 33.09500 26.14700
C  -4.12600 32.33100 25.18000
C  -4.88100 31.29100 25.77500
C  -4.75400 31.47400 27.08000
C  -3.86200 32.65300 27.30400
C  -5.75800 30.28700 25.00000
C  -5.02400 31.04600 28.39600
O  -5.74100 30.07800 28.76400
C  -4.41500 31.99200 29.37700
C  -5.53400 32.64900 30.27400
O  -6.03300 33.73000 30.02300
O  -5.82700 31.92600 31.37800
C  -6.88300 32.47200 32.26100
H  -0.02600 37.41100 28.89400
H  -0.76300 37.20600 22.64500
H  -4.31800 31.85200 23.10700
H  -3.45800 34.80700 31.18700
H  -0.78900 35.85900 30.83200
H  -2.03900 37.27600 31.84700
H  -3.55100 37.06800 30.85600
H  -2.27400 38.06700 30.24200
H  -0.98700 33.99900 31.83400
H  -1.15900 32.96200 30.52000
H  -2.23900 31.49800 31.73000
H  -3.57500 32.63700 32.23700
H  2.64200 38.90700 27.04900
H  1.40700 38.91500 28.28200
H  1.39900 40.13000 27.01100
H  3.06600 39.97600 23.30500
H  3.08800 39.09300 24.75000
H  2.12500 40.58100 24.79400
H  -1.42000 35.34000 21.10200
H  -3.81100 33.56100 21.37500
H  -3.03900 36.53800 20.17900
H  -3.55200 37.05500 21.75800
H  -4.40900 35.68400 20.94300
H  -1.45400 32.97100 20.34900
H  -2.26100 31.69200 21.23300
H  0.45500 32.44800 21.38800
H  -0.59200 31.52500 22.58300
H  -0.17200 33.31500 22.65500
H  -6.46500 30.78500 24.33600
H  -6.33700 29.61600 25.63500
H  -5.00200 29.76200 24.41700
H  -3.84700 31.39400 30.09000
H  -6.28400 32.71100 33.14000
H  -7.55700 31.69600 32.62600
H  -7.51000 33.27700 31.87800

