158

Mg 47.69300 24.93800 28.90300
C  48.37200 27.38800 31.25600
C  46.51000 22.93200 31.42800
C  47.36600 22.66500 26.58300
C  48.96400 27.19000 26.38600
N  47.34200 25.22500 31.05500
C  47.74100 26.28200 31.84200
C  47.29600 26.12300 33.31600
C  46.72800 24.72200 33.33300
C  46.82800 24.24500 31.85600
C  47.50200 23.70300 34.21200
C  46.55900 27.34700 33.92500
C  45.51100 26.95400 35.00700
H  45.23800 27.94600 36.12500
N  46.95200 23.05400 29.03100
C  46.53100 22.39400 30.11800
C  46.05100 21.03000 29.76300
C  46.31700 20.90600 28.30000
C  46.93800 22.22900 27.88200
C  45.51600 19.98800 30.63200
C  46.02700 19.83500 27.28600
O  46.58000 19.76000 26.21100
C  45.15600 18.73700 27.66900
N  48.11800 24.96000 26.76400
C  47.92800 23.82200 26.05900
C  48.21300 24.00800 24.56300
C  48.34200 25.56700 24.55500
C  48.57000 25.93900 25.98700
C  49.43500 23.23600 24.06400
C  47.06700 26.30300 23.97000
C  47.33300 27.16600 22.70100
N  48.54400 26.84100 28.77200
C  49.02000 27.57600 27.75500
C  49.53600 28.84500 28.25700
C  49.42000 28.76800 29.65900
C  48.70000 27.61700 29.89100
C  50.03500 30.06400 27.47800
C  49.70800 29.44900 30.91100
O  50.31900 30.55000 31.03300
C  49.03100 28.53700 32.04100
C  49.96100 28.07700 33.06500
O  50.59900 27.06500 32.89600
O  50.22500 29.04000 34.07700
C  51.38200 28.79400 34.93800
H  46.16100 22.36100 32.29200
H  47.27300 22.05100 25.68500
H  49.29200 27.89900 25.62300
H  48.22700 26.03000 33.87500
H  45.68500 24.68100 33.64800
H  48.15100 23.12700 33.55400
H  46.80700 22.98500 34.64800
H  48.19900 24.18600 34.89800
H  45.99400 27.91800 33.18900
H  47.28100 27.98600 34.43200
H  45.79000 25.93900 35.28800
H  44.54600 26.83400 34.51400
H  44.48800 19.84800 30.30000
H  45.54200 20.16100 31.70800
H  46.12000 19.09300 30.48100
H  45.75100 18.18900 28.39900
H  44.89400 18.24500 26.73200
H  44.30100 19.15400 28.20200
H  47.28800 23.70400 24.07400
H  49.23300 25.82000 23.98000
H  50.25300 23.94300 23.93100
H  49.30900 22.68200 23.13400
H  49.72700 22.61400 24.91100
H  46.61600 26.94500 24.72600
H  46.28900 25.58600 23.70600
H  46.55100 27.92300 22.74600
H  47.22400 26.53100 21.82200
H  48.24300 27.75400 22.82100
H  50.03200 29.79400 26.42200
H  51.01700 30.44000 27.76600
H  49.25500 30.80600 27.65100
H  48.32400 29.09300 32.65600
H  51.19700 27.84700 35.44500
H  51.48100 29.55900 35.70900
H  52.32600 28.78100 34.39200
Mg 9.67800 47.66200 26.09200
C  7.76300 48.06700 28.91400
C  12.50300 48.42500 27.79900
C  11.45500 47.21400 23.20800
C  6.72600 47.52100 24.23500
N  10.13800 48.22500 28.13700
C  9.18400 48.25300 29.17300
C  9.90700 48.30000 30.50100
C  11.27200 48.78100 30.03800
C  11.35100 48.47900 28.57000
C  11.69100 50.24900 30.24600
C  9.83300 47.01700 31.38100
C  9.67500 47.35200 32.89400
H  9.46400 46.22500 33.94800
N  11.69100 47.70600 25.58800
C  12.71600 48.06700 26.48000
C  13.95600 48.15500 25.79300
C  13.64600 47.87300 24.43600
C  12.23200 47.53200 24.37900
C  15.37500 48.52000 26.42400
C  14.60600 47.84200 23.17700
O  14.16600 47.73800 22.05100
C  16.14500 47.84500 23.44800
N  9.19700 47.34000 24.08300
C  10.09800 47.15600 23.13100
C  9.41400 46.72700 21.81000
C  7.88500 46.75600 22.17200
C  7.92400 47.21300 23.60300
C  9.83000 47.42000 20.45800
C  7.27700 45.35900 22.07100
C  7.49700 44.36200 23.20900
N  7.61300 48.00200 26.39900
C  6.52900 47.92300 25.55300
C  5.26000 47.98800 26.30100
C  5.70000 47.98300 27.63700
C  7.12900 48.01100 27.64100
C  3.90200 47.91900 25.69600
C  5.27500 47.93000 28.99800
O  4.12700 47.83900 29.41900
C  6.54200 47.95800 29.91300
C  6.49100 46.66500 30.68200
O  6.90200 45.55900 30.37600
O  5.86300 46.85900 31.92200
C  5.80800 45.68200 32.82200
H  13.45100 48.55500 28.32400
H  12.08200 46.94700 22.35500
H  5.88800 47.32000 23.56400
H  9.33800 49.07000 31.02300
H  11.96300 48.18300 30.63300
H  10.79200 50.80800 30.50700
H  12.24900 50.77700 29.47200
H  12.37300 50.36500 31.08700
H  10.69600 46.35800 31.27700
H  9.02100 46.42600 30.95800
H  8.73700 47.90600 32.89800
H  10.46000 48.02600 33.23800
H  15.46900 48.46900 27.50900
H  15.78000 49.47100 26.07900
H  16.07600 47.74500 26.11500
H  16.30800 46.97700 24.08600
H  16.47200 48.74900 23.96200
H  16.83200 47.83600 22.60100
H  9.74000 45.68900 21.73900
H  7.24200 47.43100 21.60700
H  10.17900 48.38900 20.81600
H  9.09200 47.68900 19.70200
H  10.76000 46.95300 20.13200
H  7.72600 44.90000 21.19000
H  6.20000 45.34200 21.90400
H  6.98000 43.41400 23.06400
H  6.99300 44.74100 24.09900
H  8.48900 44.11800 23.58900
H  3.76600 46.84800 25.84500
H  3.79400 48.05400 24.62000
H  3.19100 48.50100 26.28300
H  6.46400 48.73900 30.66800
H  6.73100 45.10400 32.77700
H  4.91600 45.07900 32.65400
H  5.68000 46.00500 33.85500

