158

Mg 43.69400 41.80100 26.48000
C  42.63500 44.08200 28.82800
C  44.87600 39.77000 28.92500
C  44.49300 39.58400 24.09700
C  42.60400 43.98000 23.97900
N  43.81200 41.97100 28.54200
C  43.11000 42.93800 29.36900
C  43.11600 42.56400 30.82800
C  44.13700 41.35600 30.86600
C  44.31200 41.01600 29.34900
C  45.49700 41.77400 31.56000
C  41.74400 42.24400 31.51100
C  41.31800 43.05100 32.78800
H  42.09200 42.98500 34.09200
N  44.52300 39.82300 26.50900
C  44.98700 39.20200 27.61800
C  45.28700 37.86600 27.27300
C  45.01100 37.73000 25.79400
C  44.67200 39.07900 25.40100
C  45.82600 36.83000 28.26300
C  45.11700 36.60500 24.88200
O  44.89200 36.69700 23.63900
C  45.50600 35.34600 25.41800
N  43.54200 41.71000 24.41000
C  43.99100 40.74900 23.63000
C  43.75700 40.99500 22.13500
C  42.88200 42.27300 22.11500
C  43.03800 42.70100 23.59400
C  45.05400 41.10900 21.35200
C  41.38700 42.08400 21.65200
C  40.51200 41.04300 22.39800
N  43.03100 43.74400 26.33600
C  42.56000 44.51300 25.31200
C  42.18700 45.81100 25.77900
C  42.05400 45.63000 27.11500
C  42.66300 44.41000 27.44900
C  41.81400 46.99900 24.99600
C  41.56500 46.23200 28.34100
O  41.04400 47.31400 28.64100
C  41.95200 45.22100 29.49800
C  42.67800 45.91100 30.55800
O  43.92300 45.99200 30.63600
O  41.82800 46.33500 31.55800
C  42.46200 46.87300 32.78100
H  45.36700 39.19400 29.71200
H  44.68100 38.88000 23.28400
H  42.29400 44.63900 23.16600
H  43.39200 43.37700 31.50000
H  43.69200 40.53000 31.42000
H  45.41200 42.84000 31.77500
H  46.33600 41.68600 30.87100
H  45.63000 41.28600 32.52600
H  41.67500 41.23900 31.92700
H  40.89500 42.40600 30.84600
H  40.27300 42.82800 33.00300
H  41.36600 44.11900 32.57800
H  46.72700 36.36100 27.86600
H  45.04700 36.08300 28.41700
H  46.15300 37.30800 29.18600
H  46.57300 35.37000 25.64200
H  45.33900 34.65500 24.59200
H  44.97800 34.96600 26.29300
H  43.35200 40.10800 21.64700
H  43.32000 43.05000 21.48800
H  45.15800 42.10000 20.90900
H  44.92900 40.38000 20.55100
H  45.95600 40.91900 21.93500
H  41.41700 41.63700 20.65800
H  40.85300 43.03100 21.57600
H  41.13600 40.39600 23.01400
H  39.91800 40.42700 21.72200
H  39.83100 41.62400 23.01900
H  40.87900 46.67000 24.54400
H  42.65300 47.27300 24.35600
H  41.48700 47.77500 25.68800
H  41.03400 44.76500 29.86700
H  43.24800 47.58000 32.51600
H  42.85300 46.01000 33.31900
H  41.69800 47.40200 33.35100
Mg -6.61400 24.58500 25.31800
C  -5.42400 26.24100 28.01600
C  -8.49400 22.53800 27.38000
C  -7.77000 23.21200 22.67200
C  -4.51300 26.85500 23.21800
N  -6.87400 24.35300 27.45400
C  -6.31600 25.23300 28.39300
C  -6.84300 24.94400 29.81300
C  -7.46700 23.44800 29.64100
C  -7.68500 23.41100 28.06800
C  -6.86700 22.25200 30.27400
C  -7.71400 26.03000 30.41100
C  -7.48000 26.27400 31.92900
H  -7.06600 25.08400 32.83000
N  -8.05200 23.15200 25.06200
C  -8.70000 22.42500 25.97100
C  -9.62400 21.56400 25.34500
C  -9.54700 21.75900 23.94100
C  -8.46100 22.78100 23.84000
C  -10.56300 20.59700 26.19000
C  -10.37700 21.17800 22.81300
O  -10.39300 21.52600 21.64800
C  -11.39200 20.08900 23.20600
N  -6.13200 24.94800 23.20500
C  -6.76600 24.09200 22.35200
C  -6.26000 24.31500 20.87500
C  -5.31900 25.56500 21.01200
C  -5.36600 25.84500 22.55300
C  -5.67300 22.93400 20.33900
C  -5.71200 26.85400 20.20700
C  -4.54000 27.55200 19.58800
N  -5.22100 26.24800 25.52900
C  -4.53000 27.04200 24.60800
C  -3.66000 27.98100 25.41200
C  -3.98500 27.71600 26.75700
C  -4.95000 26.68300 26.77600
C  -2.62400 29.03100 24.95700
C  -3.74700 28.05800 28.10300
O  -2.94600 28.88200 28.59400
C  -4.71400 27.18000 28.91600
C  -3.89400 26.32500 29.92000
O  -2.93500 25.57200 29.63100
O  -4.17800 26.64700 31.18000
C  -3.33700 26.22400 32.29000
H  -9.07800 21.86700 28.01300
H  -8.27600 22.75500 21.81800
H  -3.96900 27.53400 22.55800
H  -5.96000 24.79700 30.43600
H  -8.47200 23.44700 30.06200
H  -6.29900 22.52400 31.16400
H  -6.09000 21.84300 29.62800
H  -7.57500 21.52100 30.66300
H  -8.76200 25.80200 30.21600
H  -7.51700 26.91800 29.81100
H  -8.34900 26.86500 32.21600
H  -6.61000 26.93100 31.91100
H  -11.55300 20.39000 25.78300
H  -10.86600 21.07600 27.12100
H  -9.94700 19.72000 26.38700
H  -11.97200 19.69200 22.37300
H  -12.12800 20.63600 23.79500
H  -10.86500 19.34300 23.80100
H  -7.19000 24.55500 20.36100
H  -4.32800 25.15900 20.81000
H  -5.93500 22.10300 20.99500
H  -4.59700 23.06200 20.22000
H  -6.03700 22.58300 19.37300
H  -6.33200 27.48300 20.84500
H  -6.42500 26.51200 19.45600
H  -4.75900 27.52800 18.52000
H  -3.65200 26.92100 19.60200
H  -4.25900 28.50600 20.03500
H  -3.04700 30.01100 24.73400
H  -2.01700 28.55900 24.18500
H  -1.88000 29.15000 25.74400
H  -5.40100 27.77300 29.52100
H  -3.73700 26.71800 33.17500
H  -2.28000 26.43900 32.13600
H  -3.40400 25.14200 32.40900

