158

Mg 43.98500 4.16100 47.69500
C  41.93300 6.86200 46.99900
C  41.21500 2.07400 47.31800
C  46.09700 1.50500 47.55500
C  46.87200 6.20400 47.32600
N  41.77200 4.40500 47.08400
C  41.12500 5.64700 47.02600
C  39.58300 5.49400 46.81700
C  39.44800 3.96900 47.18300
C  40.88800 3.44700 47.23000
C  38.80400 3.77500 48.57500
C  39.06900 5.70100 45.31600
C  38.34300 6.94600 45.08200
H  38.79700 7.80600 43.95300
N  43.69100 2.08700 47.48700
C  42.47200 1.42800 47.36700
C  42.67700 -0.00800 47.28600
C  44.11300 -0.17000 47.27200
C  44.74400 1.19000 47.42300
C  41.56700 -1.04600 47.27300
C  44.78300 -1.57300 47.03400
O  44.20400 -2.64700 46.92600
C  46.23300 -1.72200 46.94700
N  46.23600 3.93500 47.68300
C  46.80700 2.68900 47.72000
C  48.33700 2.81100 47.61600
C  48.59100 4.37700 47.53000
C  47.17000 4.88800 47.53800
C  49.04000 2.12800 48.90400
C  49.52300 4.86400 46.38700
C  51.11200 4.89700 46.47200
N  44.36200 6.12500 47.22300
C  45.56600 6.82800 47.16500
C  45.31500 8.25000 47.06800
C  43.94300 8.28200 47.02600
C  43.35100 6.97500 47.08400
C  46.32800 9.39300 47.04700
C  42.84400 9.18700 46.84000
O  42.90600 10.41500 46.81300
C  41.51000 8.27800 46.83800
C  40.58400 8.74400 47.97900
O  40.68300 8.33300 49.13400
O  39.68400 9.66100 47.54600
C  38.52000 10.03500 48.39200
H  40.27500 1.52800 47.21200
H  46.72200 0.65500 47.27300
H  47.80600 6.77000 47.31000
H  39.13500 6.21100 47.50500
H  38.95100 3.40300 46.39600
H  38.51500 4.63900 49.17500
H  39.57800 3.34000 49.20700
H  37.90800 3.19500 48.35200
H  38.48800 4.83500 44.99600
H  40.00500 5.66000 44.75900
H  38.30500 7.58300 45.96600
H  37.32400 6.62700 44.86400
H  41.72400 -1.74000 48.09900
H  41.52600 -1.59900 46.33400
H  40.57200 -0.60000 47.29900
H  46.58900 -1.01700 46.19500
H  46.47800 -2.76700 46.75700
H  46.73800 -1.53100 47.89400
H  48.54700 2.18600 46.74800
H  49.10200 4.78600 48.40100
H  49.93500 2.71700 49.10400
H  49.44500 1.18400 48.53800
H  48.35600 2.03700 49.74800
H  49.29100 5.90800 46.17700
H  49.31500 4.43500 45.40600
H  51.41300 4.53700 47.45600
H  51.48800 5.89100 46.23000
H  51.47100 4.18000 45.73300
H  46.04900 10.15400 46.31900
H  47.30800 9.03700 46.72900
H  46.26900 9.84300 48.03800
H  40.98000 8.42400 45.89700
H  38.94100 10.25500 49.37300
H  37.86100 9.19700 48.62200
H  37.97000 10.89600 48.01200
Mg 29.95800 58.48900 41.68700
C  27.14800 56.80700 40.19800
C  31.96800 56.46700 39.82800
C  32.45100 60.60800 42.20500
C  27.70700 60.88800 42.91000
N  29.49900 56.81100 40.17300
C  28.38000 56.33700 39.62300
C  28.62700 55.12500 38.70200
C  30.19700 54.99700 38.69700
C  30.58100 56.19400 39.61900
C  30.73400 53.67400 39.23500
C  27.96800 55.30600 37.32000
C  28.64300 54.54900 36.12800
H  27.74400 54.35200 34.94700
N  31.93600 58.46300 41.27200
C  32.58000 57.48100 40.53200
C  34.00300 57.74400 40.45300
C  34.20600 58.91400 41.26600
C  32.84000 59.36900 41.61900
C  35.04400 56.98800 39.63800
C  35.52700 59.53100 41.69800
O  36.55100 59.02400 41.22700
C  35.63000 60.65200 42.71900
N  30.07000 60.55200 42.46400
C  31.22500 61.13500 42.63500
C  31.02500 62.54700 43.21800
C  29.47000 62.73800 43.24800
C  29.03700 61.30600 42.88100
C  31.73100 62.75500 44.55200
C  28.92800 63.76200 42.20700
C  27.43600 64.08700 42.41300
N  27.91600 58.75700 41.72200
C  27.10400 59.73000 42.27000
C  25.71300 59.39500 42.11700
C  25.73300 58.24200 41.27500
C  27.06700 57.90800 41.05500
C  24.43400 60.08000 42.58800
C  24.82400 57.25600 40.65500
O  23.59400 57.24600 40.67700
C  25.65000 56.35900 39.86600
C  25.51800 54.94900 40.40400
O  25.75700 54.45800 41.50700
O  25.03100 54.17400 39.33800
C  24.71800 52.78200 39.65900
H  32.57700 55.69500 39.35400
H  33.29900 61.27300 42.38200
H  27.01900 61.63700 43.30800
H  28.22400 54.20800 39.13200
H  30.67700 55.11900 37.72600
H  29.90900 52.97100 39.35100
H  31.12300 53.81100 40.24400
H  31.52400 53.37400 38.54700
H  27.94100 56.35700 37.03400
H  26.91700 55.02500 37.39600
H  28.96400 53.57600 36.49900
H  29.53900 55.10700 35.85600
H  35.28500 57.67700 38.82800
H  34.62700 56.13800 39.09900
H  35.87400 56.73400 40.29800
H  36.69200 60.65700 42.96400
H  34.94200 60.44200 43.53800
H  35.27300 61.57600 42.26400
H  31.52500 63.17700 42.48200
H  29.16000 62.96400 44.26900
H  32.45800 63.56400 44.48100
H  32.22400 61.81400 44.79200
H  31.05900 62.94500 45.38900
H  29.01900 63.13900 41.31700
H  29.48200 64.69300 42.08400
H  26.80100 63.39900 41.85500
H  27.11900 65.07700 42.08600
H  27.18200 63.91600 43.45900
H  24.63200 61.14300 42.45300
H  24.55600 59.82200 43.64000
H  23.50700 59.73200 42.13300
H  25.41100 56.51700 38.81500
H  25.58000 52.11500 39.67900
H  24.20500 52.36400 38.79300
H  24.17100 52.62600 40.58900

