158

Mg 26.77500 50.78600 26.22000
C  24.94200 52.12000 28.78200
C  29.20100 49.81700 28.48300
C  28.56800 49.55700 23.69300
C  24.50900 52.19600 23.94200
N  26.97200 50.89500 28.33400
C  26.05100 51.40100 29.23600
C  26.44700 51.09000 30.70900
C  27.93500 50.61900 30.53200
C  28.05500 50.35300 29.05900
C  29.11400 51.67100 30.78800
C  25.50500 49.99900 31.42700
C  25.10800 50.27500 32.87600
H  26.14200 50.65200 33.94000
N  28.59600 49.86400 26.16000
C  29.53100 49.57100 27.15100
C  30.66900 49.00200 26.64100
C  30.33700 48.60100 25.35100
C  29.14100 49.36800 24.99000
C  31.84400 48.72300 27.51400
C  30.99800 47.71700 24.45400
O  30.53300 47.42100 23.36200
C  32.25600 46.97900 24.84900
N  26.66100 51.06900 24.20100
C  27.43900 50.30900 23.35200
C  27.01500 50.47700 21.84800
C  25.61100 51.10800 22.01000
C  25.58500 51.46800 23.54000
C  28.00100 51.24700 20.93200
C  24.40800 50.07800 21.82400
C  23.14100 50.64200 21.22300
N  25.12300 52.01400 26.30000
C  24.26700 52.50800 25.31600
C  23.08900 53.18100 25.91300
C  23.35100 53.05000 27.28000
C  24.59100 52.39300 27.43700
C  21.95400 53.69100 25.22000
C  22.82200 53.29200 28.61400
O  21.73600 53.82500 28.93000
C  23.85800 52.65600 29.58500
C  24.33200 53.64900 30.61200
O  25.06800 54.61400 30.39400
O  23.75900 53.43800 31.84500
C  24.27600 54.15400 33.03900
H  29.88300 49.39900 29.22700
H  29.08100 49.10200 22.84300
H  23.88000 52.67000 23.18600
H  26.31500 51.94200 31.37500
H  28.14800 49.78300 31.19900
H  29.61100 52.16900 29.95500
H  29.87500 51.27400 31.46000
H  28.65400 52.57100 31.19600
H  26.09100 49.08300 31.49300
H  24.66600 49.90100 30.73900
H  24.87500 49.28100 33.25600
H  24.17900 50.84500 32.87100
H  31.84700 47.67400 27.81100
H  31.88100 49.37700 28.38500
H  32.79700 49.00300 27.06400
H  31.98400 46.34800 25.69500
H  33.03100 47.71200 25.07500
H  32.58200 46.29700 24.06400
H  26.95700 49.46000 21.46000
H  25.55900 52.01700 21.41000
H  28.11500 50.72200 19.98400
H  28.90600 51.35800 21.53000
H  27.60200 52.25000 20.78000
H  24.02800 49.72500 22.78300
H  24.68600 49.21400 21.22100
H  22.84900 50.04300 20.35900
H  23.28000 51.70700 21.04000
H  22.24900 50.43000 21.81200
H  21.11700 53.82500 25.90500
H  21.63600 52.90800 24.53100
H  22.23400 54.59700 24.68300
H  23.33400 51.82500 30.05600
H  25.28900 54.54100 32.93400
H  24.18900 53.49300 33.90100
H  23.61200 54.98200 33.28900
Mg -4.96800 25.94700 26.72900
C  -3.80400 27.52300 29.55900
C  -6.65200 23.83100 28.57200
C  -5.71200 24.32800 23.84200
C  -2.69400 27.97400 24.78900
N  -5.19500 25.75100 28.89600
C  -4.74600 26.53100 29.88400
C  -5.37400 26.18800 31.22000
C  -6.08900 24.78100 30.87300
C  -6.03000 24.78400 29.30800
C  -5.43200 23.50900 31.52500
C  -6.33100 27.27800 31.79200
C  -6.14000 27.67900 33.20400
H  -5.72700 26.66000 34.29600
N  -6.15100 24.39600 26.26700
C  -6.74300 23.64000 27.16300
C  -7.62900 22.65200 26.45300
C  -7.44000 22.84300 25.11900
C  -6.42900 23.97200 24.97500
C  -8.41500 21.56500 27.14400
C  -8.06800 22.10700 23.92200
O  -7.81000 22.53000 22.78900
C  -9.02000 20.93800 24.17200
N  -4.21600 26.12700 24.64200
C  -4.65700 25.25400 23.66900
C  -3.95500 25.42200 22.33500
C  -3.03900 26.62400 22.61800
C  -3.40100 27.01300 24.08400
C  -3.29600 24.18700 21.78700
C  -3.28100 27.79900 21.63300
C  -1.97900 28.12200 20.96300
N  -3.51400 27.51700 27.07700
C  -2.71600 28.22000 26.18600
C  -1.99500 29.17100 26.97900
C  -2.39000 28.97400 28.31500
C  -3.28300 27.93100 28.30300
C  -1.03000 30.23700 26.46200
C  -2.28400 29.38200 29.75000
O  -1.57700 30.26800 30.20800
C  -3.17300 28.43200 30.58400
C  -2.22800 27.68700 31.54000
O  -1.57800 26.67500 31.22900
O  -2.19500 28.29300 32.75300
C  -1.20000 27.71900 33.72900
H  -7.07400 23.01300 29.16000
H  -5.81400 23.71300 22.94600
H  -2.18800 28.74700 24.20700
H  -4.61700 25.99300 31.97900
H  -7.15800 24.73800 31.08400
H  -6.16200 22.89500 32.05300
H  -4.57600 23.84000 32.11300
H  -5.02800 22.88800 30.72600
H  -7.34900 26.91600 31.64300
H  -6.11000 28.18900 31.23500
H  -7.14200 27.98100 33.50900
H  -5.30500 28.37300 33.10600
H  -8.01400 20.58500 26.88300
H  -9.47400 21.73600 26.94700
H  -8.42900 21.72500 28.22200
H  -8.59900 20.26300 24.91600
H  -9.05400 20.45500 23.19500
H  -9.92400 21.48000 24.44900
H  -4.76400 25.69500 21.65800
H  -2.01200 26.26200 22.67000
H  -4.00000 23.74600 21.08100
H  -3.28000 23.47800 22.61400
H  -2.29600 24.32800 21.37700
H  -3.72600 28.63300 22.17400
H  -3.81800 27.46100 20.74600
H  -1.40100 28.73300 21.65600
H  -2.08100 28.35900 19.90400
H  -1.19100 27.37200 21.02800
H  -1.49200 30.97900 25.81000
H  -0.39000 29.78000 25.70700
H  -0.51200 30.67200 27.31700
H  -3.84700 29.06900 31.15600
H  -1.60400 26.74000 33.99000
H  -1.37400 28.25200 34.66400
H  -0.19600 27.69800 33.30700

