158

Mg 55.23700 24.64900 45.06200
C  52.25800 26.51000 43.97900
C  53.71500 21.84500 44.12400
C  58.15800 23.23500 45.66900
C  56.70300 27.92800 45.54400
N  53.33300 24.31400 43.94600
C  52.29500 25.10600 43.59100
C  51.25800 24.36200 42.89400
C  51.54100 22.89800 43.48900
C  52.98900 23.01800 43.85300
C  50.66700 22.48900 44.74900
C  51.47500 24.49200 41.37900
C  50.30700 25.04300 40.59100
H  50.10200 24.42900 39.22500
N  55.91300 22.77800 44.89100
C  55.12500 21.69700 44.47800
C  55.88900 20.46100 44.65600
C  57.19200 20.87600 45.11700
C  57.13200 22.35500 45.32300
C  55.30900 19.12800 44.36600
C  58.36400 19.79400 45.29900
O  58.15400 18.63300 44.98000
C  59.72500 20.23900 45.65900
N  57.23600 25.51200 45.44300
C  58.29200 24.62600 45.69900
C  59.52000 25.44500 46.08900
C  58.97300 26.94600 46.15000
C  57.57600 26.80100 45.70900
C  60.24900 24.95400 47.43600
C  59.71800 27.87400 45.18900
C  60.64300 28.87900 45.77400
N  54.63100 26.74600 45.02400
C  55.33500 27.91900 45.31800
C  54.43500 28.99800 45.37100
C  53.26400 28.53500 44.76300
C  53.39500 27.14000 44.57700
C  54.68500 30.37900 45.81300
C  51.87700 28.92800 44.46100
O  51.25000 30.00200 44.55800
C  51.23100 27.60900 43.84900
C  50.73400 28.01600 42.49800
O  51.46900 28.35200 41.49600
O  49.38200 28.08600 42.53400
C  48.82400 28.58200 41.32100
H  53.17900 20.90200 43.99300
H  59.00200 22.65700 46.05200
H  57.16900 28.86900 45.84200
H  50.29500 24.82200 43.11500
H  51.41400 22.12500 42.73000
H  50.03700 23.33600 45.02400
H  51.29400 22.23600 45.60400
H  50.03900 21.66800 44.40600
H  51.51400 23.46100 41.02600
H  52.38500 25.03800 41.12700
H  50.54600 26.08500 40.37800
H  49.38600 24.95700 41.16700
H  54.31900 19.12400 44.82200
H  55.91300 18.24200 44.56000
H  55.19400 19.09200 43.28200
H  60.20700 19.30400 45.94600
H  59.68600 20.79200 46.59800
H  60.09800 20.84000 44.83000
H  60.34400 25.23200 45.40700
H  59.00000 27.40800 47.13700
H  60.40100 25.77500 48.13600
H  61.25200 24.58500 47.22100
H  59.63300 24.26200 48.01000
H  59.00700 28.29000 44.47600
H  60.37300 27.27000 44.56100
H  61.17700 29.34800 44.94700
H  61.34300 28.40400 46.46100
H  60.04700 29.61800 46.31000
H  53.80700 30.97700 45.56700
H  55.53000 30.77000 45.24700
H  54.75600 30.47000 46.89600
H  50.34800 27.30800 44.41200
H  49.24400 29.57300 41.14800
H  47.75000 28.46100 41.46100
H  49.10800 28.06800 40.40300
Mg 17.56100 52.16900 26.02100
C  19.39800 50.50100 28.59400
C  15.30800 52.90500 28.34600
C  15.69600 53.11300 23.50200
C  19.97200 50.70900 23.74700
N  17.54500 51.85200 28.19400
C  18.35900 51.20100 29.07200
C  18.00200 51.57600 30.53600
C  16.54800 52.06500 30.35100
C  16.45900 52.27000 28.87800
C  15.53000 51.09500 30.87700
C  19.06700 52.56800 31.16400
C  19.22600 52.58900 32.72800
H  18.17900 51.93200 33.60900
N  15.79900 52.99100 25.91500
C  14.94700 53.22100 27.00000
C  13.79800 53.88700 26.65800
C  13.83100 53.99900 25.22700
C  15.14000 53.37500 24.76200
C  12.79000 54.44300 27.66800
C  12.85500 54.61400 24.23500
O  13.05300 54.72100 23.02400
C  11.54500 55.24600 24.79700
N  17.78200 51.99000 23.88800
C  16.89600 52.54900 23.10700
C  17.34500 52.43300 21.60900
C  18.77900 51.79300 21.72300
C  18.84100 51.36400 23.17800
C  16.43900 51.74200 20.60100
C  19.82400 52.76300 21.26400
C  20.92500 52.09100 20.39300
N  19.30500 50.90900 26.16800
C  20.20500 50.51100 25.15100
C  21.32800 49.74800 25.70500
C  21.05200 49.73600 27.09100
C  19.78500 50.44600 27.25200
C  22.37100 49.13900 25.01200
C  21.48200 49.26500 28.42700
O  22.41500 48.61600 28.76500
C  20.48600 49.84300 29.40200
C  20.04100 48.72200 30.29100
O  19.45000 47.73200 29.91800
O  20.37600 49.03200 31.61600
C  19.82300 48.16200 32.62300
H  14.66900 53.29000 29.14400
H  15.01800 53.58000 22.78400
H  20.69900 50.36900 23.00700
H  18.06500 50.65300 31.11100
H  16.46200 53.05200 30.80600
H  14.76800 51.76900 31.26900
H  15.97400 50.57600 31.72600
H  15.13200 50.44100 30.10000
H  18.68000 53.46700 30.68300
H  20.06700 52.44100 30.74900
H  19.23900 53.65200 32.96600
H  20.19900 52.17000 32.98500
H  11.79200 54.33600 27.24300
H  12.94800 55.51800 27.75600
H  12.82100 54.17800 28.72500
H  11.69400 56.06800 25.49700
H  10.96900 54.38300 25.13100
H  10.95300 55.79200 24.06300
H  17.38700 53.48400 21.32400
H  18.69300 50.86100 21.16500
H  16.86100 50.92200 20.01900
H  16.18000 52.47100 19.83300
H  15.57000 51.22300 21.00400
H  20.25700 53.11900 22.19800
H  19.28400 53.53400 20.71400
H  21.92100 52.14100 20.83200
H  20.89500 52.54300 19.40200
H  20.77700 51.01900 20.26200
H  23.35700 49.60200 25.05800
H  22.16300 48.97300 23.95500
H  22.54200 48.17800 25.49700
H  20.91300 50.58200 30.07900
H  20.21400 48.26900 33.63500
H  20.24100 47.17700 32.41700
H  18.73800 48.18500 32.52100

