158

Mg 47.39600 24.23900 28.21800
C  48.15200 26.48400 30.98500
C  46.65100 21.82700 30.41900
C  47.19600 22.22000 25.59200
C  48.39500 26.98300 26.05600
N  47.35700 24.22900 30.51600
C  47.69400 25.25900 31.41000
C  47.43500 24.74000 32.80200
C  47.00100 23.19500 32.59400
C  46.92800 23.06300 31.05900
C  47.86100 22.13800 33.31000
C  46.42400 25.62600 33.47500
C  46.69300 25.86200 34.99000
H  45.54700 25.85800 36.02500
N  46.88200 22.27200 28.05200
C  46.53500 21.44600 29.09700
C  46.22900 20.16600 28.53400
C  46.41500 20.23200 27.15800
C  46.89400 21.60200 26.85700
C  45.90900 18.94500 29.36500
C  46.20800 19.13300 26.14000
O  46.48300 19.33400 24.95200
C  45.52000 17.76200 26.53600
N  47.69300 24.59500 26.14800
C  47.61300 23.54000 25.28400
C  47.92200 24.03200 23.84700
C  47.91600 25.61500 23.94100
C  48.02200 25.78900 25.48600
C  49.35200 23.52900 23.36300
C  46.69800 26.38900 23.35200
C  45.29000 26.11300 23.94700
N  48.08700 26.31300 28.41200
C  48.48200 27.26600 27.43300
C  48.88700 28.47400 28.07900
C  48.79100 28.17500 29.42800
C  48.34500 26.84400 29.62400
C  49.29500 29.79900 27.52200
C  49.02900 28.77700 30.70900
O  49.36800 29.95100 30.90000
C  48.71400 27.63000 31.82200
C  50.01100 27.20400 32.45900
O  50.87500 26.52200 31.97600
O  50.07100 27.72700 33.69300
C  51.25900 27.29100 34.47100
H  46.31400 21.08800 31.14900
H  47.27600 21.63300 24.67500
H  48.56600 27.90200 25.49000
H  48.42900 24.93400 33.20600
H  45.98800 22.97700 32.93200
H  48.43300 22.68500 34.06000
H  48.60500 21.85500 32.56500
H  47.43400 21.29300 33.84800
H  45.43600 25.24300 33.22100
H  46.34100 26.60600 33.00500
H  47.21000 26.81900 35.05500
H  47.42200 25.15000 35.37600
H  44.87600 18.67600 29.14500
H  45.96300 19.16700 30.43100
H  46.59700 18.13100 29.13600
H  45.22200 17.18400 25.66200
H  44.57500 17.90600 27.05900
H  46.15500 17.17600 27.20100
H  47.20900 23.79100 23.05900
H  48.69300 25.93700 23.24700
H  49.30900 23.25000 22.31000
H  49.86200 22.76400 23.94800
H  50.12600 24.29500 23.40000
H  46.79300 26.20900 22.28200
H  46.86700 27.44400 23.56500
H  45.45000 25.34500 24.70400
H  44.64600 25.71800 23.16200
H  44.79500 26.96800 24.40800
H  48.76400 29.76700 26.57100
H  50.36800 29.89700 27.35800
H  48.85500 30.57100 28.15400
H  48.02300 27.95200 32.60100
H  52.08200 27.59800 33.82500
H  51.20700 26.24900 34.78400
H  51.26500 27.96100 35.33100
Mg 47.29400 45.25400 41.75000
C  43.98500 44.02600 42.39600
C  48.26400 41.98400 41.49000
C  50.20300 46.40600 40.40200
C  45.86500 48.45700 41.69600
N  46.20900 43.25800 41.72800
C  44.88600 42.99300 42.05500
C  44.54400 41.50700 42.16800
C  46.01200 40.92800 42.25700
C  46.91400 42.11100 41.88100
C  46.48600 40.44500 43.63000
C  43.69200 40.94000 41.04900
C  43.39600 41.83400 39.76900
H  43.47500 41.19500 38.36300
N  48.98600 44.31300 41.10600
C  49.22100 42.94300 41.11800
C  50.59900 42.74600 40.72000
C  51.07600 44.03900 40.27800
C  50.03800 44.99000 40.53100
C  51.30000 41.48500 40.61600
C  52.38200 44.18700 39.50100
O  53.16500 43.29500 39.29300
C  52.70600 45.55100 38.78500
N  47.94900 47.12100 41.12900
C  49.28900 47.37900 40.71800
C  49.52400 48.92500 40.77300
C  48.11400 49.44900 41.38100
C  47.20200 48.29100 41.27800
C  50.70200 49.25900 41.66200
C  47.80400 50.88100 40.89600
C  47.28200 51.77200 42.02400
N  45.32800 46.13600 41.96800
C  44.97100 47.49600 41.94100
C  43.57100 47.62800 42.35700
C  43.10300 46.24900 42.53000
C  44.19700 45.42500 42.28800
C  42.83100 48.89200 42.45500
C  41.97100 45.42900 42.84200
O  40.81700 45.70900 43.04000
C  42.54700 43.94800 42.82800
C  42.47700 43.53100 44.22000
O  42.80800 44.22400 45.18500
O  41.98900 42.25200 44.15700
C  41.93100 41.60500 45.52400
H  48.54400 40.93100 41.55900
H  51.17300 46.81800 40.11600
H  45.49600 49.46200 41.90800
H  43.99300 41.53700 43.10800
H  46.17900 40.13900 41.52300
H  46.69700 41.23600 44.35000
H  47.36100 39.80500 43.52400
H  45.67000 39.85700 44.05100
H  42.77400 40.50100 41.43900
H  44.29300 40.07200 40.77900
H  43.97100 42.75200 39.88900
H  42.35800 42.16800 39.78500
H  51.29700 41.05500 39.61400
H  50.74300 40.68800 41.10800
H  52.24500 41.32800 41.13700
H  52.03900 46.11900 38.13700
H  53.48600 45.09600 38.17500
H  53.16600 46.17200 39.55400
H  49.67300 49.31600 39.76700
H  48.30400 49.58000 42.44600
H  51.55300 48.83700 41.12800
H  50.59200 48.69500 42.58900
H  50.72200 50.30600 41.96300
H  47.22700 50.96100 39.97500
H  48.77900 51.27100 40.60500
H  48.02700 52.56700 42.02200
H  47.31300 51.44900 43.06400
H  46.26000 52.13500 41.91200
H  43.34500 49.69300 42.98600
H  41.88500 48.66600 42.94600
H  42.64000 49.22600 41.43500
H  41.89000 43.33700 42.20900
H  41.81600 40.54600 45.29500
H  41.21700 42.03600 46.22600
H  42.90100 41.70200 46.01200

