158

Mg 8.47400 3.29600 27.24400
C  9.97400 1.93200 30.03400
C  6.58100 5.37300 29.21600
C  7.37600 4.85300 24.51800
C  10.03200 0.87700 25.18400
N  8.06400 3.34200 29.46100
C  8.97200 2.90300 30.38400
C  8.69900 3.47600 31.79500
C  7.46800 4.42600 31.48700
C  7.36500 4.42300 29.95900
C  6.12800 3.97800 32.16000
C  9.94000 4.20400 32.47000
C  9.74400 4.79800 33.79300
H  10.74300 4.24200 34.93800
N  7.11700 4.92900 26.92100
C  6.49500 5.68600 27.86400
C  5.68100 6.67700 27.22400
C  6.09500 6.68200 25.81500
C  6.95300 5.46800 25.69400
C  4.78000 7.59600 27.97300
C  5.65700 7.59000 24.59800
O  5.92600 7.33700 23.44100
C  4.70300 8.74700 24.96400
N  8.49400 2.78700 25.14500
C  7.94800 3.62500 24.21100
C  7.92900 2.97600 22.75000
C  8.75000 1.65900 22.97400
C  9.13000 1.76800 24.52400
C  6.44900 2.81000 22.26500
C  10.07400 1.65500 22.26300
C  10.36300 0.42900 21.31700
N  9.67800 1.72600 27.50400
C  10.27000 0.83400 26.59300
C  11.25100 0.00100 27.24200
C  11.23300 0.44800 28.61900
C  10.21100 1.45300 28.68900
C  12.10000 -1.03000 26.56000
C  11.82300 0.30800 29.97200
O  12.67800 -0.50400 30.41300
C  11.00100 1.25000 30.89700
C  10.36000 0.45700 32.03300
O  9.57300 -0.41300 31.86800
O  10.91600 0.77900 33.29500
C  10.49600 0.00200 34.46600
H  6.09100 6.03500 29.93300
H  7.14900 5.34700 23.57100
H  10.60600 0.20500 24.54100
H  8.53400 2.54500 32.33700
H  7.65700 5.45600 31.78800
H  6.42900 3.30500 32.96200
H  5.53100 3.50800 31.37800
H  5.56100 4.86400 32.44500
H  10.42600 4.95000 31.84100
H  10.69600 3.41900 32.50800
H  8.73400 4.66200 34.18200
H  10.02800 5.84400 33.67800
H  5.14300 8.62400 27.99200
H  4.41500 7.23900 28.93600
H  3.87000 7.75800 27.39600
H  3.72300 8.45300 25.34200
H  4.47600 9.30700 24.05700
H  5.23800 9.38300 25.66800
H  8.43400 3.59500 22.00900
H  8.18400 0.74200 22.81300
H  6.47200 1.96700 21.57400
H  5.98900 3.68100 21.79600
H  5.94000 2.50700 23.18000
H  10.89600 1.89400 22.93700
H  10.17600 2.53600 21.62900
H  10.34000 0.64300 20.24800
H  9.65600 -0.35000 21.60300
H  11.32500 -0.01300 21.57800
H  12.90700 -0.72000 25.89600
H  11.45900 -1.74300 26.04200
H  12.56500 -1.68500 27.29800
H  11.78200 1.82200 31.39800
H  9.62900 -0.64400 34.32300
H  10.24800 0.71700 35.25000
H  11.35700 -0.53600 34.86200
Mg 53.80500 25.09300 45.85300
C  51.18400 27.20000 44.68600
C  52.17900 22.39200 44.45900
C  56.78700 23.41500 45.64100
C  55.52200 28.09500 46.45800
N  51.91800 24.93700 44.73700
C  50.97600 25.89000 44.34300
C  49.82600 25.24000 43.62000
C  49.98200 23.72000 44.03000
C  51.54900 23.64700 44.39400
C  49.05900 23.34500 45.14200
C  49.87500 25.44200 42.08300
C  48.50400 25.37100 41.43500
H  48.34300 24.49600 40.13600
N  54.40800 23.12900 45.30500
C  53.51000 22.18600 44.80900
C  54.19800 20.90100 44.71700
C  55.57700 21.18300 44.96600
C  55.66100 22.64900 45.34300
C  53.53600 19.56700 44.33400
C  56.65800 20.05400 44.79200
O  56.28400 18.88000 44.61300
C  58.04600 20.35100 44.96200
N  55.90300 25.70600 45.86700
C  56.92100 24.73200 45.90800
C  58.21900 25.43200 46.35200
C  57.85300 26.96800 46.45700
C  56.34700 26.93900 46.30700
C  58.83500 24.78800 47.66100
C  58.70700 27.92900 45.59800
C  58.92500 29.40600 46.18800
N  53.47000 27.22500 45.80100
C  54.16100 28.33300 46.19400
C  53.30100 29.47700 46.27500
C  52.08100 29.05500 45.75800
C  52.31700 27.74500 45.32600
C  53.64200 30.80900 46.83400
C  50.75600 29.43600 45.40700
O  50.08300 30.44400 45.52700
C  50.15800 28.28000 44.60300
C  49.89500 28.77000 43.27100
O  50.68700 29.24000 42.41400
O  48.54800 28.57000 43.08700
C  47.98100 28.96600 41.77600
H  51.69700 21.53900 43.97700
H  57.76400 22.92700 45.63400
H  56.04200 28.94500 46.90600
H  48.87800 25.63100 43.98700
H  49.80500 23.00600 43.22500
H  49.57100 23.45700 46.09800
H  48.68400 22.32900 45.02100
H  48.17000 23.97300 45.20100
H  50.38800 24.56400 41.69000
H  50.29800 26.43700 41.94800
H  48.36800 26.40700 41.12300
H  47.76800 25.00200 42.14900
H  53.79200 19.06900 43.39800
H  52.44600 19.53500 44.32600
H  53.80900 18.79800 45.05600
H  58.57800 19.42800 44.73200
H  58.13600 20.59700 46.02000
H  58.34000 21.18300 44.32300
H  58.86400 25.34200 45.47800
H  58.16200 27.24600 47.46400
H  58.14800 23.98900 47.94000
H  58.98400 25.44600 48.51700
H  59.77300 24.37900 47.28600
H  58.30100 28.12400 44.60500
H  59.68000 27.52500 45.31900
H  59.11700 30.08500 45.35700
H  59.64700 29.27900 46.99500
H  57.99600 29.70200 46.67500
H  54.30300 30.86300 47.70000
H  52.68200 31.14900 47.22300
H  53.95900 31.46800 46.02600
H  49.17900 28.06200 45.02900
H  48.73300 29.09900 40.99800
H  47.49000 29.93600 41.85600
H  47.31300 28.23600 41.31800

