158

Mg -0.70100 44.04500 26.33400
C  1.74400 43.74800 28.77400
C  -3.17900 43.83300 28.77000
C  -3.02700 43.87900 23.88100
C  1.75200 44.23400 23.90400
N  -0.67300 43.95900 28.53600
C  0.48400 43.78700 29.35100
C  0.05200 43.64800 30.79900
C  -1.47700 43.56600 30.67900
C  -1.79900 43.84200 29.20900
C  -2.15300 42.35100 31.37100
C  0.49000 44.96900 31.45400
C  0.13400 45.18700 32.87700
H  -0.12000 44.04700 33.84300
N  -2.80800 43.83900 26.35100
C  -3.62900 43.80700 27.43600
C  -4.95900 43.72000 27.00700
C  -4.98500 43.73100 25.58600
C  -3.58800 43.72500 25.17500
C  -6.11000 43.67200 27.98800
C  -6.15000 43.67300 24.61100
O  -6.03800 43.75300 23.36100
C  -7.64200 43.59600 25.12700
N  -0.64400 43.91000 24.20600
C  -1.72300 43.90400 23.43300
C  -1.41900 44.08000 21.98200
C  0.10400 44.48100 21.98400
C  0.48100 44.19600 23.46100
C  -1.59900 42.83900 21.08700
C  0.24300 45.96600 21.63900
C  1.62500 46.35800 21.05400
N  1.34700 44.05600 26.26600
C  2.23200 44.10800 25.23800
C  3.62000 44.00200 25.72500
C  3.42300 43.76200 27.10100
C  2.05300 43.83300 27.38800
C  4.84900 44.33900 25.01500
C  4.20100 43.56800 28.30700
O  5.39300 43.39600 28.51400
C  3.16200 43.63000 29.45700
C  3.24500 42.41300 30.30700
O  2.79900 41.30500 29.93100
O  3.80500 42.71200 31.52800
C  4.20800 41.56600 32.39600
H  -3.91900 43.59300 29.53700
H  -3.74200 43.77500 23.06200
H  2.50300 44.28900 23.11300
H  0.59400 42.86900 31.33500
H  -1.84500 44.46300 31.17700
H  -2.85100 41.79400 30.74600
H  -2.72600 42.69300 32.23300
H  -1.46000 41.57400 31.69200
H  -0.07900 45.72900 30.91900
H  1.55700 45.18700 31.40400
H  -0.72600 45.85600 32.86900
H  1.02600 45.72400 33.19900
H  -6.78600 44.45700 27.65000
H  -5.87200 43.89500 29.02800
H  -6.48700 42.65100 27.92700
H  -8.36600 43.32000 24.36000
H  -7.73600 44.62300 25.48000
H  -7.78300 42.82600 25.88600
H  -2.06800 44.88900 21.64700
H  0.60100 43.81400 21.28000
H  -1.28000 41.87800 21.49000
H  -1.07400 43.02700 20.15000
H  -2.65600 42.71100 20.85300
H  0.22900 46.60300 22.52300
H  -0.56800 46.30900 20.99600
H  2.39400 46.33000 21.82600
H  1.54700 47.31600 20.53900
H  1.89500 45.74000 20.19800
H  4.89200 43.63900 24.18000
H  5.74600 44.19700 25.61800
H  4.69000 45.37300 24.70700
H  3.37400 44.54200 30.01400
H  5.23500 41.62900 32.75400
H  4.11200 40.59000 31.91900
H  3.58900 41.59000 33.29300
Mg -10.70400 17.66700 41.22800
C  -7.11100 17.52600 41.07600
C  -10.43000 21.05400 40.53900
C  -13.96300 17.84600 40.35100
C  -10.73000 14.21900 40.95900
N  -8.92100 19.05100 40.77200
C  -7.58300 18.77800 40.87000
C  -6.82200 20.05200 40.64000
C  -7.87800 21.15700 41.08400
C  -9.17100 20.38500 40.77100
C  -7.74000 21.59600 42.52400
C  -6.36200 20.24600 39.11900
C  -4.83600 20.16100 38.80100
H  -4.41700 19.25500 37.75800
N  -11.98500 19.22800 40.63900
C  -11.69600 20.50100 40.43100
C  -12.85200 21.28300 40.00500
C  -13.98100 20.39500 40.01200
C  -13.33800 19.07500 40.36500
C  -12.90400 22.78100 39.72100
C  -15.34300 20.82100 39.79100
O  -15.59600 22.03700 39.66900
C  -16.38900 19.81100 39.82000
N  -12.09000 16.31300 40.61900
C  -13.41200 16.59600 40.48700
C  -14.30500 15.38000 40.63200
C  -13.27800 14.24900 40.63200
C  -11.93500 14.95200 40.72900
C  -15.13400 15.55700 41.87900
C  -13.33000 13.39100 39.23500
C  -13.65700 11.88100 39.27800
N  -9.20500 16.14100 41.19200
C  -9.40100 14.71100 41.10400
C  -8.15600 14.10600 41.29200
C  -7.24100 15.11700 41.34800
C  -7.95500 16.33500 41.15200
C  -7.91300 12.64700 41.32500
C  -5.83600 15.54600 41.38600
O  -4.82900 14.87400 41.66900
C  -5.67800 17.12000 41.21300
C  -5.06900 17.65600 42.44200
O  -5.68300 17.98800 43.44900
O  -3.76400 17.88500 42.17200
C  -3.02900 18.57800 43.22600
H  -10.33600 22.13900 40.46200
H  -15.00600 17.77100 40.03400
H  -10.93300 13.14600 40.97100
H  -6.02700 20.07800 41.38500
H  -7.78500 22.13200 40.60600
H  -6.71300 21.55800 42.88700
H  -8.44300 21.07800 43.17700
H  -7.98600 22.64900 42.65900
H  -6.67700 21.16800 38.63000
H  -6.85700 19.40400 38.63600
H  -4.22400 19.91100 39.66800
H  -4.58900 21.17800 38.49500
H  -13.34600 23.00800 38.75100
H  -11.91400 23.23700 39.73600
H  -13.50600 23.38600 40.39800
H  -16.29100 19.21200 38.91400
H  -17.27600 20.44200 39.77700
H  -16.45100 19.22700 40.73800
H  -14.94000 15.28800 39.75100
H  -13.55600 13.55100 41.42200
H  -15.65700 14.63500 42.13700
H  -15.88400 16.34600 41.82600
H  -14.54100 15.84800 42.74700
H  -12.36800 13.50700 38.73500
H  -14.01600 13.78400 38.48400
H  -14.61400 11.65300 38.80900
H  -13.72000 11.57100 40.32100
H  -12.79600 11.40800 38.80800
H  -7.36900 12.23400 40.47500
H  -8.88800 12.16000 41.30600
H  -7.49500 12.35700 42.28900
H  -5.04600 17.37200 40.36200
H  -1.98000 18.74700 42.98600
H  -2.90800 18.04500 44.16900
H  -3.70900 19.41400 43.39000

