158

Mg 25.89000 0.97400 29.14000
C  27.66400 0.64000 32.06000
C  22.93600 1.31400 30.88200
C  24.24200 1.43400 26.19100
C  28.79800 0.20000 27.37900
N  25.36400 0.79400 31.19900
C  26.32600 0.85400 32.24400
C  25.62000 1.05700 33.62000
C  24.10400 0.88200 33.18100
C  24.09500 1.00300 31.65200
C  23.22800 -0.27600 33.70200
C  25.97900 2.46700 34.17900
C  26.95100 2.40700 35.36200
H  26.49700 3.30200 36.51700
N  23.89900 1.24200 28.61700
C  22.88500 1.41200 29.46500
C  21.70800 1.65600 28.72200
C  22.01100 1.93100 27.39300
C  23.45500 1.52200 27.34600
C  20.43000 1.66700 29.44500
C  21.17200 2.39600 26.22500
O  21.58600 2.62500 25.10300
C  19.74300 2.68300 26.50100
N  26.46000 0.70800 27.08600
C  25.59400 1.16100 26.08200
C  26.33300 1.27500 24.74300
C  27.80600 1.05600 25.16700
C  27.71400 0.59900 26.65900
C  25.78100 0.38300 23.64400
C  28.68100 2.39100 24.92500
C  29.20200 2.50300 23.49400
N  27.82500 0.36900 29.56300
C  28.84600 0.01600 28.76400
C  30.02500 -0.31600 29.53300
C  29.60900 -0.05600 30.88200
C  28.24200 0.34800 30.81400
C  31.33400 -0.72200 29.04600
C  30.03600 0.05000 32.23900
O  31.16700 -0.18000 32.69400
C  28.76300 0.45100 33.12900
C  28.45800 -0.63000 34.07300
O  27.78600 -1.66500 33.85400
O  28.93800 -0.26700 35.24000
C  28.60000 -1.13100 36.41300
H  22.07300 1.64400 31.46400
H  23.81400 1.81200 25.26000
H  29.74700 0.19800 26.83800
H  25.94500 0.24100 34.26400
H  23.58800 1.81900 33.39000
H  23.92300 -0.93500 34.22200
H  22.82800 -0.73600 32.79900
H  22.37100 -0.10500 34.35300
H  25.09800 3.02200 34.50100
H  26.35300 3.10000 33.37500
H  27.89400 2.80100 34.98400
H  27.16600 1.40100 35.72200
H  20.12600 2.68100 29.70400
H  20.48200 0.95400 30.26800
H  19.64700 1.24500 28.81500
H  19.18600 1.80100 26.81700
H  19.23900 3.04700 25.60600
H  19.70400 3.51300 27.20700
H  26.27200 2.30600 24.39400
H  28.31500 0.23000 24.67200
H  24.73500 0.14500 23.83800
H  26.25900 -0.55900 23.37300
H  26.01900 0.99200 22.77200
H  29.57200 2.28600 25.54400
H  28.09500 3.25600 25.23600
H  30.27800 2.33400 23.44400
H  28.93400 3.47800 23.08900
H  28.83700 1.71900 22.83100
H  32.10000 -0.02100 29.37700
H  31.41200 -0.60900 27.96500
H  31.54600 -1.76800 29.26700
H  29.13500 1.33200 33.65100
H  28.70700 -2.18000 36.13700
H  27.65700 -0.93900 36.92400
H  29.32900 -0.87900 37.18300
Mg 26.54400 49.82100 26.85400
C  24.47300 51.04900 29.36100
C  28.84400 49.01600 29.20700
C  28.53100 48.86300 24.29800
C  24.04500 50.91600 24.57300
N  26.62500 50.08700 29.04400
C  25.68000 50.53500 29.94500
C  26.06700 50.17800 31.39100
C  27.59500 49.82200 31.27300
C  27.71700 49.66300 29.72700
C  28.57100 50.83900 31.93500
C  25.19800 49.09600 32.01200
C  24.56500 49.14600 33.46800
H  25.25600 49.95600 34.50900
N  28.42100 48.95500 26.78800
C  29.20900 48.71700 27.86500
C  30.47900 48.26600 27.41800
C  30.44300 48.21800 25.99600
C  29.10000 48.73500 25.60700
C  31.57800 47.98200 28.40500
C  31.48100 47.80000 24.97400
O  31.31100 47.85000 23.79500
C  32.80900 47.39000 25.48500
N  26.31200 49.92900 24.74900
C  27.23800 49.37700 23.94800
C  26.76700 49.43300 22.51600
C  25.32800 50.01000 22.53400
C  25.17300 50.26800 24.03200
C  27.75900 50.17000 21.65900
C  24.21600 49.12900 21.97400
C  24.17800 47.74000 22.62100
N  24.75300 50.94400 26.88000
C  23.79600 51.18600 25.88900
C  22.65900 51.94800 26.39700
C  22.83200 51.91400 27.77200
C  24.11800 51.24600 28.02100
C  21.53700 52.53100 25.56400
C  22.24400 52.12800 29.08300
O  21.13500 52.69600 29.38300
C  23.23600 51.53000 30.21700
C  23.40500 52.51600 31.30300
O  24.40800 53.07100 31.63600
O  22.23200 52.53200 32.04700
C  22.28800 53.41500 33.28800
H  29.57900 48.75500 29.97100
H  29.09400 48.43900 23.46400
H  23.29500 51.14900 23.81400
H  26.13000 51.07500 32.00800
H  27.69700 48.82900 31.71000
H  28.11100 51.80900 32.12000
H  29.54400 50.95600 31.45800
H  28.95500 50.34100 32.82500
H  25.73100 48.14600 32.05700
H  24.28900 49.13800 31.41100
H  24.49900 48.10700 33.79200
H  23.62900 49.68800 33.33400
H  31.67600 46.90500 28.53900
H  31.51900 48.54800 29.33400
H  32.42700 48.39600 27.86100
H  33.46800 46.93500 24.74500
H  32.59700 46.74500 26.33900
H  33.25300 48.32800 25.81600
H  26.87900 48.36600 22.32200
H  25.28800 50.89500 21.90000
H  28.36900 49.47900 21.07700
H  28.48800 50.70200 22.27000
H  27.26300 50.83600 20.95200
H  24.52300 49.20400 20.93100
H  23.28300 49.69200 21.95300
H  24.58600 47.77000 23.63100
H  24.81200 47.10400 22.00400
H  23.17700 47.31500 22.69500
H  20.64500 52.53600 26.18900
H  21.34100 51.75600 24.82200
H  21.70200 53.42300 24.95900
H  22.83700 50.61100 30.64600
H  21.35900 53.41800 33.85700
H  22.57200 54.45800 33.14400
H  22.89700 52.92900 34.05000

