158

Mg 43.99100 3.42300 47.47700
C  41.62900 5.93300 46.83200
C  41.53200 1.08200 47.16200
C  46.32600 1.04100 47.17300
C  46.51700 5.87200 47.10500
N  41.85600 3.54900 47.08200
C  41.08000 4.66900 46.91000
C  39.56500 4.25400 46.84500
C  39.58900 2.75100 47.24400
C  41.07700 2.42700 47.07600
C  39.08300 2.43100 48.66000
C  38.96900 4.35800 45.35600
C  37.83100 5.37200 45.22400
H  38.15500 6.59900 44.37100
N  43.96500 1.26200 47.30300
C  42.84300 0.48900 47.25800
C  43.23300 -0.94200 47.23900
C  44.65800 -0.95500 47.37400
C  45.02800 0.47800 47.18700
C  42.25900 -2.11300 47.30200
C  45.58000 -2.18800 47.62600
O  45.05000 -3.29600 47.75800
C  47.04800 -2.05000 47.87400
N  46.08300 3.44200 47.29900
C  46.80800 2.30000 47.11100
C  48.31900 2.55500 47.00400
C  48.39400 4.10000 47.12700
C  46.92100 4.53800 47.25100
C  49.19400 1.60400 47.94500
C  49.30800 4.87000 46.20500
C  50.66700 5.34900 46.82400
N  44.14000 5.54700 47.18200
C  45.20200 6.36000 47.13900
C  44.77600 7.72600 47.09300
C  43.35200 7.58200 46.90900
C  43.02500 6.24100 47.01600
C  45.53400 9.09900 47.11000
C  42.17400 8.35900 46.80400
O  42.01800 9.56500 46.78600
C  40.99100 7.31000 46.69500
C  40.05100 7.58100 47.84600
O  40.23900 7.25000 49.01100
O  38.97800 8.20500 47.41200
C  37.86400 8.40100 48.44300
H  40.72900 0.34200 47.14600
H  47.14600 0.32500 47.09000
H  47.23300 6.69500 47.05500
H  38.87900 4.75000 47.53100
H  39.07400 2.11600 46.52200
H  38.65200 3.31500 49.13000
H  39.97900 2.31200 49.26900
H  38.49900 1.52000 48.52500
H  38.54200 3.46100 44.91000
H  39.75000 4.56200 44.62300
H  37.59300 5.75900 46.21500
H  36.88300 4.88600 44.99400
H  42.58400 -2.84800 46.56600
H  41.28600 -1.76700 46.95200
H  42.22700 -2.62100 48.26600
H  47.50700 -1.77700 46.92400
H  47.44100 -2.98200 48.27900
H  47.19000 -1.30300 48.65500
H  48.66000 2.26100 46.01200
H  48.82200 4.18300 48.12600
H  48.58200 1.09100 48.68700
H  50.02600 2.16900 48.36600
H  49.72000 0.93400 47.26400
H  48.79200 5.66800 45.67100
H  49.59700 4.10600 45.48300
H  51.58600 4.92400 46.41900
H  50.58200 5.05400 47.87000
H  50.72800 6.43100 46.70900
H  46.55800 9.05200 46.73900
H  45.67400 9.47500 48.12300
H  44.90400 9.68800 46.44300
H  40.51200 7.35900 45.71700
H  36.99400 8.98500 48.14500
H  38.31200 8.85500 49.32700
H  37.51900 7.38200 48.61900
Mg 53.40300 24.77700 44.97400
C  50.66200 26.75000 44.13800
C  51.71800 22.14800 43.49300
C  56.31400 22.96400 44.72600
C  55.21500 27.48500 45.88400
N  51.43500 24.49100 43.76600
C  50.43100 25.41600 43.59200
C  49.30300 24.83200 42.64300
C  49.48600 23.35500 43.03400
C  50.99200 23.27400 43.46200
C  48.51100 22.92700 44.16700
C  49.69600 25.10500 41.14400
C  48.56500 25.23600 40.07900
H  47.95600 23.94800 39.54400
N  53.90400 22.75500 44.36700
C  53.03900 21.92600 43.73000
C  53.74600 20.65800 43.51700
C  55.10000 20.85400 43.94000
C  55.17000 22.22400 44.33100
C  53.21600 19.41300 42.85600
C  56.18800 19.74500 43.90100
O  55.94400 18.68400 43.39200
C  57.47800 19.89500 44.45100
N  55.45800 25.20400 45.19400
C  56.42800 24.29500 45.20800
C  57.79200 24.80300 45.69900
C  57.43000 26.29400 45.93800
C  55.93800 26.38600 45.61600
C  58.24700 23.95000 46.95500
C  58.14900 27.33900 45.09600
C  58.40700 28.70400 45.72300
N  52.99100 26.75100 45.14600
C  53.86700 27.78400 45.50200
C  53.10200 28.98800 45.58700
C  51.83700 28.61100 45.01600
C  51.84200 27.23600 44.81100
C  53.51700 30.35100 46.00700
C  50.59600 29.10700 44.59800
O  50.09700 30.24600 44.61900
C  49.75200 27.95000 44.10200
C  48.97100 28.23900 42.80800
O  49.40400 28.41200 41.69900
O  47.63600 28.30700 43.02200
C  46.77000 28.38600 41.81500
H  51.13100 21.31100 43.10700
H  57.28200 22.46900 44.62500
H  55.63800 28.43600 46.21600
H  48.27200 25.13800 42.82100
H  49.23200 22.68700 42.21000
H  48.91800 22.47700 45.07200
H  47.91500 22.11100 43.75700
H  47.70400 23.62700 44.38300
H  50.22300 24.25200 40.71600
H  50.26400 26.03500 41.13200
H  48.96900 25.92800 39.34000
H  47.67500 25.70300 40.50100
H  53.81800 19.17900 41.97900
H  52.21000 19.55600 42.46100
H  53.23900 18.62800 43.61200
H  58.04700 18.97200 44.55900
H  57.39300 20.40800 45.40900
H  58.04500 20.48100 43.72700
H  58.51300 24.61100 44.90400
H  57.43500 26.45900 47.01500
H  59.25700 23.63700 46.68600
H  57.73300 22.99900 47.09400
H  58.34400 24.63700 47.79500
H  57.61300 27.59200 44.18100
H  59.13300 26.93300 44.86200
H  59.45400 28.99300 45.81000
H  57.88500 28.74000 46.67900
H  57.91800 29.47400 45.12700
H  53.03900 31.11300 45.39100
H  54.59900 30.42300 45.89400
H  53.19900 30.52700 47.03500
H  49.04200 27.77700 44.91000
H  46.87000 27.42200 41.31600
H  47.01000 29.12600 41.05200
H  45.75900 28.45400 42.21700

