158

Mg 16.79000 -1.67500 28.38300
C  15.42000 0.19100 30.92400
C  18.71800 -3.26800 30.87200
C  18.84600 -2.96200 26.08600
C  15.12200 0.24400 25.92200
N  17.28200 -1.39800 30.65700
C  16.45000 -0.60600 31.43300
C  16.78800 -0.79100 32.99800
C  18.02700 -1.80600 32.87600
C  18.04100 -2.22100 31.38400
C  19.41200 -1.15700 33.20900
C  15.62400 -1.56200 33.64900
C  15.42300 -1.34800 35.17200
H  16.68200 -0.90400 36.07200
N  18.46900 -3.01000 28.45900
C  18.98000 -3.67900 29.54200
C  19.84500 -4.78300 29.13700
C  20.00400 -4.59800 27.76200
C  19.13800 -3.47600 27.36100
C  20.46700 -5.81800 30.06800
C  20.91000 -5.39100 26.73500
O  20.97000 -5.03400 25.55600
C  21.76300 -6.61400 27.19200
N  16.92200 -1.43900 26.36500
C  17.86900 -2.06000 25.58600
C  17.74300 -1.63200 24.10500
C  16.40900 -0.83500 24.07500
C  16.12600 -0.64500 25.54900
C  18.99900 -0.87800 23.51500
C  15.21300 -1.59400 23.40800
C  14.22000 -0.73300 22.59800
N  15.51000 -0.12000 28.37400
C  14.87300 0.53300 27.29800
C  13.93800 1.50600 27.89200
C  14.13500 1.45600 29.26400
C  15.09800 0.44900 29.55200
C  13.04200 2.39800 27.06100
C  13.68400 1.97300 30.49100
O  12.87400 2.84800 30.77100
C  14.46400 1.19900 31.62100
C  15.32200 2.30800 32.35000
O  15.97200 3.16000 31.86100
O  15.19100 2.09600 33.71900
C  15.99900 3.06700 34.51200
H  19.29100 -3.76900 31.65400
H  19.38100 -3.37500 25.22700
H  14.60500 0.86500 25.18700
H  17.07100 0.10300 33.55400
H  17.91500 -2.77300 33.36600
H  20.07100 -1.90900 33.64300
H  19.33700 -0.24200 33.79700
H  19.91300 -0.80800 32.30600
H  15.69000 -2.63600 33.47800
H  14.72000 -1.15400 33.19800
H  15.25100 -2.30300 35.67000
H  14.65200 -0.60200 35.36700
H  20.24100 -6.81800 29.69700
H  20.06400 -5.71500 31.07500
H  21.55000 -5.89400 30.16100
H  22.10400 -6.32700 28.18700
H  22.59800 -6.67700 26.49400
H  21.19400 -7.51300 27.42500
H  17.68900 -2.57200 23.55600
H  16.55500 0.07400 23.49100
H  19.85800 -1.05100 24.16400
H  18.78100 0.18700 23.44100
H  19.33400 -1.16900 22.51900
H  14.60800 -2.09500 24.16400
H  15.61900 -2.41000 22.81000
H  14.73100 0.22000 22.46100
H  13.26600 -0.60300 23.10800
H  14.02600 -1.15000 21.61000
H  13.73600 2.86100 26.35900
H  12.47800 3.15300 27.60800
H  12.36200 1.73500 26.52700
H  13.76700 0.70200 32.29500
H  17.05500 2.79800 34.50000
H  15.55000 2.99800 35.50400
H  15.75800 4.06500 34.14700
Mg 27.13200 51.46100 25.80500
C  25.10600 52.29100 28.49900
C  29.58500 50.56500 27.90100
C  28.91600 50.62700 23.02800
C  24.70800 52.99000 23.70000
N  27.36900 51.50800 27.95600
C  26.30700 51.69300 28.88900
C  26.80900 51.36100 30.34100
C  28.38800 51.21300 30.09400
C  28.47300 51.12300 28.59200
C  29.31100 52.19700 30.77900
C  26.03800 50.20300 30.97800
C  25.21600 50.38200 32.26600
H  25.99700 50.84700 33.48800
N  28.96600 50.64600 25.51300
C  29.84100 50.35600 26.54100
C  31.06600 49.79200 25.95200
C  30.89900 49.79700 24.50100
C  29.51100 50.34600 24.33700
C  32.28000 49.38900 26.72400
C  31.88700 49.38900 23.51500
O  31.66300 49.42600 22.30600
C  33.22100 48.99100 23.80600
N  26.86700 51.69000 23.73100
C  27.71400 51.36600 22.74500
C  27.21200 51.57300 21.32200
C  25.81900 52.19700 21.52200
C  25.76700 52.33000 23.06100
C  28.14400 52.42600 20.40400
C  24.56800 51.39900 21.00400
C  23.46500 52.35600 20.40200
N  25.33400 52.45500 26.03400
C  24.47200 52.97800 25.10400
C  23.34800 53.61000 25.76100
C  23.55200 53.36400 27.11100
C  24.76900 52.62600 27.19600
C  22.23900 54.40100 25.10100
C  23.13000 53.70200 28.45000
O  22.12500 54.34000 28.78800
C  23.99600 52.81900 29.41200
C  24.51000 53.84300 30.40000
O  25.49100 54.52900 30.27600
O  23.61900 53.83000 31.49000
C  24.02200 54.62000 32.60800
H  30.38300 50.32100 28.60600
H  29.49300 50.37400 22.13600
H  23.92400 53.31800 23.01400
H  26.57700 52.31200 30.82100
H  28.68900 50.22000 30.42700
H  29.83600 52.80500 30.04300
H  30.07400 51.64100 31.32400
H  28.81800 52.91300 31.43700
H  26.69000 49.36600 31.23200
H  25.34500 49.86500 30.20800
H  24.52200 49.58800 32.54200
H  24.57100 51.23500 32.05500
H  32.29500 48.30800 26.86100
H  32.23400 49.69000 27.77100
H  33.14000 49.86900 26.25700
H  33.41200 48.05500 24.33100
H  33.59400 49.88600 24.30200
H  33.76100 48.87100 22.86700
H  27.05900 50.58300 20.89100
H  25.76700 53.23700 21.20300
H  28.79700 52.97000 21.08600
H  27.55100 53.09700 19.78300
H  28.62300 51.58000 19.91100
H  23.99600 50.93000 21.80400
H  24.86800 50.66100 20.26000
H  22.52700 52.26400 20.94900
H  23.24500 51.92700 19.42500
H  23.79200 53.39500 20.34900
H  21.23400 54.13400 25.42800
H  22.34600 54.40700 24.01600
H  22.26700 55.42100 25.48500
H  23.55000 51.96100 29.91500
H  24.79400 54.13600 33.20700
H  23.13000 54.70500 33.22800
H  24.35900 55.62000 32.33400

