158

Mg 31.29300 57.74600 40.12700
C  28.57600 56.18400 38.63200
C  33.36100 55.48800 38.59300
C  33.99100 59.75000 40.84400
C  29.18500 60.31600 41.25900
N  30.93500 56.03500 38.79500
C  29.76200 55.52500 38.30900
C  29.96700 54.26200 37.35600
C  31.46600 53.91300 37.75700
C  31.95300 55.20700 38.47700
C  31.56500 52.63700 38.56400
C  29.70700 54.71900 35.89800
C  28.93500 53.68000 35.02000
H  28.38700 54.17100 33.64100
N  33.38900 57.56300 39.85500
C  34.00000 56.58200 39.10500
C  35.43800 56.72300 39.26700
C  35.70200 58.01400 39.93100
C  34.34300 58.51600 40.28300
C  36.39300 55.73000 38.71400
C  37.06900 58.63400 40.19200
O  38.11300 58.01300 39.92800
C  37.21000 59.85600 40.99000
N  31.49300 59.72800 40.75500
C  32.75000 60.23900 41.07000
C  32.67200 61.66200 41.74400
C  31.19500 61.69800 42.13300
C  30.56600 60.53400 41.33800
C  33.59200 61.98800 42.99500
C  30.43200 63.03800 41.95800
C  30.47900 63.98900 43.10500
N  29.31000 58.16800 40.06600
C  28.51900 59.25500 40.56000
C  27.11200 59.00200 40.44300
C  27.13500 57.82900 39.61300
C  28.44000 57.36400 39.45700
C  25.94000 59.82300 40.92800
C  26.22000 56.98100 38.88100
O  24.96700 56.90200 38.70300
C  27.21700 55.96300 38.12200
C  26.76200 54.58300 38.25500
O  27.08300 53.87400 39.20500
O  25.84500 54.15900 37.27500
C  25.25900 52.85400 37.43100
H  33.96100 54.69700 38.13800
H  34.77200 60.49400 41.01300
H  28.44200 60.95900 41.73700
H  29.25500 53.47700 37.60700
H  32.01400 53.74500 36.83000
H  30.71400 51.96400 38.66000
H  31.76500 52.88600 39.60600
H  32.40400 52.04600 38.19600
H  30.64000 54.93800 35.37900
H  29.14500 55.65200 35.91800
H  28.01500 53.42700 35.54800
H  29.56500 52.80500 34.86100
H  35.87000 54.97400 38.12900
H  36.92500 55.25700 39.54000
H  37.07100 56.09400 37.94300
H  38.27200 59.88600 41.23400
H  36.68700 59.67000 41.92800
H  36.82600 60.66500 40.36900
H  32.97400 62.40900 41.01000
H  30.93900 61.41700 43.15400
H  34.29100 61.18800 43.23500
H  32.95300 62.19400 43.85400
H  34.27300 62.77100 42.66300
H  29.40000 62.92800 41.62400
H  30.98200 63.53800 41.16000
H  31.13700 64.85500 43.03400
H  30.99300 63.44800 43.89900
H  29.51500 64.41800 43.37700
H  25.60900 59.42600 41.88800
H  25.10200 59.66700 40.24900
H  26.30300 60.84700 41.01600
H  27.22400 56.18900 37.05600
H  25.42000 52.35300 38.38600
H  25.50900 52.10900 36.67600
H  24.18200 53.01700 37.39800
Mg 27.14000 50.30100 25.91300
C  24.94800 51.30300 28.53200
C  29.42900 49.55000 28.29100
C  29.28100 49.61200 23.40700
C  24.95200 51.73600 23.54100
N  27.12800 50.45000 28.17600
C  26.13200 50.78700 29.00200
C  26.52900 50.62700 30.50300
C  27.99400 50.13100 30.38800
C  28.19700 49.92800 28.87600
C  29.06600 51.09900 30.97400
C  25.49100 49.69600 31.27600
C  24.74600 50.23900 32.53400
H  24.42100 49.26200 33.71500
N  29.09900 49.58400 25.85400
C  29.87200 49.33400 26.94800
C  31.16200 48.90800 26.58100
C  31.15700 48.90800 25.12100
C  29.80900 49.31300 24.75400
C  32.17200 48.31000 27.50700
C  32.24900 48.75500 24.06000
O  32.07100 48.94900 22.86100
C  33.67800 48.54400 24.52200
N  27.16100 50.73800 23.74300
C  28.07800 50.18600 22.91900
C  27.70400 50.31300 21.46600
C  26.24500 50.88300 21.52300
C  26.06200 51.12800 23.01700
C  28.74700 51.09800 20.58300
C  25.03100 50.11000 20.93400
C  24.37300 50.68700 19.68300
N  25.31500 51.37700 25.95000
C  24.55900 51.86900 24.91800
C  23.34200 52.41100 25.44300
C  23.48700 52.16700 26.84300
C  24.63200 51.52800 27.12900
C  22.37200 53.16800 24.77100
C  22.80500 52.44600 28.18000
O  21.75400 53.00400 28.34600
C  23.79100 51.94200 29.31400
C  24.10900 53.05700 30.23200
O  24.96700 53.86600 30.07400
O  23.38600 53.13000 31.41900
C  23.90000 53.99700 32.52200
H  30.13400 49.27500 29.07800
H  29.81300 49.13600 22.58000
H  24.18100 51.99700 22.81300
H  26.57900 51.57400 31.04000
H  28.27500 49.18800 30.85700
H  29.69200 51.43000 30.14500
H  29.80000 50.51200 31.52600
H  28.66000 51.88600 31.61000
H  26.10100 48.83600 31.55100
H  24.79400 49.19100 30.60800
H  23.78600 50.64500 32.21300
H  25.34500 51.02000 33.00100
H  33.01800 47.85600 26.99200
H  31.77200 47.45600 28.05500
H  32.46700 49.07200 28.22800
H  33.93200 49.41000 25.13400
H  34.28200 48.53800 23.61500
H  33.79100 47.61800 25.08600
H  27.71300 49.32400 21.00700
H  26.38300 51.86100 21.06300
H  29.17200 51.84500 21.25300
H  28.37100 51.56700 19.67400
H  29.53700 50.40400 20.29500
H  24.28300 49.97900 21.71600
H  25.37000 49.10500 20.68400
H  24.46300 49.96500 18.87100
H  24.97000 51.49000 19.25000
H  23.34000 51.03100 19.72000
H  22.28200 52.92000 23.71300
H  22.68700 54.21100 24.73500
H  21.37700 53.22800 25.21200
H  23.33200 51.17500 29.93700
H  23.40200 54.96100 32.41500
H  24.97600 54.13700 32.61600
H  23.59500 53.55300 33.47000

