158

Mg 46.18300 45.88900 43.96400
C  42.85800 44.74600 43.34500
C  47.22800 42.85200 42.94600
C  49.09600 47.30500 43.18100
C  44.73000 49.16800 44.08100
N  45.19000 44.05800 43.21200
C  43.84400 43.81400 42.98200
C  43.62500 42.37800 42.55500
C  44.94600 41.68000 42.94400
C  45.89100 42.90400 43.12900
C  44.82700 40.85900 44.37200
C  43.24400 42.56100 41.10400
C  41.88600 41.98100 40.70500
H  41.81900 41.16200 39.43100
N  48.01900 45.15800 43.27500
C  48.22300 43.89600 42.94200
C  49.65500 43.68600 42.53000
C  50.25700 45.02700 42.49500
C  49.14600 45.92500 42.99300
C  50.26200 42.34700 42.12700
C  51.62700 45.38800 41.94600
O  52.39800 44.44600 41.71100
C  52.10400 46.73000 41.66800
N  46.83500 47.94400 43.53500
C  48.13200 48.25800 43.40500
C  48.45500 49.74300 43.70600
C  47.03200 50.32800 43.93600
C  46.11900 49.05300 43.82400
C  49.44300 49.77600 44.89300
C  46.38300 51.50900 43.15400
C  47.23200 52.64600 42.46100
N  44.17500 46.75600 44.08600
C  43.77000 48.07900 44.09600
C  42.29800 48.11500 44.12600
C  41.90800 46.79200 43.80700
C  43.09500 46.05100 43.74800
C  41.40100 49.30700 44.24800
C  40.78300 45.93600 43.53800
O  39.60200 46.21700 43.35200
C  41.37900 44.57500 43.22600
C  40.81000 43.74300 44.29600
O  40.18300 42.69400 44.12300
O  41.30900 44.18500 45.48100
C  40.93300 43.39300 46.66500
H  47.61600 41.85000 42.75000
H  50.06900 47.78200 43.04800
H  44.27500 50.13400 44.30500
H  42.77400 41.87800 43.01800
H  45.27600 41.06600 42.10700
H  45.08900 39.84100 44.08700
H  43.76900 40.94600 44.62000
H  45.39300 41.27700 45.20500
H  43.95300 41.97200 40.52100
H  43.24200 43.58100 40.71900
H  41.14400 42.74800 40.48100
H  41.58300 41.31800 41.51500
H  50.55100 42.44000 41.08100
H  49.46900 41.59900 42.11100
H  51.12400 42.00700 42.70100
H  51.38700 47.25000 41.03300
H  53.07000 46.67100 41.16600
H  52.28400 47.28300 42.59000
H  48.99100 50.07100 42.81500
H  46.99400 50.55300 45.00100
H  50.42500 49.46700 44.53300
H  48.94200 49.05400 45.53800
H  49.30300 50.71600 45.42500
H  45.65100 51.91400 43.85300
H  45.97600 51.03100 42.26200
H  47.47200 53.28500 43.31100
H  46.76500 53.10500 41.59000
H  48.22400 52.36500 42.10700
H  41.29900 49.53400 45.30900
H  40.39600 49.05700 43.90900
H  41.75800 50.21700 43.76400
H  41.02300 44.24300 42.25100
H  41.08000 43.99000 47.56500
H  41.56900 42.51100 46.73600
H  39.86300 43.21200 46.56100
Mg -8.87800 40.22600 42.47400
C  -7.92900 36.99300 41.57500
C  -6.27100 41.47400 40.57500
C  -10.09700 43.22700 42.98600
C  -11.70000 38.90200 44.06200
N  -7.31800 39.26900 41.09300
C  -7.04800 37.96700 40.99600
C  -5.77300 37.68000 40.12500
C  -5.25400 39.14400 39.77600
C  -6.35100 40.05600 40.50300
C  -3.81100 39.47800 40.13300
C  -6.01100 36.81500 38.92800
C  -4.86100 35.80000 38.63600
H  -3.92000 36.11800 37.40400
N  -8.16800 42.13000 41.89900
C  -7.04700 42.45400 41.14700
C  -6.91800 43.92800 41.07800
C  -8.14800 44.45700 41.61900
C  -8.90200 43.27000 42.22200
C  -5.83500 44.62600 40.30100
C  -8.59600 45.94000 41.65600
O  -7.94200 46.79300 41.02600
C  -9.81400 46.40800 42.23100
N  -10.79300 41.02900 43.19200
C  -10.95800 42.31500 43.51800
C  -12.31300 42.59100 44.24200
C  -12.62000 41.13400 44.77900
C  -11.63700 40.29700 43.91200
C  -12.15300 43.64400 45.39100
C  -14.17200 40.74900 44.59100
C  -14.85200 40.24800 45.89100
N  -9.74400 38.35800 42.85200
C  -10.87100 37.94900 43.44800
C  -10.96200 36.55200 43.52400
C  -9.84000 36.08600 42.76600
C  -9.14100 37.22100 42.33600
C  -12.15000 35.75400 44.06700
C  -9.01400 34.90200 42.33500
O  -9.19400 33.73800 42.60800
C  -7.81300 35.44800 41.51300
C  -6.53900 34.94500 42.11800
O  -6.17400 35.26000 43.24000
O  -5.92000 34.17100 41.18100
C  -4.58000 33.62700 41.50900
H  -5.34200 41.59200 40.01500
H  -10.45500 44.21700 43.27600
H  -12.64000 38.62700 44.54300
H  -5.01900 37.30400 40.81600
H  -5.28000 39.38200 38.71200
H  -3.27600 38.53200 40.21800
H  -3.82900 39.95100 41.11500
H  -3.38800 40.02800 39.29300
H  -6.16800 37.41200 38.03000
H  -6.97600 36.31900 39.03600
H  -5.25500 34.81900 38.36800
H  -4.24400 35.71500 39.53000
H  -5.38600 45.26200 41.06300
H  -6.25500 45.17100 39.45600
H  -5.07200 43.87100 40.10900
H  -9.82700 47.48300 42.04900
H  -9.70500 46.30000 43.31000
H  -10.57700 46.04900 41.54100
H  -13.16500 42.91900 43.64800
H  -12.27400 41.00600 45.80400
H  -12.16200 43.26900 46.41500
H  -13.02000 44.25400 45.13800
H  -11.20900 44.16500 45.23300
H  -14.31300 40.03600 43.77900
H  -14.80800 41.59100 44.31700
H  -15.24300 39.26400 45.62900
H  -15.58600 40.92500 46.32700
H  -14.16400 40.06200 46.71500
H  -12.76200 36.39400 44.70300
H  -11.78000 34.91900 44.66100
H  -12.86100 35.40800 43.31600
H  -8.03600 35.11500 40.50000
H  -4.46800 33.03400 42.41600
H  -3.86800 34.44900 41.58100
H  -4.32100 33.08600 40.59800

