158

Mg 8.87900 48.60200 26.32100
C  6.50600 48.47700 28.90800
C  11.28200 49.55500 28.53700
C  11.07100 49.01600 23.72800
C  6.20800 48.50400 23.98200
N  8.78400 49.08600 28.51600
C  7.75000 48.89300 29.40600
C  8.23200 49.21800 30.82300
C  9.68200 49.73500 30.60100
C  9.97700 49.48200 29.10700
C  10.08800 51.04700 31.20500
C  8.09900 48.03300 31.83000
C  8.99500 48.00800 33.14000
H  8.68600 47.05900 34.34800
N  10.92500 49.04000 26.19800
C  11.75300 49.23800 27.24900
C  13.11100 49.14200 26.76900
C  13.01600 49.04800 25.41400
C  11.58500 49.07300 25.07000
C  14.35900 49.31700 27.74900
C  14.08400 48.87900 24.37000
O  13.98300 49.05300 23.17000
C  15.47700 48.41400 24.89600
N  8.62900 48.75500 24.24900
C  9.69100 49.06700 23.39600
C  9.20300 49.40400 21.97700
C  7.67500 48.95200 22.05200
C  7.47200 48.62100 23.52900
C  9.47100 50.95500 21.66900
C  7.14800 47.89600 21.08500
C  7.15100 48.31000 19.60400
N  6.83000 48.38600 26.37500
C  5.84600 48.31500 25.37500
C  4.66000 47.94700 25.97200
C  4.85800 48.02300 27.32700
C  6.21000 48.28400 27.57900
C  3.41500 47.77100 25.18900
C  4.12000 47.93200 28.53400
O  2.94700 47.64900 28.77300
C  5.15300 48.37300 29.58300
C  5.03200 47.29600 30.62300
O  5.49500 46.19200 30.50400
O  4.42100 47.81600 31.72100
C  4.20700 46.90200 32.81800
H  12.08600 49.92600 29.17600
H  11.78900 49.14500 22.91500
H  5.35700 48.46000 23.29900
H  7.54100 49.97600 31.19100
H  10.36500 48.99800 31.02400
H  10.99100 50.96800 31.81100
H  9.35300 51.43400 31.91100
H  10.32900 51.72600 30.38700
H  8.34000 47.23700 31.12500
H  7.06600 48.00700 32.17400
H  8.93000 48.97700 33.63600
H  10.04500 47.85600 32.89200
H  15.02400 50.12100 27.43500
H  14.99000 48.43400 27.65100
H  13.96900 49.38200 28.76500
H  15.35500 47.44600 25.38300
H  15.94200 49.16400 25.53700
H  16.22100 48.30800 24.10700
H  9.77400 48.77400 21.29400
H  7.01300 49.79000 21.83400
H  10.27600 51.02500 20.93800
H  9.76800 51.51300 22.55700
H  8.53300 51.36700 21.29700
H  6.15400 47.49200 21.27500
H  7.75700 46.99200 21.10000
H  6.19300 48.03900 19.15900
H  7.81900 47.62900 19.07900
H  7.39600 49.35500 19.41100
H  3.74900 47.18000 24.33700
H  3.08700 48.70600 24.73500
H  2.60000 47.32200 25.75600
H  4.81700 49.32500 29.99400
H  3.53300 47.34100 33.55300
H  5.18200 46.85100 33.30400
H  3.84300 45.89300 32.62200
Mg -1.42600 34.90300 26.05400
C  -3.00300 32.98900 28.45500
C  -0.15400 36.85200 28.45600
C  -0.30700 36.82500 23.57200
C  -2.84100 32.70700 23.52600
N  -1.59500 34.89100 28.26100
C  -2.17600 33.97600 29.03400
C  -2.06800 34.29400 30.52700
C  -1.34100 35.67900 30.51300
C  -1.02200 35.84700 28.97200
C  -1.97800 36.91300 31.05900
C  -1.20900 33.22100 31.30600
C  -2.02300 32.42900 32.38200
H  -1.36100 32.22200 33.71100
N  -0.34700 36.59300 26.00300
C  0.13400 37.26700 27.11000
C  0.95400 38.36300 26.69200
C  0.79800 38.45000 25.29600
C  -0.07200 37.32200 24.88500
C  1.69900 39.30400 27.74200
C  1.42900 39.49100 24.40400
O  1.28100 39.54300 23.20400
C  2.30100 40.54400 24.97600
N  -1.51900 34.79000 23.89900
C  -0.95600 35.71000 23.12700
C  -1.09100 35.35900 21.67100
C  -1.67700 33.94200 21.70700
C  -2.06800 33.82000 23.12700
C  -1.89700 36.43700 20.98100
C  -0.63500 32.88800 21.22500
C  0.35200 32.27700 22.20500
N  -2.73700 33.24300 25.92100
C  -3.14800 32.39400 24.87300
C  -4.05600 31.34900 25.37100
C  -4.07400 31.59200 26.80900
C  -3.20300 32.68200 27.03600
C  -4.83400 30.43500 24.53200
C  -4.71800 31.18500 28.11000
O  -5.64200 30.44900 28.33200
C  -3.80500 31.92500 29.17200
C  -4.77700 32.48100 30.12800
O  -5.37500 33.53700 29.97300
O  -4.94600 31.66700 31.21600
C  -5.65200 32.24100 32.37500
H  0.17600 37.63800 29.13800
H  0.19700 37.45700 22.83900
H  -3.26400 32.04100 22.77200
H  -3.07100 34.47500 30.91400
H  -0.46400 35.52600 31.14300
H  -3.04200 36.68300 31.00800
H  -1.81200 37.71700 30.34200
H  -1.71900 37.25400 32.06100
H  -0.32400 33.58300 31.82900
H  -0.88300 32.49200 30.56300
H  -2.26000 31.45600 31.95100
H  -2.93100 32.99700 32.57900
H  2.00900 38.73900 28.62200
H  0.93800 40.02300 28.04700
H  2.58400 39.84900 27.41600
H  1.82500 41.19900 25.70600
H  2.54100 41.10600 24.07400
H  3.24500 40.22700 25.41800
H  -0.08600 35.36400 21.24700
H  -2.52700 33.81200 21.03700
H  -2.17800 37.18700 21.72100
H  -2.80800 36.00800 20.56500
H  -1.21400 36.87800 20.25500
H  -0.12800 33.49100 20.47100
H  -1.26600 32.07400 20.86700
H  0.09300 32.50700 23.23900
H  1.41300 32.43900 22.01400
H  0.18300 31.20200 22.27000
H  -4.22100 30.00500 23.73900
H  -5.68500 30.96000 24.09900
H  -5.27900 29.62700 25.11400
H  -3.31800 31.10800 29.70400
H  -6.57800 32.69400 32.02200
H  -4.97400 32.94100 32.86200
H  -5.88500 31.45800 33.09600

