158

Mg 35.46700 48.84100 24.85700
C  35.57800 47.04200 27.80400
C  34.36000 51.45400 26.64700
C  35.16000 50.40900 21.99300
C  36.23600 45.89100 23.10000
N  35.14800 49.21900 26.94700
C  35.24200 48.41100 27.96200
C  34.91200 49.06000 29.31200
C  34.24400 50.39600 28.91600
C  34.62300 50.37800 27.40800
C  32.74900 50.67800 29.08800
C  36.28100 49.16900 30.09500
C  36.14200 48.96600 31.62600
H  34.71000 48.86100 32.19800
N  34.85000 50.67800 24.36400
C  34.36700 51.58700 25.29600
C  33.93100 52.76100 24.50900
C  34.19300 52.50400 23.15900
C  34.73000 51.15800 23.12100
C  33.32600 53.98600 25.11900
C  33.85300 53.34800 21.95000
O  34.13800 52.97200 20.83600
C  33.08600 54.72900 22.08500
N  35.64400 48.16100 22.80400
C  35.42600 49.07400 21.81200
C  35.43500 48.39500 20.43200
C  36.03800 46.99600 20.78500
C  35.95500 47.00500 22.36000
C  33.93000 48.38200 19.96900
C  37.42800 46.83900 20.16900
C  38.59100 47.58800 20.81800
N  35.85400 46.83200 25.32700
C  36.13000 45.76200 24.53400
C  36.33800 44.58600 25.36100
C  36.16500 45.04600 26.65100
C  35.89200 46.42800 26.56600
C  36.79200 43.29800 25.01400
C  36.26300 44.75000 28.06800
O  36.57800 43.69100 28.62900
C  35.77700 45.96100 28.90300
C  34.56500 45.55400 29.65200
O  33.40700 45.64000 29.25600
O  34.87800 45.12500 30.91600
C  33.69000 44.51200 31.56000
H  34.08500 52.38000 27.15700
H  34.99900 50.89500 21.02800
H  36.64800 45.07900 22.49700
H  34.13200 48.42800 29.73600
H  34.72000 51.16400 29.52700
H  32.24900 49.81100 29.52000
H  32.14300 50.82500 28.19400
H  32.57500 51.48400 29.80100
H  36.65600 50.17300 29.89600
H  37.02200 48.48100 29.68800
H  36.76700 49.77400 32.00600
H  36.68300 48.04200 31.83000
H  33.33900 53.86500 26.20200
H  32.30300 54.16600 24.79000
H  34.02500 54.79600 24.90700
H  32.06200 54.51400 22.39000
H  32.96100 55.16100 21.09300
H  33.70400 55.35700 22.72700
H  36.06900 48.94900 19.74000
H  35.44000 46.20700 20.33000
H  33.35300 47.49200 20.21900
H  33.88100 48.52700 18.89000
H  33.34000 49.09300 20.54700
H  37.35200 46.94100 19.08600
H  37.61600 45.76800 20.22900
H  38.26600 48.34200 21.53600
H  39.20200 48.13800 20.10200
H  39.26900 46.98500 21.42100
H  36.02200 42.65700 24.58500
H  37.19800 42.83900 25.91500
H  37.62600 43.56300 24.36400
H  36.60700 46.11600 29.59200
H  32.97400 43.93100 30.97800
H  33.06800 45.34000 31.89900
H  33.96100 44.13200 32.54500
Mg 8.80200 48.06400 28.48100
C  7.25000 47.19100 31.49900
C  11.82600 47.93800 30.18300
C  10.25700 49.00300 25.58300
C  5.71000 48.59100 27.05800
N  9.41300 47.88500 30.67700
C  8.66000 47.34900 31.67800
C  9.47000 47.28700 33.03400
C  10.94000 47.58700 32.59600
C  10.72000 47.86200 31.04800
C  11.70500 48.77400 33.33000
C  9.29800 45.91000 33.70400
C  10.30900 45.41800 34.78300
H  9.81700 44.94900 36.23900
N  10.66000 48.43000 27.96400
C  11.85000 48.27600 28.81700
C  13.00300 48.33500 27.94100
C  12.57500 48.65100 26.63800
C  11.13700 48.65500 26.64900
C  14.45100 48.17100 28.45400
C  13.38700 48.90600 25.33300
O  12.89800 49.21200 24.23200
C  14.86600 48.82600 25.50200
N  8.09100 48.66300 26.62400
C  8.82900 49.06100 25.54400
C  8.05800 49.49800 24.30800
C  6.60800 49.29500 24.78000
C  6.82600 48.92100 26.26500
C  8.26200 50.98200 23.88800
C  5.88200 48.16900 24.08700
C  5.61700 48.28700 22.53300
N  6.83700 47.82500 29.07100
C  5.65900 48.05200 28.37000
C  4.54900 47.64200 29.17000
C  5.10500 47.34300 30.46300
C  6.49000 47.49900 30.34000
C  3.16000 47.42400 28.66900
C  4.77600 47.01300 31.83500
O  3.69600 46.94800 32.34500
C  6.19300 46.73800 32.59600
C  6.22000 45.33100 32.95300
O  6.65100 44.38900 32.23400
O  5.87400 45.25400 34.32700
C  6.02600 43.98900 35.02300
H  12.75500 47.66800 30.69000
H  10.62400 49.30900 24.60100
H  4.73200 48.75300 26.60100
H  9.06500 48.14400 33.57300
H  11.55200 46.69800 32.74700
H  12.77100 48.70200 33.11000
H  11.76400 48.71800 34.41700
H  11.30000 49.73900 33.02700
H  9.38700 45.20700 32.87600
H  8.34900 45.76900 34.22200
H  11.06000 46.17700 35.00200
H  10.90100 44.57400 34.42900
H  15.04600 49.08400 28.45600
H  14.90600 47.39200 27.84200
H  14.46100 47.90900 29.51200
H  15.23000 48.99400 24.48900
H  15.19700 47.84600 25.84500
H  15.19200 49.74100 25.99700
H  8.29500 48.87600 23.44500
H  5.98100 50.18600 24.81000
H  8.59700 51.00800 22.85100
H  8.98200 51.42700 24.57500
H  7.36300 51.59500 23.95100
H  5.02300 47.90700 24.70500
H  6.58400 47.33500 24.05500
H  6.25900 49.01100 22.03000
H  4.54200 48.43400 22.42800
H  5.85700 47.33100 22.06800
H  2.57000 46.88300 29.40900
H  3.08400 46.82700 27.75900
H  2.60300 48.34000 28.47100
H  6.22000 47.41900 33.44700
H  5.12900 43.39800 34.84200
H  5.97300 44.23900 36.08200
H  6.95400 43.50500 34.72000

