158

Mg 47.11400 16.02900 28.45200
C  44.88300 15.65900 31.15500
C  48.54400 18.64700 30.12500
C  49.14900 16.41000 25.73100
C  44.96200 13.98900 26.43700
N  46.87900 16.88500 30.51100
C  45.92200 16.54600 31.38900
C  46.20100 17.30200 32.70300
C  47.31900 18.35600 32.37400
C  47.55900 18.00200 30.91200
C  46.72300 19.77600 32.56000
C  46.62300 16.29500 33.78900
C  46.76700 16.95600 35.20500
H  48.11900 16.87800 35.93900
N  48.61000 17.36200 28.03200
C  49.07800 18.32600 28.83900
C  50.17100 18.98200 28.18400
C  50.40100 18.35400 26.96200
C  49.39200 17.27600 26.86800
C  50.85500 20.21100 28.77400
C  51.41300 18.63900 25.85900
O  51.42200 17.95100 24.85500
C  52.46800 19.73200 25.96800
N  47.05000 15.28300 26.37200
C  48.06200 15.52500 25.44900
C  47.87000 14.62600 24.19300
C  46.54300 13.80400 24.53900
C  46.12000 14.41400 25.83900
C  47.79000 15.55500 22.98500
C  46.82400 12.25900 24.64000
C  47.32700 11.52600 23.37500
N  45.32900 15.07100 28.73100
C  44.58100 14.27600 27.85300
C  43.40500 13.80400 28.48900
C  43.48400 14.37800 29.77000
C  44.70100 15.13500 29.85900
C  42.28000 12.90300 27.91700
C  42.80600 14.43100 31.05800
O  41.74500 13.99500 31.37300
C  43.70400 15.21000 31.97600
C  42.88100 16.35200 32.51700
O  42.36900 17.25300 31.88700
O  42.72300 16.22400 33.88900
C  42.00900 17.41900 34.48700
H  48.88300 19.55900 30.62100
H  49.78600 16.33700 24.84700
H  44.25800 13.42800 25.81900
H  45.22000 17.72000 32.93200
H  48.14600 18.19800 33.06600
H  47.00800 20.45400 31.75600
H  47.27800 20.00000 33.47100
H  45.66600 19.89100 32.79800
H  47.55300 15.80200 33.51000
H  45.91600 15.49100 33.99600
H  46.06200 16.47600 35.88300
H  46.50900 18.01400 35.14200
H  50.46000 21.08300 28.25200
H  51.91900 20.43900 28.71200
H  50.59400 20.40900 29.81300
H  52.81000 19.94900 24.95600
H  53.25100 19.33900 26.61700
H  52.02100 20.66000 26.32400
H  48.64400 13.85900 24.17900
H  45.79300 13.83900 23.74800
H  46.82800 15.55000 22.47300
H  48.59100 15.40500 22.26100
H  47.71500 16.58000 23.34800
H  45.95300 11.72100 25.01200
H  47.63800 12.14600 25.35700
H  48.41100 11.46200 23.28000
H  46.90500 12.14800 22.58500
H  46.93500 10.51000 23.32500
H  41.43100 12.77000 28.58800
H  42.76500 11.94700 27.71900
H  41.91500 13.25600 26.95200
H  43.97400 14.54500 32.79600
H  41.56600 17.06300 35.41800
H  41.23500 17.91900 33.90500
H  42.80000 18.14600 34.67400
Mg 8.67100 46.90100 25.53600
C  6.75300 46.69900 28.42500
C  11.26300 48.06100 27.42200
C  10.42200 47.29000 22.73700
C  5.72000 46.42600 23.70000
N  8.97900 47.32200 27.76000
C  8.05400 47.21800 28.78100
C  8.64400 47.84700 30.08700
C  9.95900 48.52700 29.58800
C  10.09500 47.92400 28.20600
C  10.10100 50.12000 29.69500
C  8.91600 46.86700 31.27600
C  8.20400 47.25100 32.60400
H  8.19200 46.06600 33.64400
N  10.60900 47.47000 25.15100
C  11.55900 47.73300 26.11400
C  12.87500 47.73800 25.46200
C  12.70500 47.50500 24.04400
C  11.20500 47.43000 23.92000
C  14.17600 48.10600 26.16400
C  13.66000 47.40200 22.87300
O  13.23000 47.39800 21.69700
C  15.12100 47.14500 23.17300
N  8.17100 46.71300 23.52700
C  9.03500 47.07700 22.53800
C  8.41700 47.28300 21.15300
C  6.95400 46.88300 21.51800
C  6.92300 46.66000 22.97400
C  8.54800 48.69000 20.52000
C  6.57500 45.51900 20.77600
C  5.13400 45.44500 20.23300
N  6.65400 46.59500 25.88500
C  5.60200 46.29800 25.09700
C  4.40700 46.05500 25.82100
C  4.83800 46.21100 27.13800
C  6.17600 46.49600 27.14800
C  3.02600 45.91300 25.24200
C  4.41400 46.21500 28.51800
O  3.31800 46.07200 29.00000
C  5.67900 46.60300 29.39000
C  5.81900 45.56500 30.40400
O  6.23900 44.45000 30.21400
O  5.25100 45.95100 31.57200
C  4.86300 44.98100 32.56700
H  12.09200 48.40300 28.04500
H  10.98200 47.35700 21.80200
H  4.81000 46.27500 23.11500
H  7.97300 48.60000 30.49900
H  10.76400 48.06800 30.16200
H  9.14000 50.63400 29.69300
H  10.70200 50.47200 28.85600
H  10.64800 50.36900 30.60500
H  9.96400 46.71900 31.53400
H  8.44900 45.93400 30.95900
H  7.18100 47.60600 32.48000
H  8.73900 48.03800 33.13500
H  14.76500 48.75100 25.51300
H  14.73500 47.21900 26.46200
H  14.02500 48.73200 27.04400
H  15.42600 48.18800 23.25900
H  15.72500 46.71700 22.37300
H  15.30800 46.67300 24.13800
H  8.92300 46.60100 20.46800
H  6.22900 47.62500 21.18400
H  7.60000 49.18800 20.72100
H  8.70800 48.72000 19.44200
H  9.31200 49.38400 20.87100
H  6.63600 44.62300 21.39400
H  7.19700 45.46700 19.88200
H  4.60300 46.29500 20.66000
H  4.73200 44.47700 20.53300
H  5.05700 45.48700 19.14600
H  3.03500 45.46400 24.24900
H  2.54600 46.88900 25.32600
H  2.52700 45.13900 25.82500
H  5.53500 47.52900 29.94700
H  3.77500 45.04500 32.55200
H  5.24900 45.26400 33.54600
H  5.25100 43.96900 32.44800

