158

Mg -0.41900 7.28300 27.27200
C  0.57700 9.36400 29.99000
C  -0.40100 4.64500 29.33100
C  -0.62900 5.31000 24.55400
C  0.28600 10.08200 25.24400
N  0.16500 7.05000 29.37700
C  0.27500 8.03700 30.31900
C  0.07400 7.44200 31.75800
C  0.09600 5.91200 31.49500
C  -0.01900 5.82500 29.96200
C  1.31600 5.13100 32.11500
C  -1.18800 8.10500 32.37600
C  -1.10700 8.50000 33.83600
H  -0.21800 7.64100 34.80700
N  -0.62700 5.25000 27.06100
C  -0.62500 4.32300 28.00500
C  -1.04800 3.02300 27.50900
C  -1.17800 3.22300 26.04800
C  -0.73300 4.61300 25.84300
C  -1.44900 1.79100 28.36300
C  -1.52700 2.26700 25.03600
O  -1.49100 2.55900 23.82000
C  -1.98100 0.96800 25.44900
N  -0.49400 7.65600 25.12400
C  -0.52200 6.68900 24.22100
C  -0.49900 7.23100 22.77500
C  -0.37100 8.80600 23.09500
C  -0.15300 8.86900 24.59100
C  0.49200 6.70400 21.73300
C  -1.68600 9.57400 22.68600
C  -1.69700 11.11900 22.79300
N  0.20400 9.34900 27.49900
C  0.47200 10.34800 26.61200
C  0.74200 11.62200 27.25800
C  0.79500 11.21800 28.58700
C  0.52700 9.82200 28.69300
C  0.84100 12.93100 26.55800
C  1.12500 11.77800 29.94500
O  1.55200 12.88800 30.23400
C  0.84100 10.57700 30.91000
C  2.03000 10.39700 31.81900
O  3.02000 9.90400 31.35400
O  1.90900 11.00400 33.03100
C  3.03300 10.73200 33.92700
H  -0.44100 3.76300 29.97300
H  -0.88000 4.73300 23.66200
H  0.49100 10.93900 24.59900
H  0.96700 7.62200 32.35600
H  -0.75400 5.37700 31.92100
H  0.89400 4.19700 32.48600
H  1.76000 5.72200 32.91500
H  2.09500 4.84200 31.40900
H  -1.99000 7.36900 32.31700
H  -1.42600 9.03700 31.86400
H  -2.12100 8.42000 34.22900
H  -0.85500 9.56000 33.88600
H  -2.52800 1.66600 28.27600
H  -1.35700 1.91700 29.44200
H  -0.99600 0.87300 27.99000
H  -1.21500 0.31800 25.87100
H  -2.27400 0.58000 24.47400
H  -2.87200 0.99000 26.07800
H  -1.44800 6.98400 22.29900
H  0.46200 9.34600 22.64400
H  0.95200 7.58800 21.29100
H  0.01700 6.03700 21.01300
H  1.29000 6.15800 22.23600
H  -2.48100 9.40800 23.41300
H  -1.99800 9.22100 21.70300
H  -2.14200 11.51100 23.70700
H  -2.22100 11.49200 21.91300
H  -0.68100 11.43600 22.55600
H  0.23900 12.97800 25.65100
H  1.84700 13.25500 26.29000
H  0.37200 13.67200 27.20700
H  -0.00800 10.94900 31.48300
H  3.37500 11.65700 34.39200
H  3.87000 10.19900 33.47600
H  2.63000 10.07000 34.69400
Mg -13.19200 16.22300 42.96000
C  -10.08900 14.44300 42.61200
C  -11.81500 18.81900 41.05800
C  -16.27200 17.52300 42.40400
C  -14.67600 13.16900 43.83900
N  -11.17100 16.63300 41.94800
C  -10.09900 15.76800 42.03500
C  -8.87500 16.44900 41.26500
C  -9.35300 17.92300 41.07800
C  -10.87900 17.81800 41.28100
C  -8.71100 19.10600 41.87700
C  -8.49400 15.71500 39.97800
C  -7.14800 15.02700 39.89400
H  -6.49000 14.86600 38.50500
N  -13.91100 18.03700 42.09300
C  -13.16800 18.90100 41.31900
C  -13.97900 20.01100 40.91600
C  -15.29500 19.68400 41.31300
C  -15.17500 18.32900 41.97000
C  -13.45100 21.21500 40.14700
C  -16.51500 20.50000 41.14600
O  -16.44600 21.64300 40.68600
C  -17.86800 20.22600 41.69500
N  -15.17500 15.44600 42.99900
C  -16.29600 16.28900 42.86000
C  -17.60200 15.60000 43.22000
C  -17.06000 14.19400 43.69400
C  -15.55500 14.25200 43.55600
C  -18.47600 16.31400 44.22700
C  -17.70100 12.95500 42.82000
C  -18.31100 11.74800 43.63600
N  -12.54500 14.20200 43.30700
C  -13.26000 13.10900 43.74800
C  -12.37100 11.99300 43.90800
C  -11.11700 12.45900 43.45300
C  -11.23000 13.81700 43.07800
C  -12.60000 10.59400 44.59000
C  -9.68000 12.06200 43.25000
O  -9.02400 11.08500 43.48900
C  -8.99600 13.40900 42.60900
C  -7.86900 13.70900 43.44300
O  -8.01000 14.03000 44.63600
O  -6.65000 13.67200 42.81200
C  -5.44800 13.85200 43.66800
H  -11.33200 19.53500 40.39000
H  -17.27400 17.88600 42.16400
H  -15.08900 12.24900 44.25800
H  -7.97000 16.40500 41.87100
H  -9.32200 18.16500 40.01500
H  -8.24300 19.87100 41.25800
H  -7.87500 18.85400 42.52900
H  -9.40700 19.66400 42.50300
H  -8.41600 16.43400 39.16300
H  -9.15100 14.90000 39.67400
H  -7.23600 14.00700 40.26800
H  -6.50900 15.53200 40.61800
H  -13.69900 21.06500 39.09600
H  -12.36100 21.20900 40.17200
H  -13.80600 22.16900 40.53700
H  -18.19900 19.43100 41.02600
H  -18.42300 21.16200 41.63300
H  -17.93300 19.90200 42.73300
H  -18.18200 15.49000 42.30400
H  -17.47900 13.98000 44.67700
H  -17.90500 16.98600 44.86800
H  -18.78800 15.51300 44.89800
H  -19.29200 16.90200 43.80800
H  -16.94600 12.56600 42.13600
H  -18.50800 13.35300 42.20500
H  -17.43300 11.16600 43.91400
H  -19.03500 11.11000 43.12900
H  -18.84400 12.16100 44.49200
H  -11.85900 10.48700 45.38200
H  -12.39700 9.77100 43.90600
H  -13.63100 10.54400 44.94200
H  -8.79900 13.24500 41.54900
H  -5.41600 13.09100 44.44800
H  -5.31300 14.89600 43.95400
H  -4.52800 13.67400 43.11200

