158

Mg -2.95600 17.58100 25.85300
C  -3.18600 15.06500 28.26800
C  -3.47300 19.91800 28.15800
C  -2.84500 19.70800 23.34500
C  -3.08300 14.92700 23.41200
N  -3.14100 17.44400 28.01200
C  -3.39600 16.37300 28.74700
C  -3.69700 16.79200 30.20700
C  -3.84900 18.35200 30.04000
C  -3.38200 18.61400 28.66200
C  -5.28300 18.98700 30.38800
C  -2.76600 16.41800 31.38300
C  -2.72500 17.29500 32.64300
H  -2.73500 16.51200 33.95300
N  -3.04900 19.52600 25.77500
C  -3.12600 20.36100 26.87800
C  -3.12500 21.69400 26.48200
C  -2.95100 21.72900 25.06700
C  -2.91700 20.29900 24.64500
C  -3.07100 22.85000 27.40800
C  -2.86000 22.92900 24.13200
O  -2.90100 22.74800 22.91500
C  -2.80900 24.28900 24.63300
N  -3.21900 17.33500 23.69400
C  -3.00100 18.39200 22.96200
C  -2.80700 18.03700 21.51100
C  -3.04400 16.51600 21.45900
C  -3.10600 16.19900 22.93600
C  -3.60000 18.93100 20.46600
C  -1.96700 15.71200 20.66300
C  -2.40900 15.21600 19.29400
N  -2.92800 15.35400 25.78600
C  -2.94400 14.48500 24.74700
C  -2.87700 13.14700 25.26100
C  -2.94800 13.31500 26.68800
C  -2.92600 14.68500 26.94600
C  -2.82400 11.95700 24.39600
C  -3.05200 12.61700 27.95800
O  -2.99000 11.37000 28.17800
C  -3.16400 13.75800 29.06400
C  -2.00900 13.57600 29.85900
O  -0.89600 14.01900 29.64500
O  -2.43000 12.79900 30.92300
C  -1.34800 12.70600 31.90000
H  -3.82700 20.58200 28.95000
H  -2.43200 20.35300 22.56600
H  -3.20700 14.10700 22.70200
H  -4.59900 16.24600 30.48200
H  -3.04800 18.80200 30.62700
H  -5.95300 18.12700 30.38400
H  -5.70400 19.72900 29.70900
H  -5.11500 19.42100 31.37300
H  -1.80800 16.42500 30.86300
H  -2.84800 15.39600 31.75200
H  -3.53700 18.01600 32.73800
H  -1.80000 17.86700 32.57100
H  -4.00200 23.41500 27.37000
H  -2.28400 23.56400 27.16700
H  -2.85300 22.68300 28.46300
H  -2.59400 25.06000 23.89400
H  -2.01300 24.43500 25.36300
H  -3.79300 24.46100 25.07100
H  -1.76800 18.23900 21.24700
H  -4.03700 16.22000 21.12200
H  -4.49700 19.37300 20.89900
H  -3.92000 18.31900 19.62300
H  -3.01400 19.72300 20.00000
H  -1.58000 14.99200 21.38400
H  -1.08700 16.32100 20.45700
H  -3.38700 15.64100 19.07200
H  -2.47000 14.13100 19.20100
H  -1.71200 15.63700 18.56900
H  -2.53000 11.07300 24.96300
H  -2.24400 12.10500 23.48500
H  -3.78200 11.93700 23.87700
H  -3.95800 13.71000 29.80900
H  -1.65000 12.11900 32.76800
H  -1.12900 13.68600 32.32400
H  -0.45600 12.22800 31.49600
Mg 6.11200 53.25300 41.68400
C  5.78600 49.65600 41.56600
C  9.50700 52.59700 40.83200
C  6.42300 56.32200 40.74900
C  2.73200 53.40400 41.97700
N  7.39000 51.32100 40.98500
C  7.06100 50.04700 41.06500
C  8.19700 49.13200 40.78600
C  9.41600 50.05300 41.12800
C  8.72900 51.41000 41.08200
C  10.13400 49.93200 42.49900
C  8.11600 48.55000 39.30100
C  8.07000 49.52200 38.07400
H  6.91600 49.42300 37.11100
N  7.70300 54.33200 40.99300
C  9.03400 53.93500 40.76700
C  9.79800 55.05300 40.41300
C  8.93200 56.18400 40.50800
C  7.59700 55.67000 40.72000
C  11.26900 54.94400 40.14400
C  9.45700 57.63600 40.26700
O  10.60100 57.90500 39.88000
C  8.42900 58.74300 40.28500
N  4.77200 54.61700 41.10200
C  5.09000 55.90700 40.90600
C  3.91600 56.90600 41.11400
C  2.78300 55.88200 41.51000
C  3.44500 54.53900 41.49000
C  4.21500 57.98900 42.16300
C  1.40700 55.97400 40.80700
C  0.68200 57.34800 40.90800
N  4.55500 51.87600 41.93500
C  3.20500 52.10100 42.14400
C  2.56500 50.92200 42.54000
C  3.55600 49.92100 42.35900
C  4.71400 50.57300 41.89400
C  1.09400 50.72900 42.91600
C  3.78700 48.54100 42.46800
O  3.09700 47.64100 42.89200
C  5.20500 48.29000 41.78200
C  4.97300 47.60000 40.58100
O  4.34200 48.05900 39.57600
O  5.38100 46.28300 40.69500
C  5.03800 45.44300 39.51200
H  10.54800 52.30700 40.67800
H  6.38800 57.41300 40.72900
H  1.65200 53.49800 42.10600
H  8.03500 48.31300 41.48600
H  10.19400 50.04500 40.36400
H  9.94200 50.76800 43.17100
H  11.21400 49.86600 42.36800
H  9.75900 49.09400 43.08800
H  7.29600 47.83500 39.24200
H  8.91100 47.83500 39.09100
H  8.95700 49.14200 37.56700
H  8.40600 50.50400 38.40600
H  11.48300 54.07800 39.51800
H  11.81600 54.87100 41.08400
H  11.68500 55.81200 39.63300
H  7.59200 58.50300 39.62900
H  8.84500 59.74600 40.18900
H  8.26100 58.71500 41.36100
H  3.68800 57.44900 40.19600
H  2.67300 56.10800 42.57100
H  3.34600 58.28400 42.75000
H  4.41500 58.85300 41.53000
H  5.09200 57.66900 42.72700
H  0.76400 55.24500 41.30000
H  1.61600 55.69400 39.77500
H  0.92800 57.99300 41.75200
H  -0.40200 57.26900 40.99600
H  0.92700 57.84700 39.97100
H  0.54100 51.46400 42.33100
H  1.00400 50.76200 44.00200
H  0.67200 49.78000 42.58300
H  5.87300 47.78600 42.48100
H  3.95500 45.46100 39.38700
H  5.31400 44.40400 39.69000
H  5.40300 45.79600 38.54700

