158

Mg 7.18700 1.58200 28.08700
C  8.73500 0.23900 30.93800
C  5.14600 3.40400 30.20400
C  6.06800 3.04900 25.48000
C  9.11400 -0.59100 26.15300
N  6.98200 1.70300 30.28900
C  7.82600 1.18800 31.23100
C  7.58800 1.79700 32.70300
C  6.21200 2.66300 32.44700
C  6.00500 2.52400 30.91000
C  4.99900 2.31000 33.33500
C  8.79600 2.64300 33.21900
C  9.25600 2.42600 34.68700
H  8.17500 2.23700 35.81100
N  5.74200 3.12700 27.89800
C  5.01500 3.74200 28.83000
C  4.17800 4.71100 28.18500
C  4.62300 4.83000 26.85500
C  5.53500 3.63600 26.68400
C  3.13400 5.54300 29.03300
C  4.24500 5.85500 25.76100
O  4.86000 5.85600 24.64600
C  3.26000 6.86700 26.09600
N  7.36200 1.16000 26.07800
C  6.80500 1.94800 25.20700
C  7.22100 1.54500 23.74000
C  8.09600 0.33900 23.95100
C  8.17000 0.22700 25.51100
C  6.00800 1.32200 22.62700
C  9.40800 0.33900 23.15200
C  10.56600 1.17200 23.84600
N  8.59500 0.13200 28.43500
C  9.39300 -0.64900 27.54400
C  10.31600 -1.51600 28.27700
C  10.18600 -1.04900 29.60400
C  9.06000 -0.15000 29.59600
C  11.18500 -2.58700 27.69400
C  10.72900 -1.23900 30.89800
O  11.63000 -2.00800 31.33500
C  9.88300 -0.22300 31.79800
C  9.26400 -0.94900 32.93200
O  8.25900 -1.66300 32.82600
O  9.97000 -0.89100 34.08300
C  9.38000 -1.45100 35.26900
H  4.59800 3.99500 30.94000
H  5.80800 3.62100 24.58600
H  9.67800 -1.30300 25.54600
H  7.41900 0.96300 33.38300
H  6.33800 3.73300 32.61500
H  5.30000 1.59600 34.10200
H  4.20500 1.86000 32.73900
H  4.71900 3.21300 33.87800
H  8.65400 3.67700 32.90400
H  9.69100 2.30900 32.69300
H  9.92400 3.24400 34.95900
H  9.91900 1.56100 34.73100
H  3.35900 6.59800 28.87400
H  2.95300 5.19900 30.05100
H  2.20800 5.43800 28.46800
H  2.33200 6.49600 26.52900
H  3.00100 7.33000 25.14400
H  3.70200 7.60700 26.76300
H  7.76500 2.43700 23.42700
H  7.67400 -0.62100 23.65400
H  5.07900 1.50700 23.16500
H  5.90000 0.31900 22.21500
H  6.13800 2.05100 21.82700
H  9.32300 0.62800 22.10500
H  9.81400 -0.66900 23.07200
H  10.38700 1.56300 24.84700
H  10.78600 1.96100 23.12600
H  11.44000 0.55400 24.05300
H  12.05000 -2.22400 27.14000
H  10.49000 -3.22600 27.14800
H  11.54400 -3.27900 28.45500
H  10.62200 0.55300 32.00100
H  9.96100 -2.37100 35.33100
H  8.32700 -1.71600 35.17500
H  9.47200 -0.76200 36.10800
Mg -0.90800 34.42300 26.97000
C  -2.87200 32.70500 29.13400
C  0.11200 36.58500 29.47200
C  0.69700 36.24000 24.62900
C  -2.15400 32.44900 24.23000
N  -1.33000 34.58400 29.11200
C  -2.23400 33.75500 29.81700
C  -2.07500 34.05000 31.36300
C  -1.30500 35.41900 31.39700
C  -0.80200 35.57900 29.93000
C  -1.93500 36.68700 32.07900
C  -1.34900 32.90900 32.17100
C  -2.02400 32.16300 33.32300
H  -1.21800 32.17000 34.67400
N  0.28800 36.16300 27.03900
C  0.67000 36.81800 28.13900
C  1.66600 37.83100 27.77900
C  1.91100 37.68900 26.34700
C  0.92800 36.59300 25.96400
C  2.35300 38.73300 28.79200
C  2.87100 38.41100 25.40200
O  2.94300 38.22000 24.21500
C  3.65300 39.53700 26.04200
N  -0.69600 34.27600 24.81500
C  -0.00600 35.19500 24.09600
C  -0.38200 35.19000 22.62200
C  -1.02000 33.80100 22.52900
C  -1.34600 33.47600 23.93000
C  -1.28900 36.39000 22.16900
C  -0.12500 32.67900 21.85500
C  0.81700 31.86600 22.79000
N  -2.16800 32.84300 26.70600
C  -2.52000 32.09400 25.54200
C  -3.27100 30.99900 25.98400
C  -3.55500 31.27000 27.35700
C  -2.81700 32.35000 27.75500
C  -3.92100 29.94100 25.00900
C  -4.35400 30.77900 28.52400
O  -5.15900 29.85300 28.62700
C  -3.82000 31.67100 29.67500
C  -5.03600 32.26200 30.31700
O  -5.75900 33.10400 29.81000
O  -5.20600 31.76400 31.55000
C  -6.19500 32.37600 32.38700
H  0.35600 37.34300 30.22000
H  1.04400 36.88900 23.82200
H  -2.53700 31.85100 23.40000
H  -3.12000 34.26300 31.58900
H  -0.40000 35.13400 31.93400
H  -2.36200 37.40700 31.38100
H  -1.16700 37.17100 32.68300
H  -2.75700 36.38500 32.72800
H  -0.39100 33.28800 32.52800
H  -1.08500 32.21600 31.37200
H  -2.23400 31.10500 33.16800
H  -3.01900 32.56200 33.51900
H  3.39500 38.41900 28.86000
H  2.05000 38.64500 29.83600
H  2.12700 39.79500 28.70700
H  4.29600 39.13500 26.82400
H  2.93500 40.24400 26.45900
H  4.29100 40.09700 25.35800
H  0.54200 35.14800 22.04500
H  -1.92500 33.81100 21.92200
H  -1.53400 37.16200 22.89900
H  -2.24800 35.99800 21.83100
H  -0.73100 36.80200 21.32800
H  0.46000 33.13700 21.05700
H  -0.69200 31.92600 21.30900
H  0.92600 32.13000 23.84200
H  1.82500 31.86900 22.37500
H  0.54700 30.81300 22.85900
H  -4.41000 29.13800 25.56100
H  -3.18500 29.62400 24.27100
H  -4.67200 30.51400 24.46500
H  -3.28700 31.06600 30.40800
H  -6.90300 33.10900 32.00100
H  -5.62900 32.87200 33.17600
H  -6.80700 31.61400 32.87000

