158

Mg 2.65600 -1.53100 44.42400
C  6.00200 -0.83300 43.62800
C  1.64900 0.87900 42.33000
C  -0.52500 -2.55100 44.81400
C  3.76200 -4.70000 45.58700
N  3.72700 -0.09100 43.27400
C  5.09000 0.08300 43.06700
C  5.34100 1.12700 42.06400
C  3.90800 1.72700 41.78600
C  3.00900 0.76700 42.55700
C  3.67700 3.22900 42.16900
C  6.06400 0.54700 40.76000
C  6.92100 1.56800 40.10400
H  6.41900 2.07900 38.77000
N  0.83200 -0.83800 43.75200
C  0.61900 0.20400 42.93500
C  -0.73600 0.50000 42.78900
C  -1.47200 -0.59400 43.36700
C  -0.34700 -1.37500 44.06800
C  -1.15000 1.75700 41.98500
C  -2.93600 -0.75300 43.30700
O  -3.66300 0.10400 42.77200
C  -3.62500 -1.98200 43.87000
N  1.77100 -3.43000 45.04400
C  0.42100 -3.48000 45.22000
C  0.04500 -4.91000 45.79400
C  1.41800 -5.48300 46.23200
C  2.38100 -4.50000 45.61700
C  -1.03900 -5.01400 46.83800
C  1.69900 -6.93100 45.87000
C  2.46900 -7.84700 46.87700
N  4.47500 -2.58700 44.68300
C  4.74700 -3.79900 45.17500
C  6.14900 -3.99900 45.27600
C  6.72700 -2.82200 44.72800
C  5.63800 -2.04100 44.29700
C  6.84000 -5.21900 45.85600
C  7.91900 -2.12900 44.42000
O  9.07100 -2.43800 44.58000
C  7.48300 -0.83600 43.64400
C  8.10100 0.31300 44.37900
O  7.88800 0.56700 45.54500
O  8.66700 1.08000 43.40700
C  9.38300 2.34100 43.69500
H  1.43800 1.59700 41.53500
H  -1.54100 -2.94400 44.88900
H  4.09500 -5.70500 45.85600
H  5.97200 1.91300 42.47800
H  3.64200 1.79900 40.73100
H  4.68100 3.64300 42.26600
H  3.23100 3.35900 43.15500
H  3.10400 3.71800 41.38100
H  5.33300 0.12300 40.07100
H  6.65800 -0.33600 40.99000
H  7.90200 1.09800 40.03900
H  7.06100 2.48700 40.67300
H  -2.16300 2.12400 42.14700
H  -1.14600 1.57700 40.91000
H  -0.38500 2.46800 42.29600
H  -4.67800 -1.87100 43.61000
H  -3.38700 -1.85800 44.92600
H  -3.18800 -2.85900 43.39200
H  -0.16900 -5.63600 45.01000
H  1.49000 -5.25400 47.29600
H  -1.63500 -4.12000 46.65900
H  -0.83500 -5.23100 47.88600
H  -1.63800 -5.86800 46.52200
H  2.18600 -6.91100 44.89500
H  0.82000 -7.48400 45.53900
H  3.47400 -8.06300 46.51300
H  1.89800 -8.76700 46.99800
H  2.75900 -7.44600 47.84800
H  6.20200 -6.10200 45.88800
H  7.15400 -4.91700 46.85500
H  7.71000 -5.45200 45.24200
H  7.91800 -0.76900 42.64700
H  8.71800 3.16900 43.44900
H  10.20200 2.41600 42.97900
H  9.82100 2.36700 44.69300
Mg 26.32500 0.55200 28.36100
C  28.04900 0.40600 31.33100
C  23.47100 1.25600 30.09700
C  24.58700 0.23500 25.41500
C  29.28400 -0.36500 26.66800
N  25.81100 0.60500 30.53000
C  26.69400 0.66500 31.50200
C  26.05500 1.15300 32.81500
C  24.53500 1.23900 32.47400
C  24.59200 1.08600 30.92600
C  23.54800 0.32400 33.18900
C  26.64300 2.48000 33.40100
C  27.30500 2.32600 34.81100
H  26.75000 3.24100 36.00700
N  24.31100 0.74800 27.82800
C  23.33000 1.08100 28.74800
C  22.12000 1.21900 27.96900
C  22.36800 0.74600 26.58100
C  23.78800 0.54700 26.56100
C  20.80000 1.68800 28.54200
C  21.40700 0.61700 25.32300
O  21.79800 0.13500 24.22300
C  19.95400 1.07700 25.52300
N  26.87700 -0.15100 26.46100
C  25.95900 -0.06600 25.40700
C  26.62200 -0.35900 24.06700
C  28.14200 -0.37200 24.41400
C  28.12700 -0.23800 25.99100
C  26.19400 -1.78400 23.55100
C  29.01900 0.75400 23.77200
C  28.49200 2.16800 23.74200
N  28.26200 0.04200 28.87600
C  29.32700 -0.33500 28.11200
C  30.38100 -0.59200 29.01200
C  29.98100 -0.22300 30.27000
C  28.64200 0.08700 30.12200
C  31.69500 -1.31200 28.74500
C  30.42900 -0.11200 31.56800
O  31.51100 -0.32100 32.08800
C  29.18500 0.33100 32.36200
C  29.00900 -0.66300 33.38600
O  28.38900 -1.72100 33.23200
O  29.72900 -0.32600 34.51200
C  29.65200 -1.16400 35.60000
H  22.52900 1.40600 30.62900
H  24.03500 0.21900 24.47300
H  30.25700 -0.54200 26.20500
H  26.26700 0.27500 33.42500
H  24.17100 2.23400 32.73000
H  23.19500 -0.45800 32.51600
H  22.66800 0.92500 33.41900
H  23.98400 -0.00700 34.13200
H  25.93100 3.30400 33.40200
H  27.55700 2.81100 32.90800
H  28.35500 2.60500 34.71900
H  27.17800 1.33400 35.24400
H  20.78000 1.85900 29.61800
H  20.21400 0.76900 28.50900
H  20.33300 2.44500 27.91300
H  19.50900 0.61900 26.40600
H  19.36400 0.97500 24.61100
H  20.07000 2.10100 25.87900
H  26.35900 0.46100 23.39900
H  28.62600 -1.32400 24.19700
H  26.62500 -2.12500 22.60900
H  25.11400 -1.73600 23.41100
H  26.29900 -2.55800 24.31200
H  29.24300 0.46600 22.74500
H  30.03700 0.76700 24.16100
H  27.49100 2.18500 24.17100
H  28.46900 2.46900 22.69500
H  29.23200 2.72300 24.32000
H  32.44300 -0.52300 28.82700
H  31.55100 -1.68700 27.73200
H  31.97600 -2.15800 29.37200
H  29.49700 1.26600 32.82600
H  30.11500 -2.12800 35.38900
H  28.75100 -1.20900 36.21100
H  30.39100 -0.70600 36.25700

