158

Mg 25.89600 1.06900 29.71100
C  27.70600 0.76000 32.59400
C  23.15500 1.93200 31.56800
C  24.09300 1.46900 26.84500
C  28.56000 0.12500 27.85200
N  25.46900 1.38600 31.78400
C  26.37400 1.15600 32.79900
C  25.83500 1.47700 34.14500
C  24.27700 1.49500 33.87800
C  24.27900 1.65500 32.32300
C  23.40400 0.32000 34.40300
C  26.39900 2.82700 34.76200
C  27.28600 2.58600 36.08300
H  26.83200 3.27200 37.35800
N  23.89100 1.56100 29.27500
C  22.96400 1.91000 30.18700
C  21.69500 2.13300 29.50300
C  21.89500 1.91200 28.05100
C  23.31100 1.56300 27.99800
C  20.38900 2.54700 30.10700
C  20.99700 2.16800 26.81700
O  21.27900 1.99100 25.62900
C  19.56600 2.77200 27.05500
N  26.21800 0.60500 27.62600
C  25.44100 1.03800 26.64400
C  26.18800 1.23300 25.24900
C  27.59400 0.67500 25.59600
C  27.45800 0.44100 27.12000
C  25.49700 0.62000 24.04600
C  28.78900 1.55100 25.27300
C  28.80900 2.95500 26.05300
N  27.82400 0.34800 30.10100
C  28.79500 0.03800 29.18500
C  29.98400 -0.22600 30.02900
C  29.63700 0.08200 31.38200
C  28.27600 0.43600 31.34000
C  31.33900 -0.60600 29.65300
C  30.08100 0.12200 32.76600
O  31.16100 -0.09400 33.26400
C  28.79200 0.68500 33.60000
C  28.69800 -0.34700 34.62900
O  28.07200 -1.33800 34.44900
O  29.29300 0.08900 35.77400
C  29.04200 -0.77400 36.98400
H  22.33400 2.25000 32.21300
H  23.58400 1.81400 25.94300
H  29.50800 -0.05400 27.33900
H  26.08900 0.68100 34.84500
H  23.69100 2.38400 34.10700
H  23.16500 -0.35300 33.57900
H  22.44300 0.60900 34.82700
H  23.83300 -0.27100 35.21200
H  25.51500 3.43400 34.95700
H  26.98500 3.44800 34.08500
H  28.29700 2.77300 35.72200
H  27.35100 1.54800 36.41000
H  20.59900 2.57000 31.17700
H  19.57700 1.86600 29.85300
H  20.17300 3.56700 29.79100
H  19.05900 3.04700 26.13000
H  19.67800 3.79100 27.42600
H  18.93400 2.23900 27.76600
H  26.29500 2.26000 24.89900
H  27.75700 -0.28600 25.10800
H  26.19100 -0.08300 23.58400
H  25.11900 1.36700 23.34900
H  24.78100 -0.17100 24.27100
H  28.87700 1.83600 24.22500
H  29.77400 1.09600 25.38600
H  28.28700 2.81700 26.99900
H  28.32500 3.70000 25.42200
H  29.80800 3.32500 26.28100
H  31.19200 -1.40700 28.92800
H  31.91800 -1.06000 30.45700
H  31.85500 0.23300 29.18700
H  29.15700 1.63800 33.98400
H  29.05100 -1.82200 36.68700
H  28.17100 -0.46400 37.56100
H  29.88600 -0.59100 37.64900
Mg 0.21100 43.45500 26.81500
C  2.50200 43.17400 29.35000
C  -2.35400 42.80200 29.05900
C  -2.02200 43.25200 24.16900
C  2.81900 43.53300 24.53000
N  0.08800 43.09300 28.97400
C  1.14100 43.18500 29.84400
C  0.68100 43.22100 31.29800
C  -0.79500 42.73600 31.17900
C  -1.07600 42.83600 29.61600
C  -1.03800 41.39100 31.78900
C  0.89200 44.61800 31.96800
C  1.19700 44.73500 33.47900
H  0.79900 43.58200 34.42800
N  -1.89500 43.25700 26.67100
C  -2.69500 43.00800 27.73000
C  -4.06200 42.95400 27.25700
C  -4.02300 43.04100 25.81700
C  -2.62200 43.10900 25.50500
C  -5.23100 43.00500 28.21200
C  -5.13500 43.12900 24.79800
O  -4.99300 43.09700 23.56700
C  -6.61000 43.08500 25.29500
N  0.31000 43.41100 24.67400
C  -0.68400 43.40700 23.81100
C  -0.21400 43.19100 22.35600
C  1.26200 43.47500 22.48000
C  1.50000 43.53100 23.98500
C  -0.64300 41.76100 21.83500
C  1.87500 44.68400 21.63800
C  1.77900 46.01500 22.44100
N  2.27300 43.26200 26.90300
C  3.19200 43.37100 25.85700
C  4.48800 43.47800 26.43600
C  4.24100 43.22100 27.80500
C  2.90300 43.21100 28.01000
C  5.74200 43.63600 25.57300
C  4.88400 43.02100 29.10700
O  6.07600 43.03400 29.41500
C  3.77600 42.92700 30.15900
C  3.79800 41.64300 30.84100
O  3.81400 40.54400 30.42400
O  3.78000 41.81000 32.21700
C  3.93100 40.62100 33.12600
H  -3.17400 42.54000 29.73100
H  -2.69600 43.12200 23.32000
H  3.59200 43.65600 23.76900
H  1.25100 42.51600 31.90300
H  -1.53000 43.31500 31.73700
H  -1.80100 41.40000 32.56700
H  -0.13900 41.04900 32.30100
H  -1.37300 40.66600 31.04800
H  0.06200 45.18100 31.54300
H  1.73100 45.04800 31.42200
H  0.62300 45.61900 33.75800
H  2.26400 44.95500 33.51200
H  -6.09600 43.57700 27.87600
H  -4.88100 43.49700 29.11900
H  -5.60000 42.02800 28.52500
H  -6.75600 42.11500 25.77200
H  -7.25400 43.03300 24.41700
H  -6.74000 43.99200 25.88500
H  -0.74300 43.82100 21.64100
H  1.86100 42.62200 22.16200
H  -1.14200 41.16000 22.59500
H  0.23800 41.23800 21.46300
H  -1.32000 41.87200 20.98800
H  1.40500 44.90000 20.67900
H  2.91100 44.37300 21.50000
H  2.03800 46.86200 21.80600
H  2.31700 45.85400 23.37400
H  0.75200 46.17900 22.76700
H  5.79000 42.97500 24.70800
H  6.64400 43.43600 26.15100
H  5.80100 44.66300 25.21200
H  3.91700 43.70400 30.91000
H  4.68800 40.84700 33.87800
H  4.39600 39.74600 32.67200
H  2.96400 40.56100 33.62400

