158

Mg 44.43400 4.81400 45.81900
C  42.54800 7.80800 45.84300
C  41.37800 3.14000 45.24200
C  46.18200 1.93300 45.03700
C  47.23000 6.59200 46.26400
N  42.17800 5.45900 45.43000
C  41.70500 6.65800 45.52000
C  40.13700 6.62800 45.36400
C  39.77400 5.13900 45.47900
C  41.19900 4.51400 45.39600
C  38.92400 4.81500 46.74500
C  39.48700 7.43800 44.12100
C  40.41700 7.82600 42.94800
H  40.42800 6.84100 41.71400
N  43.92900 2.83200 45.19600
C  42.59400 2.38400 45.06900
C  42.71800 0.97900 44.80400
C  44.02400 0.61000 44.46600
C  44.82100 1.79600 44.89000
C  41.46700 0.04500 44.72100
C  44.52100 -0.77300 43.95200
O  43.77500 -1.64400 43.77700
C  45.94500 -0.95800 43.62400
N  46.43700 4.38400 45.45200
C  46.90600 3.12600 45.36400
C  48.47200 3.07700 45.70000
C  48.81200 4.59100 45.98900
C  47.41500 5.29700 45.82100
C  48.88200 2.03100 46.71100
C  49.97100 5.13200 45.03400
C  49.52700 5.56500 43.59900
N  44.88900 6.81400 45.81500
C  46.09400 7.38500 46.22800
C  45.88400 8.77100 46.50000
C  44.47900 8.98500 46.34400
C  43.94400 7.75000 45.95800
C  46.99900 9.67400 46.84600
C  43.42900 9.99200 46.41400
O  43.45400 11.16200 46.68700
C  42.05800 9.26500 46.07700
C  41.16500 9.36000 47.28000
O  41.23800 8.67700 48.33400
O  40.17100 10.29300 47.06400
C  39.05500 10.31600 48.01100
H  40.41600 2.62400 45.25200
H  46.91500 1.15900 44.80100
H  48.20600 7.07200 46.35800
H  39.75600 7.17200 46.22800
H  39.21900 4.69700 44.65100
H  39.60300 4.61300 47.57300
H  38.42500 3.89600 46.43900
H  38.28900 5.62500 47.10600
H  38.91500 8.29700 44.47100
H  38.72900 6.73900 43.76700
H  41.47500 7.90400 43.19800
H  40.12200 8.82900 42.63800
H  41.50200 -0.39700 43.72500
H  40.51900 0.57700 44.80000
H  41.48000 -0.73400 45.48300
H  46.18400 -1.94400 43.22600
H  46.53700 -0.88000 44.53600
H  46.15500 -0.22000 42.84900
H  49.00900 2.85700 44.77700
H  49.03000 4.83900 47.02800
H  48.09700 2.09300 47.46500
H  49.85400 2.34500 47.09300
H  48.76800 1.08100 46.19000
H  50.67400 4.33800 44.78300
H  50.53200 5.96200 45.46300
H  48.97600 6.50500 43.62200
H  48.76500 4.88900 43.20900
H  50.39100 5.57800 42.93500
H  47.08700 9.80700 47.92400
H  46.64700 10.61800 46.42800
H  47.93700 9.43900 46.34200
H  41.54400 9.69300 45.21600
H  39.38500 10.53300 49.02700
H  38.67600 9.29500 48.04700
H  38.39700 11.07000 47.58000
Mg -2.42700 33.81600 27.39400
C  -4.35100 31.87100 29.58200
C  -1.24500 35.60300 30.22400
C  -1.24500 36.15000 25.40600
C  -4.22600 32.47500 24.66400
N  -2.91400 33.84500 29.61600
C  -3.59600 32.85000 30.30500
C  -3.52200 33.02100 31.83700
C  -2.69800 34.34900 31.96100
C  -2.34000 34.69300 30.51200
C  -3.36100 35.64800 32.65600
C  -2.95000 31.84900 32.68500
C  -3.53100 31.64100 34.09500
H  -2.70500 31.40400 35.40000
N  -1.09400 35.42900 27.75100
C  -0.76300 36.00900 28.92500
C  0.25000 37.08000 28.59300
C  0.25400 37.24600 27.18800
C  -0.63600 36.25300 26.65700
C  0.99500 37.84400 29.56700
C  1.21400 38.13900 26.34100
O  1.10600 38.08400 25.09500
C  2.20400 39.14900 26.96200
N  -2.67200 34.21500 25.42100
C  -2.12500 35.30300 24.84400
C  -2.35000 35.37800 23.36200
C  -3.16000 34.09000 23.03800
C  -3.37400 33.54200 24.46400
C  -3.08600 36.67500 23.00800
C  -2.51400 33.06700 22.08500
C  -1.24600 32.26500 22.61000
N  -3.89400 32.42000 27.07500
C  -4.48900 31.89100 25.97300
C  -5.35200 30.77300 26.33500
C  -5.29400 30.72400 27.70100
C  -4.50000 31.81200 28.16600
C  -6.21000 29.98200 25.36900
C  -5.78000 30.03500 28.87700
O  -6.57200 29.09100 29.00900
C  -5.04500 30.72900 30.17600
C  -6.14600 31.19900 31.15200
O  -6.93500 32.04200 30.94200
O  -6.01000 30.49400 32.37200
C  -7.13400 30.70400 33.36500
H  -0.79700 36.12100 31.07500
H  -0.84500 36.95400 24.78400
H  -4.78300 31.98200 23.86400
H  -4.53600 33.25000 32.16600
H  -1.77300 34.22200 32.52300
H  -2.83300 35.90900 33.57300
H  -4.38200 35.42300 32.96300
H  -3.38100 36.50400 31.98200
H  -1.96800 32.14600 33.05500
H  -2.76300 30.94200 32.11000
H  -4.09600 30.71100 34.16100
H  -4.29300 32.40900 34.22800
H  2.05100 37.57200 29.56100
H  0.59900 37.60000 30.55300
H  0.76600 38.89900 29.41500
H  1.74800 39.84600 27.66500
H  2.52900 39.80200 26.15200
H  2.92800 38.51700 27.47400
H  -1.42100 35.30200 22.79700
H  -4.09000 34.43700 22.58700
H  -2.40800 37.43800 22.62500
H  -3.64400 37.04900 23.86500
H  -3.92700 36.56700 22.32300
H  -2.24700 33.53400 21.13700
H  -3.28400 32.35000 21.80200
H  -0.45600 32.29600 21.86000
H  -1.57500 31.23300 22.73600
H  -0.96300 32.50300 23.63500
H  -5.99500 28.91600 25.43100
H  -6.15200 30.33600 24.33900
H  -7.25300 30.10900 25.65800
H  -4.54100 29.92700 30.71500
H  -6.89500 31.58500 33.96100
H  -7.21000 29.78900 33.95300
H  -8.10100 30.87100 32.89100

