158

Mg 7.25500 2.70900 27.74400
C  8.81200 1.38100 30.58400
C  5.64200 4.88100 29.75000
C  5.44800 3.60900 24.96500
C  8.60100 0.09600 25.91200
N  7.25300 3.13200 30.04300
C  8.05900 2.43500 30.97800
C  7.87900 3.18100 32.36000
C  6.77900 4.26800 32.06700
C  6.49400 4.10200 30.55800
C  5.41000 4.08100 32.85000
C  9.24100 3.80800 32.91500
C  9.61400 3.38400 34.34300
H  10.26200 4.48600 35.21800
N  5.90000 4.08100 27.36800
C  5.42100 4.98200 28.30900
C  4.66800 5.90500 27.68100
C  4.59400 5.58700 26.28600
C  5.31800 4.30200 26.13900
C  4.07400 7.06000 28.37900
C  3.96000 6.39400 25.14400
O  3.92800 6.02700 24.00500
C  3.40300 7.68400 25.36500
N  6.93200 1.88300 25.72600
C  6.21600 2.50000 24.80900
C  6.32300 1.71500 23.50500
C  7.49200 0.72800 23.68600
C  7.63900 0.90500 25.22700
C  4.99800 0.93200 23.02500
C  8.78200 1.08100 22.92600
C  9.62400 -0.01000 22.15800
N  8.46500 1.08000 28.12300
C  8.94400 0.05500 27.27900
C  9.82800 -0.85400 28.01800
C  9.89600 -0.32100 29.25900
C  9.01600 0.88700 29.30300
C  10.42200 -2.03700 27.37700
C  10.46600 -0.51200 30.59700
O  11.24200 -1.40500 30.92700
C  9.81000 0.58000 31.45300
C  9.16200 0.03700 32.65600
O  8.14200 -0.59000 32.70500
O  9.92800 0.25400 33.75300
C  9.60500 -0.24100 35.06700
H  5.03500 5.56800 30.34500
H  4.83900 3.75500 24.07100
H  9.07300 -0.62000 25.23600
H  7.44000 2.31500 32.85500
H  7.15200 5.25700 32.33600
H  5.54200 3.44500 33.72500
H  4.61900 3.71700 32.19500
H  4.96300 5.02200 33.17200
H  9.11800 4.88700 33.00100
H  10.11500 3.53600 32.32400
H  10.36000 2.59600 34.43900
H  8.73800 2.99600 34.86400
H  4.61900 7.98500 28.18900
H  4.00200 7.03800 29.46600
H  3.02300 7.18200 28.11700
H  2.37600 7.67300 25.73100
H  3.56700 8.20900 24.42400
H  3.96500 8.23600 26.11900
H  6.40400 2.45200 22.70600
H  7.18000 -0.31000 23.57500
H  5.11900 -0.04600 22.56100
H  4.59500 1.54200 22.21600
H  4.28500 0.99700 23.84800
H  9.52500 1.54700 23.57400
H  8.56400 1.84900 22.18400
H  9.65200 -1.01300 22.58400
H  10.64400 0.36500 22.08200
H  9.26200 -0.19000 21.14600
H  11.25000 -1.65100 26.78100
H  9.84100 -2.56100 26.61800
H  10.66000 -2.76400 28.15300
H  10.63400 1.14800 31.88400
H  8.94400 -1.10700 35.04100
H  8.95900 0.52500 35.49700
H  10.51000 -0.50300 35.61500
Mg 10.57500 47.40900 26.41800
C  8.62000 47.28800 29.20300
C  13.10100 48.79900 28.42000
C  12.55000 47.45000 23.75600
C  7.76500 46.91800 24.39900
N  10.87500 47.70600 28.65200
C  9.93100 47.61700 29.54400
C  10.54400 48.02600 30.92800
C  11.78900 48.85700 30.58200
C  11.94500 48.41800 29.12100
C  11.63500 50.43900 30.58600
C  10.87800 46.88900 31.90400
C  10.12500 46.80800 33.28600
H  10.45800 45.68300 34.30800
N  12.52200 48.09600 26.14700
C  13.39500 48.53400 27.05400
C  14.70700 48.68400 26.50900
C  14.60500 48.25200 25.13900
C  13.17500 47.91100 24.96200
C  15.90900 49.18400 27.33100
C  15.75300 48.06000 24.17400
O  15.57200 47.50500 23.10600
C  17.12000 48.39900 24.47500
N  10.28000 47.21400 24.38800
C  11.24000 47.14800 23.48600
C  10.60400 46.77000 22.06500
C  9.11600 46.45700 22.27700
C  9.06000 46.87100 23.80500
C  10.87800 47.64700 20.78500
C  8.69800 44.99400 21.79700
C  9.31100 43.82800 22.51400
N  8.61500 46.99800 26.73700
C  7.56600 46.92600 25.79900
C  6.33900 46.78100 26.53000
C  6.67300 46.88900 27.90600
C  8.10000 47.03300 27.95500
C  4.94900 46.59100 26.08700
C  6.15200 47.00300 29.27800
O  5.05600 47.09800 29.72300
C  7.44000 47.09400 30.14900
C  7.51400 45.93800 31.07700
O  8.27600 44.99200 31.02000
O  6.56100 46.01300 32.02300
C  6.19600 44.83100 32.79700
H  13.83800 49.34000 29.01700
H  13.16900 47.51300 22.85900
H  6.92800 46.72600 23.72400
H  9.79300 48.60700 31.46400
H  12.64800 48.51500 31.15900
H  10.89200 50.65800 31.35300
H  11.54400 50.83100 29.57300
H  12.58900 50.74300 31.01500
H  11.88400 47.03500 32.29700
H  10.89300 45.95600 31.34000
H  9.11300 46.56500 32.96400
H  10.07700 47.78700 33.76400
H  15.73300 49.22500 28.40600
H  16.45700 50.04600 26.95100
H  16.64500 48.39400 27.18500
H  17.06800 49.33900 25.02500
H  17.72000 48.57200 23.58200
H  17.57400 47.62300 25.09100
H  11.04800 45.79700 21.85900
H  8.47400 47.15300 21.73800
H  11.24400 48.63800 21.05400
H  10.01700 47.78700 20.13100
H  11.71900 47.11700 20.33700
H  8.90300 45.00200 20.72600
H  7.63800 44.81000 21.97600
H  9.78300 44.08400 23.46200
H  10.09700 43.49800 21.83400
H  8.56100 43.03900 22.57100
H  4.79700 46.66200 25.00900
H  4.36100 47.34600 26.60800
H  4.55100 45.66900 26.51100
H  7.38400 48.02300 30.71600
H  6.69300 44.74100 33.76200
H  6.47100 43.88500 32.33100
H  5.11900 44.76900 32.95300

