158

Mg 46.09400 44.87000 42.56900
C  42.63200 44.03300 42.36000
C  46.92600 41.67100 41.78100
C  49.30200 45.74400 42.35000
C  45.10900 48.15800 42.65600
N  44.86300 43.09400 42.04000
C  43.49100 42.93700 42.02200
C  43.08600 41.47100 41.97000
C  44.49700 40.78100 41.76700
C  45.51900 41.93100 41.84300
C  44.75800 39.63500 42.80700
C  42.00000 41.12000 40.85900
C  42.04400 41.93000 39.52700
H  41.81800 41.19600 38.11200
N  47.86600 43.89500 42.23000
C  48.00800 42.52600 41.97300
C  49.40400 42.11800 41.90400
C  50.18300 43.34400 42.02800
C  49.13700 44.43300 42.17200
C  49.95500 40.69000 41.83000
C  51.71400 43.40300 41.96700
O  52.40500 42.39700 41.87700
C  52.39200 44.73700 42.07300
N  47.05000 46.73400 42.22700
C  48.40500 46.82600 42.41600
C  48.85000 48.30400 42.55900
C  47.39400 49.00600 42.56500
C  46.47900 47.87200 42.57800
C  49.83600 48.72900 43.73300
C  47.11900 49.97600 41.40000
C  46.97200 51.47300 41.82500
N  44.25700 45.95600 42.67800
C  44.00000 47.29100 42.70500
C  42.63700 47.60100 42.77400
C  42.00300 46.37700 42.64700
C  43.06800 45.39200 42.55500
C  41.96800 48.97600 43.17100
C  40.75500 45.65500 42.56700
O  39.59400 46.02000 42.51900
C  41.12800 44.10200 42.42100
C  40.68600 43.40800 43.64900
O  40.40300 42.24300 43.68200
O  40.71200 44.11900 44.84200
C  40.90000 43.38200 46.15700
H  47.19100 40.63300 41.57100
H  50.31900 46.13200 42.43900
H  44.81800 49.19000 42.85800
H  42.76400 41.33800 43.00300
H  44.61800 40.34400 40.77600
H  45.51300 39.92300 43.53900
H  45.06300 38.77800 42.20600
H  43.87300 39.36700 43.38400
H  41.00600 41.13600 41.30700
H  42.31200 40.08600 40.71100
H  43.01400 42.42300 39.46500
H  41.31500 42.73400 39.42500
H  50.70900 40.67600 41.04300
H  49.19200 39.94600 41.60200
H  50.47400 40.50200 42.77000
H  51.98300 45.34300 41.26400
H  53.47300 44.68500 41.94100
H  52.13000 45.13100 43.05500
H  49.34600 48.74200 41.69300
H  47.28900 49.48100 43.54000
H  49.29000 49.37900 44.41600
H  50.72600 49.17800 43.29200
H  50.20900 47.77600 44.10800
H  46.23000 49.62700 40.87500
H  47.95100 50.01000 40.69700
H  47.63500 52.06100 41.19100
H  47.38700 51.56800 42.82800
H  45.96900 51.88300 41.70200
H  41.30300 48.82400 44.02200
H  41.33700 49.31700 42.35100
H  42.68200 49.77200 43.38500
H  40.64900 43.67400 41.54000
H  40.67200 44.04100 46.99500
H  41.98200 43.25300 46.13300
H  40.27800 42.48700 46.17900
Mg 15.49500 51.81700 26.49800
C  18.04100 50.90600 28.78300
C  13.28900 51.76900 29.12900
C  13.02800 52.41800 24.35400
C  17.82400 51.30100 23.85200
N  15.71900 51.53500 28.74800
C  16.87200 51.34100 29.43500
C  16.56100 51.50900 30.95700
C  15.06000 51.17600 30.98900
C  14.63800 51.50400 29.54700
C  14.82300 49.75300 31.36400
C  16.93000 52.92700 31.51300
C  17.02300 53.06600 32.98800
H  16.23800 52.16800 33.92700
N  13.49700 52.07400 26.70800
C  12.72800 51.98400 27.88100
C  11.32100 52.16600 27.67500
C  11.24500 52.43500 26.25300
C  12.60400 52.37100 25.71900
C  10.20900 52.10900 28.72500
C  10.00500 52.76500 25.39000
O  10.08000 52.99600 24.20700
C  8.58900 52.84100 26.10400
N  15.38800 51.78500 24.39000
C  14.25600 52.28100 23.79000
C  14.43700 52.44900 22.27600
C  15.94700 51.91400 22.06600
C  16.44200 51.70800 23.49200
C  13.48300 51.59700 21.42600
C  16.78200 52.90900 21.18600
C  17.63400 52.40400 20.04600
N  17.50500 51.25200 26.33800
C  18.30400 51.10600 25.21400
C  19.66300 50.76700 25.55400
C  19.52900 50.54100 26.97900
C  18.23800 50.92500 27.37500
C  20.86400 50.54200 24.70300
C  20.24400 50.08400 28.17500
O  21.41700 49.67300 28.30200
C  19.25600 50.37500 29.40700
C  19.01300 49.11900 30.21500
O  18.31300 48.17700 29.91800
O  19.56800 49.35100 31.43000
C  19.21900 48.48200 32.58500
H  12.60300 51.67400 29.97300
H  12.23600 52.64800 23.63900
H  18.56700 51.20700 23.05800
H  17.14900 50.74100 31.45900
H  14.44800 51.91600 31.50600
H  14.07300 49.25100 30.75300
H  14.58300 49.63300 32.42100
H  15.74200 49.17400 31.27700
H  16.34100 53.65600 30.95600
H  17.98000 53.02100 31.23700
H  16.71900 54.11000 33.05000
H  18.04600 53.01400 33.36200
H  9.52900 52.94500 28.56100
H  10.66000 52.13800 29.71700
H  9.60700 51.20600 28.62500
H  8.44500 51.90600 26.64600
H  7.78700 52.93400 25.37200
H  8.48900 53.70200 26.76500
H  14.39800 53.50600 22.01300
H  15.89500 50.90300 21.66200
H  13.13900 50.70300 21.94600
H  14.06700 51.09500 20.65500
H  12.66400 52.15200 20.96700
H  17.57800 53.29000 21.82600
H  16.28000 53.80200 20.81500
H  17.40200 52.91300 19.11000
H  17.58900 51.31600 19.98800
H  18.68900 52.54900 20.27900
H  20.72100 51.09900 23.77700
H  20.83800 49.49800 24.39000
H  21.79300 50.81600 25.20100
H  19.68500 51.11700 30.08000
H  18.71200 49.08800 33.33600
H  20.09600 48.12600 33.12600
H  18.55400 47.63600 32.41500

