158

Mg 41.24500 8.82500 29.42800
C  42.99400 9.51100 32.43100
C  39.11900 6.82700 31.25100
C  39.94800 7.81600 26.48300
C  44.06200 10.02700 27.70900
N  41.20400 8.21600 31.62800
C  41.79100 8.87600 32.69800
C  41.16300 8.57900 34.05600
C  40.00100 7.59100 33.65000
C  40.03200 7.59800 32.07000
C  40.26300 6.10900 34.07200
C  40.62200 9.97800 34.67000
C  40.72400 10.20100 36.16100
H  41.19800 11.60900 36.80700
N  39.63900 7.66300 28.99700
C  38.90400 6.92500 29.88600
C  37.80500 6.31200 29.11700
C  37.94600 6.75100 27.71900
C  39.21000 7.43600 27.67300
C  36.75400 5.40100 29.78300
C  37.09800 6.50800 26.49400
O  37.47600 6.86600 25.36400
C  35.77300 5.74600 26.58200
N  41.94300 8.93500 27.32200
C  41.19800 8.43800 26.34200
C  41.76300 8.85300 24.99600
C  43.05400 9.66700 25.39600
C  43.07700 9.55700 26.87000
C  42.10600 7.61300 24.14900
C  43.00200 11.14700 24.97800
C  41.78600 12.01400 25.16400
N  43.14500 9.59600 29.86900
C  44.15100 10.05700 29.08300
C  45.24400 10.65100 29.85000
C  44.81300 10.49800 31.19800
C  43.54000 9.81900 31.11500
C  46.55600 11.36600 29.40800
C  45.19000 10.80200 32.51800
O  46.11300 11.45200 32.99500
C  44.00000 10.12900 33.44700
C  44.52700 9.09400 34.44700
O  44.46200 7.87300 34.37800
O  45.18600 9.77100 35.39400
C  45.63600 8.98100 36.54400
H  38.29200 6.36300 31.79300
H  39.61900 7.45200 25.50700
H  44.81300 10.61400 27.17600
H  41.85300 8.09600 34.74800
H  39.04300 7.92700 34.04800
H  39.53700 5.83300 34.83600
H  41.28000 5.98000 34.44400
H  40.25800 5.42900 33.22000
H  39.54300 10.05700 34.53800
H  41.05800 10.76600 34.05600
H  41.34000 9.38900 36.54600
H  39.76500 9.97600 36.62900
H  37.06700 4.97900 30.73800
H  36.58500 4.51800 29.16700
H  35.82600 5.93100 29.99500
H  35.18300 6.38900 27.23500
H  35.96700 4.87500 27.20800
H  35.41400 5.61600 25.56100
H  41.05000 9.46800 24.44700
H  43.93300 9.12700 25.04600
H  42.08300 6.74800 24.81200
H  43.02900 7.62400 23.57100
H  41.36800 7.41600 23.37200
H  42.96000 11.20100 23.89000
H  43.99600 11.51100 25.23800
H  42.18000 13.00800 25.37800
H  41.14600 11.67500 25.97800
H  41.26200 12.21600 24.23000
H  46.33900 12.37100 29.76900
H  46.52000 11.43100 28.32100
H  47.38200 10.85500 29.90400
H  43.52300 10.90600 34.04400
H  46.38300 9.56300 37.08400
H  46.09100 8.02900 36.27200
H  44.75200 8.89000 37.17400
Mg 29.54500 58.62800 39.60700
C  26.77300 56.96700 38.59100
C  31.51200 55.88700 38.93600
C  32.34500 60.59000 39.64500
C  27.54200 61.57800 39.93400
N  29.20400 56.74900 38.60600
C  27.98400 56.15600 38.33400
C  28.11600 54.76700 37.88100
C  29.60800 54.39000 38.15500
C  30.16600 55.74400 38.71000
C  30.01400 53.27600 39.20600
C  27.82500 54.86800 36.43500
C  26.79900 53.89900 35.80000
H  25.97900 54.48800 34.62500
N  31.66800 58.24900 39.28300
C  32.23400 57.07200 38.98100
C  33.65600 57.30400 39.01000
C  33.90100 58.66600 39.19400
C  32.62300 59.27600 39.32900
C  34.60300 56.14800 38.86700
C  35.27300 59.28000 39.08300
O  36.24400 58.56900 38.93900
C  35.58200 60.74800 39.20500
N  29.87100 60.82600 39.36200
C  31.13200 61.33800 39.71700
C  31.13200 62.78900 40.21800
C  29.61000 63.16100 40.08900
C  28.94900 61.77700 39.75200
C  31.71600 63.08800 41.64600
C  29.37200 64.18700 38.95900
C  28.47100 65.37300 39.23200
N  27.60600 59.17400 39.42000
C  26.90600 60.34000 39.69800
C  25.48200 60.11600 39.57200
C  25.37700 58.76700 39.16000
C  26.69500 58.27000 39.11800
C  24.32100 61.02500 39.97300
C  24.42400 57.64900 38.86700
O  23.20500 57.53400 39.04300
C  25.34700 56.43800 38.43600
C  25.00900 55.30900 39.31800
O  25.15400 55.36300 40.52300
O  24.43100 54.29000 38.62700
C  24.06500 53.12400 39.38200
H  32.04100 54.93500 39.02000
H  33.22700 61.17300 39.92100
H  26.98200 62.49700 40.11800
H  27.43300 54.24300 38.55000
H  30.09600 54.02400 37.25200
H  29.06200 52.88900 39.56900
H  30.71300 53.69800 39.92800
H  30.58900 52.49100 38.71600
H  28.72700 54.61800 35.87500
H  27.68200 55.87000 36.03000
H  26.15300 53.48900 36.57600
H  27.47400 53.12900 35.42500
H  34.14100 55.38400 39.49200
H  35.61800 56.28400 39.24200
H  34.68800 55.73500 37.86300
H  35.71800 61.10500 40.22600
H  34.91000 61.32000 38.56500
H  36.54500 60.87900 38.71000
H  31.68800 63.33000 39.45200
H  29.10400 63.44400 41.01200
H  32.13200 62.16200 42.04300
H  30.96200 63.52500 42.30000
H  32.52700 63.81700 41.65800
H  28.91200 63.73300 38.08100
H  30.24500 64.69200 38.54500
H  29.10500 66.25700 39.30800
H  28.04600 65.34800 40.23500
H  27.58300 65.41700 38.60200
H  23.65100 60.65200 40.74700
H  23.79100 61.23700 39.04400
H  24.78600 61.94100 40.33800
H  25.09100 56.15300 37.41500
H  23.07500 52.79700 39.06500
H  24.09000 53.18700 40.47000
H  24.73900 52.34100 39.03400

