158

Mg 47.33900 15.83000 27.57800
C  45.59100 15.74100 30.49400
C  49.98400 17.34400 29.19000
C  48.77400 16.55800 24.64200
C  44.39800 14.76900 25.75100
N  47.64900 16.57600 29.56600
C  46.79600 16.37800 30.65000
C  47.49300 16.69200 32.02800
C  48.82000 17.36700 31.55500
C  48.88700 17.01200 29.99500
C  48.97800 18.87800 31.81200
C  47.68100 15.46200 32.86600
C  47.27800 15.64000 34.36600
H  47.20800 17.08400 35.01000
N  49.10800 16.76300 27.03700
C  50.15000 17.18100 27.81000
C  51.37700 17.43100 27.07500
C  50.91200 17.25100 25.74700
C  49.53600 16.70900 25.73200
C  52.68900 17.67500 27.70900
C  51.81100 17.44600 24.38400
O  51.31900 17.10000 23.26900
C  53.09800 17.99700 24.35400
N  46.59400 15.73700 25.55200
C  47.42400 16.19800 24.55800
C  46.62700 16.17400 23.27500
C  45.42400 15.31800 23.55700
C  45.48500 15.23300 25.05400
C  46.30300 17.70900 22.94700
C  45.40300 13.87500 23.01800
C  44.08600 13.44900 22.33100
N  45.36400 15.28600 27.97700
C  44.29800 14.82000 27.15800
C  43.21200 14.43500 28.01500
C  43.64500 14.74900 29.36800
C  44.98300 15.26900 29.22600
C  41.93700 13.62900 27.62700
C  43.30500 14.70100 30.76900
O  42.32900 14.28700 31.35200
C  44.54100 15.28700 31.52100
C  44.02100 16.42000 32.34900
O  43.76300 17.50000 31.94700
O  43.67800 15.95000 33.63100
C  42.68300 16.77000 34.31600
H  50.80300 17.79100 29.75800
H  49.14200 16.72300 23.62700
H  43.49600 14.45200 25.22300
H  46.87800 17.46600 32.48700
H  49.64100 16.77500 31.96000
H  49.10800 19.46100 30.90000
H  49.88500 19.04800 32.39200
H  48.16000 19.19500 32.45800
H  48.74400 15.22000 32.86600
H  47.12300 14.65600 32.38800
H  47.92200 14.98700 34.95600
H  46.27200 15.22200 34.39300
H  53.37500 16.90600 27.35400
H  52.51800 17.45200 28.76300
H  52.92600 18.72100 27.51900
H  53.04100 18.77300 23.59100
H  53.76500 17.19200 24.04700
H  53.40500 18.44300 25.30100
H  47.25400 15.70100 22.51900
H  44.53400 15.90700 23.33300
H  47.21000 18.20100 22.59700
H  45.97800 18.26800 23.82500
H  45.50900 17.69100 22.20100
H  45.71700 13.09200 23.70900
H  46.12800 13.61500 22.24700
H  43.35100 14.25300 22.36600
H  43.75000 12.47900 22.69700
H  44.27600 13.24000 21.27800
H  41.04700 14.24900 27.52200
H  41.64600 12.76000 28.21700
H  42.29400 13.20900 26.68700
H  44.96500 14.43600 32.05400
H  41.78800 16.99100 33.73400
H  43.15300 17.63700 34.78100
H  42.26100 16.16400 35.11800
Mg 27.06900 51.33200 26.24200
C  25.19100 52.13100 29.00800
C  29.60500 50.34400 28.43600
C  29.06800 50.65800 23.63700
C  24.80600 52.86800 24.22700
N  27.40600 51.44700 28.46000
C  26.44500 51.62400 29.40300
C  26.87900 51.26500 30.85200
C  28.39100 51.00400 30.62500
C  28.50200 50.94900 29.10100
C  29.46300 51.82200 31.37800
C  26.12600 50.07900 31.58900
C  25.13700 50.44400 32.75200
H  25.19000 49.75100 34.11300
N  29.00500 50.51300 26.03900
C  29.84100 50.15200 27.08200
C  31.09800 49.67500 26.55500
C  30.98500 49.64400 25.12000
C  29.65300 50.34500 24.84400
C  32.24300 49.20200 27.41200
C  31.89400 49.06800 24.06400
O  31.76400 49.31600 22.88100
C  33.00900 48.15300 24.50100
N  27.03300 51.80000 24.25400
C  27.83900 51.30600 23.33500
C  27.33700 51.46700 21.88900
C  25.90200 52.03400 22.11400
C  25.91100 52.29400 23.63500
C  28.18000 52.36800 20.94500
C  24.72800 51.08300 21.66500
C  23.63300 51.75600 20.88000
N  25.29800 52.19200 26.43300
C  24.44300 52.85000 25.53300
C  23.26600 53.30100 26.19100
C  23.50600 52.95000 27.53100
C  24.76200 52.34500 27.63200
C  22.13800 54.17000 25.63900
C  22.95300 53.01800 28.90200
O  21.89400 53.41900 29.33300
C  24.01700 52.56600 29.89100
C  24.29100 53.69100 30.81600
O  25.28400 54.38900 30.83100
O  23.33000 53.71500 31.81600
C  23.53300 54.71500 32.89300
H  30.31200 49.90700 29.14400
H  29.62700 50.41400 22.73200
H  24.04500 53.14800 23.49700
H  26.88200 52.17900 31.44500
H  28.59300 49.99200 30.97400
H  29.97200 51.15600 32.07500
H  28.91000 52.55600 31.96400
H  30.08800 52.39100 30.69000
H  26.76300 49.27300 31.95200
H  25.50200 49.63800 30.81100
H  24.17600 50.07400 32.39500
H  25.10300 51.53000 32.84100
H  32.07300 48.12800 27.34800
H  32.18600 49.52400 28.45200
H  33.19000 49.42100 26.91800
H  33.71100 48.73200 25.10100
H  33.38200 47.55300 23.67100
H  32.54400 47.39000 25.12500
H  27.21100 50.49900 21.40300
H  25.74900 53.02800 21.69200
H  27.61100 53.26000 20.68300
H  28.57500 51.81900 20.08900
H  29.06400 52.60400 21.53700
H  24.15700 50.76300 22.53600
H  25.08400 50.16500 21.19800
H  22.67800 51.53400 21.35700
H  23.58300 51.52600 19.81500
H  23.79700 52.82700 20.99800
H  21.21400 54.24100 26.21300
H  21.83600 53.83400 24.64800
H  22.45900 55.20000 25.48500
H  23.53400 51.70200 30.34700
H  24.20400 54.24500 33.61200
H  22.67200 54.94100 33.52300
H  23.93700 55.68300 32.59900

