158

Mg 25.57200 -7.59900 47.40000
C  27.84800 -5.27900 46.39000
C  23.19200 -6.34900 45.12500
C  23.57100 -10.14500 48.05600
C  28.20600 -9.13700 49.18300
N  25.61400 -6.04300 45.80200
C  26.64600 -5.14500 45.60700
C  26.37800 -4.25800 44.43300
C  24.83600 -4.48400 44.18000
C  24.47500 -5.69200 45.10500
C  23.82700 -3.31700 44.39100
C  27.22700 -4.47200 43.20200
C  28.00100 -3.25700 42.62400
H  27.62300 -2.80800 41.20100
N  23.54600 -8.17300 46.72000
C  22.75800 -7.51300 45.81400
C  21.51600 -8.17900 45.60600
C  21.58000 -9.36000 46.49300
C  22.89600 -9.20600 47.18600
C  20.37400 -7.69400 44.67600
C  20.47600 -10.41200 46.65400
O  19.47400 -10.39100 46.02000
C  20.69100 -11.54700 47.56500
N  25.92800 -9.36600 48.25300
C  24.88500 -10.26000 48.49500
C  25.28900 -11.34100 49.44000
C  26.84700 -11.21700 49.55500
C  27.01000 -9.79100 48.97500
C  24.53800 -11.26900 50.80800
C  27.59400 -12.24100 48.78800
C  28.48800 -13.25700 49.57500
N  27.61700 -7.25500 47.89500
C  28.53200 -7.90300 48.69500
C  29.75800 -7.12600 48.74600
C  29.52000 -6.10600 47.91200
C  28.24100 -6.22200 47.39800
C  31.06200 -7.46400 49.44400
C  30.08800 -4.85300 47.40600
O  31.15200 -4.26400 47.66900
C  29.02500 -4.23800 46.32200
C  28.56200 -2.87500 46.60800
O  27.75900 -2.58700 47.49700
O  28.92100 -1.99200 45.60600
C  28.18400 -0.68400 45.72500
H  22.53200 -5.88300 44.39000
H  22.92900 -10.93200 48.45900
H  28.95800 -9.58500 49.83600
H  26.52700 -3.25800 44.84100
H  24.71600 -4.78400 43.13900
H  23.25300 -3.40500 45.31300
H  23.17200 -3.31500 43.51900
H  24.22900 -2.30700 44.30800
H  26.63400 -4.84100 42.36500
H  27.85000 -5.34700 43.38800
H  29.06900 -3.42300 42.76400
H  27.93000 -2.41600 43.31300
H  20.31900 -6.60600 44.70700
H  19.46800 -8.01300 45.19100
H  20.41600 -8.08800 43.66100
H  20.73300 -11.31600 48.63000
H  21.60100 -12.05900 47.25400
H  19.92200 -12.31200 47.45600
H  24.88800 -12.15300 48.83300
H  27.21800 -11.05900 50.56700
H  23.80900 -10.45900 50.82500
H  25.23800 -11.04300 51.61200
H  24.11200 -12.19600 51.19200
H  28.09200 -11.75300 47.95000
H  26.90700 -12.88300 48.23600
H  29.54200 -13.10000 49.34500
H  28.41100 -14.30100 49.27000
H  28.41900 -13.02600 50.63800
H  31.74700 -7.89700 48.71500
H  30.78400 -8.26300 50.13200
H  31.54400 -6.61200 49.92400
H  29.63000 -4.21300 45.41600
H  27.12500 -0.93600 45.78300
H  28.42200 -0.17600 44.79000
H  28.53000 -0.10800 46.58300
Mg 8.93400 47.30400 25.86900
C  6.95000 47.66800 28.62400
C  11.44300 49.07000 27.38200
C  10.84400 47.51900 22.91600
C  6.08300 46.80400 23.81200
N  9.12200 48.31100 27.69900
C  8.26300 48.12000 28.82700
C  8.93500 48.67900 30.00400
C  10.00400 49.61200 29.40500
C  10.32000 48.89600 28.08100
C  9.53100 51.04700 29.09300
C  9.39800 47.63600 30.99500
C  8.80500 47.84300 32.43200
H  8.86600 46.51800 33.30900
N  11.05800 47.84900 25.29200
C  11.88100 48.53900 26.13400
C  13.22400 48.67500 25.53900
C  13.08600 48.21200 24.22700
C  11.58400 47.83500 24.05400
C  14.35000 49.23900 26.34400
C  14.11400 48.30000 23.01900
O  13.80400 47.98200 21.85400
C  15.50300 48.77700 23.28100
N  8.48000 47.26900 23.67500
C  9.41600 47.37200 22.67800
C  8.71000 47.32700 21.27900
C  7.20100 46.99100 21.63400
C  7.26100 47.01200 23.16300
C  8.85300 48.60100 20.51400
C  6.63300 45.53500 21.11100
C  5.37400 45.61700 20.35600
N  6.94200 47.24400 26.09500
C  5.87100 46.87700 25.24700
C  4.67300 46.73300 26.05900
C  5.01700 47.01500 27.37500
C  6.39400 47.32200 27.35200
C  3.26900 46.39200 25.67100
C  4.50900 47.09200 28.73200
O  3.35300 47.04700 29.10700
C  5.87000 47.30000 29.61500
C  6.20700 46.07800 30.34400
O  7.06000 45.24800 30.06300
O  5.40100 46.03000 31.44800
C  5.78500 45.00900 32.46100
H  12.23200 49.68300 27.82300
H  11.34200 47.49200 21.94400
H  5.21500 46.70400 23.15600
H  8.22000 49.34400 30.48900
H  10.93800 49.68900 29.96100
H  10.18600 51.76100 29.59300
H  8.53900 51.18200 29.52300
H  9.52700 51.33800 28.04300
H  10.47400 47.58500 31.15800
H  9.08100 46.66900 30.60600
H  7.75700 48.14300 32.42400
H  9.41700 48.58900 32.93800
H  14.23400 49.08000 27.41600
H  14.41200 50.27000 25.99600
H  15.19200 48.63800 26.00000
H  15.38500 49.47900 24.10700
H  15.89900 49.13300 22.33000
H  16.22100 47.97000 23.43200
H  9.08900 46.48800 20.69400
H  6.54300 47.83600 21.42600
H  7.90800 49.11400 20.33500
H  9.23500 48.31800 19.53300
H  9.61800 49.31300 20.82400
H  6.57100 44.80400 21.91700
H  7.38700 45.18600 20.40500
H  5.54800 45.55600 19.28200
H  4.90500 46.58600 20.52300
H  4.75100 44.77800 20.66400
H  2.61700 47.25000 25.84100
H  2.93300 45.54800 26.27300
H  3.26800 46.08500 24.62600
H  5.67800 48.15400 30.26500
H  5.27600 44.05400 32.33200
H  5.39400 45.42600 33.38900
H  6.85100 44.81800 32.58300

