158

Mg 45.40900 2.88500 47.99500
C  43.20000 5.67700 47.10800
C  42.58900 0.87600 48.09600
C  47.39500 0.37500 48.04800
C  48.01000 5.22200 47.37500
N  43.15400 3.22800 47.44600
C  42.50300 4.40700 47.22500
C  40.95300 4.24700 47.21300
C  40.86000 2.68400 47.59800
C  42.28900 2.23000 47.79100
C  40.04700 2.49000 48.91600
C  40.29300 4.47400 45.80800
C  39.33100 5.60400 45.55900
H  39.62300 6.56300 44.34300
N  45.03100 0.85800 48.09800
C  43.82400 0.14600 48.19400
C  44.01400 -1.18600 48.36900
C  45.41700 -1.37400 48.24000
C  46.05100 -0.07000 48.10300
C  42.91600 -2.24400 48.30200
C  46.09200 -2.78900 48.31900
O  45.41500 -3.83900 48.57300
C  47.50400 -2.88700 48.12100
N  47.38700 2.72300 47.40500
C  48.00100 1.60400 47.75000
C  49.57700 1.86300 47.55600
C  49.65900 3.35500 47.35600
C  48.25600 3.84100 47.36800
C  50.47800 1.24100 48.70300
C  50.47600 3.85100 46.13600
C  51.85500 4.54900 46.52100
N  45.65200 5.05400 47.40800
C  46.75200 5.80400 47.34400
C  46.35800 7.19700 47.26200
C  44.99200 7.22300 47.14300
C  44.57100 5.86600 47.19500
C  47.24000 8.38900 47.31000
C  43.80500 8.05800 46.89300
O  43.67100 9.24100 46.70100
C  42.59000 7.07400 47.07300
C  41.80300 7.44500 48.34000
O  41.89100 6.96200 49.47200
O  40.99400 8.53500 47.98600
C  40.05200 8.94600 49.00500
H  41.67800 0.27500 48.08200
H  48.17300 -0.39100 48.05900
H  48.84100 5.93000 47.37700
H  40.41500 4.89100 47.90800
H  40.39600 2.07400 46.82200
H  39.48900 3.40900 49.09600
H  40.66100 2.30700 49.79800
H  39.30400 1.70400 48.78300
H  39.81300 3.54800 45.49000
H  41.07000 4.60900 45.05600
H  39.21500 6.31700 46.37500
H  38.40000 5.05300 45.42700
H  43.23500 -3.01100 49.00800
H  43.06500 -2.69300 47.32000
H  41.89300 -1.95600 48.54000
H  47.78200 -3.94100 48.13400
H  48.04900 -2.38600 48.92100
H  47.94300 -2.52900 47.19000
H  49.89700 1.35800 46.64400
H  50.20000 3.77000 48.20600
H  51.00800 0.37300 48.31100
H  49.89100 1.01500 49.59200
H  51.21900 1.98800 48.98900
H  49.81400 4.42200 45.48500
H  50.82500 2.98100 45.57900
H  51.78400 5.56700 46.13700
H  52.67800 3.92100 46.18100
H  51.99000 4.60000 47.60200
H  48.25700 8.07000 47.08000
H  47.17200 8.84000 48.30000
H  46.89900 9.15200 46.61000
H  41.94000 7.25700 46.21700
H  40.29400 10.00900 49.02700
H  40.22300 8.45900 49.96500
H  39.00700 8.87100 48.70200
Mg 47.20300 24.86100 27.80000
C  48.20200 27.21900 30.30300
C  46.65600 22.59800 30.26000
C  46.47600 22.83700 25.34800
C  48.25900 27.31700 25.36700
N  47.44500 24.94500 30.12200
C  47.82900 25.98800 30.91700
C  47.73300 25.58300 32.39500
C  47.23000 24.12000 32.32200
C  47.09800 23.82800 30.84600
C  48.10600 23.04200 33.12300
C  46.94100 26.71400 33.26100
C  45.91100 26.35200 34.39800
H  45.94900 27.21100 35.72000
N  46.67000 22.90000 27.79700
C  46.53000 22.12100 28.95600
C  46.09000 20.82300 28.50200
C  45.84400 20.89200 27.08000
C  46.37900 22.22300 26.66400
C  45.75600 19.58300 29.44000
C  45.25200 19.84400 26.12800
O  45.00200 20.09700 24.96300
C  44.97600 18.44100 26.59100
N  47.15400 25.17800 25.67900
C  46.81400 24.10700 24.92400
C  47.25400 24.41100 23.48600
C  47.44600 25.96400 23.43200
C  47.66000 26.19400 24.93300
C  48.59000 23.61900 23.12900
C  46.10400 26.61900 22.99400
C  46.23600 27.96800 22.33800
N  48.06400 26.92100 27.71600
C  48.42600 27.75900 26.68400
C  48.93200 28.96800 27.27100
C  48.74100 28.87900 28.68700
C  48.28400 27.53700 28.87900
C  49.47100 30.18300 26.55000
C  48.93100 29.55300 29.94000
O  49.48200 30.66800 30.13300
C  48.51800 28.48600 31.01700
C  49.69900 28.25200 31.95900
O  50.56900 27.40300 31.82000
O  49.61700 29.11400 32.96800
C  50.56300 28.97200 34.08200
H  46.48700 21.77000 30.95000
H  46.19600 22.16200 24.53600
H  48.70700 28.02900 24.67000
H  48.75400 25.61400 32.77700
H  46.35300 23.96700 32.95000
H  47.58000 22.53600 33.93300
H  48.99600 23.51900 33.53400
H  48.28800 22.32900 32.31900
H  46.40700 27.38100 32.58300
H  47.76400 27.31700 33.64400
H  46.16300 25.34300 34.72400
H  44.91500 26.47800 33.97500
H  44.68200 19.39900 29.41700
H  45.99500 19.65500 30.50100
H  46.29100 18.70900 29.06700
H  44.16300 18.35200 27.31100
H  45.94100 18.15200 27.00800
H  44.71600 17.78700 25.75900
H  46.50900 24.04300 22.78000
H  48.29900 26.26600 22.82400
H  49.27300 23.68600 23.97500
H  49.03900 24.03400 22.22700
H  48.33800 22.56500 23.00700
H  45.52000 26.62300 23.91400
H  45.62600 25.93900 22.28900
H  46.03300 27.70700 21.30000
H  47.26600 28.32100 22.40200
H  45.58700 28.71700 22.79200
H  49.12200 31.01000 27.16700
H  49.17600 30.48900 25.54600
H  50.55600 30.17400 26.65400
H  47.66500 28.93200 31.52800
H  49.98100 28.78600 34.98500
H  51.02800 29.94100 34.26500
H  51.31200 28.21200 33.85700

