158

Mg 49.05500 35.64100 27.19100
C  47.22400 33.84400 29.61600
C  49.11100 38.33700 29.49800
C  50.38500 37.48200 24.87100
C  48.43300 32.99700 24.97300
N  48.40900 35.94300 29.34300
C  47.75900 35.00700 30.11500
C  47.49500 35.56000 31.51700
C  47.68500 37.12200 31.28200
C  48.42900 37.15200 29.93600
C  46.48100 38.06700 31.35300
C  48.35400 34.89000 32.64300
C  48.63900 35.76200 33.89700
H  47.47500 36.52200 34.48900
N  49.82600 37.55400 27.24700
C  49.74800 38.49300 28.23200
C  50.45600 39.63200 27.80600
C  50.68800 39.48600 26.41500
C  50.27200 38.09600 26.15500
C  50.65500 40.83900 28.76500
C  51.10900 40.47200 25.40500
O  51.34900 40.25800 24.23600
C  51.22100 41.91800 25.83200
N  49.39700 35.26900 25.27600
C  50.06900 36.17700 24.55000
C  50.47100 35.52700 23.16400
C  50.19800 33.97800 23.38800
C  49.26100 34.03100 24.60700
C  49.60400 36.17300 22.09600
C  51.48000 33.18100 23.74300
C  51.99200 32.29200 22.61700
N  47.93500 33.86200 27.20500
C  47.73100 32.92100 26.16600
C  46.88300 31.84500 26.67900
C  46.61500 32.19700 27.98600
C  47.30800 33.41400 28.28000
C  46.62500 30.59300 25.96700
C  46.00200 31.70600 29.29100
O  45.23200 30.74400 29.51000
C  46.32700 32.71900 30.32800
C  47.03700 32.08400 31.43300
O  48.23100 31.85300 31.51200
O  46.15500 31.77900 32.43600
C  46.61900 31.02800 33.61000
H  49.04100 39.14100 30.23300
H  51.09600 37.96700 24.19800
H  48.36600 32.13400 24.30700
H  46.44600 35.37200 31.74200
H  48.40900 37.55600 31.97100
H  46.30800 38.67600 30.46600
H  46.72000 38.79400 32.12800
H  45.70100 37.37900 31.67900
H  49.28800 34.44200 32.30400
H  47.74100 34.09900 33.07300
H  49.54500 36.34900 33.74500
H  48.85500 35.25100 34.83500
H  49.98800 41.65500 28.48600
H  51.64900 41.27100 28.65000
H  50.56500 40.52600 29.80500
H  50.25100 42.23800 26.21400
H  51.61400 42.53400 25.02300
H  51.99200 41.89200 26.60200
H  51.53800 35.61400 22.96000
H  49.70700 33.56800 22.50500
H  48.70200 36.59400 22.53800
H  49.41400 35.42500 21.32600
H  50.14700 37.00300 21.64400
H  51.30500 32.56300 24.62300
H  52.28900 33.88600 23.93700
H  51.44200 32.47400 21.69400
H  51.86700 31.22400 22.79800
H  53.04600 32.49600 22.43000
H  47.51200 29.97300 26.10000
H  46.42800 30.69200 24.90000
H  45.69800 30.20900 26.39400
H  45.41400 33.14900 30.73900
H  45.90300 30.73900 34.37900
H  47.32200 31.66200 34.15000
H  47.00000 30.10300 33.17700
Mg 8.79300 48.43200 25.85000
C  7.00700 48.17700 28.87600
C  11.54300 49.31400 27.69100
C  10.44200 49.01400 22.90700
C  5.90200 47.93200 24.10400
N  9.21900 48.78400 28.01600
C  8.37700 48.45200 29.10500
C  9.07000 48.73900 30.44800
C  10.44200 49.30900 29.99900
C  10.44400 49.12900 28.46600
C  10.97800 50.67300 30.48500
C  9.11600 47.54100 31.42200
C  9.85800 47.88500 32.69800
H  8.96500 47.65100 33.97600
N  10.75000 48.99100 25.38900
C  11.75800 49.27300 26.28500
C  12.97800 49.47700 25.59200
C  12.73400 49.39700 24.17800
C  11.26600 49.10400 24.10700
C  14.28900 49.82600 26.31200
C  13.63100 49.39500 22.97600
O  13.27900 49.06700 21.87100
C  15.16300 49.46900 23.28100
N  8.24300 48.64700 23.87700
C  9.14500 48.80800 22.84800
C  8.38400 48.77000 21.46200
C  7.03900 48.12300 21.84700
C  7.00800 48.26700 23.39000
C  8.27200 50.18300 20.72400
C  6.86200 46.68400 21.43400
C  7.70900 45.64500 22.20500
N  6.82800 48.19300 26.32900
C  5.75300 47.84000 25.52000
C  4.52000 47.58300 26.23200
C  4.98800 47.65000 27.58100
C  6.38300 48.07200 27.59000
C  3.16800 47.41300 25.78300
C  4.61200 47.53200 28.91500
O  3.54900 47.13600 29.38800
C  5.86800 47.77000 29.78800
C  6.08400 46.41100 30.41500
O  6.69300 45.41400 29.97400
O  5.34200 46.40400 31.50600
C  5.51100 45.22100 32.36200
H  12.43100 49.45400 28.31100
H  10.93600 49.07300 21.93500
H  5.00700 47.62000 23.56100
H  8.32300 49.37600 30.92100
H  11.18600 48.62700 30.41100
H  11.77000 50.54500 31.22200
H  10.30800 51.26700 31.10700
H  11.28800 51.30900 29.65500
H  9.57000 46.74900 30.82500
H  8.07000 47.36900 31.67600
H  10.34100 48.85900 32.77900
H  10.57200 47.06400 32.76800
H  14.07600 50.12500 27.33900
H  14.96500 50.50400 25.79100
H  14.83300 48.88200 26.28800
H  15.49400 50.42100 23.69700
H  15.75500 49.20700 22.40400
H  15.56800 48.70600 23.94600
H  8.87700 48.05100 20.80900
H  6.18900 48.58900 21.34800
H  7.20800 50.37900 20.59000
H  8.78200 50.01300 19.77600
H  8.84700 50.82600 21.39000
H  7.10800 46.67100 20.37200
H  5.79000 46.50200 21.50600
H  8.51500 46.16000 22.72600
H  8.04700 44.98600 21.40500
H  6.92300 45.19000 22.80800
H  2.97400 46.41600 26.18000
H  3.01700 47.45800 24.70500
H  2.48700 48.15400 26.20200
H  5.57400 48.58700 30.44700
H  5.38300 44.31500 31.77100
H  4.77500 45.29100 33.16200
H  6.47200 45.19100 32.87600

