158

Mg 30.50300 57.67900 40.96100
C  27.62300 55.96400 39.79600
C  32.56900 55.11200 39.58600
C  33.13300 59.75500 41.07500
C  28.38300 60.32800 41.97500
N  30.11400 55.95400 39.72200
C  28.88100 55.34300 39.43300
C  29.09700 54.04400 38.68200
C  30.47500 53.57900 39.27400
C  31.15200 55.00000 39.46600
C  30.36800 52.97900 40.63600
C  28.90600 53.93200 37.19300
C  29.02400 55.22100 36.28200
H  27.85000 55.50600 35.40000
N  32.65000 57.45200 40.49600
C  33.24000 56.31200 39.94000
C  34.66700 56.53400 39.83200
C  34.84200 57.92100 40.20200
C  33.50700 58.47200 40.67500
C  35.69100 55.45800 39.45200
C  36.20200 58.57800 40.18800
O  37.16700 57.88500 39.93000
C  36.50200 60.02800 40.62300
N  30.77000 59.70200 41.60800
C  31.95800 60.32800 41.56300
C  31.87000 61.84100 41.79700
C  30.39500 62.00700 42.29100
C  29.77500 60.60700 42.01500
C  32.89700 62.49300 42.68400
C  29.61200 63.03600 41.35500
C  28.66800 63.91700 42.14800
N  28.43000 58.04800 40.94600
C  27.70600 59.16000 41.39100
C  26.30700 58.86700 41.13500
C  26.20700 57.63300 40.52700
C  27.51600 57.19400 40.45200
C  25.14000 59.75300 41.42700
C  25.32100 56.72100 39.99300
O  24.05700 56.74300 39.88000
C  26.25000 55.53500 39.36700
C  25.82700 54.24600 40.06700
O  25.98000 54.02500 41.26900
O  24.95200 53.51900 39.23500
C  24.36500 52.28000 39.83900
H  33.22500 54.26100 39.39100
H  33.96200 60.46300 41.14700
H  27.70400 61.11400 42.31200
H  28.39300 53.30900 39.07200
H  31.13700 53.06600 38.57600
H  29.34300 52.83700 40.97800
H  30.85900 53.54000 41.43100
H  30.88100 52.01800 40.57700
H  27.84900 53.70300 37.05500
H  29.68900 53.26700 36.83000
H  29.82600 54.95800 35.59200
H  29.22400 56.09300 36.90500
H  36.11100 55.57900 38.45400
H  35.22200 54.49400 39.64900
H  36.49100 55.52000 40.19000
H  35.73000 60.67200 40.20100
H  37.49500 60.38900 40.35800
H  36.32900 60.10300 41.69700
H  31.98600 62.30500 40.81800
H  30.45800 62.13500 43.37100
H  32.96500 61.88700 43.58800
H  32.50500 63.46600 42.98000
H  33.78000 62.64700 42.06300
H  29.05400 62.48000 40.60100
H  30.27700 63.72100 40.83100
H  29.01600 64.94900 42.10100
H  28.59600 63.55200 43.17300
H  27.66000 63.83100 41.74000
H  24.97200 60.55300 40.70600
H  25.45100 60.32600 42.30000
H  24.15900 59.27800 41.40100
H  26.14200 55.48100 38.28400
H  23.54000 51.92300 39.22200
H  23.85700 52.51100 40.77500
H  25.15300 51.52800 39.80600
Mg -9.92500 39.38900 39.94900
C  -9.20500 36.05600 39.03500
C  -6.75600 40.15000 38.93900
C  -10.80800 42.66800 39.90400
C  -13.21600 38.42500 40.37500
N  -8.24600 38.21300 39.17600
C  -8.12000 36.86100 38.87200
C  -6.73100 36.53900 38.37300
C  -5.87900 37.74500 38.74700
C  -7.03800 38.78000 39.00600
C  -4.87100 37.56400 39.94300
C  -6.64400 36.04300 36.82800
C  -7.14700 37.05800 35.76100
H  -8.08400 36.76500 34.49500
N  -8.86700 41.21200 39.58600
C  -7.61500 41.29100 39.19300
C  -7.35900 42.65800 38.86100
C  -8.56600 43.41800 38.95000
C  -9.53400 42.43600 39.47000
C  -6.05800 43.20900 38.36600
C  -8.74100 44.92200 38.56100
O  -7.76300 45.43600 38.03500
C  -9.99600 45.55100 38.57700
N  -11.71600 40.41400 40.19400
C  -11.75200 41.71100 40.21900
C  -13.18700 42.15200 40.61900
C  -13.98000 40.84900 40.76200
C  -12.94100 39.82300 40.45400
C  -13.21800 43.07600 41.83200
C  -15.26700 40.73400 39.85100
C  -16.59900 40.69700 40.60500
N  -11.03000 37.61200 39.89500
C  -12.38200 37.41400 40.05900
C  -12.70600 35.99400 39.85900
C  -11.50700 35.41900 39.45200
C  -10.54500 36.44000 39.49700
C  -14.00000 35.35800 40.23200
C  -10.92900 34.16500 38.94800
O  -11.40400 33.06600 38.63000
C  -9.42500 34.59600 38.66300
C  -8.55200 33.79800 39.51400
O  -8.48100 33.89200 40.75700
O  -7.71000 33.07300 38.73300
C  -6.44600 32.61500 39.30800
H  -5.73900 40.45000 38.67800
H  -11.09200 43.72100 39.85700
H  -14.26200 38.10900 40.37000
H  -6.26500 35.68400 38.86300
H  -5.30200 38.06600 37.88000
H  -5.29800 38.05400 40.81800
H  -3.90500 38.05100 39.81000
H  -4.69100 36.52400 40.21300
H  -7.10600 35.11400 36.49300
H  -5.56800 36.06500 36.65600
H  -6.28100 37.53500 35.30200
H  -7.71000 37.79600 36.33300
H  -5.70900 44.11300 38.86700
H  -6.01300 43.32400 37.28300
H  -5.30200 42.45800 38.59600
H  -10.74900 44.96600 38.04900
H  -9.85000 46.45600 37.98700
H  -10.32400 45.75400 39.59700
H  -13.61000 42.77400 39.83000
H  -14.39300 40.59100 41.73700
H  -12.19200 43.36500 42.05800
H  -13.65300 42.52700 42.66700
H  -13.80500 43.96100 41.58600
H  -15.20800 39.89700 39.15600
H  -15.32500 41.55200 39.13300
H  -17.30800 41.50100 40.41000
H  -16.41700 41.01400 41.63200
H  -17.06400 39.71300 40.55400
H  -14.75100 35.59000 39.47700
H  -14.43300 35.64100 41.19100
H  -13.80400 34.29300 40.36100
H  -9.22000 34.42100 37.60700
H  -5.64400 33.27400 38.97500
H  -6.31800 31.56500 39.04700
H  -6.37900 32.89500 40.35900

