158

Mg 44.96100 4.27900 47.09600
C  42.87500 6.98200 47.23200
C  42.23100 2.20300 47.10300
C  47.01200 1.77200 46.34000
C  47.75700 6.49000 46.81800
N  42.83400 4.56600 47.10100
C  42.13100 5.76500 47.06200
C  40.66600 5.58700 46.97300
C  40.55800 4.04900 47.34200
C  41.98100 3.54900 47.20700
C  39.79200 3.68500 48.67600
C  39.93700 5.86600 45.60200
C  40.71000 5.74400 44.27400
H  40.58200 6.73600 43.10500
N  44.64500 2.24500 46.70500
C  43.47200 1.55100 46.83300
C  43.65400 0.19700 46.58600
C  45.03800 0.10800 46.19100
C  45.61700 1.39500 46.43100
C  42.61200 -0.86800 46.55200
C  45.66000 -1.05200 45.52500
O  45.01000 -2.06300 45.22000
C  47.13900 -1.17200 45.13500
N  47.10600 4.21600 46.30900
C  47.72300 2.99500 46.52400
C  49.24800 3.09700 46.38100
C  49.47300 4.64300 46.61200
C  48.02800 5.18500 46.56100
C  49.97300 2.27400 47.50200
C  50.36700 5.19300 45.52400
C  49.70400 5.23800 44.11500
N  45.35300 6.34600 47.08000
C  46.49600 7.07500 46.93700
C  46.17200 8.47600 47.00700
C  44.77000 8.45600 47.20300
C  44.35400 7.14900 47.21500
C  47.09900 9.69400 46.88800
C  43.57100 9.31000 47.41000
O  43.47400 10.54800 47.51000
C  42.31100 8.36300 47.37800
C  41.39100 8.60200 48.51000
O  41.41200 7.96400 49.53900
O  40.47000 9.60500 48.24000
C  39.32100 9.67000 49.10200
H  41.39600 1.50100 47.07800
H  47.72000 0.94400 46.27500
H  48.63300 7.13100 46.93500
H  40.20100 6.13800 47.79100
H  39.96000 3.48400 46.62600
H  38.74300 3.59000 48.39600
H  39.96300 4.50200 49.37600
H  40.14500 2.79200 49.19100
H  39.65400 6.91800 45.65200
H  38.99600 5.33200 45.47000
H  40.38100 4.72700 44.05700
H  41.75300 5.59800 44.55700
H  42.30100 -0.99100 45.51500
H  41.73500 -0.62100 47.15000
H  42.92900 -1.88500 46.78000
H  47.72000 -1.24600 46.05500
H  47.39100 -0.40400 44.40400
H  47.29700 -2.13600 44.65100
H  49.38400 2.70200 45.37400
H  50.01400 4.83500 47.53900
H  50.11800 1.19700 47.41100
H  49.24700 2.27300 48.31500
H  50.93100 2.72000 47.77000
H  51.26400 4.57400 45.49700
H  50.73500 6.16800 45.84100
H  50.37100 4.84100 43.34900
H  49.64000 6.31500 43.96100
H  48.72700 4.76100 44.03300
H  47.38900 9.81700 45.84400
H  48.00200 9.67500 47.49800
H  46.51100 10.57500 47.14200
H  41.71000 8.73500 46.54800
H  38.61000 8.85600 48.95900
H  38.88100 10.63700 48.85800
H  39.56600 9.73400 50.16200
Mg 36.14300 50.06500 24.48800
C  36.59100 48.26200 27.59500
C  34.98500 52.71400 26.36000
C  35.57100 51.54100 21.70000
C  37.39200 47.17700 22.86200
N  35.80600 50.40900 26.84800
C  36.07300 49.54700 27.84200
C  35.75300 50.24000 29.20000
C  35.03400 51.52500 28.75000
C  35.32200 51.60400 27.22100
C  33.55000 51.48600 28.98300
C  37.04900 50.42900 30.02400
C  36.98700 50.42300 31.58900
H  35.60700 50.52900 32.26400
N  35.48300 51.90400 24.09100
C  35.09200 52.87000 24.98600
C  34.66300 53.99300 24.23100
C  34.64600 53.66700 22.82000
C  35.18500 52.28700 22.80700
C  34.29300 55.29600 24.94700
C  34.11700 54.44200 21.63100
O  34.08100 53.96400 20.50700
C  33.54300 55.80200 21.86600
N  36.17800 49.32800 22.56400
C  36.05300 50.24200 21.59100
C  36.56400 49.68600 20.21800
C  37.07500 48.25600 20.61300
C  36.87200 48.19900 22.13700
C  35.43300 49.51700 19.17600
C  38.57300 47.95800 20.08200
C  39.72000 48.64500 20.69000
N  36.75900 48.14700 25.01900
C  37.29200 47.10200 24.27800
C  37.57500 46.00200 25.12700
C  37.37900 46.40300 26.41400
C  36.85900 47.74200 26.34100
C  38.16400 44.71800 24.67700
C  37.46300 45.90800 27.77800
O  37.75600 44.83600 28.27600
C  36.89600 47.08300 28.60200
C  35.70100 46.65200 29.25600
O  34.57900 46.60100 28.76900
O  36.04900 46.32300 30.50200
C  35.22300 45.38600 31.34300
H  34.58700 53.55000 26.93900
H  35.44100 52.00300 20.72000
H  37.92700 46.38100 22.33800
H  35.08200 49.60600 29.77800
H  35.52000 52.38300 29.21500
H  33.25200 52.32300 29.61400
H  33.27100 50.69600 29.68100
H  32.96000 51.33200 28.07900
H  37.50200 51.36100 29.68600
H  37.72400 49.60000 29.81300
H  37.66500 51.16500 32.01000
H  37.46800 49.54700 32.02400
H  34.71300 55.37800 25.95000
H  33.21200 55.42700 24.91600
H  34.65500 56.09600 24.30200
H  32.93400 56.27200 21.09400
H  34.33900 56.53700 21.97900
H  32.88200 55.79600 22.73300
H  37.42600 50.27900 19.91200
H  36.33200 47.54200 20.25700
H  34.43600 49.47400 19.61300
H  35.57100 48.65000 18.53100
H  35.57000 50.37100 18.51200
H  38.54900 48.33200 19.05900
H  38.73400 46.88000 20.11700
H  40.04600 49.53300 20.14800
H  40.58200 47.98900 20.57300
H  39.58000 48.99200 21.71400
H  37.42600 44.10800 24.15600
H  38.66600 44.21500 25.50300
H  38.98600 44.86000 23.97500
H  37.65900 47.42400 29.30100
H  34.42100 45.87600 31.89400
H  35.74700 44.95800 32.19800
H  34.76800 44.53600 30.83500

