158

Mg 0.54900 7.67600 26.07300
C  1.09700 9.64800 28.93800
C  0.09800 5.00000 28.17300
C  0.28900 5.90500 23.35300
C  0.60300 10.56300 24.26700
N  0.57300 7.37700 28.29600
C  0.78600 8.35500 29.20700
C  0.45900 7.77500 30.57300
C  0.61800 6.26600 30.34400
C  0.34500 6.18600 28.89800
C  1.98000 5.56800 30.74800
C  -0.87500 8.25000 31.23600
C  -1.00000 7.98100 32.74600
H  0.29300 7.91100 33.67300
N  0.37600 5.68900 25.78400
C  0.23500 4.76100 26.83700
C  0.13100 3.38700 26.18600
C  0.12700 3.61900 24.72100
C  0.33400 5.10400 24.54000
C  -0.18100 2.13100 27.02500
C  0.05900 2.63000 23.52500
O  -0.03100 2.88500 22.36700
C  -0.05600 1.07600 23.80800
N  0.53600 8.12400 24.09300
C  0.32700 7.25700 23.14500
C  0.34000 7.91800 21.68300
C  -0.02200 9.36900 22.10700
C  0.38500 9.34000 23.59500
C  1.67600 7.82300 20.89500
C  -1.52600 9.68500 21.89500
C  -1.79300 10.84400 20.93300
N  0.83700 9.73600 26.46100
C  0.83900 10.81700 25.60500
C  1.16400 12.06400 26.31000
C  1.15700 11.59300 27.67100
C  1.11800 10.19800 27.66200
C  1.37100 13.43300 25.78100
C  1.31500 12.07700 28.93300
O  1.50500 13.23900 29.31500
C  1.19900 10.85600 29.85800
C  2.47400 10.81400 30.63700
O  3.57100 10.48700 30.19600
O  2.25200 11.29800 31.88100
C  3.41500 11.24200 32.74900
H  -0.05700 4.12400 28.80600
H  0.21600 5.23100 22.49700
H  0.48500 11.36800 23.53900
H  1.20000 8.17300 31.26700
H  -0.21400 5.83000 30.89700
H  2.31200 6.25600 31.52600
H  2.60700 5.47000 29.86200
H  1.81000 4.60700 31.23300
H  -1.67900 7.69200 30.75600
H  -1.15900 9.28300 31.03600
H  -1.64400 7.11000 32.87000
H  -1.59700 8.75600 33.22600
H  -1.23400 2.10300 27.30500
H  0.40800 2.14700 27.94200
H  -0.03700 1.16000 26.55200
H  0.24100 0.55100 22.90000
H  -1.06900 0.72900 24.01100
H  0.55500 0.72200 24.63900
H  -0.46600 7.44200 21.12400
H  0.49600 10.09800 21.48400
H  1.95200 8.73300 20.36200
H  1.58000 6.90400 20.31800
H  2.48100 7.81300 21.63000
H  -1.94200 9.90100 22.87900
H  -2.00300 8.80900 21.45400
H  -0.94500 11.34100 20.46100
H  -2.25000 11.64400 21.51600
H  -2.45200 10.55300 20.11500
H  0.51600 13.86300 25.25900
H  2.26600 13.55300 25.17000
H  1.57500 14.06900 26.64300
H  0.38500 10.94000 30.57800
H  3.08000 11.66000 33.69900
H  4.33500 11.69700 32.38500
H  3.59300 10.18900 32.97100
Mg 0.95600 42.10700 26.11400
C  2.25700 42.11600 29.32800
C  -2.09400 41.01900 27.36000
C  -0.12300 41.72700 22.93600
C  4.08200 43.06100 24.92300
N  0.15500 41.52200 28.14400
C  0.85100 41.76900 29.31300
C  -0.09700 41.50800 30.52700
C  -1.46000 41.04500 29.80100
C  -1.14000 41.27600 28.36800
C  -2.05500 39.59700 30.13400
C  -0.41900 42.78900 31.38900
C  -0.29100 42.61000 32.90700
H  -0.42400 41.10700 33.40600
N  -0.82700 41.37800 25.29600
C  -2.00700 41.09300 25.95600
C  -3.04700 40.74200 24.94900
C  -2.50900 41.02500 23.70000
C  -1.06100 41.34500 23.93600
C  -4.36100 40.27900 25.54200
C  -3.20200 40.90200 22.34000
O  -2.68200 41.35600 21.34300
C  -4.69200 40.47800 22.16400
N  1.92000 42.24900 24.19900
C  1.13700 42.23600 23.04800
C  1.97800 42.67100 21.81200
C  3.29000 43.18600 22.51200
C  3.11100 42.76800 23.93500
C  2.16100 41.53600 20.74300
C  3.35800 44.73500 22.35300
C  3.21500 45.35000 20.93400
N  2.72400 42.56400 26.91400
C  3.92700 42.87700 26.27000
C  4.95200 43.12400 27.27200
C  4.32500 42.72400 28.52800
C  2.98700 42.48000 28.19900
C  6.41700 43.36600 26.98500
C  4.49400 42.59500 29.94000
O  5.51600 42.68000 30.56800
C  3.17600 42.26700 30.56500
C  3.39800 41.00400 31.31700
O  3.36400 39.87800 30.88500
O  3.55300 41.38400 32.61100
C  3.76900 40.27600 33.61600
H  -3.03400 40.75400 27.85000
H  -0.53600 41.68000 21.92600
H  5.01700 43.42200 24.48900
H  0.23700 40.66700 31.13300
H  -2.36400 41.55900 30.12700
H  -2.98400 39.64800 30.70200
H  -1.31900 38.99800 30.67000
H  -2.32300 39.09000 29.20700
H  -1.31300 43.21800 30.93600
H  0.33200 43.49900 31.04300
H  -1.15100 43.14900 33.30300
H  0.69400 42.99800 33.16800
H  -4.54300 40.72700 26.51800
H  -4.40600 39.19200 25.61800
H  -5.12400 40.63800 24.85100
H  -4.84100 39.54500 22.70800
H  -5.09000 40.38500 21.15300
H  -5.35100 41.13800 22.72800
H  1.41700 43.52500 21.43300
H  4.09200 42.80600 21.88000
H  1.42300 40.77200 20.98700
H  3.13400 41.11900 21.00300
H  1.99100 41.99700 19.76900
H  4.29000 45.12000 22.76800
H  2.50300 45.10800 22.91700
H  2.33500 45.98600 20.83600
H  3.17700 44.49600 20.25800
H  3.99200 46.07100 20.67900
H  7.15100 43.01300 27.70900
H  6.49400 44.44500 26.85100
H  6.62400 42.83800 26.05400
H  2.98400 43.07800 31.26700
H  4.32100 40.72300 34.44200
H  4.40900 39.53900 33.13200
H  2.80300 39.90500 33.95800

