158

Mg 24.96600 0.97000 29.33500
C  27.15800 0.78200 32.18400
C  22.28000 0.81400 31.62100
C  22.99600 0.62900 26.81400
C  27.77100 0.15900 27.45000
N  24.75600 0.85900 31.66700
C  25.78500 0.96500 32.54300
C  25.31700 1.45100 33.92500
C  23.72200 1.17900 33.85600
C  23.53800 1.04200 32.26300
C  23.12000 -0.06200 34.64000
C  25.61300 2.92800 34.29400
C  26.24800 3.00100 35.73700
H  25.53600 3.87900 36.77700
N  22.99900 0.90200 29.21800
C  22.04000 0.89200 30.21300
C  20.67600 0.82600 29.65500
C  20.87000 0.83000 28.25000
C  22.34900 0.75200 28.01600
C  19.42000 0.94300 30.54500
C  19.96500 0.80100 27.13200
O  20.24100 0.93500 25.97000
C  18.52800 0.65300 27.44000
N  25.40300 0.57500 27.39800
C  24.40100 0.58300 26.50400
C  24.87800 0.63000 25.04400
C  26.41800 0.52800 25.27100
C  26.58300 0.31700 26.76500
C  24.20000 -0.35000 24.05700
C  27.18300 1.78300 24.71300
C  27.25500 3.04900 25.59800
N  27.10800 0.47700 29.68400
C  28.12000 0.25700 28.80200
C  29.37600 0.20300 29.53100
C  29.03500 0.36600 30.85000
C  27.65100 0.51900 30.89700
C  30.70400 -0.04400 28.87400
C  29.60700 0.58100 32.14100
O  30.81900 0.52300 32.52700
C  28.39300 0.89400 33.10100
C  28.39200 -0.03900 34.30000
O  28.13300 -1.20800 34.27400
O  28.83800 0.64000 35.42400
C  29.06400 -0.14800 36.63700
H  21.43800 0.73700 32.31100
H  22.51500 0.67700 25.83500
H  28.54100 0.00700 26.69100
H  25.78300 0.71500 34.58100
H  23.09800 2.02900 34.13200
H  22.35300 -0.53800 34.02900
H  22.59500 0.30500 35.52200
H  23.96200 -0.69800 34.91400
H  24.69500 3.51200 34.23000
H  26.31600 3.30000 33.54900
H  27.27700 3.31400 35.56000
H  26.27600 1.98400 36.12900
H  19.05800 1.97100 30.56700
H  19.52900 0.46600 31.51900
H  18.60900 0.34900 30.12600
H  18.55700 -0.37100 27.81200
H  17.89300 0.75200 26.56000
H  18.22000 1.45500 28.11200
H  24.50800 1.62600 24.80400
H  26.78100 -0.40800 24.84700
H  23.36700 0.12100 23.53600
H  23.81800 -1.27500 24.48800
H  24.92700 -0.67000 23.31000
H  26.66900 2.09700 23.80400
H  28.14800 1.48100 24.30600
H  26.99900 2.76700 26.61900
H  26.63500 3.87400 25.24700
H  28.24700 3.47500 25.74900
H  31.01200 0.84400 28.32300
H  30.60300 -0.91700 28.22900
H  31.46400 -0.08100 29.65500
H  28.45900 1.90200 33.51100
H  28.08300 -0.33400 37.07400
H  29.71200 0.26900 37.40800
H  29.50000 -1.11800 36.39500
Mg 34.96100 2.79000 29.54300
C  32.96300 3.78700 32.21100
C  37.69800 2.73900 31.70400
C  37.03400 2.34400 26.81200
C  32.27400 3.53600 27.45000
N  35.30500 3.42700 31.69200
C  34.35800 3.67800 32.55900
C  34.90400 3.57200 34.00600
C  36.48800 3.47300 33.78900
C  36.49600 3.20600 32.33300
C  37.37000 4.69800 34.11500
C  34.43600 2.35400 34.74700
C  34.19300 2.43500 36.29200
H  34.80700 3.55000 37.19500
N  36.99500 2.46600 29.29100
C  37.96000 2.43300 30.33200
C  39.14200 1.98400 29.70100
C  39.00800 1.97100 28.29200
C  37.59800 2.33500 28.09100
C  40.43400 1.74400 30.63700
C  40.04800 1.72100 27.11800
O  39.81600 1.61000 25.93200
C  41.47200 1.43800 27.55300
N  34.70300 2.89100 27.44700
C  35.70500 2.65500 26.48600
C  35.17200 2.58100 25.04100
C  33.57500 2.68800 25.28000
C  33.46800 3.03500 26.78100
C  35.70100 3.65400 24.05000
C  32.79200 1.26500 25.07800
C  31.44200 1.23200 24.39000
N  33.04700 3.52100 29.73600
C  32.10200 3.77900 28.85000
C  30.84000 4.05900 29.50100
C  31.13500 4.08300 30.84400
C  32.48600 3.78200 30.95600
C  29.58300 4.25900 28.82500
C  30.59100 4.33700 32.15500
O  29.51500 4.70600 32.44500
C  31.80600 4.14700 33.12400
C  32.02300 5.43900 33.80800
O  32.15900 6.53800 33.26700
O  31.82900 5.26800 35.17300
C  31.73400 6.43600 36.02500
H  38.60900 2.81700 32.30100
H  37.66700 2.11200 25.95300
H  31.41800 3.63100 26.77800
H  34.56600 4.45200 34.55400
H  36.97800 2.63800 34.29000
H  37.70500 4.53900 35.13900
H  36.66700 5.52900 34.17700
H  38.25900 4.91400 33.52200
H  35.17000 1.55500 34.63700
H  33.49800 2.08100 34.26300
H  34.52400 1.53600 36.81100
H  33.11900 2.49500 36.46800
H  41.25900 2.17700 30.07100
H  40.61100 0.66900 30.65400
H  40.51600 2.23700 31.60600
H  41.56600 0.52900 28.14700
H  41.78900 2.22400 28.24000
H  42.09200 1.52300 26.66100
H  35.33000 1.54400 24.74500
H  33.02400 3.46400 24.74800
H  36.54900 4.28100 24.32700
H  34.90200 4.34600 23.78300
H  36.05800 3.18600 23.13300
H  32.55800 0.92100 26.08600
H  33.51600 0.57200 24.64900
H  30.63800 0.95100 25.07100
H  31.44900 0.53800 23.54900
H  31.12000 2.21100 24.03300
H  29.18000 3.25200 28.72100
H  29.57600 4.75900 27.85700
H  28.91200 4.89100 29.40800
H  31.55700 3.28500 33.74300
H  31.65500 7.46400 35.67300
H  32.57300 6.51400 36.71700
H  30.90500 6.37500 36.73100

