158

Mg 34.29100 2.90100 29.25900
C  32.37400 3.48500 31.93000
C  36.95800 2.34300 31.37700
C  36.18900 2.93900 26.59000
C  31.42600 3.46300 27.14600
N  34.52500 2.80900 31.33100
C  33.64600 3.17900 32.25000
C  34.21300 3.21000 33.73600
C  35.73900 2.82100 33.56900
C  35.77000 2.66400 31.96900
C  36.85300 3.75200 34.08500
C  33.48200 2.24900 34.79100
C  33.13200 2.81500 36.13100
H  34.24500 3.83900 36.67400
N  36.30000 2.42800 29.02700
C  37.25000 2.18100 29.99900
C  38.46200 1.80400 29.32900
C  38.32500 2.09100 27.91400
C  36.87100 2.44300 27.76100
C  39.68100 1.29900 30.10500
C  39.33200 2.03900 26.78300
O  39.02800 2.46700 25.72100
C  40.76700 1.34800 27.01300
N  33.89000 3.28800 27.18400
C  34.87600 3.35400 26.31600
C  34.42300 3.66800 24.84900
C  32.83300 3.52600 24.99200
C  32.68900 3.41600 26.50600
C  35.02800 4.95400 24.31400
C  32.29800 2.16500 24.37900
C  30.91100 2.10400 23.70300
N  32.27300 3.36800 29.41000
C  31.23600 3.56100 28.56200
C  30.03600 3.95400 29.25400
C  30.44800 3.92300 30.53100
C  31.78600 3.48900 30.59000
C  28.66100 4.21300 28.70300
C  29.93200 4.06400 31.83600
O  28.79700 4.31900 32.24900
C  31.16100 3.83200 32.80700
C  31.27500 5.09500 33.59200
O  31.81700 6.17500 33.27400
O  30.63300 4.89400 34.80100
C  30.37200 5.98900 35.71200
H  37.81800 2.08200 31.99800
H  36.69000 2.99400 25.62100
H  30.60300 3.43000 26.42800
H  34.10200 4.23100 34.10100
H  35.97100 1.81300 33.91100
H  37.46000 3.14000 34.75100
H  36.48900 4.56700 34.71200
H  37.43400 4.17200 33.26400
H  34.16300 1.43200 35.03000
H  32.60200 1.90500 34.24700
H  32.93200 2.12100 36.94700
H  32.23200 3.42500 36.04800
H  39.31400 1.10900 31.11300
H  40.38800 2.12700 30.16400
H  40.03300 0.39700 29.60600
H  40.60200 0.37700 27.48000
H  41.36800 2.10300 27.52000
H  41.15400 1.15400 26.01300
H  34.84500 2.81800 24.31300
H  32.29900 4.44200 24.74000
H  34.19800 5.28100 23.68800
H  35.83900 4.65700 23.65000
H  35.29600 5.66700 25.09400
H  32.12900 1.42000 25.15600
H  33.02300 1.65500 23.74400
H  30.05300 1.64000 24.18800
H  31.06500 1.51800 22.79700
H  30.53000 3.08200 23.40600
H  28.12000 3.32800 29.03800
H  28.64000 4.37200 27.62500
H  28.37900 5.15200 29.17900
H  30.81800 3.00100 33.42400
H  30.62100 5.66300 36.72200
H  29.35500 6.36800 35.81000
H  31.03600 6.83500 35.53500
Mg -11.35600 15.79900 42.09500
C  -8.30900 14.11000 41.39200
C  -10.07800 18.55700 40.22300
C  -14.54100 17.15400 41.98200
C  -12.67000 12.81400 43.03800
N  -9.39800 16.32200 41.03100
C  -8.30300 15.41900 40.91700
C  -7.07600 16.08500 40.16200
C  -7.63800 17.55300 39.94800
C  -9.11100 17.51800 40.43000
C  -6.91100 18.69900 40.69400
C  -6.72900 15.33700 38.81400
C  -5.40200 14.64000 38.69100
H  -4.46200 15.30700 37.68200
N  -12.11000 17.78100 41.46600
C  -11.38900 18.66500 40.62100
C  -12.31700 19.79400 40.33500
C  -13.59300 19.42100 40.96800
C  -13.44900 18.02500 41.47800
C  -11.96000 21.10400 39.63300
C  -14.75500 20.37300 40.99500
O  -14.80200 21.50600 40.36900
C  -15.97700 19.95300 41.72700
N  -13.27700 15.10500 42.22400
C  -14.44100 15.83800 42.34600
C  -15.62700 14.98000 42.52500
C  -15.03000 13.66700 43.01500
C  -13.50800 13.87800 42.75900
C  -16.92700 15.44800 43.32200
C  -15.56600 12.29700 42.28900
C  -16.29700 11.30900 43.25000
N  -10.62900 13.87100 42.42600
C  -11.29300 12.80400 42.90900
C  -10.38600 11.65100 43.06100
C  -9.15500 12.11500 42.52100
C  -9.42800 13.49400 42.13900
C  -10.69300 10.33300 43.63000
C  -7.86700 11.76800 42.06700
O  -7.41600 10.62700 41.83400
C  -7.22900 13.05100 41.47200
C  -6.21000 13.52000 42.46900
O  -6.35100 13.79600 43.63400
O  -4.95700 13.62400 41.83500
C  -3.75100 13.96800 42.65500
H  -9.64000 19.41800 39.71400
H  -15.55300 17.54500 41.85600
H  -13.12900 11.89300 43.40200
H  -6.20000 16.11500 40.81000
H  -7.61700 17.71200 38.87000
H  -6.89700 19.60300 40.08500
H  -5.86200 18.43100 40.82300
H  -7.37100 18.91400 41.65800
H  -6.66700 16.00300 37.95300
H  -7.56600 14.65200 38.68100
H  -5.60300 13.65300 38.27600
H  -5.01100 14.61000 39.70800
H  -11.17800 20.95300 38.88900
H  -11.77400 21.90300 40.35100
H  -12.79000 21.46000 39.02200
H  -15.78600 19.53200 42.71400
H  -16.54400 19.30700 41.05700
H  -16.53300 20.88600 41.81600
H  -16.01600 14.83900 41.51700
H  -15.10700 13.51900 44.09200
H  -16.94600 15.00300 44.31700
H  -17.81500 15.16000 42.76100
H  -16.99200 16.53300 43.40300
H  -14.71200 11.77400 41.85800
H  -16.31300 12.50800 41.52400
H  -17.28200 11.03900 42.86800
H  -16.38200 11.75400 44.24100
H  -15.67400 10.41500 43.26000
H  -9.83200 9.72600 43.91100
H  -11.28600 9.88900 42.83100
H  -11.25500 10.35100 44.56300
H  -6.63600 12.88000 40.57300
H  -4.00000 14.46300 43.59300
H  -3.17300 14.62700 42.00800
H  -3.14500 13.07900 42.83000

