158

Mg 24.42700 -4.93000 45.89500
C  26.88500 -2.62900 44.57600
C  22.34300 -3.86200 43.37800
C  22.45300 -7.59300 46.48300
C  27.07300 -6.26800 47.76900
N  24.73300 -3.55300 44.04600
C  25.75200 -2.68400 43.83000
C  25.45400 -1.87700 42.55900
C  23.96000 -2.00100 42.45300
C  23.63900 -3.21000 43.34300
C  23.14200 -0.81400 42.93400
C  26.15200 -2.41500 41.26700
C  26.44300 -1.31600 40.14800
H  25.80100 -1.48700 38.84400
N  22.56300 -5.51200 45.28100
C  21.88300 -4.89900 44.20200
C  20.58800 -5.48700 44.13400
C  20.58000 -6.71500 44.82900
C  21.85400 -6.61200 45.65000
C  19.43100 -4.90600 43.27100
C  19.57600 -7.82100 44.71300
O  18.56900 -7.67700 44.06900
C  19.75600 -9.22200 45.36200
N  24.82700 -6.77300 46.76100
C  23.76100 -7.66400 47.03700
C  24.25600 -8.94200 47.75500
C  25.66300 -8.37100 48.24300
C  25.89800 -6.99600 47.60000
C  23.25300 -9.48200 48.85000
C  26.77300 -9.42900 48.17100
C  27.94700 -9.32700 47.29000
N  26.56400 -4.52200 46.20600
C  27.50900 -5.21400 46.94700
C  28.82600 -4.58800 46.82400
C  28.56700 -3.48300 45.99600
C  27.21500 -3.58700 45.52100
C  30.04100 -5.00300 47.59400
C  29.14400 -2.39700 45.32200
O  30.29900 -2.04400 45.44600
C  28.14600 -1.91700 44.22900
C  28.16600 -0.44100 44.25200
O  27.46700 0.32800 44.86100
O  29.16600 -0.08900 43.38700
C  29.42300 1.34900 43.24200
H  21.55700 -3.57900 42.67400
H  21.85000 -8.47200 46.71700
H  27.77200 -6.57800 48.54900
H  25.77400 -0.84600 42.71000
H  23.66800 -2.21500 41.42500
H  22.43600 -0.27300 42.30400
H  23.70800 -0.02900 43.43600
H  22.55100 -1.16600 43.78000
H  25.61200 -3.31100 40.96400
H  27.13400 -2.78800 41.56000
H  27.53000 -1.31700 40.06600
H  26.04700 -0.36900 40.51400
H  18.44100 -5.24400 43.57800
H  19.54400 -5.25000 42.24300
H  19.45600 -3.81700 43.28300
H  19.79200 -9.01500 46.43100
H  20.65900 -9.61800 44.89800
H  18.91500 -9.85600 45.08300
H  24.51600 -9.64400 46.96200
H  25.46500 -8.23100 49.30500
H  22.25900 -9.05000 48.96000
H  23.74100 -9.36400 49.81700
H  23.03500 -10.53600 48.68000
H  26.35100 -10.39100 47.88000
H  27.26100 -9.59100 49.13200
H  27.63600 -8.91500 46.33000
H  28.43500 -10.28500 47.11400
H  28.67000 -8.65900 47.75900
H  30.69100 -5.25600 46.75600
H  29.83900 -5.88300 48.20500
H  30.32800 -4.11700 48.16000
H  28.50800 -2.21500 43.24500
H  29.03500 1.62100 42.26000
H  30.51000 1.41400 43.30100
H  29.05800 1.96400 44.06400
Mg 47.21100 32.96000 25.52400
C  45.69800 31.98700 28.69100
C  47.73400 35.97600 27.02400
C  48.81300 33.74500 22.86300
C  46.46800 29.77700 24.33900
N  46.83400 33.81100 27.72500
C  46.35000 33.21300 28.85700
C  46.50600 34.09800 30.13700
C  46.95400 35.45800 29.42200
C  47.24300 35.10900 27.99400
C  46.01900 36.67700 29.61200
C  47.53100 33.50100 31.12500
C  47.12300 33.33000 32.56600
H  46.41600 34.38900 33.41600
N  48.04100 34.69800 24.99500
C  48.19900 35.85900 25.73500
C  48.94500 36.83100 24.96100
C  49.22100 36.25900 23.68300
C  48.71900 34.82500 23.78800
C  49.40800 38.21400 25.45100
C  49.90700 36.72700 22.48000
O  50.22400 36.06200 21.51200
C  50.44300 38.18700 22.43700
N  47.55300 31.89600 23.83100
C  48.32600 32.41600 22.86500
C  48.62300 31.39400 21.76400
C  47.88300 30.12400 22.20600
C  47.26300 30.58400 23.52900
C  48.06200 31.90300 20.35400
C  48.68500 28.82900 22.26700
C  49.65700 28.76500 21.04100
N  46.19900 31.26500 26.20700
C  45.87600 30.12100 25.57000
C  45.03000 29.23900 26.37000
C  44.96200 30.04000 27.53700
C  45.67500 31.20600 27.46200
C  44.40400 27.88300 25.95600
C  44.35300 29.98200 28.80600
O  43.61700 29.13200 29.23900
C  44.69900 31.31600 29.58300
C  45.07900 30.85300 30.97900
O  46.10300 30.37800 31.36600
O  43.97400 31.01400 31.81600
C  44.25400 30.86700 33.26400
H  47.95400 36.99500 27.34600
H  49.30300 33.92200 21.90300
H  46.37000 28.75300 23.97300
H  45.55600 34.07100 30.67000
H  47.83300 35.90800 29.88300
H  45.49400 36.97100 28.70400
H  46.63100 37.56800 29.74600
H  45.26200 36.61400 30.39400
H  48.41800 34.13400 31.14800
H  47.70700 32.50600 30.71600
H  48.02100 33.01000 33.09500
H  46.49700 32.43900 32.57800
H  50.49000 38.08700 25.46200
H  49.11300 38.38900 26.48600
H  49.13500 39.17300 25.01000
H  50.65300 38.48300 21.40900
H  51.32500 38.33100 23.06100
H  49.69000 38.84200 22.87500
H  49.70400 31.42200 21.62800
H  47.05300 29.88000 21.54300
H  47.92800 32.98500 20.38200
H  47.11700 31.48400 20.00900
H  48.83600 31.94100 19.58700
H  48.09400 27.91800 22.17400
H  49.24400 28.93600 23.19600
H  50.62900 29.11500 21.39000
H  49.36600 29.32500 20.15300
H  49.71700 27.70500 20.79100
H  44.26400 27.83000 24.87600
H  43.47500 27.64200 26.47300
H  45.13900 27.11700 26.20400
H  43.81900 31.93900 29.74100
H  43.52500 30.21100 33.74100
H  44.26000 31.87100 33.68600
H  45.20300 30.38300 33.49600

