158

Mg 52.69200 23.23700 44.84500
C  49.86500 25.02800 44.00800
C  51.43200 20.53000 43.41000
C  55.84800 21.93100 44.96700
C  54.23100 26.39400 45.81400
N  50.84900 22.85800 43.79100
C  49.75500 23.65800 43.55000
C  48.60900 22.90800 42.91800
C  49.03100 21.48100 43.26200
C  50.54900 21.57700 43.52100
C  48.15500 20.64400 44.33800
C  48.59400 23.28300 41.33200
C  47.33200 22.74300 40.56800
H  47.28800 23.23700 39.07900
N  53.45700 21.43600 44.39400
C  52.79200 20.40600 43.74000
C  53.67800 19.23500 43.66600
C  54.96100 19.62300 44.15000
C  54.79700 21.03900 44.54700
C  53.31800 17.80600 43.13100
C  56.21000 18.72800 44.25700
O  56.19300 17.59000 43.82400
C  57.48600 19.19900 45.00400
N  54.79000 23.98600 45.42100
C  55.80800 23.20900 45.47800
C  57.05100 23.97700 46.04700
C  56.55900 25.37200 46.14700
C  55.08100 25.31400 45.74600
C  57.57100 23.42100 47.36600
C  57.34700 26.39900 45.33700
C  57.59900 27.76500 46.06600
N  52.14100 25.35700 45.06600
C  52.83700 26.42600 45.52700
C  51.95400 27.52800 45.60500
C  50.79600 27.10100 44.97800
C  50.97300 25.72400 44.58100
C  52.17700 28.81400 46.33300
C  49.48700 27.43900 44.55500
O  48.82900 28.48300 44.58800
C  48.80900 26.09800 43.81500
C  48.42900 26.48500 42.41000
O  49.12900 26.63000 41.38900
O  47.14200 26.94800 42.44800
C  46.61900 27.74900 41.30600
H  50.95100 19.65700 42.96300
H  56.86700 21.54500 44.89800
H  54.67300 27.30700 46.22000
H  47.66800 23.15500 43.40900
H  49.02200 20.74000 42.46300
H  47.34000 20.19400 43.77200
H  47.51400 21.27400 44.95500
H  48.72200 19.97600 44.98700
H  49.45100 22.79700 40.86700
H  48.81800 24.31800 41.07700
H  46.43300 23.12700 41.04900
H  47.21900 21.65900 40.60600
H  53.52000 17.10000 43.93700
H  53.97500 17.68900 42.26900
H  52.33500 17.67800 42.67800
H  58.10400 18.32400 45.20800
H  57.25300 19.66700 45.96100
H  58.03000 19.87900 44.34900
H  57.79000 23.82000 45.26100
H  56.66400 25.71300 47.17700
H  56.98000 23.84600 48.17800
H  58.57900 23.77800 47.57400
H  57.52200 22.33900 47.49200
H  56.74500 26.64200 44.46100
H  58.33500 26.01800 45.07900
H  58.65200 27.98300 46.24600
H  57.01700 27.80300 46.98600
H  57.20700 28.55500 45.42500
H  52.47300 29.52900 45.56600
H  53.01500 28.73400 47.02600
H  51.27400 29.08000 46.88300
H  47.99300 25.76300 44.45400
H  46.73300 27.37800 40.28800
H  47.26400 28.61900 41.18700
H  45.64700 28.14200 41.60200
Mg 6.32500 57.34100 41.54900
C  5.04700 54.02700 41.57100
C  9.45900 55.96400 40.91200
C  7.34800 60.47200 40.94500
C  3.01600 58.53200 41.85400
N  7.07400 55.30000 41.11900
C  6.43100 54.09400 41.29400
C  7.37600 52.88800 40.93800
C  8.80000 53.51400 41.29100
C  8.42000 55.03400 41.08100
C  9.32100 53.19200 42.70400
C  7.28700 52.50200 39.50500
C  7.90800 51.22700 38.97700
H  7.16200 50.32200 38.04500
N  8.14200 58.11900 41.02800
C  9.31800 57.41800 40.80600
C  10.36800 58.39200 40.62400
C  9.77700 59.70000 40.69000
C  8.36600 59.48200 40.88800
C  11.85700 58.06000 40.44500
C  10.50200 60.99700 40.43500
O  11.64700 60.87700 40.06500
C  9.90900 62.36200 40.66000
N  5.29700 59.17200 41.28500
C  5.94900 60.31500 41.19600
C  5.00400 61.57500 41.37400
C  3.62200 60.96900 41.77100
C  3.98000 59.49600 41.64000
C  5.63900 62.68900 42.28600
C  2.40300 61.56200 41.01800
C  2.51400 62.96300 40.39800
N  4.38300 56.51400 41.79100
C  3.16300 57.10400 41.87900
C  2.17200 56.09900 42.10500
C  2.88500 54.92100 42.06400
C  4.20100 55.13000 41.78500
C  0.69800 56.37000 42.39200
C  2.73700 53.50200 42.21600
O  1.69800 52.92500 42.48200
C  4.07200 52.85300 41.93200
C  3.84300 51.83700 40.81700
O  3.40200 52.09100 39.66200
O  4.15100 50.61800 41.16800
C  4.07200 49.58100 40.18800
H  10.42700 55.48400 40.75400
H  7.61300 61.53100 40.92000
H  2.02800 58.89800 42.14200
H  7.31600 52.02400 41.60100
H  9.57000 53.12000 40.62600
H  10.38200 52.94500 42.67300
H  8.87000 52.34300 43.21600
H  9.17800 54.01700 43.40200
H  7.73800 53.23400 38.83500
H  6.24300 52.35700 39.22700
H  8.14100 50.63100 39.85900
H  8.88300 51.33600 38.50100
H  12.56100 58.49000 41.15700
H  12.10400 58.49100 39.47400
H  11.96100 56.97600 40.41600
H  9.50700 62.52300 41.66000
H  9.16100 62.57600 39.89600
H  10.67900 63.08900 40.40200
H  4.88000 61.87900 40.33400
H  3.29500 61.22700 42.77800
H  4.85800 63.34400 42.67100
H  6.34100 63.27500 41.69300
H  6.08600 62.18000 43.14000
H  1.58200 61.65700 41.72900
H  2.07100 60.79300 40.32000
H  1.49200 63.25000 40.15200
H  3.11000 62.83300 39.49400
H  2.95700 63.70800 41.05900
H  0.33700 55.47800 42.90400
H  0.14200 56.45200 41.45800
H  0.56800 57.24400 43.02900
H  4.40700 52.24300 42.77100
H  3.03400 49.26900 40.30400
H  4.78800 48.80300 40.45300
H  4.35700 49.91000 39.18900

