158

Mg -10.25100 39.87000 39.45200
C  -9.26000 36.48800 38.54600
C  -7.13000 40.89300 38.23600
C  -11.49300 43.02400 39.17400
C  -13.42400 38.66900 39.92000
N  -8.41500 38.76600 38.46700
C  -8.26200 37.43600 38.22800
C  -6.90500 37.21200 37.55000
C  -6.10800 38.54200 37.79000
C  -7.24300 39.44000 38.28500
C  -4.79600 38.49600 38.65600
C  -7.02600 36.68900 36.11300
C  -7.42200 37.74200 35.01100
H  -8.53000 37.61400 34.02900
N  -9.38800 41.73900 38.88700
C  -8.08700 41.85500 38.48900
C  -7.93600 43.32100 38.29500
C  -9.08700 44.01200 38.79600
C  -10.09300 42.94800 38.97000
C  -6.69100 43.93400 37.74200
C  -9.32500 45.52900 38.91800
O  -8.42500 46.33700 38.67000
C  -10.69800 46.18100 39.30400
N  -12.16000 40.67500 39.37000
C  -12.47200 42.03800 39.41700
C  -13.95100 42.38300 39.73500
C  -14.41300 40.92900 40.09700
C  -13.32200 40.01200 39.71200
C  -14.22900 43.49000 40.79400
C  -15.80600 40.56400 39.39700
C  -15.83700 39.96900 37.98000
N  -11.14500 37.92400 39.51100
C  -12.43900 37.66300 39.76400
C  -12.63100 36.27400 39.83700
C  -11.40100 35.72500 39.34400
C  -10.51700 36.82700 39.13500
C  -13.85400 35.59400 40.34300
C  -10.74800 34.52400 38.97300
O  -11.01100 33.34300 38.98900
C  -9.33700 35.00900 38.45200
C  -8.28900 34.28100 39.17700
O  -8.09100 34.34100 40.35700
O  -7.50700 33.59900 38.26300
C  -6.29800 33.01300 38.70800
H  -6.12300 41.19600 37.94100
H  -11.90100 44.03400 39.24800
H  -14.40100 38.25700 40.18200
H  -6.39900 36.50400 38.20600
H  -5.80200 39.02900 36.86400
H  -4.67300 37.47700 39.02100
H  -4.82700 39.11400 39.55400
H  -3.91100 38.73300 38.06600
H  -7.63900 35.78800 36.08200
H  -6.03900 36.33600 35.81200
H  -6.54700 37.67000 34.36500
H  -7.47500 38.72800 35.47200
H  -5.91100 43.95600 38.50400
H  -6.88000 44.96400 37.44200
H  -6.35000 43.27300 36.94500
H  -11.08900 45.60300 40.14100
H  -11.33900 45.92900 38.45900
H  -10.60200 47.26200 39.40800
H  -14.49400 42.66900 38.83500
H  -14.63500 41.00100 41.16200
H  -13.18300 43.64600 41.05900
H  -14.89000 43.26000 41.63000
H  -14.69400 44.29600 40.22600
H  -16.32900 41.51900 39.35400
H  -16.29700 39.93300 40.13800
H  -15.92700 38.88200 37.96900
H  -14.86500 40.11600 37.51000
H  -16.59700 40.45900 37.37200
H  -13.72000 34.56300 40.67000
H  -14.58700 35.64500 39.53800
H  -14.21400 36.21900 41.16000
H  -9.25100 34.70900 37.40800
H  -6.48100 32.00400 39.07600
H  -5.72600 33.60000 39.42700
H  -5.68900 33.12700 37.81200
Mg -5.50000 25.68100 26.03200
C  -4.26500 27.22900 29.05600
C  -7.35300 23.53600 28.10700
C  -6.38800 23.91100 23.40100
C  -3.23400 27.60700 24.21700
N  -5.82700 25.51100 28.31400
C  -5.23200 26.23000 29.27700
C  -5.80400 25.88600 30.67700
C  -6.46900 24.56400 30.36800
C  -6.52700 24.47800 28.80400
C  -5.54000 23.29200 30.83200
C  -6.67800 26.99100 31.35100
C  -6.79200 26.96700 32.86900
H  -6.07500 25.79900 33.63400
N  -6.74300 23.94300 25.74000
C  -7.42400 23.19800 26.75000
C  -8.33600 22.28100 26.05300
C  -8.06000 22.40900 24.65400
C  -7.02200 23.44500 24.56200
C  -9.29900 21.37800 26.78200
C  -8.70100 21.70500 23.48500
O  -8.37200 21.96300 22.31400
C  -9.63500 20.53100 23.74200
N  -4.81100 25.71500 24.10100
C  -5.38300 24.84700 23.14900
C  -4.55500 24.98700 21.90000
C  -3.65500 26.28600 21.98500
C  -3.91100 26.58800 23.53600
C  -3.76500 23.70900 21.59100
C  -4.16400 27.54400 21.10700
C  -3.28700 28.21900 20.04100
N  -4.02600 27.21300 26.53100
C  -3.23900 27.94500 25.67700
C  -2.54000 28.96400 26.45800
C  -2.88300 28.70700 27.78700
C  -3.77400 27.62400 27.82900
C  -1.58100 29.95500 25.95800
C  -2.64700 29.07500 29.14200
O  -1.86800 29.92600 29.57700
C  -3.62200 28.23000 30.04300
C  -2.79400 27.53300 31.06000
O  -1.99400 26.62300 30.79400
O  -3.08000 28.13500 32.31600
C  -2.23600 27.54900 33.36700
H  -7.94300 22.83900 28.70600
H  -6.66100 23.41900 22.46500
H  -2.54100 28.18600 23.60400
H  -4.89200 25.78800 31.26700
H  -7.49200 24.61500 30.74000
H  -4.46900 23.42800 30.98300
H  -5.68400 22.50600 30.09100
H  -5.91800 23.02100 31.81800
H  -7.71800 26.83300 31.06400
H  -6.35900 27.97000 30.99200
H  -7.83500 27.05100 33.17400
H  -6.32400 27.91700 33.12600
H  -10.28400 21.84400 26.80200
H  -8.86500 21.20200 27.76600
H  -9.34100 20.33600 26.46500
H  -9.11800 19.72800 24.26700
H  -10.14200 20.21400 22.83100
H  -10.46100 20.85000 24.37900
H  -5.26900 25.17400 21.09900
H  -2.59100 26.11700 21.82100
H  -4.00400 23.49500 20.54900
H  -4.13600 22.90400 22.22500
H  -2.68900 23.88400 21.57700
H  -4.40000 28.37900 21.76700
H  -5.10700 27.26100 20.63800
H  -3.89200 28.37400 19.14700
H  -2.48700 27.54000 19.74700
H  -2.82600 29.17700 20.28000
H  -0.97600 29.50100 25.17300
H  -1.03200 30.39900 26.78900
H  -2.26800 30.70300 25.56300
H  -4.44500 28.85700 30.38400
H  -2.79100 27.60800 34.30300
H  -1.33300 28.13900 33.52800
H  -1.97600 26.50800 33.17300

