158

Mg 47.50900 24.85500 28.02100
C  48.22300 27.24600 30.53000
C  46.84700 22.54300 30.50100
C  47.07400 22.50400 25.68000
C  48.46700 27.20900 25.52900
N  47.62900 24.97500 30.22800
C  47.81300 26.04800 31.04200
C  47.44700 25.76300 32.56400
C  47.23900 24.15500 32.46400
C  47.23700 23.86200 30.96200
C  48.19800 23.28800 33.27500
C  46.25000 26.62200 33.06700
C  45.63000 26.15700 34.45500
H  45.87400 26.98900 35.74900
N  46.99000 22.82200 28.09300
C  46.81300 22.05500 29.19200
C  46.55700 20.69300 28.82000
C  46.56200 20.61300 27.38300
C  46.85500 22.03100 26.99000
C  46.25400 19.64700 29.76900
C  46.28000 19.42300 26.41400
O  46.11500 19.47100 25.20200
C  46.05300 17.93900 26.89300
N  47.95000 24.86300 25.97000
C  47.62500 23.70300 25.24000
C  47.72100 24.00600 23.73100
C  47.89900 25.56000 23.62200
C  48.09900 25.94700 25.12900
C  48.86900 23.25900 22.97500
C  46.69900 26.38000 22.98600
C  45.35800 26.57900 23.73400
N  48.38000 26.81400 27.97400
C  48.71300 27.62100 26.91500
C  48.98800 28.92700 27.42400
C  48.85200 28.81600 28.81400
C  48.42700 27.53300 29.13600
C  49.54500 30.12000 26.61600
C  49.02900 29.58000 30.05000
O  49.46700 30.64600 30.24900
C  48.44200 28.58300 31.18900
C  49.42300 28.57300 32.33300
O  50.47800 27.96300 32.37500
O  48.97100 29.42600 33.31200
C  49.78600 29.36200 34.48200
H  46.81000 21.81500 31.31400
H  46.80200 21.84100 24.85600
H  48.63500 27.99800 24.79300
H  48.18900 25.84500 33.35800
H  46.23000 23.91700 32.80000
H  48.98300 23.95300 33.63400
H  48.52900 22.51100 32.58600
H  47.67100 22.84000 34.11900
H  45.50200 26.71500 32.28000
H  46.71700 27.58200 33.28600
H  45.92600 25.14100 34.71600
H  44.54500 26.15000 34.35100
H  46.99600 18.85200 29.83800
H  45.29400 19.18500 29.53600
H  46.21700 20.01500 30.79400
H  45.02600 17.88500 27.25600
H  46.76300 17.69400 27.68300
H  46.14800 17.16100 26.13500
H  46.75800 23.72700 23.30100
H  48.82000 25.80100 23.09200
H  49.14700 22.44100 23.64000
H  49.75400 23.85000 22.73700
H  48.48400 22.76300 22.08400
H  46.43000 26.06900 21.97700
H  47.21900 27.33400 22.89700
H  45.55800 27.35800 24.46900
H  45.00200 25.67000 24.22100
H  44.62600 27.02500 23.06000
H  50.63200 30.13300 26.54500
H  49.24100 31.02100 27.15000
H  49.19500 30.11700 25.58300
H  47.46300 28.96900 31.47400
H  49.62400 30.25100 35.09100
H  50.83100 29.09700 34.32200
H  49.39600 28.53100 35.06900
Mg 16.40900 51.53200 25.70600
C  18.17900 50.49900 28.54800
C  13.75000 52.26900 27.83900
C  14.74900 52.41500 22.91100
C  18.97800 50.05800 23.78400
N  16.05400 51.43400 28.03900
C  16.97600 51.08900 28.97500
C  16.45900 51.41300 30.34700
C  14.92400 51.84200 30.11500
C  14.84700 51.79900 28.55700
C  13.88400 50.91700 30.89000
C  17.46500 52.49100 30.99400
C  17.82400 52.11300 32.45400
H  17.00900 51.04600 33.23800
N  14.55500 52.37700 25.42300
C  13.59400 52.54900 26.39300
C  12.39700 53.05400 25.72200
C  12.60500 53.02400 24.32400
C  13.97500 52.54700 24.13900
C  11.14300 53.57600 26.49800
C  11.73200 53.53700 23.22500
O  12.02400 53.49800 22.01200
C  10.30200 54.10800 23.46600
N  16.67600 51.14800 23.66900
C  16.00900 51.80300 22.71700
C  16.60000 51.71300 21.28100
C  17.95800 50.96600 21.63000
C  17.88800 50.71900 23.09800
C  15.65200 50.69000 20.45900
C  19.25400 51.75900 21.39400
C  20.33900 50.94700 20.69100
N  18.03800 50.40800 25.98800
C  19.05500 49.93400 25.12300
C  20.12400 49.36000 25.87700
C  19.77600 49.50900 27.19000
C  18.56900 50.23100 27.23900
C  21.40900 48.77100 25.32800
C  20.33600 49.34100 28.52200
O  21.44400 48.82300 28.87600
C  19.26900 49.94300 29.51700
C  18.76500 48.85600 30.36700
O  17.81100 48.13300 30.12400
O  19.68600 48.56200 31.38800
C  19.48800 47.26600 32.12400
H  12.90900 52.43100 28.51600
H  14.36800 52.66100 21.91800
H  19.72800 49.58700 23.14600
H  16.44700 50.51100 30.95900
H  14.75400 52.88200 30.39200
H  14.20600 50.73800 31.91600
H  13.78400 49.94100 30.41400
H  12.82400 51.16900 30.88800
H  16.85000 53.38900 31.05800
H  18.33000 52.75600 30.38600
H  17.68100 53.00300 33.06700
H  18.88100 51.86800 32.55900
H  11.15100 54.61700 26.17400
H  11.26900 53.71800 27.57200
H  10.21000 53.06900 26.25400
H  9.70200 53.46400 24.11000
H  9.82800 54.16500 22.48600
H  10.56700 55.04800 23.94900
H  16.62700 52.72700 20.88000
H  17.93000 49.98300 21.15900
H  14.89100 51.26800 19.93400
H  15.20800 49.98800 21.16500
H  16.27300 50.06200 19.82000
H  19.62700 52.25600 22.29000
H  19.07700 52.65600 20.79900
H  20.08400 50.02600 20.16600
H  21.07500 50.63800 21.43400
H  20.89900 51.59000 20.01200
H  22.32300 49.32100 25.55300
H  21.46300 48.61300 24.25100
H  21.50600 47.79500 25.80200
H  19.62700 50.76500 30.13700
H  19.12400 47.46600 33.13200
H  20.43000 46.74600 32.29900
H  18.86600 46.53900 31.60200

