158

Mg 7.34700 2.44500 28.31100
C  8.88100 0.95100 31.01200
C  5.32600 4.26800 30.40000
C  5.62800 3.66200 25.53500
C  9.17300 0.33800 26.11300
N  7.18500 2.59500 30.42200
C  7.89000 1.90700 31.35500
C  7.62600 2.51000 32.78200
C  6.28900 3.35200 32.53300
C  6.23900 3.40700 31.01000
C  4.92900 2.74800 33.16100
C  8.91900 3.20500 33.34200
C  8.82600 4.33200 34.42600
H  9.52100 4.15600 35.82400
N  5.68500 3.76300 27.99600
C  5.13700 4.51900 29.00300
C  4.26600 5.51300 28.38600
C  4.30500 5.37900 26.96000
C  5.21900 4.22600 26.77600
C  3.44200 6.48700 29.20400
C  3.64200 6.13700 25.89000
O  3.74100 5.94100 24.73500
C  2.79000 7.34000 26.25500
N  7.41000 2.03500 26.15800
C  6.65100 2.71700 25.29600
C  6.96400 2.28700 23.86800
C  8.25500 1.38300 24.00800
C  8.26900 1.22900 25.52700
C  5.70100 1.73500 23.29500
C  9.50700 2.11100 23.46900
C  10.63300 1.28100 22.78100
N  8.73600 0.85800 28.46100
C  9.38200 0.11900 27.51800
C  10.25600 -0.85000 28.14700
C  10.19800 -0.48200 29.53800
C  9.17400 0.53200 29.68600
C  11.20300 -1.88500 27.44000
C  10.70100 -0.65200 30.93500
O  11.60500 -1.36700 31.35700
C  9.86800 0.25900 31.90400
C  9.25900 -0.52000 33.05000
O  8.61900 -1.55200 32.99200
O  9.78900 0.09000 34.19100
C  9.54800 -0.70600 35.42700
H  4.85600 4.94500 31.11600
H  5.32800 4.16400 24.61300
H  9.68700 -0.29400 25.38600
H  7.44200 1.58900 33.33300
H  6.32600 4.36200 32.94400
H  5.00400 1.77800 33.65400
H  4.14700 2.75800 32.40200
H  4.53400 3.46600 33.87900
H  9.44300 3.38700 32.40300
H  9.56700 2.43600 33.76200
H  7.78600 4.56700 34.65400
H  9.07300 5.22400 33.84900
H  2.39900 6.18500 29.10300
H  3.61700 7.50700 28.86100
H  3.63800 6.36400 30.26900
H  2.07200 7.06700 27.02900
H  2.33600 7.75900 25.35700
H  3.33000 8.18200 26.68800
H  7.06000 3.19600 23.27500
H  8.04500 0.36700 23.67200
H  4.82600 1.87500 23.93000
H  5.80700 0.68000 23.04500
H  5.43700 2.30200 22.40300
H  10.07400 2.65700 24.22400
H  9.18800 2.79400 22.68200
H  10.89900 1.82100 21.87300
H  10.27100 0.29300 22.49700
H  11.62600 1.22300 23.22800
H  12.21300 -1.51800 27.25800
H  10.69600 -2.42500 26.64000
H  11.32900 -2.60700 28.24600
H  10.52400 1.03600 32.29800
H  10.49400 -1.05700 35.84000
H  8.87600 -1.56000 35.34500
H  9.06800 0.03500 36.06600
Mg -4.89500 25.65200 25.92500
C  -3.27600 27.01500 28.77200
C  -6.92300 23.82300 27.99100
C  -5.93700 24.00800 23.15800
C  -2.54700 27.39600 23.96600
N  -4.96400 25.34400 27.99500
C  -4.29600 26.06300 29.00800
C  -4.84800 25.69800 30.40500
C  -5.84000 24.49800 30.13100
C  -5.97000 24.58200 28.60900
C  -5.35000 23.09600 30.65800
C  -5.43900 26.95900 31.15400
C  -4.95300 27.25100 32.58400
H  -4.67300 26.02100 33.55800
N  -6.29600 24.20100 25.60400
C  -7.06700 23.61000 26.58100
C  -7.98000 22.66800 25.94600
C  -7.68500 22.67800 24.52000
C  -6.60100 23.63400 24.36900
C  -8.98300 21.82200 26.72000
C  -8.24500 21.75700 23.44300
O  -7.96300 21.79700 22.23100
C  -9.26900 20.73700 23.83400
N  -4.17200 25.51100 23.91600
C  -4.84800 24.81200 22.95300
C  -4.44500 25.23400 21.53700
C  -3.29900 26.32500 21.78600
C  -3.41100 26.49200 23.34300
C  -4.13000 24.02200 20.57100
C  -3.43500 27.54600 20.82300
C  -2.50100 27.59600 19.60300
N  -3.20400 26.94800 26.27200
C  -2.32900 27.55800 25.39400
C  -1.46300 28.54600 26.02000
C  -1.67800 28.26100 27.42400
C  -2.75000 27.24900 27.48200
C  -0.42600 29.47100 25.41200
C  -1.29200 28.53700 28.84500
O  -0.46700 29.33800 29.29900
C  -2.35600 27.79300 29.73300
C  -1.68300 26.94600 30.81900
O  -1.63700 25.77200 30.85200
O  -1.11700 27.82400 31.75300
C  -0.75400 27.34200 33.03700
H  -7.62700 23.39900 28.71000
H  -6.35200 23.65400 22.21200
H  -1.89600 28.07500 23.41300
H  -4.11000 25.28400 31.09200
H  -6.84600 24.71300 30.49100
H  -6.13700 22.81600 31.35800
H  -4.39500 23.16400 31.17900
H  -5.33300 22.28700 29.92700
H  -6.52500 26.85900 31.15900
H  -5.36500 27.79300 30.45500
H  -5.71700 27.73100 33.19600
H  -3.99200 27.75700 32.48600
H  -8.72700 20.76700 26.61900
H  -10.00600 21.98000 26.38000
H  -8.86800 22.14200 27.75600
H  -9.74000 20.34500 22.93300
H  -10.10000 21.24000 24.32900
H  -8.79700 19.92400 24.38600
H  -5.28700 25.78700 21.12200
H  -2.29400 25.93600 21.61900
H  -4.13100 23.11800 21.18000
H  -3.15000 24.03100 20.09400
H  -4.98400 23.81100 19.92700
H  -3.43800 28.39800 21.50200
H  -4.42200 27.43400 20.37500
H  -3.22900 27.72800 18.80300
H  -2.03300 26.61600 19.51100
H  -1.87300 28.48700 19.58900
H  -0.87600 30.35300 24.95600
H  0.13700 29.08200 24.56400
H  0.32800 29.70800 26.16300
H  -2.96900 28.54800 30.22500
H  -1.38100 27.68600 33.86000
H  0.17400 27.83500 33.32500
H  -0.65800 26.25700 33.08000

