158

Mg 53.57600 23.61100 45.11400
C  51.26800 26.04600 43.91000
C  51.72400 21.19900 43.69500
C  56.37900 21.63700 45.38600
C  55.66900 26.44200 46.07200
N  51.82700 23.63200 43.76300
C  51.01700 24.71800 43.42500
C  49.82200 24.25700 42.53200
C  49.66100 22.77300 43.03100
C  51.16400 22.49000 43.55300
C  48.58500 22.55800 44.11300
C  50.16800 24.35500 41.02200
C  49.17200 24.81900 39.96100
H  49.73000 25.24200 38.56600
N  53.96900 21.64700 44.80600
C  52.99100 20.84300 44.24900
C  53.47300 19.52800 44.29800
C  54.78700 19.55700 44.74400
C  55.15000 20.98800 45.00800
C  52.63700 18.28700 43.85000
C  55.72200 18.43400 44.78400
O  55.30700 17.29400 44.59000
C  57.12100 18.54700 45.30400
N  55.75400 24.01100 45.60500
C  56.69300 23.00200 45.71400
C  58.04400 23.48400 46.08500
C  57.70400 24.89900 46.46600
C  56.26600 25.13600 46.06500
C  58.76400 22.76800 47.26100
C  58.68700 25.99800 46.04600
C  58.69700 26.48100 44.59700
N  53.44200 25.78100 45.17900
C  54.38200 26.76700 45.60400
C  53.78200 28.08700 45.42900
C  52.57500 27.82500 44.71300
C  52.44000 26.41100 44.63300
C  54.42600 29.41900 45.71600
C  51.43100 28.38200 44.04600
O  51.08100 29.57400 43.86300
C  50.46600 27.24700 43.74500
C  49.78300 27.54200 42.39200
O  50.36900 27.67500 41.30700
O  48.46200 27.83600 42.51400
C  47.89500 28.49300 41.34700
H  51.10200 20.41400 43.26000
H  57.31200 21.07900 45.27500
H  56.15300 27.35300 46.43200
H  48.85900 24.76100 42.45000
H  49.35100 22.15900 42.18500
H  49.02100 22.22700 45.05600
H  47.88700 21.86000 43.65200
H  48.06600 23.48400 44.36400
H  50.49400 23.34500 40.77200
H  51.02200 25.03200 40.98400
H  48.51500 25.57500 40.39200
H  48.57000 23.92700 39.78300
H  52.40100 18.25300 42.78700
H  51.61600 18.29900 44.23100
H  52.99800 17.32100 44.20200
H  57.03300 19.01700 46.28300
H  57.59300 19.09600 44.48900
H  57.44600 17.51700 45.44800
H  58.73400 23.65300 45.25800
H  57.60600 25.02000 47.54500
H  58.72200 23.43200 48.12400
H  59.81300 22.56500 47.04800
H  58.16500 21.87900 47.45800
H  59.68600 25.60300 46.23300
H  58.48300 26.78600 46.77100
H  59.54000 26.19000 43.96900
H  58.64100 27.56700 44.67200
H  57.73500 26.12700 44.22600
H  55.45800 29.31300 45.37900
H  54.34700 29.69200 46.76800
H  53.87800 30.08800 45.05200
H  49.72200 27.32200 44.53800
H  47.97900 29.55000 41.60100
H  46.84300 28.35100 41.10100
H  48.40400 28.38600 40.38900
Mg 46.76800 15.84700 29.10900
C  44.65400 15.32200 31.84200
C  49.00000 17.61400 31.26900
C  48.90900 16.35000 26.53800
C  44.70300 14.11700 27.05600
N  46.75200 16.47800 31.26700
C  45.82900 16.07000 32.16800
C  46.15000 16.56700 33.65500
C  47.36800 17.54700 33.30500
C  47.76200 17.25400 31.79200
C  47.14800 19.07500 33.49900
C  46.46800 15.38700 34.53900
C  45.89900 15.43000 35.95700
H  45.89800 16.66400 36.87200
N  48.64900 16.81100 28.94300
C  49.39600 17.36800 29.91000
C  50.72900 17.68900 29.31800
C  50.65500 17.49500 27.90400
C  49.32200 16.87200 27.74500
C  51.93700 18.03900 30.14700
C  51.73200 17.74300 26.82800
O  51.57800 17.55700 25.62100
C  52.98300 18.44600 27.14000
N  46.63700 15.53900 27.04400
C  47.68100 15.74100 26.23200
C  47.26500 15.29300 24.80600
C  46.13500 14.22600 25.00300
C  45.77100 14.69200 26.43400
C  46.88200 16.49000 23.87500
C  46.66500 12.82700 25.09700
C  46.49100 12.06100 23.76300
N  45.04000 14.92400 29.30600
C  44.22600 14.33800 28.35500
C  43.03000 13.75000 29.01500
C  43.16900 14.22000 30.37600
C  44.36900 14.90400 30.50200
C  41.96300 13.00300 28.38500
C  42.59300 14.14700 31.63900
O  41.63500 13.52600 32.09900
C  43.59700 14.82000 32.64100
C  42.84600 15.78000 33.50800
O  42.51200 16.89400 33.15900
O  42.57700 15.19700 34.70100
C  41.95900 15.92800 35.83100
H  49.73500 18.11400 31.90200
H  49.56100 16.39100 25.66300
H  44.08400 13.33500 26.61200
H  45.28100 17.12300 34.00700
H  48.23300 17.23100 33.88800
H  47.14700 19.56000 32.52300
H  47.91700 19.48900 34.15100
H  46.22900 19.27400 34.05000
H  47.54100 15.32500 34.71900
H  46.19600 14.46000 34.03500
H  46.61600 14.74700 36.41200
H  44.93000 14.93200 35.96600
H  52.73600 17.30400 30.05300
H  51.61000 18.19400 31.17500
H  52.32200 18.96600 29.72300
H  53.45700 18.49200 26.16000
H  53.62000 17.91800 27.84900
H  52.90700 19.47900 27.48100
H  48.18600 14.86400 24.41200
H  45.24900 14.38700 24.38900
H  45.81400 16.48500 23.65400
H  47.40300 16.43700 22.91900
H  47.17100 17.45000 24.30200
H  46.15300 12.29200 25.89700
H  47.70700 12.90300 25.41100
H  46.09400 11.05900 23.92400
H  47.37200 12.11900 23.12400
H  45.75600 12.56800 23.13800
H  42.27000 11.96200 28.48700
H  41.66500 13.31500 27.38400
H  41.12500 13.10000 29.07500
H  44.00900 14.03900 33.28000
H  40.89600 15.68900 35.87100
H  42.00200 17.01700 35.83400
H  42.31400 15.53200 36.78200

