158

Mg 9.79300 47.61600 26.29600
C  7.89600 47.79700 29.21700
C  12.39400 49.18200 27.88000
C  11.61800 47.45700 23.58200
C  6.95500 46.44800 24.58500
N  10.00300 48.49200 28.28500
C  9.18300 48.34800 29.38100
C  9.86800 48.97700 30.66200
C  11.03800 49.80700 29.98300
C  11.20900 49.08400 28.65800
C  10.74500 51.32500 29.76800
C  10.30300 47.91100 31.66600
C  9.54700 47.97900 32.98900
H  9.82000 46.72200 33.86200
N  11.81500 48.19600 25.81100
C  12.68900 48.78600 26.59000
C  13.94500 48.83500 25.93500
C  13.76000 48.31600 24.61500
C  12.36200 47.95800 24.65700
C  15.29200 49.31500 26.65700
C  14.72200 48.20700 23.46300
O  14.52200 47.57800 22.41600
C  16.07200 48.84700 23.67800
N  9.35000 47.17800 24.38500
C  10.31200 47.07700 23.39700
C  9.75300 46.68700 22.02600
C  8.36600 46.14100 22.49100
C  8.21100 46.67500 23.89700
C  9.80700 47.82700 21.00600
C  8.06300 44.66400 22.31300
C  9.02800 43.55400 22.92700
N  7.78600 47.28700 26.79000
C  6.74900 46.85500 25.93600
C  5.55100 46.98000 26.74200
C  5.98900 47.24800 28.05100
C  7.33100 47.37400 28.00300
C  4.22100 46.82100 26.11800
C  5.57700 47.41400 29.42300
O  4.43700 47.34200 29.94400
C  6.81600 47.68100 30.22600
C  6.91400 46.40800 31.06500
O  7.37000 45.39800 30.65800
O  6.37200 46.61500 32.28000
C  6.61600 45.54200 33.27800
H  13.14100 49.79700 28.38600
H  12.17900 47.40900 22.64700
H  6.01200 46.13700 24.13100
H  9.23900 49.77500 31.05900
H  11.79000 49.75900 30.77000
H  11.59100 51.76700 29.24200
H  10.67100 51.67300 30.79800
H  9.75600 51.51700 29.35100
H  11.33400 48.13200 31.94400
H  10.31000 46.91700 31.22000
H  8.47600 48.18100 32.96300
H  10.05200 48.79900 33.49700
H  15.11700 49.19600 27.72600
H  15.38000 50.36300 26.37000
H  16.17400 48.73100 26.39500
H  16.63800 48.11100 24.24900
H  15.92300 49.84200 24.09800
H  16.42200 49.07600 22.67200
H  10.29200 45.82000 21.64300
H  7.66400 46.72300 21.89500
H  10.37700 48.65600 21.42500
H  8.80100 48.18200 20.78200
H  10.25600 47.47100 20.07800
H  8.08800 44.50000 21.23600
H  7.08400 44.33600 22.66100
H  10.08700 43.70400 22.71700
H  8.74900 42.60800 22.46200
H  8.86200 43.53200 24.00400
H  3.56700 46.73000 26.98500
H  4.01500 45.90100 25.57100
H  4.03800 47.73400 25.55000
H  6.74500 48.52600 30.91100
H  7.25000 45.84300 34.11100
H  6.91500 44.54700 32.94800
H  5.70300 45.34000 33.83900
Mg 1.18800 42.08800 25.72700
C  1.97500 42.36900 28.96600
C  -1.75700 40.74100 26.68600
C  0.52000 41.17300 22.46900
C  4.38800 43.05500 24.78200
N  0.16900 41.81300 27.60500
C  0.71000 42.07900 28.81900
C  -0.33700 41.95900 29.96100
C  -1.49100 41.22100 29.16300
C  -0.98200 41.14500 27.72800
C  -1.91100 39.88100 29.82000
C  -0.79300 43.33000 30.46800
C  -0.82700 43.33500 31.98300
H  -1.68800 42.30400 32.71700
N  -0.55800 41.25800 24.65500
C  -1.57800 40.69500 25.27100
C  -2.45200 40.09900 24.22200
C  -1.91200 40.29700 22.98400
C  -0.59600 40.96900 23.33800
C  -3.79300 39.45700 24.49900
C  -2.42000 39.99600 21.60800
O  -1.81600 40.30100 20.62100
C  -3.70200 39.26900 21.48200
N  2.28900 42.06100 23.94600
C  1.75800 41.72600 22.72300
C  2.67100 42.19800 21.57600
C  3.76800 43.03000 22.28000
C  3.49800 42.73300 23.76300
C  3.30600 40.99200 20.73300
C  3.73100 44.51900 21.89000
C  4.87800 45.06400 21.11100
N  2.91900 42.47500 26.66800
C  4.11300 42.91300 26.20900
C  4.94100 43.32200 27.29700
C  4.20400 43.07600 28.48500
C  2.96900 42.57400 27.96300
C  6.39700 43.65900 27.19300
C  4.17600 42.99000 29.88300
O  5.09600 43.24300 30.66100
C  2.78400 42.51900 30.34200
C  2.84500 41.25500 31.07600
O  3.47600 40.19700 30.73800
O  2.03000 41.34100 32.11500
C  2.04000 40.35200 33.16300
H  -2.65700 40.28200 27.10100
H  0.33500 40.95400 21.41500
H  5.33700 43.45200 24.41500
H  0.04200 41.28500 30.72900
H  -2.41400 41.77600 28.99600
H  -1.34400 39.05800 29.38600
H  -2.98500 39.69400 29.79700
H  -1.63400 39.96600 30.87100
H  -1.83200 43.41200 30.14900
H  -0.25600 44.17300 30.03500
H  -1.20100 44.33800 32.19300
H  0.21700 43.22300 32.27500
H  -3.89500 39.41400 25.58400
H  -3.67400 38.44200 24.12200
H  -4.64400 40.06900 24.19700
H  -3.71600 38.41100 22.15400
H  -3.81400 39.02300 20.42600
H  -4.39200 40.08100 21.71100
H  2.16800 42.86100 20.87200
H  4.65900 42.50900 21.93000
H  3.09000 40.04400 21.22600
H  4.36800 40.95300 20.49000
H  3.01300 41.08100 19.68700
H  3.61100 45.03700 22.84100
H  2.89000 44.75500 21.23800
H  5.64400 44.29700 20.99600
H  5.32600 45.95500 21.55100
H  4.50000 45.33100 20.12400
H  7.12800 42.85500 27.28100
H  6.55900 44.32500 28.04100
H  6.52600 44.11000 26.20900
H  2.36400 43.29700 30.97900
H  2.64400 39.48300 32.90200
H  1.04300 39.93800 33.31400
H  2.40000 40.78900 34.09400

