158

Mg 40.67000 41.33800 27.74900
C  39.74300 43.88300 29.92600
C  41.36100 39.39500 30.64600
C  42.07100 39.02100 25.75600
C  40.58200 43.50700 25.09200
N  40.59400 41.64900 30.00000
C  40.07100 42.74200 30.61800
C  39.96600 42.56100 32.15900
C  40.62800 41.13100 32.36000
C  40.92100 40.68700 30.92800
C  41.69200 41.05700 33.49000
C  38.53200 42.68400 32.61800
C  38.02700 41.86200 33.83700
H  37.31000 42.58500 34.97700
N  41.46500 39.42900 28.15200
C  41.70400 38.83600 29.37100
C  42.19300 37.41100 29.21500
C  42.33400 37.29100 27.75400
C  41.92600 38.54900 27.18400
C  42.41300 36.50900 30.23000
C  42.73300 36.02500 26.98100
O  42.66500 35.98000 25.74200
C  42.98500 34.76000 27.73300
N  41.09000 41.21500 25.67400
C  41.66100 40.11400 25.07800
C  41.67800 40.22200 23.52700
C  41.15600 41.69000 23.41000
C  40.92100 42.19600 24.77500
C  43.07200 39.92800 22.93600
C  39.88800 41.55400 22.50900
C  38.49700 41.15400 23.04800
N  40.26900 43.36700 27.46200
C  40.20700 44.09400 26.30600
C  39.80000 45.41400 26.58900
C  39.63400 45.41600 28.00600
C  39.91400 44.12800 28.49500
C  39.63900 46.54000 25.56700
C  39.31800 46.21600 29.14700
O  39.06800 47.42500 29.26700
C  39.41800 45.29900 30.43000
C  40.47800 45.79800 31.37000
O  41.67600 45.68500 31.18000
O  39.80300 46.34700 32.42200
C  40.63600 46.67600 33.59000
H  41.39600 38.71200 31.49800
H  42.57000 38.31600 25.08700
H  40.56400 44.00300 24.11900
H  40.61200 43.32400 32.59300
H  39.89500 40.41900 32.73800
H  41.41200 40.27700 34.19700
H  41.90800 42.00300 33.98800
H  42.66300 40.75300 33.09700
H  37.95900 42.52200 31.70500
H  38.29300 43.74100 32.74300
H  38.93000 41.46900 34.30300
H  37.36700 41.01100 33.66800
H  42.23400 36.73400 31.28100
H  43.49500 36.40900 30.30800
H  42.02400 35.49800 30.11200
H  42.11200 34.43400 28.30000
H  43.90300 34.86000 28.31200
H  43.18000 33.94300 27.03900
H  40.96900 39.45100 23.22300
H  41.88900 42.25500 22.83400
H  42.97600 39.02600 22.33300
H  43.78900 39.83300 23.75100
H  43.41500 40.79700 22.37500
H  40.16300 40.86400 21.71100
H  39.74700 42.46600 21.92800
H  38.10400 40.22600 22.63200
H  37.87200 41.99600 22.75000
H  38.54700 41.08000 24.13400
H  38.74100 47.12600 25.76100
H  39.73900 46.21600 24.53100
H  40.44600 47.26300 25.68700
H  38.46300 45.39900 30.94600
H  41.24700 45.78600 33.74200
H  39.99900 46.87000 34.45300
H  41.28200 47.53100 33.39100
Mg 35.39000 49.33800 25.00900
C  35.00800 47.55000 28.08400
C  33.78200 52.03100 26.65300
C  35.19600 50.89700 22.14600
C  36.39600 46.40100 23.45700
N  34.57900 49.76100 27.18700
C  34.60700 48.92700 28.21600
C  34.03600 49.46600 29.50800
C  33.55300 50.92400 29.03200
C  34.04200 50.98200 27.54800
C  32.08100 51.22700 29.18600
C  35.07000 49.47300 30.69800
C  34.55100 49.09900 32.10400
H  33.00800 48.81800 32.27700
N  34.74300 51.22900 24.53300
C  34.11000 52.18400 25.33700
C  33.93300 53.41600 24.58700
C  34.33600 53.10800 23.22300
C  34.72600 51.66800 23.27100
C  33.13900 54.59200 25.12100
C  34.26500 54.09500 21.99700
O  34.30100 53.64600 20.82800
C  33.96200 55.57000 22.20400
N  35.62300 48.67800 23.05700
C  35.50200 49.56100 21.99500
C  35.93900 48.90000 20.66200
C  36.45200 47.46500 21.15600
C  36.21100 47.50700 22.64600
C  34.84500 48.98600 19.57800
C  37.83500 47.05700 20.71600
C  39.07800 47.39100 21.58500
N  35.72400 47.37200 25.58500
C  36.18900 46.24300 24.90000
C  36.32100 45.13100 25.75700
C  35.89100 45.57100 26.99500
C  35.44000 46.92800 26.87200
C  36.96900 43.76200 25.53400
C  35.80000 45.24000 28.38200
O  36.20500 44.25000 28.99900
C  35.12000 46.41100 29.09800
C  33.76000 45.92400 29.63700
O  32.68400 46.39300 29.26700
O  33.96700 45.26400 30.86100
C  32.77700 44.84800 31.60000
H  33.41300 52.85500 27.26600
H  35.23100 51.49200 21.23100
H  36.79500 45.48100 23.02500
H  33.18100 48.88300 29.85100
H  34.12800 51.64200 29.61600
H  31.90700 51.91100 30.01700
H  31.65700 50.26900 29.48800
H  31.61300 51.73600 28.34300
H  35.65100 50.39100 30.60500
H  35.84800 48.71000 30.73700
H  34.86400 49.91700 32.75400
H  35.13900 48.30900 32.57000
H  33.76700 55.47000 24.97300
H  32.98500 54.58600 26.20000
H  32.22800 54.65700 24.52600
H  32.90400 55.49400 22.45300
H  34.06300 55.97600 21.19800
H  34.44600 56.17700 22.96900
H  36.73400 49.61000 20.43200
H  35.95500 46.65500 20.62300
H  33.94500 49.23300 20.14100
H  34.71300 48.07800 18.98800
H  34.99300 49.81900 18.89000
H  38.11800 47.58400 19.80500
H  37.81800 46.00500 20.43200
H  39.54400 48.24700 21.09700
H  39.77400 46.55200 21.58500
H  38.85600 47.67200 22.61400
H  37.78300 43.76100 24.80900
H  36.14700 43.06900 25.35600
H  37.47800 43.50700 26.46400
H  35.67600 46.63200 30.00800
H  32.68900 43.76200 31.57900
H  31.78700 45.23500 31.35800
H  33.06300 45.12200 32.61600

