158

Mg 16.24400 51.50700 26.02800
C  18.34600 50.48400 28.62800
C  13.72200 52.06800 28.45300
C  14.18300 52.38300 23.47900
C  18.63000 50.61600 23.67700
N  16.03400 51.33900 28.25700
C  17.12500 51.10300 29.09100
C  16.72300 51.33200 30.59200
C  15.19000 51.47100 30.47100
C  14.96300 51.63000 28.97100
C  14.39300 50.23000 30.94100
C  17.47000 52.54300 31.15900
C  17.34400 52.82000 32.72000
H  16.37600 51.90400 33.54400
N  14.22900 52.02800 25.94100
C  13.40100 52.30100 27.04100
C  12.05900 52.52500 26.50000
C  12.10800 52.47900 25.03300
C  13.54700 52.23500 24.73800
C  10.79400 52.73300 27.26400
C  11.01100 52.56000 23.93900
O  11.32500 52.52800 22.75500
C  9.59600 52.71300 24.29400
N  16.37300 51.70400 23.97700
C  15.44700 52.19400 23.11600
C  16.00500 52.26600 21.69700
C  17.44900 51.84700 21.88800
C  17.48400 51.31700 23.33700
C  15.10300 51.60500 20.62100
C  18.58400 52.89900 21.56900
C  19.00300 53.00900 20.10500
N  18.10800 50.70300 26.10300
C  18.95100 50.27800 25.02100
C  20.11800 49.56600 25.61800
C  19.94100 49.57300 27.00600
C  18.68000 50.28200 27.23700
C  21.23600 49.02300 24.81000
C  20.44000 49.28300 28.33500
O  21.47000 48.63200 28.66200
C  19.40700 49.81700 29.46400
C  19.02700 48.62200 30.30600
O  18.71300 47.49900 29.92100
O  19.26200 48.96500 31.63500
C  18.96900 47.95400 32.67500
H  12.93400 52.20000 29.19600
H  13.58600 52.73300 22.63400
H  19.41400 50.44900 22.93600
H  17.17200 50.47800 31.09900
H  14.81100 52.30500 31.06100
H  14.00000 49.68100 30.08500
H  13.48100 50.48900 31.47900
H  14.92100 49.57800 31.63700
H  17.02100 53.36600 30.60300
H  18.48800 52.51800 30.76900
H  17.14400 53.88400 32.84400
H  18.35300 52.65800 33.10100
H  10.09200 51.97200 26.92300
H  10.35400 53.68000 26.95100
H  10.98800 52.57900 28.32600
H  9.01200 52.68600 23.37300
H  9.50100 53.71500 24.71200
H  9.19700 51.94900 24.96100
H  15.95700 53.31100 21.39000
H  17.50900 51.02900 21.17000
H  14.39800 50.88000 21.02800
H  15.76200 51.14800 19.88200
H  14.56000 52.45700 20.21200
H  19.37700 52.77900 22.30700
H  18.09100 53.86100 21.71000
H  18.31300 52.39800 19.52300
H  20.04100 52.67600 20.12700
H  18.94400 54.03900 19.75300
H  22.15900 49.59800 24.88100
H  21.06400 49.12000 23.73800
H  21.50500 48.02300 25.15100
H  19.80200 50.54200 30.17500
H  18.25500 47.18700 32.37200
H  18.44100 48.45600 33.48600
H  19.89000 47.45900 32.98100
Mg -9.52200 40.72400 42.79100
C  -8.44800 37.44700 41.64800
C  -7.05100 41.89800 40.62800
C  -10.63800 43.69200 43.30600
C  -12.35600 39.18800 44.10200
N  -7.95900 39.75600 41.32500
C  -7.59400 38.42200 41.17000
C  -6.46500 38.25700 40.16500
C  -5.94400 39.72600 39.98600
C  -7.06000 40.51900 40.71200
C  -4.48200 40.00900 40.53100
C  -6.67500 37.45300 38.81200
C  -5.68600 36.41000 38.48600
H  -4.76100 36.55200 37.32800
N  -8.86400 42.64100 42.14600
C  -7.84900 42.87800 41.19800
C  -7.72700 44.29900 41.16400
C  -8.65000 44.87800 42.09400
C  -9.45600 43.78000 42.51100
C  -6.60400 44.97400 40.47200
C  -8.73400 46.35800 42.48800
O  -7.90400 47.11500 42.11200
C  -9.84000 46.87800 43.33000
N  -11.23200 41.31700 43.54900
C  -11.39100 42.63600 43.75200
C  -12.71800 42.96100 44.50400
C  -13.25900 41.51700 44.84700
C  -12.29000 40.61000 44.08500
C  -12.61400 44.01700 45.67900
C  -14.73500 41.17400 44.72800
C  -15.46900 40.55500 45.94400
N  -10.26800 38.70900 43.04500
C  -11.45700 38.26600 43.58100
C  -11.52400 36.81900 43.52000
C  -10.33300 36.48900 42.81700
C  -9.63200 37.64600 42.47500
C  -12.68300 35.97100 44.00800
C  -9.59800 35.33800 42.30700
O  -10.05400 34.21000 42.25300
C  -8.37800 35.92800 41.50600
C  -7.15600 35.33700 42.20800
O  -6.92300 35.37600 43.40200
O  -6.35700 34.82300 41.28000
C  -4.97700 34.44400 41.70400
H  -6.22200 42.29200 40.03600
H  -11.03300 44.63500 43.69100
H  -13.23400 38.63500 44.44400
H  -5.72600 37.74600 40.78300
H  -5.89000 40.00700 38.93400
H  -4.59300 40.76700 41.30600
H  -3.76600 40.31600 39.76900
H  -4.04900 39.11500 40.98100
H  -6.65600 38.21000 38.02800
H  -7.71600 37.13000 38.78900
H  -6.16100 35.43500 38.37300
H  -5.07100 36.31500 39.38100
H  -6.81600 45.94800 40.03200
H  -5.98600 44.41400 39.77100
H  -5.86200 45.11600 41.25800
H  -9.77300 46.31500 44.26200
H  -10.81400 46.78000 42.85200
H  -9.68400 47.94600 43.48100
H  -13.39600 43.38100 43.76100
H  -13.01200 41.49500 45.90900
H  -13.25300 44.85700 45.40700
H  -11.55100 44.25000 45.73500
H  -12.88200 43.51200 46.60600
H  -14.86600 40.51000 43.87400
H  -15.12500 42.16200 44.48200
H  -15.82200 39.53600 45.78500
H  -16.35300 41.18500 46.03500
H  -14.88900 40.61800 46.86500
H  -12.92200 36.30500 45.01800
H  -12.46100 34.90700 43.93300
H  -13.56600 36.13600 43.39100
H  -8.49200 35.54800 40.49100
H  -4.47100 35.29200 42.16500
H  -4.38200 34.11000 40.85400
H  -4.89500 33.58600 42.37100

