158

Mg 1.50300 -1.70000 43.47600
C  4.99000 -0.92600 43.30000
C  0.92000 1.39000 41.97800
C  -1.56800 -2.76000 42.80400
C  2.31900 -4.80800 44.74800
N  2.87300 0.11900 42.69200
C  4.26000 0.14400 42.69000
C  4.80400 1.31000 41.89300
C  3.44500 2.15000 41.63800
C  2.32200 1.24200 42.20000
C  3.41500 3.57500 42.23700
C  5.58400 0.87900 40.63100
C  6.72000 1.88200 40.30300
H  6.42100 2.74500 39.01800
N  -0.09400 -0.77400 42.52000
C  -0.19500 0.48900 42.08800
C  -1.53000 0.65100 41.61600
C  -2.23900 -0.54700 41.84100
C  -1.27600 -1.46200 42.40700
C  -2.10800 2.03700 41.20100
C  -3.68900 -0.75400 41.53300
O  -4.31900 0.24800 41.17700
C  -4.42500 -2.13800 41.67300
N  0.51000 -3.56800 43.80700
C  -0.80800 -3.72000 43.47600
C  -1.42100 -5.01300 44.03500
C  -0.12400 -5.69100 44.58700
C  0.95700 -4.66900 44.39100
C  -2.47300 -4.79400 45.15000
C  0.22800 -7.09600 44.03500
C  0.27100 -8.29400 45.07300
N  3.26300 -2.70200 43.91300
C  3.43300 -3.97200 44.43500
C  4.84600 -4.26600 44.60600
C  5.39700 -3.08200 44.21400
C  4.47900 -2.16500 43.73000
C  5.35700 -5.50100 45.29700
C  6.71900 -2.39600 44.23900
O  7.73400 -2.73700 44.78800
C  6.48000 -1.01400 43.50800
C  6.98900 0.18100 44.18400
O  6.84900 0.49400 45.35900
O  7.78900 0.97500 43.35200
C  8.33200 2.20200 43.95300
H  0.59800 2.27100 41.41900
H  -2.61700 -3.04200 42.91200
H  2.55600 -5.82700 45.06100
H  5.37800 1.95000 42.56300
H  3.29200 2.20100 40.56000
H  4.42400 3.96700 42.36400
H  2.83900 3.45300 43.15400
H  2.85200 4.27100 41.61600
H  4.87800 0.80100 39.80300
H  5.89200 -0.15300 40.79600
H  7.59400 1.23900 40.20000
H  6.87600 2.50600 41.18200
H  -2.87300 1.93900 40.43100
H  -1.42600 2.85400 40.96700
H  -2.56000 2.37500 42.13300
H  -3.81800 -2.92100 41.21900
H  -5.38000 -2.08300 41.15200
H  -4.55900 -2.30400 42.74200
H  -1.91300 -5.51300 43.20100
H  -0.25000 -5.86800 45.65500
H  -3.49700 -4.79600 44.77500
H  -2.27800 -3.79900 45.54900
H  -2.33400 -5.46800 45.99500
H  1.18100 -7.03600 43.51100
H  -0.53200 -7.43200 43.33000
H  0.69500 -7.90200 45.99800
H  1.03300 -8.91100 44.59700
H  -0.72700 -8.73100 45.11600
H  6.38400 -5.25700 45.56800
H  5.29200 -6.32200 44.58400
H  4.78700 -5.76800 46.18700
H  7.00600 -1.15200 42.56400
H  8.85100 1.94400 44.87600
H  7.51400 2.86200 44.24100
H  9.07900 2.66200 43.30800
Mg 16.98000 51.80000 25.98000
C  19.17000 49.95700 28.21100
C  14.93400 52.27500 28.70000
C  14.86200 53.09400 23.94400
C  18.84900 50.36300 23.44400
N  17.11100 51.27700 28.17800
C  18.08400 50.58800 28.89100
C  17.88000 50.70800 30.38100
C  16.37400 51.02600 30.34400
C  16.09900 51.49900 28.96500
C  15.40500 49.91100 30.85400
C  18.82000 51.81000 31.03800
C  19.19300 51.53900 32.44000
H  18.14400 50.93700 33.31000
N  15.19300 52.71900 26.30600
C  14.48000 52.88300 27.49700
C  13.40000 53.81700 27.32400
C  13.34100 54.09500 25.85200
C  14.44300 53.29100 25.26600
C  12.57200 54.40600 28.48000
C  12.41500 54.98800 25.08500
O  12.64600 55.26900 23.92300
C  11.25400 55.69900 25.76200
N  16.74400 51.44400 23.86200
C  15.82300 52.29100 23.26400
C  16.24800 52.62300 21.82600
C  17.69500 52.02100 21.73800
C  17.84400 51.23200 23.11300
C  15.27400 51.93300 20.80700
C  18.87400 53.09500 21.59600
C  19.83900 52.92300 20.41500
N  18.65800 50.45800 25.80700
C  19.21200 49.89200 24.71200
C  20.28700 48.98400 25.07200
C  20.30700 49.05600 26.47000
C  19.30300 49.92200 26.84400
C  21.20200 48.14000 24.09900
C  21.03400 48.59100 27.63700
O  22.08200 47.92500 27.72200
C  20.32400 49.18200 28.84000
C  19.85700 48.16400 29.77900
O  19.17200 47.17000 29.53700
O  20.52300 48.40000 30.96100
C  20.32200 47.35800 32.03200
H  14.27200 52.44500 29.55200
H  14.38400 53.73900 23.20400
H  19.59200 50.10900 22.68400
H  18.05100 49.67300 30.68000
H  16.16100 51.93900 30.90000
H  14.84400 49.51500 30.00700
H  14.70600 50.39800 31.53400
H  15.96100 49.08200 31.29100
H  18.25700 52.74100 30.97500
H  19.75700 51.84200 30.48200
H  19.49400 52.51000 32.83400
H  20.03400 50.85300 32.34200
H  12.65500 53.82600 29.39900
H  11.52000 54.57300 28.25200
H  13.12100 55.33100 28.65800
H  10.75800 56.28500 24.98800
H  11.79400 56.28200 26.50800
H  10.59100 54.96400 26.21700
H  16.27200 53.70700 21.72300
H  17.73000 51.39700 20.84500
H  14.25500 52.03200 21.17900
H  15.54300 50.89400 20.61500
H  15.20700 52.45600 19.85300
H  19.28500 52.92100 22.59000
H  18.48400 54.11200 21.54200
H  19.53100 52.05200 19.83600
H  20.88300 52.83000 20.71100
H  19.80400 53.83400 19.81700
H  21.77300 47.31300 24.52200
H  22.01800 48.78500 23.77600
H  20.53100 47.79000 23.31500
H  20.97400 49.82600 29.43300
H  20.64700 46.40900 31.60800
H  19.30000 47.16200 32.35600
H  21.00600 47.68400 32.81600

