158

Mg 41.19500 6.74900 29.37300
C  42.68700 8.50300 32.25100
C  38.63300 5.87700 31.44400
C  39.86700 5.25500 26.84500
C  43.83600 7.91600 27.48900
N  40.77400 7.14000 31.52800
C  41.48900 7.86600 32.54300
C  40.73900 7.87700 33.89900
C  39.54800 6.93800 33.65900
C  39.65800 6.61000 32.09600
C  39.38500 5.72600 34.60700
C  40.27600 9.31200 34.39800
C  39.95500 9.35800 35.92800
H  40.62900 10.33100 36.80100
N  39.50400 5.61800 29.13000
C  38.55000 5.44500 30.06300
C  37.46200 4.73200 29.47100
C  37.83500 4.56000 28.07900
C  39.10400 5.12100 27.95500
C  36.27000 4.19100 30.20200
C  37.05200 3.92500 26.88400
O  37.57100 3.63000 25.81500
C  35.65300 3.54400 27.00000
N  41.78600 6.60000 27.44800
C  41.07400 5.82800 26.62400
C  41.72600 5.94500 25.17800
C  42.96300 6.88000 25.29000
C  42.85000 7.15400 26.83500
C  41.95800 4.60000 24.40900
C  42.81100 8.14700 24.34700
C  42.19800 9.42400 24.88200
N  42.86000 7.99900 29.68400
C  43.88300 8.39200 28.85000
C  44.93700 9.17600 29.47400
C  44.50000 9.29700 30.84900
C  43.22300 8.58300 30.91800
C  46.22500 9.69400 28.78300
C  44.81000 9.79500 32.07900
O  45.77000 10.45100 32.43400
C  43.73000 9.27000 33.09200
C  44.22800 8.32200 34.13800
O  44.91900 7.36500 33.93000
O  43.76000 8.68500 35.36700
C  44.10300 7.73200 36.44400
H  37.68900 5.86800 31.99300
H  39.60000 4.74300 25.91900
H  44.56800 8.27700 26.76400
H  41.25000 7.46600 34.77000
H  38.69000 7.57000 33.89000
H  40.18000 5.69600 35.35200
H  39.37700 4.81700 34.00600
H  38.45000 5.70600 35.16800
H  39.39800 9.59600 33.81700
H  41.09200 9.99200 34.15600
H  40.05600 8.34600 36.32100
H  38.94200 9.75800 35.97200
H  36.54900 3.93300 31.22400
H  35.94300 3.21400 29.84700
H  35.42600 4.87800 30.15300
H  34.99900 4.39500 27.19000
H  35.48200 2.68800 27.65400
H  35.38900 3.11400 26.03400
H  40.86600 6.40800 24.69300
H  43.90500 6.35700 25.12600
H  41.97500 3.72600 25.05900
H  42.91100 4.62500 23.88100
H  41.18300 4.39000 23.67100
H  42.13400 7.81000 23.56300
H  43.80600 8.37000 23.96100
H  42.90500 10.21900 24.64200
H  41.96200 9.37300 25.94400
H  41.30900 9.68100 24.30600
H  47.12500 9.26900 29.22900
H  46.13100 10.76000 28.99100
H  46.10500 9.39400 27.74200
H  43.18400 10.04600 33.62900
H  43.32700 6.96900 36.40400
H  44.10500 8.18500 37.43600
H  45.03200 7.16800 36.36300
Mg 46.59900 44.35700 42.60000
C  43.26400 43.43400 42.93400
C  47.25300 40.96300 42.39000
C  49.84100 45.06600 41.88900
C  45.70100 47.70200 42.24700
N  45.37000 42.42400 42.80900
C  44.01000 42.31700 42.81500
C  43.54800 40.86800 42.79200
C  44.94900 40.13300 43.05800
C  45.90800 41.26400 42.64400
C  45.23400 39.65800 44.46600
C  42.84700 40.46700 41.52800
C  43.27100 40.99500 40.13800
H  43.98300 40.16200 39.04700
N  48.30600 43.13100 42.22100
C  48.38300 41.75400 42.23600
C  49.73300 41.29400 41.96200
C  50.47300 42.48600 41.70700
C  49.56000 43.65200 41.95800
C  50.15100 39.83800 42.07600
C  51.94100 42.46800 41.43400
O  52.54300 41.43800 41.29900
C  52.67200 43.84500 41.35600
N  47.55500 46.12000 42.05900
C  48.91600 46.16700 41.95400
C  49.46700 47.60600 41.97700
C  48.18800 48.45500 42.29400
C  47.05200 47.40400 42.12100
C  50.62300 47.98300 42.87100
C  48.06000 49.78300 41.46800
C  47.86300 51.13800 42.26800
N  44.82500 45.45900 42.58100
C  44.61600 46.82500 42.54300
C  43.25200 47.04800 42.80500
C  42.64600 45.75800 42.96700
C  43.64900 44.76900 42.75800
C  42.57800 48.42800 42.75800
C  41.46600 45.04200 43.25000
O  40.31200 45.40800 43.45600
C  41.84300 43.53100 43.30700
C  41.67700 43.03900 44.74800
O  42.29500 43.41600 45.72900
O  40.65000 42.09800 44.87600
C  40.55500 41.36000 46.12300
H  47.40200 39.88200 42.34200
H  50.89200 45.36100 41.93200
H  45.44500 48.76100 42.32800
H  42.88600 40.70000 43.64100
H  45.11900 39.35600 42.31300
H  45.76600 40.46800 44.96500
H  45.99600 38.87900 44.48900
H  44.29800 39.46100 44.98800
H  41.79500 40.64900 41.74900
H  42.96000 39.39600 41.36500
H  43.78500 41.95500 40.18800
H  42.31100 41.20600 39.66700
H  50.39700 39.29300 41.16500
H  49.45100 39.17500 42.58400
H  51.04900 39.85600 42.69300
H  52.23300 44.47700 40.58400
H  53.73300 43.65000 41.20100
H  52.56300 44.16700 42.39100
H  49.81700 47.76600 40.95700
H  48.35400 48.70100 43.34400
H  50.68600 48.99000 43.28400
H  51.54600 47.79600 42.32200
H  50.70200 47.32300 43.73400
H  47.32500 49.72500 40.66500
H  49.06200 49.91800 41.05900
H  47.01400 51.68900 41.86300
H  48.73000 51.79900 42.24500
H  47.71100 50.91600 43.32400
H  41.56900 48.20700 43.10600
H  42.46500 48.87700 41.77100
H  42.93200 49.12900 43.51400
H  41.11500 42.95200 42.74000
H  41.37200 41.60400 46.80200
H  40.62600 40.30400 45.85900
H  39.68100 41.65400 46.70500

