158

Mg 1.56700 8.68900 27.57300
C  2.17900 10.77300 30.25200
C  1.25000 6.07400 29.66500
C  1.40100 6.65700 24.76000
C  1.61900 11.58800 25.42000
N  1.74000 8.43800 29.70300
C  1.92800 9.43600 30.65100
C  1.58300 8.97400 32.05900
C  1.68000 7.39300 31.87700
C  1.47500 7.31800 30.31400
C  2.95300 6.66500 32.34800
C  0.09100 9.44000 32.54300
C  -0.17200 9.40000 34.05400
H  1.00300 8.84800 34.93400
N  1.31600 6.68400 27.26400
C  1.18200 5.73900 28.29500
C  0.83100 4.47300 27.65100
C  0.88800 4.58000 26.21800
C  1.27500 5.98800 26.01600
C  0.52100 3.24200 28.48300
C  0.63100 3.56700 25.18100
O  0.70200 3.82500 23.97700
C  0.26100 2.09800 25.54100
N  1.46800 9.05600 25.40200
C  1.42000 8.03200 24.48700
C  1.51300 8.56700 23.01900
C  1.33500 10.12400 23.25600
C  1.44200 10.31000 24.73800
C  2.93400 8.25500 22.38000
C  0.05000 10.83300 22.66700
C  0.25600 11.74900 21.50400
N  1.90400 10.68600 27.71600
C  1.94900 11.70000 26.83900
C  2.17200 12.90300 27.53700
C  2.32700 12.61600 28.87000
C  2.16400 11.24500 28.98500
C  2.26600 14.21700 26.84400
C  2.57400 13.19800 30.16700
O  2.94100 14.31300 30.51500
C  2.45200 12.01500 31.17300
C  3.57200 11.90100 32.18500
O  4.73300 11.79900 31.92800
O  3.03300 12.08000 33.44500
C  3.97800 12.08600 34.56200
H  0.91300 5.30800 30.36700
H  1.40200 6.11500 23.81200
H  1.68000 12.49000 24.80800
H  2.32400 9.34400 32.76800
H  0.89900 6.86100 32.42000
H  3.58800 7.22100 33.03900
H  3.60700 6.42500 31.51000
H  2.70800 5.76000 32.90400
H  -0.60300 8.72100 32.10800
H  -0.10800 10.42900 32.13300
H  -1.06300 8.78700 34.19100
H  -0.23000 10.41500 34.44700
H  1.26600 2.45600 28.36000
H  -0.40000 2.68200 28.31600
H  0.67500 3.39200 29.55100
H  1.02800 1.73500 26.22400
H  0.24800 1.57100 24.58700
H  -0.69200 2.17000 26.06600
H  0.70500 8.26800 22.35100
H  2.23200 10.71700 23.07800
H  3.50200 7.51000 22.93800
H  3.56700 9.12400 22.20400
H  2.69900 7.73100 21.45300
H  -0.48400 11.34000 23.47100
H  -0.64000 10.05500 22.34100
H  -0.44600 11.46800 20.71900
H  1.21600 11.76200 20.98800
H  0.04500 12.77200 21.81600
H  1.37600 14.25000 26.21600
H  3.16700 14.47800 26.29000
H  2.26900 14.94700 27.65300
H  1.60200 12.32700 31.78000
H  4.80600 12.77100 34.38600
H  4.30300 11.05400 34.69500
H  3.42900 12.33900 35.47000
Mg 48.38500 15.57600 27.11800
C  46.80100 15.65400 30.33500
C  50.93800 17.52200 28.59900
C  49.69700 15.77400 24.23300
C  45.57200 13.87000 25.97200
N  48.83100 16.36900 29.22300
C  48.10900 16.24500 30.37100
C  48.85200 16.83000 31.54800
C  49.98900 17.67000 30.91500
C  49.93200 17.16100 29.45800
C  49.81400 19.21600 30.89600
C  49.37200 15.71800 32.47300
C  49.22900 16.10600 34.07100
H  48.99400 17.52800 34.52500
N  50.14800 16.51200 26.47500
C  51.08000 17.20600 27.18400
C  52.16600 17.50500 26.24700
C  51.69500 17.16700 24.95100
C  50.49800 16.39200 25.16800
C  53.33100 18.38300 26.78100
C  52.17300 17.53700 23.62700
O  51.72200 17.13000 22.56700
C  53.31600 18.46700 23.56700
N  47.64400 15.19200 25.34200
C  48.46600 15.15100 24.26400
C  47.79000 14.68000 23.00800
C  46.50000 14.11600 23.60000
C  46.61500 14.34000 25.07600
C  47.52900 15.76100 21.91800
C  46.21900 12.59000 23.26800
C  44.95400 12.39500 22.45600
N  46.50500 14.98200 27.93100
C  45.54600 14.23600 27.34800
C  44.41000 13.99400 28.24900
C  44.93200 14.40000 29.46500
C  46.21000 15.07000 29.21000
C  43.14800 13.24900 27.92000
C  44.59500 14.53100 30.90900
O  43.55400 14.15100 31.49100
C  45.80800 15.36600 31.54000
C  45.26700 16.62300 32.25600
O  44.98800 17.70200 31.77600
O  44.90800 16.33900 33.50300
C  43.75800 17.11900 33.98900
H  51.60100 18.25700 29.06000
H  50.12100 15.64200 23.23500
H  44.80100 13.18200 25.61700
H  48.13100 17.44300 32.08800
H  50.98500 17.50100 31.32400
H  48.85100 19.51700 31.30900
H  49.82200 19.74100 29.94000
H  50.63600 19.63600 31.47400
H  50.43200 15.50400 32.33300
H  48.81600 14.84200 32.13900
H  50.16300 15.80600 34.54600
H  48.46900 15.49300 34.55500
H  53.21200 19.46500 26.72600
H  54.26200 18.14100 26.26800
H  53.43900 18.20600 27.85200
H  53.22600 19.42100 24.08600
H  53.43800 18.68800 22.50700
H  54.17200 17.95500 24.00800
H  48.33800 13.82700 22.60900
H  45.62200 14.74300 23.44400
H  48.00900 16.71200 22.15200
H  46.47000 15.94600 21.74100
H  47.89700 15.33900 20.98300
H  45.99100 12.07600 24.20200
H  47.08400 12.19600 22.73500
H  45.16400 11.85500 21.53300
H  44.68300 13.39200 22.11100
H  44.07800 12.11900 23.04500
H  43.45600 12.45200 27.24400
H  42.44400 13.95800 27.48400
H  42.79000 12.84600 28.86700
H  46.18400 14.64700 32.26700
H  43.29000 16.61500 34.83500
H  43.01200 17.20500 33.19900
H  44.13300 18.10300 34.27200

