158

Mg 25.16100 1.76300 29.73600
C  27.24500 1.18900 32.43400
C  22.54900 2.10800 31.94200
C  22.99800 1.91700 27.06200
C  27.61200 0.67800 27.63000
N  24.91300 1.37800 31.97500
C  25.91400 1.22200 32.87500
C  25.49200 1.54500 34.37500
C  23.90100 1.49200 34.11500
C  23.78200 1.75300 32.59900
C  23.12000 0.19300 34.55100
C  26.01900 2.94700 34.79700
C  26.90300 3.07100 36.06300
H  26.45900 4.06400 37.18900
N  23.12000 2.12400 29.54300
C  22.19500 2.21100 30.59700
C  20.87600 2.36700 30.02100
C  20.97900 2.32300 28.58900
C  22.42400 2.11200 28.29600
C  19.61200 2.62200 30.89000
C  19.95300 2.42500 27.50400
O  20.20100 2.50700 26.30200
C  18.50000 2.40800 27.98200
N  25.32800 1.39400 27.67200
C  24.29400 1.56400 26.70200
C  24.75100 1.20600 25.30000
C  26.20700 0.71600 25.53400
C  26.41600 0.99000 27.03700
C  23.72400 0.29600 24.49900
C  27.26200 1.41700 24.60900
C  28.13300 2.54800 25.13000
N  27.07200 1.15700 29.93600
C  27.97400 0.76200 28.97900
C  29.26800 0.54400 29.55400
C  29.03300 0.69100 30.93100
C  27.65400 1.00500 31.09800
C  30.59700 0.19300 28.92400
C  29.68300 0.67300 32.26800
O  30.87700 0.51900 32.58100
C  28.51200 1.03500 33.29100
C  28.52500 -0.07100 34.17900
O  27.99700 -1.17100 33.98500
O  29.14600 0.26100 35.39500
C  29.02900 -0.67500 36.53000
H  21.78300 2.30600 32.69500
H  22.34400 1.96100 26.18900
H  28.39600 0.31600 26.96200
H  25.82800 0.76900 35.06300
H  23.42900 2.34400 34.60600
H  23.94100 -0.46400 34.83800
H  22.64200 -0.29800 33.70300
H  22.43000 0.46900 35.34800
H  25.16000 3.59900 34.95600
H  26.51200 3.42500 33.95100
H  27.88400 3.32900 35.66200
H  27.01500 2.08900 36.52200
H  19.09300 3.51700 30.54700
H  19.84000 2.82600 31.93600
H  19.01600 1.71500 30.78900
H  18.16200 3.22800 28.61600
H  18.37500 1.45500 28.49500
H  17.93200 2.35700 27.05300
H  24.71400 2.13400 24.73000
H  26.26000 -0.33300 25.24200
H  22.74100 0.26000 24.97000
H  24.00200 -0.75800 24.46500
H  23.76200 0.68000 23.48000
H  26.73800 1.71000 23.70000
H  27.96100 0.64300 24.28800
H  28.15000 3.20500 24.26000
H  29.19000 2.29300 25.19900
H  27.68600 3.00800 26.01100
H  31.38400 0.79500 29.37900
H  30.47200 0.34600 27.85300
H  30.82800 -0.83600 29.20000
H  28.88100 1.88500 33.86600
H  29.04500 -1.71900 36.21800
H  28.25800 -0.61600 37.29800
H  29.91900 -0.64800 37.15900
Mg 36.40500 49.05900 25.18000
C  36.53000 47.00800 28.16100
C  35.17400 51.57100 27.06500
C  35.77000 50.60900 22.34500
C  37.64100 46.20700 23.46600
N  35.53800 49.14200 27.30600
C  35.96100 48.30100 28.35700
C  35.83200 48.97800 29.72000
C  35.20200 50.32800 29.32700
C  35.28300 50.37100 27.82800
C  33.65300 50.48900 29.66200
C  37.16100 49.11800 30.59100
C  37.07200 48.54900 32.04800
H  36.67600 49.40800 33.12800
N  35.62300 50.90500 24.72100
C  35.19700 51.83400 25.63700
C  35.00300 53.07600 25.02900
C  35.25200 52.82900 23.63000
C  35.51900 51.38300 23.51300
C  34.75200 54.42700 25.77000
C  35.11000 53.82800 22.48900
O  35.28400 53.60300 21.27300
C  34.84800 55.17300 22.87100
N  36.77600 48.51700 23.23500
C  36.37800 49.34200 22.24700
C  36.65300 48.62000 20.88100
C  37.63100 47.38600 21.25700
C  37.41300 47.39600 22.80900
C  35.25700 48.26000 20.27600
C  39.11500 47.36700 20.84400
C  39.50400 46.57800 19.56800
N  36.92600 46.95600 25.61000
C  37.43300 45.91800 24.83600
C  37.62700 44.73700 25.63000
C  37.36700 45.18900 26.93400
C  36.93100 46.48700 26.88000
C  38.05900 43.43500 25.05800
C  37.51700 44.79500 28.31600
O  37.99600 43.80000 28.87200
C  36.89400 45.95700 29.15100
C  35.69200 45.47900 30.03600
O  34.55200 45.51900 29.64200
O  36.13500 45.04000 31.26400
C  35.03800 44.75800 32.29200
H  34.89400 52.41000 27.70500
H  35.35500 50.99100 21.41000
H  37.88100 45.38100 22.79400
H  35.06400 48.34600 30.16600
H  35.68100 51.21200 29.74600
H  33.14500 51.06500 28.88900
H  33.54100 50.94900 30.64300
H  33.01900 49.60200 29.66100
H  37.38600 50.17100 30.75700
H  38.00500 48.61500 30.11800
H  38.00200 48.04700 32.31600
H  36.35600 47.72800 32.06800
H  35.38400 55.26300 25.47000
H  35.15800 54.31300 26.77500
H  33.70700 54.70100 25.91000
H  35.70600 55.55900 23.42200
H  33.86800 55.37400 23.30500
H  34.90900 55.76100 21.95500
H  37.11400 49.36400 20.23200
H  37.11800 46.49500 20.89600
H  34.46700 48.79200 20.80700
H  34.96600 47.21100 20.33600
H  35.13000 48.59100 19.24600
H  39.76100 47.21300 21.70800
H  39.24600 48.41000 20.55600
H  39.24900 47.20200 18.71100
H  38.96200 45.65500 19.36300
H  40.57100 46.37000 19.65100
H  37.22400 42.89300 24.61600
H  38.58300 42.89300 25.84500
H  38.75300 43.68100 24.25300
H  37.62600 46.40700 29.82300
H  34.00100 44.76700 31.95600
H  35.05700 45.55100 33.03900
H  35.33000 43.91100 32.91200

