158

Mg 2.11600 -1.15400 44.62600
C  5.48400 -0.10200 44.33000
C  1.19100 1.85100 43.19200
C  -0.96500 -2.41000 44.24900
C  3.37900 -4.33700 45.44700
N  3.29300 0.67100 43.77100
C  4.63800 0.89500 43.92400
C  4.98800 2.26800 43.41700
C  3.57700 2.96400 43.25300
C  2.60500 1.82600 43.42900
C  3.31800 4.17800 44.21700
C  5.81500 2.33800 42.04600
C  5.58200 1.23300 40.92200
H  5.03800 1.70100 39.57000
N  0.32500 -0.38300 43.89600
C  0.14700 0.87500 43.42700
C  -1.25300 1.08200 43.11900
C  -1.95000 -0.12000 43.49300
C  -0.90600 -1.04100 43.91500
C  -1.67800 2.33200 42.48500
C  -3.42900 -0.33800 43.28500
O  -4.04400 0.52400 42.68000
C  -4.10000 -1.64800 43.74000
N  1.39700 -3.14500 44.58700
C  0.00600 -3.35200 44.60500
C  -0.35600 -4.80500 44.98400
C  1.02900 -5.30000 45.47100
C  2.04800 -4.21200 45.08300
C  -1.43300 -5.07100 45.96200
C  1.49900 -6.63600 44.86000
C  1.37400 -7.93800 45.72000
N  3.97500 -2.05300 45.01700
C  4.36600 -3.39100 45.28000
C  5.76500 -3.45000 45.52800
C  6.24000 -2.14400 45.24300
C  5.12700 -1.34300 44.82200
C  6.58000 -4.68700 46.00600
C  7.34300 -1.38000 45.23000
O  8.41000 -1.54700 45.82700
C  6.92200 0.04200 44.68900
C  7.17000 1.14700 45.64800
O  6.59000 1.33600 46.69400
O  8.17900 1.99100 45.17600
C  8.40000 3.22700 45.89300
H  0.95400 2.84400 42.80500
H  -1.96500 -2.84900 44.21700
H  3.73300 -5.26600 45.90000
H  5.56400 2.79800 44.17600
H  3.58400 3.29500 42.21400
H  3.11800 5.08000 43.63800
H  4.20900 4.34300 44.82300
H  2.41800 3.99900 44.80400
H  6.82900 2.17800 42.41500
H  5.82600 3.37600 41.71200
H  4.90400 0.48800 41.33800
H  6.42900 0.60400 40.64700
H  -1.13500 2.56700 41.57000
H  -1.39200 3.19100 43.09200
H  -2.73900 2.48700 42.28800
H  -4.00500 -2.54000 43.12100
H  -5.15000 -1.42400 43.92600
H  -3.73700 -1.77100 44.76100
H  -0.44300 -5.43700 44.10100
H  0.98000 -5.24100 46.55800
H  -2.17700 -4.32100 45.69400
H  -1.24600 -5.02100 47.03500
H  -1.95100 -5.97500 45.64300
H  2.57800 -6.65600 44.70900
H  1.08700 -6.90900 43.88900
H  0.50900 -7.77700 46.36400
H  2.31000 -8.07100 46.26200
H  1.25800 -8.83700 45.11400
H  6.35000 -5.56200 45.39900
H  6.33800 -5.00700 47.01900
H  7.64000 -4.43800 45.95900
H  7.52100 0.15900 43.78600
H  9.36800 3.07900 46.37100
H  7.73900 3.58000 46.68500
H  8.44500 3.93300 45.06300
Mg 47.55800 44.92700 42.59700
C  44.04500 44.29900 42.45300
C  47.99900 41.43000 42.17500
C  50.65100 45.66000 41.79300
C  46.67700 48.42100 42.49900
N  46.16000 43.08000 42.01100
C  44.78100 43.09100 42.13900
C  44.25300 41.69100 42.01300
C  45.52700 40.73200 42.22800
C  46.65400 41.84400 42.22700
C  45.40100 39.80900 43.42500
C  43.46900 41.46100 40.77800
C  43.94300 42.29300 39.53500
H  43.74100 41.59000 38.23600
N  49.09700 43.78400 42.14200
C  49.11800 42.37100 42.11300
C  50.49300 41.92400 41.89100
C  51.30300 43.11700 41.62700
C  50.33800 44.29100 41.80700
C  50.92900 40.47000 41.92600
C  52.78400 43.13200 41.43700
O  53.44200 42.09900 41.23200
C  53.64400 44.45100 41.32900
N  48.49300 46.80300 42.15600
C  49.88700 46.81500 42.00400
C  50.49100 48.25800 42.10100
C  49.17900 49.10600 42.17000
C  48.00300 48.04900 42.22800
C  51.42800 48.41500 43.37600
C  48.91700 50.18700 41.00700
C  48.45300 51.54900 41.29200
N  45.78700 46.12500 42.64700
C  45.57300 47.56000 42.66200
C  44.19800 47.88400 42.90100
C  43.54700 46.55600 42.86200
C  44.53500 45.59800 42.61700
C  43.48100 49.16600 43.10400
C  42.27000 45.88700 42.93100
O  41.10300 46.24600 43.02600
C  42.56800 44.41700 42.64000
C  42.06500 43.63200 43.78200
O  41.28300 42.67100 43.64500
O  42.36200 44.21500 44.97200
C  41.68500 43.62400 46.09600
H  48.20000 40.35700 42.16600
H  51.71200 45.90000 41.69700
H  46.57000 49.50500 42.57000
H  43.63700 41.51500 42.89500
H  45.65900 40.17200 41.30200
H  45.73800 40.27900 44.34800
H  45.91200 38.85600 43.28300
H  44.34200 39.58600 43.55200
H  42.38800 41.54100 40.89000
H  43.71500 40.42400 40.54900
H  44.99300 42.56400 39.65000
H  43.32600 43.18800 39.60400
H  50.73300 39.98500 40.96900
H  50.43800 39.85500 42.68000
H  51.96100 40.40300 42.27000
H  53.35500 45.09900 40.50200
H  54.71200 44.26800 41.20600
H  53.55900 44.90600 42.31600
H  51.04100 48.41500 41.17300
H  49.09700 49.67000 43.09900
H  52.27300 49.00700 43.02500
H  51.77500 47.40800 43.61000
H  50.86300 48.92400 44.15800
H  48.31100 49.70900 40.23800
H  49.85400 50.42700 40.50500
H  48.44700 51.74200 42.36500
H  47.46100 51.52900 40.84100
H  49.14100 52.25500 40.82600
H  43.80800 49.63500 44.03200
H  42.42800 49.05000 43.36000
H  43.61200 49.93100 42.33800
H  42.10200 44.20800 41.67700
H  41.85600 44.30300 46.93200
H  42.09300 42.66000 46.40200
H  40.60800 43.66500 45.93300

