158

Mg 52.58400 23.84600 45.05700
C  49.90900 25.95700 44.48000
C  50.75000 21.23500 43.74000
C  55.42900 21.98500 44.95000
C  54.38000 26.71300 46.15600
N  50.66500 23.70500 44.01500
C  49.70000 24.69300 43.99500
C  48.35100 23.98900 43.60300
C  48.61700 22.48300 43.74400
C  50.14100 22.43700 43.78800
C  47.90900 21.73600 44.97200
C  47.88100 24.48400 42.24600
C  48.87400 24.42700 41.01900
H  48.37400 23.63400 39.73400
N  53.00900 21.82600 44.49700
C  52.05300 20.94300 44.09500
C  52.73400 19.72200 43.90900
C  54.08800 19.81600 44.30000
C  54.22300 21.24100 44.60900
C  52.06700 18.49800 43.35700
C  55.11700 18.70100 44.22100
O  54.90600 17.52800 43.82600
C  56.56900 18.99600 44.61000
N  54.60200 24.29600 45.41200
C  55.60500 23.39300 45.24700
C  56.98900 24.03700 45.57900
C  56.61100 25.40800 46.14000
C  55.09400 25.53300 45.87800
C  57.90700 23.12400 46.53400
C  57.50200 26.54800 45.57300
C  58.78000 26.84400 46.32800
N  52.24700 25.91900 45.32800
C  53.00500 26.95500 45.88800
C  52.21200 28.10100 46.10700
C  50.96400 27.77100 45.51900
C  51.05800 26.48800 45.02000
C  52.71600 29.40400 46.64900
C  49.69500 28.32000 45.19400
O  49.17500 29.44100 45.32200
C  48.88100 27.17300 44.50500
C  48.54800 27.73000 43.10900
O  49.39800 27.83900 42.24000
O  47.20400 28.09000 43.06300
C  46.83700 28.65200 41.68400
H  50.05300 20.43100 43.49400
H  56.40600 21.49700 44.96300
H  54.94500 27.60100 46.45000
H  47.58200 24.33300 44.29500
H  48.30800 22.02800 42.80300
H  47.20300 22.43400 45.42200
H  48.69400 21.56400 45.70800
H  47.42700 20.83700 44.58800
H  47.40200 25.43000 42.49800
H  47.00500 23.88000 42.01000
H  49.72000 23.79200 41.28200
H  49.26000 25.42400 40.80800
H  50.98500 18.48000 43.48200
H  52.33600 17.68200 44.02800
H  52.32600 18.36900 42.30600
H  57.06400 18.02500 44.61300
H  56.45900 19.46200 45.58900
H  56.99400 19.71500 43.91000
H  57.61400 24.17300 44.69600
H  56.71100 25.29500 47.22000
H  57.22400 22.54600 47.15700
H  58.43500 23.80300 47.20400
H  58.63600 22.60600 45.91000
H  56.83700 27.41100 45.53600
H  57.74300 26.36900 44.52600
H  59.66900 26.92300 45.70300
H  59.01600 26.09900 47.08800
H  58.70400 27.78500 46.87300
H  52.42500 30.20400 45.96900
H  53.80400 29.35600 46.60900
H  52.51200 29.65900 47.68900
H  47.94200 26.93800 45.00600
H  47.66200 29.19700 41.22600
H  45.98200 29.26100 41.98000
H  46.52700 27.81400 41.06000
Mg 28.86900 59.54900 41.40000
C  25.73700 58.26100 40.46100
C  30.39400 56.83900 40.01000
C  31.79200 61.25200 41.56300
C  27.12700 62.61300 42.21100
N  28.16500 57.81500 40.32500
C  26.88200 57.40800 40.14900
C  26.78600 56.22000 39.23000
C  28.17300 55.58200 39.41600
C  28.99400 56.75900 39.91300
C  28.23400 54.36600 40.43000
C  26.40900 56.51000 37.86200
C  25.97600 55.21700 37.11600
H  25.20200 55.57000 35.90600
N  30.85700 59.10800 40.87100
C  31.26600 57.94400 40.36500
C  32.69500 57.96800 40.26200
C  33.14400 59.16100 40.81100
C  31.94100 59.91700 41.05200
C  33.58100 56.83000 39.75400
C  34.57200 59.47700 41.04400
O  35.42900 58.61600 40.86500
C  35.14000 60.81700 41.49800
N  29.32600 61.55100 41.73700
C  30.66500 61.94200 41.85300
C  30.78400 63.42100 42.18900
C  29.35200 63.91100 42.30600
C  28.54000 62.68700 42.03300
C  31.69000 63.88500 43.42200
C  28.84800 65.20300 41.51400
C  27.94100 66.11400 42.26900
N  26.81600 60.28900 41.53100
C  26.32100 61.49000 41.81100
C  24.86800 61.51300 41.63300
C  24.59600 60.23500 41.09900
C  25.80000 59.56000 41.07500
C  23.97700 62.61900 42.01800
C  23.53400 59.36600 40.68000
O  22.34200 59.52300 40.57300
C  24.23900 57.98200 40.26800
C  23.70700 56.97000 41.20500
O  23.49300 57.16400 42.43400
O  23.46600 55.79500 40.61100
C  23.48200 54.65100 41.58800
H  30.93300 55.95500 39.66200
H  32.68500 61.83700 41.79000
H  26.67400 63.59200 42.38500
H  25.94500 55.68700 39.67400
H  28.63100 55.39900 38.44300
H  27.22500 53.95400 40.46300
H  28.80600 54.69800 41.29600
H  28.87200 53.65500 39.90500
H  27.28200 56.94500 37.37500
H  25.65200 57.27500 37.68800
H  25.57600 54.46000 37.78900
H  26.97000 54.79600 36.96600
H  33.91500 56.37900 40.68800
H  34.36600 57.17000 39.07700
H  32.97500 56.20200 39.10100
H  34.61500 61.63500 41.00500
H  36.17400 60.97600 41.19200
H  34.97700 60.87800 42.57400
H  31.21800 63.93400 41.33100
H  29.27700 64.01900 43.38800
H  32.58100 63.26800 43.54400
H  31.10900 64.01600 44.33400
H  32.11700 64.85500 43.16700
H  28.39600 64.89000 40.57400
H  29.76700 65.77600 41.38700
H  27.32600 66.73600 41.61900
H  28.60100 66.77500 42.83000
H  27.30600 65.62500 43.00800
H  23.79400 63.23300 41.13600
H  24.47100 63.21800 42.78300
H  22.97300 62.30400 42.30500
H  24.02200 57.75400 39.22500
H  22.59900 54.80200 42.20900
H  24.42300 54.56400 42.13200
H  23.35900 53.72600 41.02500

