158

Mg 44.05700 5.32400 47.06500
C  42.23800 8.34400 46.80000
C  41.14500 3.66900 46.28000
C  45.96100 2.61200 46.67200
C  46.99600 7.35500 46.87700
N  41.98800 5.99500 46.43200
C  41.51000 7.24000 46.57700
C  39.93000 7.21100 46.50100
C  39.52900 5.70600 46.54400
C  41.01300 5.09100 46.43400
C  38.89700 5.28100 47.89700
C  39.37100 7.99500 45.29100
C  40.08700 8.00200 43.91000
H  39.25700 7.38300 42.75400
N  43.58400 3.43100 46.62800
C  42.35300 2.93800 46.35000
C  42.46400 1.56600 46.03000
C  43.79000 1.19500 46.23800
C  44.50600 2.44000 46.61200
C  41.28400 0.75900 45.39200
C  44.32000 -0.20600 45.90000
O  43.63000 -1.05600 45.35700
C  45.67000 -0.55800 46.16200
N  46.21300 4.98000 46.77100
C  46.69000 3.78100 46.81600
C  48.21200 3.77500 46.90800
C  48.50900 5.33300 47.09800
C  47.17600 5.92200 46.85900
C  48.82100 2.86200 48.10200
C  49.70300 6.00200 46.19600
C  50.97100 5.32200 46.23600
N  44.61200 7.36500 46.84900
C  45.78800 8.03200 46.93400
C  45.55000 9.44900 47.02900
C  44.23800 9.61400 47.00000
C  43.65100 8.36500 46.88500
C  46.62300 10.47300 47.09600
C  43.20100 10.55500 47.01900
O  43.27800 11.76900 46.98700
C  41.81700 9.82700 46.88500
C  40.96000 9.99800 47.99300
O  40.95400 9.33500 49.02300
O  40.10000 10.99700 47.65300
C  38.96200 11.11500 48.63900
H  40.13200 3.28000 46.15600
H  46.49600 1.69800 46.40700
H  47.95500 7.87500 46.82300
H  39.51700 7.71600 47.37500
H  39.05300 5.45500 45.59600
H  38.83200 5.99200 48.72100
H  39.34200 4.36700 48.29000
H  37.85300 5.13200 47.62200
H  39.13500 9.03900 45.49300
H  38.40300 7.52300 45.12000
H  40.87800 7.25400 43.96100
H  40.46400 8.96500 43.56400
H  41.33100 0.44200 44.35100
H  40.33500 1.22000 45.66800
H  41.36500 -0.18100 45.93700
H  45.69600 -1.63700 46.00800
H  45.89000 -0.38000 47.21500
H  46.22000 0.00200 45.40500
H  48.61400 3.46100 45.94500
H  48.70300 5.56700 48.14400
H  48.07800 2.29600 48.66500
H  49.49700 3.44500 48.72800
H  49.39700 2.10000 47.57600
H  49.93300 7.04600 46.40500
H  49.41600 5.86600 45.15300
H  51.84800 5.77300 46.70100
H  51.24800 5.08000 45.21000
H  50.85800 4.30200 46.60400
H  47.30100 10.18700 47.90000
H  46.24200 11.44900 47.39400
H  47.21100 10.50900 46.17900
H  41.28100 10.28700 46.05500
H  38.43400 12.05000 48.44500
H  39.38400 11.17300 49.64300
H  38.34200 10.22700 48.52100
Mg 41.98900 42.62900 27.44500
C  40.64100 44.82400 29.78900
C  42.34500 40.32100 29.74600
C  43.49600 40.76600 25.06700
C  41.72900 45.24900 24.97700
N  41.56400 42.64800 29.55700
C  40.94400 43.53400 30.30700
C  40.69000 43.00500 31.72600
C  41.39000 41.59800 31.79500
C  41.81200 41.51500 30.24900
C  42.55300 41.48000 32.79700
C  39.27500 43.19300 32.32300
C  39.16200 43.88700 33.70400
H  38.69700 43.02000 34.90100
N  42.82000 40.69100 27.46800
C  42.80300 39.90200 28.50200
C  43.48900 38.63300 28.22400
C  43.92200 38.84800 26.83000
C  43.43700 40.17000 26.37000
C  43.65700 37.57900 29.20600
C  44.70600 37.89500 25.97800
O  45.11500 38.16700 24.83900
C  44.97900 36.57000 26.47200
N  42.74100 43.03400 25.44400
C  43.23100 42.06100 24.64700
C  43.53600 42.58000 23.25300
C  42.69400 43.84100 23.18400
C  42.32100 44.03800 24.60400
C  45.04700 42.74100 22.87200
C  41.51900 43.90300 22.15200
C  40.06900 43.86000 22.74000
N  41.36200 44.59600 27.31200
C  41.39600 45.57400 26.31600
C  40.75700 46.78000 26.76100
C  40.50500 46.60100 28.15900
C  40.82900 45.21300 28.42900
C  40.65600 48.04000 25.91500
C  39.98400 47.15500 29.34700
O  39.47800 48.25900 29.52200
C  40.11800 46.02300 30.47400
C  41.06500 46.63700 31.47600
O  42.28000 46.76700 31.33000
O  40.43500 46.88600 32.66100
C  41.25500 47.56200 33.69200
H  42.32400 39.61500 30.57900
H  43.86700 40.11400 24.27300
H  41.53500 46.10700 24.33000
H  41.29000 43.66800 32.35000
H  40.64100 40.82500 31.97100
H  42.75400 40.42000 32.95400
H  42.15100 41.99500 33.67000
H  43.45400 41.94000 32.39200
H  38.91200 42.19400 32.56600
H  38.58900 43.49200 31.53000
H  38.30600 44.54400 33.55000
H  40.06300 44.48400 33.84400
H  43.13000 37.78200 30.13900
H  44.72600 37.59000 29.42000
H  43.42100 36.55100 28.92900
H  45.29400 36.37100 27.49600
H  45.66200 36.16400 25.72600
H  44.07900 35.95700 26.44700
H  43.17700 41.77700 22.60900
H  43.43600 44.59200 22.91600
H  45.17900 42.45900 21.82800
H  45.64400 42.02600 23.43700
H  45.28700 43.79400 23.02200
H  41.56100 43.03500 21.49300
H  41.72000 44.80800 21.57700
H  39.43400 43.30100 22.05400
H  39.62500 44.85100 22.83500
H  39.98200 43.35100 23.70000
H  40.07500 47.81300 25.02200
H  41.68300 48.29200 25.65200
H  40.12500 48.76400 26.53300
H  39.25800 45.81200 31.10900
H  42.11800 48.11000 33.31600
H  41.60400 46.80100 34.39000
H  40.60300 48.22500 34.26200

