158

Mg 55.83600 24.40400 45.05200
C  53.12800 26.15700 43.49000
C  54.40300 21.38400 43.96400
C  58.70700 22.85900 45.69500
C  57.29700 27.56400 45.59400
N  54.11200 23.88900 43.64800
C  53.06900 24.72600 43.28500
C  51.85300 23.86600 42.82000
C  52.22400 22.44800 43.23800
C  53.69800 22.53900 43.56400
C  51.29300 21.87700 44.31900
C  51.43600 23.99000 41.29800
C  49.87100 24.06000 41.10400
H  49.48300 23.28600 39.90200
N  56.42800 22.41400 44.91200
C  55.71500 21.34200 44.44300
C  56.47900 20.09400 44.55900
C  57.70700 20.50400 45.03000
C  57.66200 21.98000 45.27900
C  56.01700 18.75100 43.98300
C  58.95500 19.60500 45.19000
O  58.91000 18.42200 44.94000
C  60.29300 20.07600 45.73200
N  57.64300 25.12900 45.86900
C  58.74100 24.25000 46.01000
C  60.01900 25.03700 46.30100
C  59.58400 26.57700 46.14000
C  58.07900 26.45500 45.89600
C  60.79400 24.75900 47.57900
C  60.32400 27.39100 44.94600
C  59.79300 27.18400 43.54900
N  55.31500 26.47300 44.67000
C  55.98900 27.61400 45.05400
C  55.06200 28.79200 44.96900
C  53.96700 28.25400 44.31400
C  54.15100 26.87600 44.11800
C  55.30500 30.20700 45.25800
C  52.63400 28.56000 43.76000
O  51.97300 29.59900 43.73200
C  52.14600 27.17200 43.25600
C  51.82400 27.49700 41.79500
O  52.56600 27.47300 40.86900
O  50.48300 27.68100 41.70000
C  49.83600 27.91100 40.37900
H  53.87700 20.44200 43.79600
H  59.73000 22.48500 45.77000
H  57.86000 28.49400 45.70000
H  51.06800 24.27400 43.45700
H  52.30000 21.76400 42.39300
H  50.39100 22.46800 44.47900
H  51.87200 21.81700 45.24000
H  50.78200 20.96600 44.00500
H  51.94300 23.18500 40.76600
H  51.89900 24.94700 41.05900
H  49.38700 25.03100 41.00100
H  49.54100 23.61700 42.04400
H  56.75600 18.34100 43.29400
H  55.00400 18.80900 43.58400
H  55.93800 18.01300 44.78100
H  60.76000 20.91200 45.21100
H  61.06000 19.31200 45.60800
H  60.05300 20.31800 46.76700
H  60.70300 24.77800 45.49300
H  59.71200 27.14000 47.06400
H  60.77400 23.69300 47.80300
H  60.32400 25.30200 48.39800
H  61.85100 24.99400 47.44700
H  61.40000 27.21700 44.95200
H  60.16300 28.40100 45.32200
H  60.61700 26.90800 42.89000
H  59.34500 28.10600 43.17700
H  59.07100 26.38200 43.39300
H  55.20700 30.62300 44.25500
H  56.36400 30.44700 45.35100
H  54.69100 30.72700 45.99400
H  51.23500 26.81200 43.73400
H  50.54800 28.45500 39.75900
H  48.97300 28.56200 40.51700
H  49.40300 27.09900 39.79400
Mg 48.44400 15.35200 27.89600
C  46.42700 15.45800 31.02000
C  50.95600 16.67900 29.69000
C  50.11100 15.43700 24.97400
C  45.52500 14.14900 26.35300
N  48.50900 16.34800 30.10100
C  47.73000 16.08100 31.13800
C  48.46900 16.43100 32.48500
C  49.84300 16.99500 31.95400
C  49.84300 16.58400 30.49300
C  50.14000 18.55100 32.18600
C  48.59500 15.26200 33.49900
C  47.83300 15.42500 34.85600
H  47.68600 16.84500 35.42500
N  50.28200 16.10600 27.40800
C  51.19500 16.52200 28.27800
C  52.37600 16.86900 27.50900
C  52.19900 16.40500 26.17400
C  50.77100 15.95900 26.11600
C  53.53000 17.63200 28.13900
C  53.17500 16.43700 25.02700
O  52.86100 15.91600 23.92000
C  54.59100 17.02600 25.18700
N  47.87100 14.89500 25.98700
C  48.68100 15.13500 24.90700
C  48.02700 14.80400 23.54000
C  46.74800 14.18100 23.97200
C  46.66800 14.45200 25.53800
C  48.01100 15.91100 22.42000
C  46.61000 12.69900 23.56800
C  47.45200 11.62200 24.33700
N  46.39000 14.85900 28.53800
C  45.38000 14.33700 27.73600
C  44.16900 14.08600 28.57200
C  44.61700 14.39000 29.88500
C  45.94200 14.95000 29.80000
C  42.92400 13.53300 28.10800
C  44.21200 14.34100 31.31800
O  43.12100 14.13100 31.77600
C  45.45300 14.99100 32.08100
C  44.87000 16.19500 32.81200
O  44.78600 17.36800 32.42300
O  44.34900 15.86100 34.04000
C  43.63400 16.79000 34.92100
H  51.79000 16.99700 30.31900
H  50.62200 15.60500 24.02400
H  44.65800 13.67600 25.88800
H  47.86200 17.22100 32.92600
H  50.73700 16.55100 32.39300
H  49.23000 18.95500 32.63100
H  50.24500 19.02300 31.21000
H  50.91700 18.75400 32.92300
H  49.64600 15.09900 33.73700
H  48.19600 14.38000 32.99800
H  48.43100 14.92600 35.61900
H  46.86000 14.93600 34.91000
H  53.39500 18.67000 27.83700
H  54.43400 17.10400 27.83600
H  53.46700 17.66200 29.22700
H  55.18900 16.41300 25.86100
H  54.58000 18.03900 25.58900
H  55.11400 17.07400 24.23100
H  48.60700 13.95700 23.17400
H  45.98600 14.79000 23.48600
H  48.68100 16.71600 22.72200
H  47.05300 16.43000 22.41200
H  48.47900 15.58100 21.49300
H  46.71200 12.63600 22.48500
H  45.58700 12.50700 23.89200
H  47.90600 10.97400 23.58700
H  46.74500 11.10800 24.98800
H  48.18000 12.20700 24.89800
H  42.04500 13.93900 28.60800
H  42.83300 12.51100 28.47600
H  42.89400 13.70000 27.03100
H  45.90100 14.28200 32.77600
H  44.35600 17.52800 35.27200
H  43.09100 16.29600 35.72600
H  42.86700 17.31400 34.35100

