158

Mg -1.92600 17.15900 25.52500
C  -2.23700 14.79200 28.05200
C  -3.23700 19.52100 27.55600
C  -1.89100 19.26700 22.90900
C  -1.33300 14.49300 23.30600
N  -2.56300 17.18400 27.58600
C  -2.63700 16.10200 28.47800
C  -3.07100 16.61200 29.92700
C  -3.70000 17.99400 29.56700
C  -3.09500 18.31000 28.16700
C  -5.28300 17.99200 29.34100
C  -1.86600 16.78800 30.90100
C  -2.24900 16.74000 32.34900
H  -1.19800 16.06600 33.27600
N  -2.32200 19.19000 25.35800
C  -2.83600 20.01900 26.28100
C  -2.85200 21.43300 25.76900
C  -2.30400 21.36000 24.41400
C  -2.18700 19.87300 24.16900
C  -3.08800 22.69000 26.63900
C  -1.88700 22.39400 23.41400
O  -1.52300 22.10800 22.32100
C  -1.95600 23.78000 23.76300
N  -1.85300 16.91200 23.36500
C  -1.78100 17.92600 22.52700
C  -1.39500 17.58000 21.08100
C  -1.21200 16.03500 21.22000
C  -1.38400 15.77500 22.70400
C  -2.43700 18.04700 19.96000
C  0.12300 15.50800 20.58800
C  1.39600 15.94000 21.26300
N  -1.88300 15.06000 25.54900
C  -1.56500 14.13000 24.58000
C  -1.65400 12.77500 25.13400
C  -1.86200 12.97200 26.52300
C  -1.94700 14.42000 26.74100
C  -1.58800 11.48600 24.48500
C  -2.01800 12.31800 27.90000
O  -1.90200 11.16000 28.27500
C  -2.21100 13.47300 28.89700
C  -1.17100 13.39900 29.93400
O  -0.06200 13.84900 29.76600
O  -1.58100 12.71500 31.06400
C  -0.55000 12.41300 31.99200
H  -3.69100 20.33800 28.12200
H  -1.76200 19.95700 22.07200
H  -1.05700 13.59700 22.74600
H  -3.80200 15.91500 30.33600
H  -3.59100 18.71600 30.37600
H  -5.64200 16.98800 29.56800
H  -5.44600 18.08900 28.26800
H  -5.77100 18.76400 29.93700
H  -1.43400 17.77500 30.73700
H  -1.06200 16.06800 30.74300
H  -3.17300 16.19300 32.53000
H  -2.28000 17.73100 32.80200
H  -3.57700 22.23500 27.50000
H  -3.74400 23.49800 26.31500
H  -2.14500 23.17800 26.88600
H  -1.86200 24.41200 22.88000
H  -1.18900 24.07000 24.48100
H  -2.92700 24.06700 24.16600
H  -0.45300 18.03000 20.76900
H  -2.06400 15.45600 20.86100
H  -2.44400 17.49400 19.02000
H  -2.30000 19.06100 19.58600
H  -3.46000 18.09800 20.33300
H  0.07300 15.96600 19.60000
H  0.17400 14.42100 20.53100
H  2.19400 16.22200 20.57600
H  1.80800 15.05600 21.75100
H  1.22400 16.70900 22.01600
H  -1.80200 10.79600 25.30100
H  -0.54500 11.35800 24.19600
H  -2.33200 11.49700 23.68800
H  -3.21000 13.30900 29.30000
H  -0.47600 11.32800 32.07200
H  -0.97500 12.63300 32.97200
H  0.45500 12.83200 31.94300
Mg 53.79900 24.69400 44.65300
C  50.89100 26.42300 43.82800
C  52.62100 21.86500 43.13000
C  56.87300 23.24900 44.88300
C  55.15100 27.79400 45.67600
N  52.09600 24.25800 43.38800
C  50.97900 25.14600 43.28100
C  49.87500 24.51700 42.34700
C  50.21400 23.01400 42.49300
C  51.72700 22.96600 43.02900
C  49.24700 22.20100 43.44600
C  49.98200 25.03400 40.91400
C  48.57400 25.36000 40.20600
H  48.17900 24.46700 39.02300
N  54.69200 22.81300 44.12600
C  53.99500 21.75300 43.64900
C  54.78500 20.55900 43.60800
C  56.00300 20.86600 44.12300
C  55.93400 22.37300 44.37900
C  54.26100 19.17200 43.16900
C  57.25900 19.94500 44.35900
O  57.18300 18.71100 44.11100
C  58.66900 20.45800 44.77500
N  55.70900 25.42100 44.96400
C  56.82000 24.58800 45.07900
C  58.10400 25.37200 45.48100
C  57.58000 26.89200 45.63800
C  56.03800 26.73500 45.44800
C  58.93600 24.94100 46.70600
C  58.12200 27.83200 44.53600
C  59.13700 28.85400 44.95900
N  53.15600 26.77800 44.82100
C  53.77300 27.85000 45.37700
C  52.84800 28.95700 45.43200
C  51.61700 28.42200 44.90700
C  51.88200 27.14500 44.48900
C  53.17300 30.22100 46.03800
C  50.29100 28.73700 44.59400
O  49.65000 29.80000 44.70500
C  49.73600 27.46200 43.88100
C  49.29400 27.98100 42.59700
O  50.03200 28.36200 41.65300
O  47.89500 28.09600 42.57000
C  47.30800 28.68900 41.39000
H  52.13700 20.95000 42.78200
H  57.89400 22.86800 44.95900
H  55.68600 28.70300 45.96000
H  48.88100 24.71800 42.74800
H  50.20600 22.50700 41.52800
H  48.64100 21.55700 42.81000
H  48.63300 22.96600 43.92300
H  49.70000 21.50800 44.15500
H  50.50200 24.24000 40.37700
H  50.57300 25.94000 40.78000
H  48.85000 26.27600 39.68400
H  47.77400 25.47300 40.93800
H  54.74800 18.98000 42.21400
H  53.17200 19.21800 43.14200
H  54.56700 18.47300 43.94700
H  59.19600 21.05000 44.02700
H  59.26300 19.54700 44.85500
H  58.60100 20.94700 45.74700
H  58.85400 25.24500 44.70000
H  57.72600 27.29300 46.64100
H  59.80100 24.30000 46.53700
H  58.30500 24.32000 47.34100
H  59.35900 25.78800 47.24600
H  57.28000 28.48500 44.30500
H  58.43400 27.33700 43.61700
H  59.25800 29.55200 44.13100
H  60.12300 28.39400 45.01600
H  58.94400 29.32200 45.92400
H  54.06100 30.06400 46.65000
H  52.31000 30.56100 46.61000
H  53.33300 31.03000 45.32500
H  48.88900 27.13100 44.48100
H  47.06000 27.88800 40.69300
H  47.85000 29.55400 41.00900
H  46.38800 29.17600 41.71500

