158

Mg 45.70400 3.50500 48.53600
C  43.76700 6.24300 47.39500
C  42.85600 1.55700 47.85200
C  47.54800 0.74200 48.88400
C  48.42700 5.53500 48.80600
N  43.47200 3.89500 47.66600
C  42.97200 5.06600 47.35100
C  41.53100 4.92800 46.84800
C  41.31800 3.43100 46.98400
C  42.62700 2.88700 47.59100
C  40.07300 3.03800 47.84600
C  41.17900 5.53100 45.43400
C  39.85100 6.26000 45.29600
H  39.07400 6.01300 43.98700
N  45.29000 1.37900 48.34400
C  44.04900 0.83000 48.12200
C  44.21000 -0.64100 48.13000
C  45.59600 -0.89800 48.43700
C  46.23200 0.42200 48.62600
C  43.06500 -1.64600 47.89100
C  46.18100 -2.28800 48.57000
O  45.54300 -3.33800 48.32100
C  47.54300 -2.55300 49.00700
N  47.75300 3.16200 48.65000
C  48.26000 1.92700 48.87100
C  49.74400 2.04900 49.24400
C  50.03800 3.65400 49.26400
C  48.72700 4.16100 48.88600
C  50.21700 1.28500 50.53400
C  51.04600 4.17400 48.22700
C  52.31200 4.96200 48.68900
N  46.11800 5.46300 48.22500
C  47.28500 6.22600 48.41500
C  47.07500 7.54800 48.27000
C  45.67900 7.58200 47.89300
C  45.10600 6.31000 47.88600
C  47.96500 8.68500 48.26300
C  44.59600 8.55400 47.53700
O  44.60900 9.79000 47.42100
C  43.36200 7.68500 47.31800
C  42.22500 8.01300 48.23000
O  41.79900 7.34700 49.17600
O  41.57600 9.23300 47.86500
C  40.44100 9.82900 48.59100
H  42.01500 0.93200 47.54500
H  48.21200 -0.12000 48.96700
H  49.22500 6.25200 49.00600
H  40.97000 5.50000 47.58600
H  41.28200 2.83700 46.07000
H  39.41400 3.90200 47.76100
H  40.45700 2.86200 48.85000
H  39.57900 2.18300 47.38300
H  41.14600 4.75000 44.67400
H  41.98800 6.16200 45.06500
H  40.08100 7.30400 45.50600
H  39.27500 6.09700 46.20700
H  42.50000 -1.36900 47.00100
H  42.34900 -1.63700 48.71300
H  43.40400 -2.67800 47.80000
H  48.27100 -2.19100 48.28100
H  47.59800 -3.63700 49.10400
H  47.76900 -2.04500 49.94500
H  50.30300 1.67200 48.38700
H  50.16300 3.98300 50.29600
H  50.67200 2.01200 51.20700
H  50.96500 0.51100 50.36200
H  49.28200 0.99800 51.01700
H  50.53700 4.73700 47.44500
H  51.60300 3.40100 47.69700
H  52.45200 5.03600 49.76800
H  52.15400 5.96000 48.28000
H  53.25200 4.58000 48.29000
H  47.56300 9.41200 47.55800
H  48.96700 8.38300 47.95800
H  47.97000 9.12400 49.26100
H  43.07300 7.78900 46.27200
H  40.28600 9.21700 49.48100
H  39.49700 9.79100 48.04600
H  40.69900 10.85100 48.86700
Mg 26.74000 49.29100 26.51900
C  24.72200 50.81300 28.97800
C  28.88400 48.42100 29.02900
C  28.74900 48.25100 24.18000
C  24.56700 50.86400 24.13800
N  26.80200 49.69500 28.66700
C  25.79100 50.10100 29.43000
C  25.97600 49.93700 30.96800
C  27.38800 49.33100 30.95300
C  27.70800 49.07800 29.44500
C  28.58300 50.09800 31.59500
C  24.86200 49.00600 31.60000
C  24.09300 49.47700 32.89000
H  23.93500 48.48800 34.06400
N  28.58800 48.34100 26.63000
C  29.32800 48.05700 27.73300
C  30.59000 47.41400 27.31000
C  30.52900 47.34500 25.86400
C  29.28300 48.01900 25.46400
C  31.64000 46.89300 28.21900
C  31.54300 46.78100 24.95200
O  31.39400 46.88900 23.74800
C  32.76600 46.00600 25.41700
N  26.62200 49.49000 24.43700
C  27.68700 48.95700 23.71000
C  27.50200 49.25200 22.21500
C  26.05300 49.83500 22.20900
C  25.67800 50.09700 23.66700
C  28.51800 50.27300 21.57300
C  25.06600 48.90100 21.53500
C  24.14200 47.98000 22.37800
N  25.03400 50.64100 26.47000
C  24.32500 51.19300 25.48800
C  23.24800 52.03600 26.03600
C  23.30800 51.74200 27.41700
C  24.43700 51.00900 27.62200
C  22.17200 52.86900 25.28300
C  22.65100 52.04000 28.67300
O  21.59400 52.68300 28.89900
C  23.52200 51.38500 29.74800
C  23.99400 52.44600 30.73200
O  24.79100 53.32300 30.52100
O  23.36600 52.26800 31.93700
C  23.56800 53.33800 32.91200
H  29.60200 48.13500 29.80100
H  29.22300 47.78800 23.31200
H  23.76500 51.19800 23.47700
H  25.99900 50.92900 31.42000
H  27.29100 48.36000 31.43700
H  29.42000 50.46400 31.00000
H  29.15500 49.53000 32.32900
H  28.21000 50.97300 32.12700
H  25.42100 48.09500 31.81300
H  24.20600 48.80900 30.75200
H  23.11800 49.88300 32.62000
H  24.67600 50.29300 33.31800
H  31.85500 45.82400 28.22500
H  31.37700 47.11400 29.25400
H  32.51800 47.49000 27.97600
H  33.41300 46.79500 25.80200
H  33.18500 45.58400 24.50300
H  32.65200 45.20800 26.15000
H  27.60500 48.27200 21.75000
H  26.06300 50.82400 21.75200
H  29.28000 50.45000 22.33200
H  27.88300 51.07600 21.19600
H  28.95500 49.75200 20.72100
H  25.54000 48.31400 20.74800
H  24.37000 49.55600 21.01100
H  24.48200 47.70300 23.37500
H  24.22000 47.04400 21.82500
H  23.14100 48.41100 22.36400
H  21.98500 53.73600 25.91700
H  21.29900 52.25000 25.07700
H  22.62700 53.30100 24.39200
H  22.98000 50.58100 30.24700
H  23.46500 54.35600 32.53500
H  24.56600 53.21800 33.33400
H  22.85500 53.18400 33.72200

