158

Mg 0.32200 7.47800 26.18900
C  1.29700 9.38300 28.79500
C  -0.01000 4.82500 28.25600
C  -0.30100 5.51400 23.47700
C  1.06000 10.14000 24.06300
N  0.54200 7.12600 28.25900
C  0.85700 8.07900 29.21200
C  0.62000 7.50600 30.63600
C  0.51100 6.03500 30.32300
C  0.18100 5.97800 28.87400
C  1.71200 5.14600 30.83500
C  -0.77900 8.05300 31.15300
C  -1.03500 7.91300 32.65800
H  0.17600 7.93500 33.56800
N  -0.15500 5.42700 25.88500
C  -0.27400 4.48300 26.89600
C  -0.67800 3.27000 26.29100
C  -0.88400 3.43300 24.92100
C  -0.38500 4.79500 24.66300
C  -0.77800 1.99500 27.06300
C  -1.32100 2.47400 23.82100
O  -1.30000 2.72800 22.63100
C  -1.76000 1.16300 24.17100
N  0.20100 7.82200 24.14300
C  0.01200 6.91000 23.24300
C  0.27400 7.30800 21.83500
C  0.29500 8.89700 21.97800
C  0.49800 8.97600 23.49600
C  1.56600 6.72500 21.26900
C  -0.96500 9.61800 21.40300
C  -0.64500 10.91000 20.66100
N  1.14300 9.38200 26.39700
C  1.41000 10.32200 25.39100
C  2.06300 11.42800 25.99000
C  1.98300 11.15500 27.37900
C  1.42300 9.86700 27.50300
C  2.51600 12.72000 25.34600
C  2.17100 11.71400 28.69900
O  2.54600 12.80200 29.08000
C  1.62700 10.64300 29.66900
C  2.59800 10.46700 30.74400
O  3.55000 9.64300 30.68200
O  2.37200 11.28400 31.78300
C  3.18500 11.10100 32.97600
H  -0.12400 3.97100 28.92600
H  -0.35600 4.97400 22.52900
H  1.34900 10.90600 23.34100
H  1.44700 7.90100 31.22500
H  -0.37700 5.64900 30.82300
H  1.23000 4.39600 31.46200
H  2.47200 5.77900 31.29300
H  2.28400 4.70400 30.02000
H  -1.50600 7.48500 30.57200
H  -0.78600 9.12000 30.92800
H  -1.63100 7.02200 32.85600
H  -1.61100 8.79400 32.94100
H  -0.27000 2.09300 28.02200
H  -0.25800 1.21500 26.50600
H  -1.78800 1.58400 27.06100
H  -2.03500 0.62700 23.26300
H  -2.64200 1.33700 24.78700
H  -1.00400 0.54500 24.65500
H  -0.61100 7.06200 21.24900
H  1.21300 9.24800 21.50500
H  1.96300 7.39800 20.50900
H  1.39600 5.78900 20.73800
H  2.23100 6.60000 22.12400
H  -1.52200 9.89500 22.29700
H  -1.51400 9.03000 20.66700
H  -0.73700 10.73000 19.59000
H  0.39100 11.24100 20.73800
H  -1.23100 11.71500 21.10400
H  3.26000 12.59400 24.56000
H  3.02200 13.41300 26.01800
H  1.55400 12.98600 24.90700
H  0.73800 11.09300 30.11100
H  2.87000 11.69600 33.83300
H  4.23900 11.34400 32.84200
H  3.09500 10.03500 33.18200
Mg -11.56800 16.96400 40.81900
C  -8.24100 15.83600 40.61900
C  -10.36600 20.09300 39.61000
C  -14.65000 17.91800 40.26000
C  -12.61500 13.62500 41.08600
N  -9.54800 17.86700 40.17200
C  -8.28100 17.16700 40.21200
C  -7.06100 18.12600 39.88600
C  -7.80300 19.51500 39.74900
C  -9.35100 19.19400 39.98200
C  -7.48000 20.49300 40.92200
C  -6.26400 17.75300 38.64400
C  -4.78900 17.61000 38.82100
H  -4.23600 16.46800 37.99100
N  -12.40400 18.82100 40.14900
C  -11.78500 19.97000 39.69000
C  -12.75800 20.99700 39.44800
C  -14.02800 20.42800 39.67800
C  -13.77000 19.00300 39.99900
C  -12.41800 22.36000 39.00100
C  -15.46300 21.14800 39.55400
O  -15.57800 22.26200 39.10200
C  -16.70200 20.48300 40.00600
N  -13.36600 15.89000 40.64200
C  -14.50800 16.55000 40.58500
C  -15.82000 15.64000 40.54800
C  -15.11200 14.24300 40.92300
C  -13.60500 14.59300 40.94100
C  -17.02400 16.14400 41.50100
C  -15.48300 13.10200 39.96300
C  -15.10200 13.26600 38.49800
N  -10.71600 15.09700 40.97500
C  -11.23900 13.85500 41.11400
C  -10.09700 12.91800 41.47900
C  -8.89800 13.67700 41.24200
C  -9.31000 14.91900 40.86800
C  -10.22600 11.47000 41.87700
C  -7.42700 13.66900 41.38500
O  -6.72300 12.70700 41.72000
C  -6.96300 15.06500 40.92700
C  -6.27400 15.69000 42.09700
O  -6.72100 16.47800 42.93300
O  -4.95300 15.34100 42.08000
C  -4.23100 16.03800 43.09400
H  -10.02900 21.05500 39.21800
H  -15.69100 18.21000 40.11300
H  -12.94400 12.63200 41.39900
H  -6.39000 18.10200 40.74500
H  -7.60200 19.98800 38.78800
H  -6.53200 21.01600 40.79800
H  -7.45700 19.92000 41.84900
H  -8.27900 21.22000 41.06800
H  -6.50500 18.46400 37.85300
H  -6.62200 16.80400 38.24300
H  -4.59800 17.48700 39.88700
H  -4.27600 18.47800 38.40600
H  -13.06300 22.82800 38.25700
H  -11.42300 22.30300 38.56000
H  -12.39000 23.05100 39.84400
H  -17.07200 19.60300 39.48000
H  -17.53800 21.18000 40.06100
H  -16.41600 20.20000 41.01900
H  -16.19800 15.65300 39.52600
H  -15.38500 13.95600 41.93800
H  -16.73000 16.99700 42.11200
H  -17.27900 15.28000 42.11600
H  -17.93500 16.37600 40.95100
H  -16.56700 13.00400 40.01600
H  -15.06500 12.16100 40.32000
H  -15.98000 13.10300 37.87200
H  -14.32500 12.53800 38.26300
H  -14.67300 14.26400 38.41500
H  -10.80300 11.39300 42.79900
H  -9.21500 11.08300 42.00700
H  -10.69700 10.99500 41.01600
H  -6.23800 15.02700 40.11400
H  -4.33800 17.08300 42.80000
H  -3.17100 15.79500 43.02900
H  -4.54200 15.81700 44.11500

