158

Mg 40.49700 9.38400 29.39000
C  42.46100 10.94200 32.05300
C  38.49400 8.18500 31.80100
C  39.02800 7.92300 26.89600
C  43.32500 10.22600 27.21200
N  40.61000 9.47700 31.71300
C  41.30600 10.36200 32.50000
C  40.77500 10.38400 33.94500
C  39.51500 9.33600 33.78400
C  39.54800 8.92800 32.35000
C  39.45100 8.22800 34.83100
C  40.31900 11.84200 34.35300
C  39.88000 11.97100 35.87000
H  40.59100 13.02700 36.68100
N  39.03000 8.15900 29.37400
C  38.26500 7.82800 30.43500
C  37.20400 6.99300 29.94600
C  37.24500 6.96800 28.49900
C  38.49200 7.69100 28.19000
C  36.21100 6.28100 30.88200
C  36.32500 6.26400 27.48100
O  36.70700 6.13400 26.34700
C  35.16000 5.46900 27.98900
N  41.15200 9.13400 27.39500
C  40.22100 8.63300 26.50500
C  40.65000 8.93200 25.00400
C  42.08800 9.32500 25.21500
C  42.17500 9.59600 26.68800
C  40.50800 7.94100 23.85000
C  42.52800 10.53300 24.34500
C  41.86500 11.87000 24.66100
N  42.43300 10.47000 29.47400
C  43.47700 10.68700 28.53900
C  44.55900 11.51900 29.18200
C  44.16200 11.63500 30.51200
C  42.91800 10.94200 30.66900
C  45.74500 12.05800 28.45000
C  44.58100 12.10500 31.83200
O  45.57100 12.74800 32.16200
C  43.45300 11.73600 32.88100
C  44.01800 10.95200 34.01300
O  44.74700 9.98300 33.86100
O  43.61200 11.43500 35.24400
C  43.97600 10.64100 36.40400
H  37.69300 7.94600 32.50300
H  38.45800 7.55300 26.04100
H  44.08800 10.55900 26.50600
H  41.51700 10.00700 34.64800
H  38.69200 10.01400 34.00800
H  38.63100 8.42100 35.52200
H  40.36300 8.31300 35.42200
H  39.39800 7.17900 34.53900
H  39.47900 12.18000 33.74600
H  41.17100 12.51100 34.23100
H  39.81800 10.98200 36.32300
H  38.84900 12.32100 35.81100
H  35.19400 6.57200 30.62100
H  36.26800 6.57200 31.93100
H  36.51100 5.23900 30.76600
H  35.42900 4.95500 28.91100
H  35.02900 4.80000 27.13900
H  34.30000 6.13800 28.02300
H  39.97600 9.71800 24.66400
H  42.60300 8.38500 25.01600
H  39.44900 8.02700 23.60600
H  40.47700 6.91100 24.20600
H  41.02700 8.19000 22.92400
H  42.13000 10.22300 23.37900
H  43.61300 10.63900 24.33100
H  41.58400 11.92300 25.71300
H  41.01200 11.94200 23.98600
H  42.44500 12.76800 24.44800
H  45.60400 12.58700 27.50800
H  46.44200 11.22700 28.33600
H  46.26800 12.79300 29.06300
H  42.96300 12.66300 33.18000
H  43.16600 10.45800 37.11100
H  44.75700 11.21700 36.90000
H  44.50700 9.70200 36.24800
Mg 47.41600 24.98100 28.68400
C  48.34000 27.43700 31.14300
C  46.06000 23.17700 31.33000
C  46.97800 22.56700 26.69200
C  49.09000 26.98500 26.27600
N  47.40700 25.26200 31.04000
C  47.59200 26.37000 31.70500
C  47.19600 26.30000 33.19300
C  46.51200 24.89800 33.23800
C  46.75200 24.30500 31.79200
C  47.04500 23.85700 34.36100
C  46.25100 27.39600 33.84200
C  46.85300 28.09900 35.09800
H  47.22000 27.23500 36.31300
N  46.52900 23.15500 28.94100
C  45.97600 22.56500 30.08400
C  45.37300 21.35700 29.70200
C  45.66000 21.16400 28.33400
C  46.51400 22.21600 27.95200
C  44.60100 20.53500 30.72200
C  45.29000 19.89700 27.50800
O  45.80000 19.75600 26.36100
C  44.37100 18.84600 28.10400
N  48.19800 24.75200 26.89700
C  47.67900 23.70700 26.15700
C  48.10900 23.73100 24.67200
C  48.56800 25.17600 24.52500
C  48.66800 25.69000 26.00200
C  49.18400 22.68400 24.34400
C  47.64700 26.00000 23.55200
C  48.26400 26.33200 22.16800
N  48.49900 26.86300 28.64200
C  49.12000 27.50100 27.57400
C  49.62200 28.78300 28.09700
C  49.39200 28.78900 29.47300
C  48.69800 27.62300 29.76800
C  50.33500 29.82700 27.20000
C  49.52000 29.50400 30.71000
O  50.00000 30.58900 31.01400
C  49.00100 28.58700 31.84300
C  50.08800 28.13700 32.85300
O  50.79400 27.15300 32.81300
O  50.13000 29.09500 33.93000
C  51.00500 28.70000 35.08900
H  45.55200 22.73100 32.18800
H  46.82500 21.86100 25.87300
H  49.44500 27.57000 25.42500
H  48.14100 26.25300 33.73400
H  45.42300 24.93400 33.26100
H  47.32300 22.90200 33.91600
H  46.36500 23.60200 35.17500
H  48.02600 24.14800 34.73800
H  45.37000 26.92300 34.27800
H  45.90100 28.17800 33.16800
H  46.19900 28.91600 35.40200
H  47.76700 28.63600 34.84200
H  43.55300 20.39100 30.46100
H  44.60600 21.05100 31.68200
H  44.99200 19.53300 30.89400
H  44.84100 18.37200 28.96600
H  44.05500 18.15000 27.32700
H  43.52900 19.43700 28.46400
H  47.20000 23.55300 24.09700
H  49.62000 25.14700 24.24100
H  50.14200 23.19600 24.24900
H  49.01500 22.28800 23.34300
H  49.14400 21.81300 24.99800
H  47.32200 26.89000 24.09000
H  46.71800 25.45900 23.37100
H  47.62400 26.03900 21.33600
H  49.20300 25.78900 22.06000
H  48.47900 27.39400 22.05000
H  51.40400 29.83300 27.41500
H  49.85400 30.80200 27.27300
H  50.27400 29.53500 26.15200
H  48.23600 29.23700 32.26800
H  51.95400 28.29000 34.74300
H  50.43300 27.94200 35.62500
H  51.13000 29.53700 35.77600

