158

Mg 0.06700 7.13700 25.36200
C  0.76200 9.04500 28.22600
C  0.22800 4.31600 27.25100
C  -0.18900 5.41500 22.59200
C  0.80500 10.03300 23.43500
N  0.33700 6.80800 27.49300
C  0.50700 7.67600 28.53000
C  0.51800 6.97600 29.87000
C  0.54500 5.45400 29.56300
C  0.43600 5.51500 27.99700
C  1.77300 4.70300 30.05500
C  -0.58700 7.46500 30.90600
C  -0.40400 7.12800 32.33200
H  0.84300 6.46100 32.92200
N  -0.25500 5.12800 25.04000
C  -0.00300 4.15100 25.87900
C  -0.13500 2.89300 25.29400
C  -0.37200 3.13300 23.87600
C  -0.32700 4.64100 23.72800
C  -0.02000 1.52500 26.11100
C  -0.59200 2.26300 22.66100
O  -0.92800 2.72800 21.60200
C  -0.44700 0.83900 22.77900
N  0.47700 7.59700 23.25900
C  0.09200 6.75400 22.34400
C  -0.02300 7.42200 20.92500
C  0.21600 8.96700 21.27300
C  0.49800 8.85100 22.75400
C  0.98500 6.91400 19.84500
C  -0.92500 9.91200 20.73200
C  -2.17100 10.10500 21.63000
N  0.85300 9.12000 25.70000
C  1.02900 10.17900 24.83500
C  1.29800 11.40200 25.65300
C  1.21200 10.99500 26.94300
C  0.98300 9.63800 26.94300
C  1.57900 12.78500 25.18600
C  1.41000 11.46500 28.29000
O  1.69000 12.56700 28.72600
C  1.07800 10.20700 29.21100
C  2.22300 9.98800 30.07800
O  3.17400 9.34000 29.79000
O  2.01600 10.69700 31.20800
C  2.87900 10.30800 32.33200
H  0.28000 3.43900 27.89900
H  -0.51100 4.90300 21.68300
H  0.87300 10.95800 22.85700
H  1.48700 7.22500 30.30400
H  -0.35000 4.90300 29.85500
H  1.52200 4.00000 30.84900
H  2.45100 5.39300 30.55700
H  2.33500 4.17700 29.28400
H  -1.56800 7.15200 30.54900
H  -0.77500 8.53400 30.80100
H  -1.32600 6.62300 32.62000
H  -0.49700 8.08500 32.84500
H  0.97500 1.54400 26.55800
H  0.22800 0.62400 25.55000
H  -0.67100 1.28800 26.95300
H  -0.93800 0.29600 21.97200
H  -0.85400 0.56700 23.75300
H  0.63400 0.73100 22.68200
H  -0.99100 7.25000 20.45500
H  1.11600 9.42100 20.86000
H  1.75300 6.24700 20.23700
H  1.56600 7.73800 19.43300
H  0.42400 6.44500 19.03700
H  -1.29100 9.40000 19.84200
H  -0.52000 10.87700 20.42700
H  -2.18300 9.41900 22.47600
H  -2.99800 9.83300 20.97300
H  -2.24300 11.13400 21.98100
H  1.77400 12.99500 24.13500
H  2.35000 13.25600 25.79500
H  0.69800 13.34800 25.49600
H  0.19800 10.40600 29.82400
H  3.92300 10.16900 32.04900
H  2.47100 9.33500 32.60500
H  2.75800 11.05800 33.11300
Mg 6.41400 53.86600 40.86500
C  5.95400 50.47500 40.88200
C  9.54200 53.47400 39.61600
C  6.63100 57.42000 40.56700
C  3.04500 54.32500 41.76500
N  7.48100 52.06800 39.93400
C  7.18000 50.76900 40.22500
C  8.31700 49.79600 39.79000
C  9.57200 50.80600 39.75600
C  8.84800 52.22700 39.84800
C  10.71400 50.61400 40.81600
C  8.11700 49.08000 38.46400
C  7.51600 49.87200 37.30800
H  6.77600 49.08400 36.10300
N  7.83900 55.21300 40.18700
C  9.07100 54.83700 39.76200
C  9.92000 55.99400 39.58000
C  9.12900 57.12500 39.98300
C  7.79000 56.58500 40.27400
C  11.31900 55.91600 39.13400
C  9.66500 58.57000 39.99400
O  10.80000 58.80500 39.63600
C  8.90600 59.76000 40.48000
N  5.04700 55.69800 41.18800
C  5.34800 57.00400 40.94700
C  4.11800 57.92200 41.05600
C  2.99000 56.86000 41.28500
C  3.71600 55.55300 41.56600
C  4.27500 59.12600 42.11600
C  2.00600 56.83400 40.05000
C  1.27800 58.20000 39.73100
N  4.87200 52.70800 41.33100
C  3.57800 53.01100 41.74900
C  2.88700 51.80700 42.07100
C  3.85400 50.79600 41.85300
C  5.03300 51.34700 41.35700
C  1.50200 51.60900 42.69400
C  4.07600 49.36400 41.95500
O  3.38700 48.48400 42.41500
C  5.42600 49.15500 41.23300
C  5.12500 48.22000 40.09400
O  4.62200 48.63200 39.05500
O  5.30100 46.88100 40.48200
C  4.98700 46.07800 39.33200
H  10.62300 53.34400 39.53500
H  6.67400 58.47700 40.30000
H  2.01300 54.39800 42.11300
H  8.30600 49.07100 40.60400
H  10.14200 50.62800 38.84400
H  11.62000 50.33700 40.27800
H  10.30100 49.82000 41.43800
H  11.02200 51.42300 41.47900
H  7.37500 48.31700 38.69700
H  9.12000 48.79400 38.14500
H  8.27200 50.49100 36.82500
H  6.74500 50.50700 37.74400
H  11.30300 56.49300 38.21000
H  11.79300 54.97300 38.86400
H  11.97600 56.51600 39.76500
H  8.42700 59.49800 41.42400
H  8.22500 59.81800 39.63100
H  9.56800 60.61400 40.62400
H  3.97700 58.40400 40.08900
H  2.48600 57.18100 42.19600
H  5.25700 59.59700 42.07300
H  4.13900 58.71600 43.11700
H  3.64400 59.98800 41.90000
H  1.18400 56.17300 40.32100
H  2.57200 56.40300 39.22400
H  1.46200 58.43200 38.68200
H  1.53700 59.04200 40.37300
H  0.21100 58.04300 39.88200
H  0.97300 52.55600 42.78900
H  1.56500 51.15600 43.68400
H  0.92100 50.93400 42.06500
H  6.00400 48.61200 41.98000
H  5.50700 46.43100 38.44100
H  3.90700 45.94900 39.25800
H  5.50100 45.14700 39.57200

