158

Mg 24.53900 1.35900 29.87100
C  26.82900 0.98700 32.54700
C  22.07100 1.69700 32.18300
C  22.40900 1.19100 27.37800
C  27.13300 0.77700 27.65100
N  24.46700 1.34700 32.16500
C  25.53800 1.28200 33.03400
C  25.03400 1.61500 34.48500
C  23.47300 1.76200 34.31700
C  23.29400 1.56600 32.81000
C  22.56100 0.80200 35.24800
C  25.84300 2.90300 35.04200
C  26.53800 2.71600 36.36600
H  26.12200 3.57600 37.55000
N  22.56200 1.38700 29.77000
C  21.71800 1.58200 30.88300
C  20.30800 1.58600 30.38100
C  20.40900 1.26200 28.96400
C  21.85500 1.25400 28.63900
C  19.07600 1.85300 31.22500
C  19.25300 0.96200 28.00800
O  19.51000 0.49800 26.88100
C  17.74800 1.14700 28.37600
N  24.73700 0.93200 27.80400
C  23.71200 1.09600 26.99200
C  24.14500 1.28900 25.46600
C  25.74600 1.15000 25.60200
C  25.87800 1.00000 27.11500
C  23.43000 0.36700 24.41900
C  26.52200 2.39100 25.09000
C  26.49000 3.75000 26.00000
N  26.57000 0.83500 30.04200
C  27.51400 0.63900 29.04800
C  28.79500 0.44600 29.59800
C  28.60900 0.54500 30.95900
C  27.20200 0.80200 31.21700
C  30.10900 0.29400 28.80800
C  29.27000 0.59100 32.17900
O  30.46000 0.44700 32.29500
C  28.16500 0.84200 33.29100
C  28.17500 -0.22800 34.31200
O  27.94500 -1.42200 34.01800
O  28.46800 0.20900 35.58400
C  28.48700 -0.87100 36.61100
H  21.22900 1.91600 32.84300
H  21.75900 1.13300 26.50200
H  27.89700 0.70500 26.87300
H  25.36300 0.78200 35.10500
H  23.23700 2.77500 34.64100
H  22.61200 1.23000 36.24900
H  22.96100 -0.21200 35.25200
H  21.51500 0.72100 34.95400
H  24.99100 3.58100 35.10300
H  26.40600 3.29600 34.19600
H  27.60600 2.93800 36.37200
H  26.50000 1.65600 36.61700
H  18.60300 0.88100 31.36500
H  18.50800 2.60700 30.67800
H  19.32400 2.30600 32.18500
H  17.51900 0.62900 29.30800
H  17.09500 0.96500 27.52300
H  17.70800 2.22800 28.51400
H  23.78600 2.28000 25.18700
H  26.00800 0.23200 25.07500
H  22.77300 0.83900 23.68900
H  22.77700 -0.23700 25.04900
H  24.20900 -0.27400 24.00700
H  26.22100 2.58000 24.05900
H  27.55200 2.03500 25.06900
H  25.86000 3.53100 26.86200
H  26.01500 4.55300 25.43500
H  27.50100 4.10800 26.19800
H  29.73700 -0.39900 28.05400
H  30.75600 -0.35200 29.40100
H  30.70000 1.16500 28.52500
H  28.37400 1.81100 33.74400
H  28.64300 -0.35100 37.55600
H  29.37900 -1.47000 36.42900
H  27.60300 -1.50600 36.65000
Mg 27.64900 49.70800 26.91200
C  25.48600 50.72800 29.67100
C  29.99000 48.90500 29.17100
C  29.67100 49.30400 24.35600
C  25.08100 50.88800 24.72100
N  27.68400 49.77400 29.27200
C  26.69200 50.16300 30.12000
C  27.12500 49.85500 31.51400
C  28.67600 49.39200 31.37600
C  28.80400 49.30700 29.86200
C  29.78300 50.26100 32.03600
C  26.13900 48.87200 32.21800
C  25.38900 49.27700 33.50400
H  26.15900 49.86100 34.73200
N  29.53300 49.22000 26.79900
C  30.37300 48.85900 27.84800
C  31.68300 48.41800 27.31800
C  31.56300 48.53800 25.90000
C  30.19700 48.98900 25.61600
C  32.91100 48.05700 28.15000
C  32.62700 48.29700 24.79900
O  32.45800 48.50600 23.57700
C  33.95600 47.65600 25.24300
N  27.43800 50.13600 24.83300
C  28.44700 49.80600 23.96100
C  27.99500 49.99600 22.45100
C  26.42100 50.18500 22.62100
C  26.24900 50.31200 24.10100
C  28.82200 51.12800 21.74000
C  25.62300 49.02000 22.01100
C  24.48500 49.45600 21.10700
N  25.78500 50.66500 27.08200
C  24.87900 51.04100 26.10100
C  23.72900 51.62400 26.73000
C  23.95600 51.52700 28.14200
C  25.18300 50.90000 28.28100
C  22.62900 52.27000 25.91500
C  23.36800 51.78100 29.43200
O  22.32400 52.39900 29.75700
C  24.35300 51.24300 30.51100
C  24.74100 52.37600 31.41000
O  25.65100 53.17400 31.30800
O  23.85000 52.34000 32.47200
C  24.06900 53.31800 33.56500
H  30.77900 48.70400 29.90000
H  30.21200 48.97000 23.46800
H  24.18000 51.12700 24.15300
H  27.06100 50.80200 32.04800
H  28.69400 48.34400 31.67800
H  30.08300 49.72500 32.93600
H  29.55700 51.31000 32.22500
H  30.70700 50.25200 31.45800
H  26.69300 48.07800 32.72000
H  25.38900 48.35200 31.62100
H  24.93300 48.32000 33.76000
H  24.56900 49.92700 33.19800
H  33.62600 48.81400 27.82700
H  33.31200 47.07100 27.91800
H  32.78100 48.13400 29.22900
H  33.79200 46.76900 25.85400
H  34.49800 48.47300 25.72100
H  34.54700 47.40100 24.36300
H  28.32800 49.15700 21.84000
H  26.09600 51.17500 22.30300
H  29.41700 51.60500 22.51900
H  28.12600 51.70900 21.13500
H  29.51000 50.66000 21.03600
H  25.24000 48.46900 22.87000
H  26.41400 48.62400 21.37500
H  24.59800 50.46600 20.71400
H  23.62300 49.46900 21.77400
H  24.35700 48.64900 20.38600
H  23.00600 52.98800 25.18700
H  22.06300 52.81700 26.66900
H  22.08500 51.44300 25.45800
H  23.86300 50.48800 31.12600
H  23.47600 52.96800 34.41000
H  23.70500 54.34100 33.47700
H  25.11500 53.49200 33.81500

