158

Mg 46.92900 16.58300 28.10600
C  44.82600 16.17300 30.96800
C  49.05500 18.43500 30.20600
C  48.66200 17.39600 25.39500
C  44.45300 14.92900 26.25900
N  47.00700 17.01300 30.43600
C  46.05000 16.79300 31.31900
C  46.34000 17.33600 32.66100
C  47.60500 18.30500 32.36900
C  47.94000 17.87300 30.92200
C  47.57100 19.91500 32.57500
C  46.68400 16.24200 33.75400
C  46.40000 16.58600 35.30700
H  46.11900 18.02800 35.70300
N  48.62900 17.65800 27.83000
C  49.37800 18.37600 28.79500
C  50.60800 18.89300 28.23400
C  50.45400 18.67300 26.82500
C  49.21000 17.85000 26.65800
C  51.80200 19.42300 28.95400
C  51.38000 19.13000 25.68300
O  51.16000 18.84000 24.50200
C  52.63200 20.07100 25.92700
N  46.60600 16.15500 26.12700
C  47.48900 16.61300 25.14900
C  47.09900 16.19700 23.78400
C  46.01200 15.14300 24.10900
C  45.61000 15.42200 25.58400
C  46.56100 17.38200 23.02600
C  46.53200 13.73100 23.92800
C  45.56500 12.76000 23.24600
N  45.03600 15.68600 28.44700
C  44.15200 15.09300 27.63500
C  42.97000 14.63000 28.31200
C  43.19100 15.02800 29.62600
C  44.48200 15.65200 29.70500
C  41.73000 14.07900 27.58200
C  42.56700 15.13000 30.98400
O  41.49500 14.79000 31.42200
C  43.68700 15.82000 31.89900
C  43.02300 16.96300 32.52900
O  42.94400 18.12800 32.05600
O  42.50400 16.49300 33.70300
C  41.69400 17.44000 34.47700
H  49.70700 19.10000 30.77600
H  49.21800 17.61500 24.48100
H  43.76000 14.31600 25.67800
H  45.51600 17.97300 32.98100
H  48.34400 17.85100 33.02900
H  46.68700 20.40600 32.98100
H  47.50600 20.39700 31.60000
H  48.40000 20.21200 33.21800
H  47.69800 15.84700 33.69500
H  46.11300 15.36900 33.43600
H  47.20300 16.39700 36.02000
H  45.62600 15.92900 35.70200
H  52.57200 19.88400 28.33500
H  52.18300 18.58800 29.54200
H  51.42800 20.21700 29.60100
H  52.33000 20.98100 26.44600
H  52.92300 20.41200 24.93400
H  53.44400 19.47200 26.33900
H  47.98900 15.77600 23.31800
H  45.12700 15.36300 23.51200
H  47.42500 17.58300 22.39200
H  46.27100 18.25700 23.60800
H  45.73200 17.06000 22.39500
H  46.68900 13.27300 24.90500
H  47.48700 13.72000 23.40100
H  45.47100 11.87200 23.87100
H  45.94000 12.48200 22.26200
H  44.60900 13.27200 23.13500
H  41.25100 13.28300 28.15400
H  42.02000 13.59700 26.64900
H  41.02300 14.87100 27.33300
H  44.12500 15.09000 32.58000
H  42.35500 18.05100 35.09000
H  40.98800 16.96900 35.16100
H  41.07900 18.09700 33.86200
Mg 26.70900 50.19700 26.36800
C  24.61300 51.17500 29.02400
C  29.24500 49.71400 28.66200
C  28.67700 49.51500 23.84200
C  24.26600 51.57300 24.11300
N  26.91500 50.53600 28.58500
C  25.92800 50.81800 29.48600
C  26.39900 50.70800 30.96500
C  27.94500 50.43300 30.81500
C  28.07900 50.14500 29.28700
C  28.86300 51.53800 31.30100
C  25.72900 49.63100 31.91200
C  24.88600 50.15400 33.04000
H  24.54000 49.30000 34.26200
N  28.69300 49.73900 26.29100
C  29.53800 49.54200 27.29200
C  30.81600 49.01700 26.78600
C  30.71600 49.09300 25.36100
C  29.35200 49.47000 25.10000
C  31.91000 48.50700 27.63700
C  31.74400 48.85400 24.34500
O  31.48900 49.01400 23.22000
C  33.21700 48.58100 24.70300
N  26.53400 50.50400 24.29800
C  27.43100 49.91900 23.44600
C  26.89900 50.01700 22.04100
C  25.48800 50.65500 22.13800
C  25.40700 50.96500 23.59900
C  28.04100 50.85000 21.22200
C  24.33700 49.84800 21.52500
C  23.31600 50.62100 20.66600
N  24.85000 51.16800 26.43500
C  23.99200 51.65800 25.47300
C  22.82400 52.16600 26.10400
C  22.98600 52.02300 27.46500
C  24.26500 51.41100 27.68000
C  21.60200 52.72900 25.37200
C  22.44300 52.23600 28.81500
O  21.36800 52.74600 29.16000
C  23.49500 51.69600 29.83600
C  23.92700 52.83000 30.77500
O  24.79300 53.69900 30.47100
O  23.09200 52.84600 31.80700
C  23.34200 53.77200 32.90900
H  30.02900 49.51700 29.39600
H  29.28200 49.28300 22.96400
H  23.52700 51.98100 23.42000
H  26.33000 51.67900 31.45700
H  28.22900 49.45800 31.21100
H  28.30200 52.41100 31.63300
H  29.32400 51.91300 30.38700
H  29.52500 51.10300 32.05000
H  26.46200 48.98800 32.39900
H  25.15800 48.99300 31.23800
H  23.93900 50.32700 32.53000
H  25.10500 51.19400 33.28200
H  31.88100 47.41900 27.68400
H  31.76000 48.77000 28.68500
H  32.93600 48.78200 27.39300
H  33.30300 47.81400 25.47300
H  33.84200 49.39700 25.06400
H  33.59400 48.31100 23.71700
H  26.85700 49.01000 21.62600
H  25.64700 51.66300 21.75400
H  28.53100 50.13700 20.56000
H  28.75500 51.28500 21.92200
H  27.76700 51.77900 20.72300
H  23.94000 49.15400 22.26600
H  24.72400 49.16000 20.77300
H  22.41100 50.49200 21.26000
H  23.16300 50.29000 19.63900
H  23.53700 51.68800 20.64100
H  21.02400 51.91800 24.92900
H  21.88300 53.42300 24.58000
H  20.93800 53.12300 26.14100
H  22.90500 50.95000 30.36800
H  23.73200 54.72700 32.55800
H  24.09200 53.28300 33.53000
H  22.46800 53.98700 33.52300

