158

Mg 46.92200 24.96700 29.35600
C  48.02000 27.09700 32.01200
C  46.56200 22.51400 31.69900
C  46.85600 22.63900 26.93900
C  48.02800 27.30500 27.19200
N  47.26500 24.81900 31.63400
C  47.64800 25.84800 32.48100
C  47.37500 25.44300 33.94700
C  47.02900 23.88500 33.81400
C  46.89900 23.73500 32.27300
C  48.00100 22.94000 34.47100
C  46.23100 26.23600 34.66200
C  46.64200 26.97300 35.97300
H  45.49000 27.09600 36.98600
N  46.48900 22.92900 29.26600
C  46.33400 22.10600 30.39100
C  46.06000 20.73700 29.93900
C  46.17800 20.72300 28.49800
C  46.41400 22.15400 28.15200
C  45.67700 19.59300 30.84000
C  46.10700 19.59800 27.53200
O  46.09100 19.80500 26.30100
C  46.03100 18.16200 27.95400
N  47.19000 25.02000 27.29700
C  47.10600 23.91000 26.46000
C  47.42000 24.30500 25.03200
C  47.56200 25.88700 25.11900
C  47.56400 26.14600 26.60000
C  48.71200 23.59200 24.45700
C  46.38900 26.62300 24.50900
C  46.83000 27.75600 23.54900
N  47.68100 26.87300 29.48500
C  48.02400 27.75400 28.52200
C  48.51400 28.95600 29.05200
C  48.43900 28.82900 30.46000
C  48.02100 27.47200 30.67500
C  48.97300 30.06300 28.13100
C  48.69200 29.44300 31.73900
O  49.15600 30.55000 31.95700
C  48.53000 28.28800 32.76400
C  49.86400 28.00100 33.45300
O  50.60000 27.10400 33.09600
O  49.98200 28.78300 34.54300
C  50.89700 28.26000 35.57200
H  46.25900 21.75200 32.42000
H  47.08200 21.84400 26.22500
H  48.38700 27.99300 26.42500
H  48.29500 25.57400 34.51600
H  46.05700 23.80800 34.30000
H  48.94400 23.41000 34.74800
H  48.39200 22.20700 33.76500
H  47.39200 22.42500 35.21300
H  45.32200 25.64500 34.77600
H  45.85700 27.00100 33.98100
H  46.94700 27.98000 35.69000
H  47.57400 26.51700 36.30800
H  46.49700 18.88100 30.74400
H  44.73500 19.06300 30.69400
H  45.74500 19.90900 31.88100
H  45.16500 18.13900 28.61600
H  46.87600 17.97500 28.61600
H  45.93300 17.48700 27.10400
H  46.57600 24.08300 24.37900
H  48.53400 26.09500 24.67300
H  49.38900 23.17000 25.19900
H  49.34500 24.22900 23.84000
H  48.34900 22.83400 23.76200
H  45.88600 27.23900 25.25400
H  45.68800 25.93400 24.03700
H  46.80400 28.69300 24.10600
H  46.15700 27.75400 22.69200
H  47.85400 27.59600 23.20900
H  48.10000 30.65500 27.85200
H  49.34300 29.56900 27.23300
H  49.64200 30.76200 28.63300
H  47.82600 28.58400 33.54100
H  50.94700 29.04600 36.32500
H  51.93200 28.22900 35.23100
H  50.69300 27.23700 35.89000
Mg 36.14900 48.82100 24.69300
C  35.95100 47.31800 27.85300
C  35.53600 51.85700 26.19300
C  36.09300 50.15100 21.73300
C  36.77000 45.65300 23.41100
N  35.68300 49.43700 26.85700
C  35.76200 48.66900 27.97000
C  35.67300 49.52300 29.23500
C  35.37200 50.93300 28.62500
C  35.57700 50.74000 27.06600
C  33.90200 51.51900 29.01400
C  37.01700 49.34800 30.05000
C  36.82400 49.32400 31.62900
H  35.55400 49.82000 32.34900
N  35.84000 50.73000 24.04400
C  35.69600 51.84400 24.86700
C  35.79300 53.02800 24.06200
C  35.96800 52.59600 22.71000
C  36.04600 51.12200 22.75600
C  35.94200 54.45500 24.71900
C  36.07600 53.48500 21.41800
O  36.40300 52.95500 20.34500
C  35.79800 55.00700 21.46000
N  36.22100 48.03900 22.83700
C  36.07600 48.76400 21.77300
C  36.35700 48.01200 20.49000
C  37.00100 46.68600 20.99200
C  36.70700 46.77000 22.54100
C  35.12700 47.72000 19.49100
C  38.42000 46.27000 20.53900
C  38.94000 44.79000 20.65700
N  36.21500 46.87900 25.49200
C  36.49100 45.68800 24.76400
C  36.63400 44.59400 25.66800
C  36.34000 45.16100 26.90200
C  36.07700 46.53400 26.70000
C  37.08800 43.20000 25.32400
C  36.16500 44.87000 28.35800
O  36.12600 43.83000 28.98500
C  35.95500 46.25000 28.99300
C  34.80800 46.14100 29.84600
O  33.65400 46.40100 29.49300
O  35.15000 45.61300 31.01600
C  34.07400 44.93400 31.69000
H  35.36300 52.79100 26.73200
H  36.11000 50.55000 20.71700
H  36.95500 44.67100 22.97000
H  34.88400 49.17200 29.89900
H  36.15500 51.57100 29.03500
H  33.94600 52.40200 29.65200
H  33.42900 50.74100 29.61300
H  33.46000 51.68000 28.03100
H  37.56200 50.27800 29.88500
H  37.64700 48.53000 29.70100
H  37.69400 49.82300 32.05600
H  36.87800 48.26100 31.86100
H  36.67500 55.06700 24.19300
H  36.29900 54.44200 25.74900
H  34.95900 54.91900 24.78800
H  35.36100 55.13100 20.46900
H  36.74700 55.50200 21.66400
H  34.99400 55.26800 22.14900
H  37.19300 48.51300 20.00200
H  36.36900 45.85200 20.68800
H  34.15300 48.03500 19.86400
H  35.06200 46.64600 19.32200
H  35.29600 48.28600 18.57400
H  39.02500 47.00200 21.07400
H  38.59700 46.49800 19.48800
H  38.10900 44.08700 20.59500
H  39.40900 44.58300 21.61800
H  39.56100 44.66500 19.77000
H  37.75200 43.20600 24.46000
H  36.27000 42.52000 25.08200
H  37.81600 42.72700 25.98300
H  36.81000 46.32800 29.66500
H  33.49100 44.33600 30.98900
H  33.35500 45.64900 32.09200
H  34.41700 44.37500 32.56000

