158

Mg 48.67000 45.81000 43.07000
C  45.22300 46.35200 42.12100
C  48.43200 42.82900 41.41800
C  51.88100 45.63900 43.38400
C  48.65200 49.21700 44.14800
N  46.98100 44.81700 41.87500
C  45.74000 45.23800 41.54700
C  45.00000 44.21000 40.57200
C  45.98700 42.98300 40.73000
C  47.23000 43.59900 41.37600
C  45.45800 41.77100 41.48800
C  44.80100 44.76200 39.16800
C  43.36800 44.51700 38.65500
H  43.22400 44.40700 37.13200
N  50.00800 44.43000 42.53700
C  49.70400 43.22100 41.90700
C  50.90400 42.38900 41.91900
C  51.92400 43.28700 42.44300
C  51.28900 44.51400 42.84300
C  51.09700 40.98200 41.48100
C  53.40900 42.84700 42.60300
O  53.81800 41.73100 42.25200
C  54.42400 43.65300 43.23200
N  50.08000 47.25800 43.68000
C  51.38100 46.90000 43.74100
C  52.23500 48.06800 44.37100
C  51.11500 49.14900 44.75700
C  49.90300 48.56000 44.06400
C  53.11700 47.50200 45.44800
C  51.40000 50.66500 44.58000
C  51.35400 51.49600 45.85500
N  47.24500 47.40100 43.26800
C  47.39900 48.70500 43.73000
C  46.13600 49.37600 43.66700
C  45.21400 48.42000 43.09200
C  45.99200 47.29000 42.82400
C  45.94400 50.74400 44.17700
C  43.81900 48.19400 42.71500
O  42.82200 48.92700 42.77600
C  43.90100 46.92300 41.88600
C  42.76400 46.05900 42.45300
O  41.71500 45.81100 41.83400
O  43.08300 45.57200 43.70000
C  42.11300 44.65200 44.33500
H  48.45600 41.90000 40.84300
H  52.95800 45.62500 43.56200
H  48.64700 50.18400 44.65500
H  44.04000 44.07200 41.07000
H  46.25900 42.67800 39.72000
H  44.88400 42.11700 42.34800
H  46.26600 41.05400 41.63700
H  44.85000 41.17800 40.80400
H  45.54000 44.56800 38.39000
H  44.94600 45.82000 39.39100
H  42.83800 45.38200 39.05300
H  42.87700 43.65900 39.11600
H  50.09600 40.55600 41.41100
H  51.57000 40.32900 42.21400
H  51.57500 40.88300 40.50600
H  54.25500 44.07700 44.22100
H  54.50800 44.53100 42.59200
H  55.39200 43.15100 43.23900
H  52.73500 48.38200 43.45500
H  50.87500 48.96100 45.80400
H  52.80200 48.03100 46.34800
H  54.11500 47.92000 45.31600
H  53.22900 46.43000 45.60800
H  50.84400 51.15600 43.78100
H  52.44400 50.67900 44.26600
H  51.39500 50.86900 46.74500
H  50.44500 52.08700 45.96300
H  52.20700 52.17300 45.80200
H  46.52300 50.86000 45.09300
H  44.90300 50.98600 44.39000
H  46.22100 51.50500 43.44600
H  43.73400 47.24300 40.85700
H  42.48500 44.25400 45.27900
H  41.96300 43.80800 43.66200
H  41.11700 45.08100 44.43900
Mg 41.51200 42.17700 26.62900
C  40.72300 44.55200 29.17600
C  42.51400 40.01600 29.00600
C  42.26200 40.07300 24.25000
C  40.58100 44.55800 24.27900
N  41.76200 42.38000 28.85300
C  41.28900 43.41500 29.69600
C  41.47900 43.05400 31.18400
C  42.09100 41.59400 31.07500
C  42.15000 41.27400 29.60200
C  43.45400 41.31400 31.91100
C  40.15700 43.14700 32.00200
C  40.05000 42.37100 33.37300
H  39.58100 43.08400 34.75700
N  42.27000 40.26100 26.63300
C  42.58200 39.50000 27.72100
C  43.05900 38.29100 27.28100
C  43.05500 38.30900 25.90500
C  42.54900 39.58100 25.52400
C  43.54900 37.18800 28.20800
C  43.41000 37.22700 24.91400
O  43.19000 37.33600 23.74400
C  43.99500 36.02800 25.38400
N  41.46400 42.32100 24.60400
C  41.69800 41.26700 23.83400
C  41.43300 41.56500 22.29800
C  40.90100 42.99200 22.39900
C  40.93500 43.33800 23.85400
C  42.70400 41.43400 21.34500
C  39.50900 43.00800 21.77200
C  38.41800 42.21600 22.45700
N  40.86300 44.17800 26.64000
C  40.57800 45.02900 25.59000
C  40.14600 46.29700 26.06000
C  40.06400 46.15100 27.50000
C  40.59000 44.85000 27.79000
C  39.53700 47.38200 25.17300
C  39.69800 46.78200 28.76400
O  39.19300 47.87400 28.98100
C  40.12500 45.78200 29.85800
C  41.14500 46.49800 30.73900
O  42.28100 46.70700 30.31000
O  40.78000 46.53600 32.02300
C  41.84900 46.72900 33.01800
H  42.54600 39.25100 29.78500
H  42.48100 39.42600 23.39700
H  40.22600 45.30800 23.56800
H  42.19400 43.76500 31.59800
H  41.35200 40.92900 31.52200
H  43.77100 42.22300 32.42200
H  44.33500 40.96400 31.37300
H  43.23200 40.51500 32.61900
H  39.36600 42.89700 31.29600
H  40.07200 44.21200 32.21900
H  40.93900 41.78400 33.60300
H  39.24000 41.66800 33.17900
H  42.74000 36.45900 28.25100
H  43.71500 37.51300 29.23500
H  44.40900 36.66300 27.79100
H  44.98800 36.26600 25.76500
H  44.16900 35.33400 24.56200
H  43.31400 35.59800 26.11900
H  40.73800 40.72700 22.24000
H  41.53600 43.76800 21.97200
H  43.61800 41.37300 21.93600
H  42.69700 42.24800 20.62000
H  42.65300 40.47800 20.82300
H  39.70900 42.69900 20.74600
H  39.20900 44.05400 21.70600
H  38.67700 41.49300 23.23100
H  38.07300 41.56300 21.65600
H  37.61800 42.86100 22.82000
H  38.74000 47.85200 25.74900
H  39.05700 47.12200 24.22900
H  40.30100 48.11600 24.92100
H  39.26500 45.56000 30.49100
H  41.60400 47.71300 33.41800
H  42.86900 46.65700 32.64100
H  41.67300 45.98700 33.79700

