158

Mg 40.09400 8.27600 29.85600
C  41.91300 9.85200 32.53100
C  38.02800 7.05300 32.20700
C  38.41400 6.72200 27.44800
C  42.57100 9.29100 27.67800
N  40.07400 8.35100 32.05100
C  40.77000 9.17300 32.94600
C  40.22300 9.07900 34.37000
C  39.12400 8.06600 34.20200
C  39.08400 7.79200 32.76000
C  39.32800 6.81700 35.16000
C  39.61300 10.44200 34.82700
C  38.99400 10.63200 36.21400
H  39.73500 11.44600 37.24500
N  38.34100 7.08600 29.82200
C  37.66400 6.69400 30.91400
C  36.57200 5.88900 30.51500
C  36.63300 5.75800 29.07900
C  37.82900 6.51400 28.74300
C  35.54500 5.40900 31.46800
C  35.69200 5.00800 28.11700
O  35.85100 4.80500 26.91700
C  34.49800 4.40400 28.71400
N  40.37300 8.06400 27.83900
C  39.54900 7.42900 27.01800
C  40.00700 7.40400 25.57100
C  41.13600 8.52000 25.60400
C  41.37000 8.64000 27.13300
C  40.47200 6.00300 25.01300
C  40.63100 9.83600 24.86100
C  39.60800 10.79700 25.49100
N  41.94500 9.23500 30.01400
C  42.83800 9.62400 29.02200
C  43.90600 10.35200 29.61400
C  43.55800 10.45400 30.99500
C  42.39500 9.72000 31.21000
C  45.11200 10.80800 28.96000
C  43.95900 11.07700 32.23200
O  44.91200 11.87000 32.48500
C  42.89200 10.76600 33.25900
C  43.35600 10.10100 34.46800
O  44.04400 9.09000 34.39700
O  43.06800 10.90100 35.56800
C  43.66200 10.39900 36.81700
H  37.32800 6.80300 33.00800
H  37.74500 6.31500 26.68700
H  43.26200 9.67700 26.92600
H  40.94600 8.71400 35.10000
H  38.12800 8.46800 34.38600
H  40.39500 6.66600 35.32500
H  39.06100 5.83200 34.77700
H  38.71400 6.85800 36.06000
H  39.07400 10.95300 34.02900
H  40.53300 11.01800 34.92600
H  38.65000 9.70000 36.66300
H  38.08300 11.12800 35.87900
H  34.67000 6.05500 31.41500
H  36.00500 5.41800 32.45700
H  35.34300 4.35400 31.28000
H  34.64300 3.52000 29.33500
H  33.74700 4.05700 28.00500
H  33.99200 5.06600 29.41700
H  39.16800 7.71200 24.94700
H  42.04000 8.17200 25.10500
H  40.77400 5.31500 25.80200
H  41.28700 6.11100 24.29700
H  39.58400 5.60300 24.52300
H  40.30000 9.59100 23.85100
H  41.46100 10.53700 24.94400
H  39.23800 10.15600 26.29200
H  38.70400 11.16000 25.00000
H  39.90100 11.65100 26.10200
H  45.48000 11.73400 29.40200
H  44.92600 11.00100 27.90400
H  45.95400 10.12000 29.02800
H  42.46500 11.75300 33.43500
H  43.68300 11.13800 37.61700
H  44.70000 10.08300 36.70700
H  43.09200 9.53500 37.15700
Mg 47.15500 45.21400 43.53000
C  43.81700 44.24800 43.14200
C  47.97000 41.94000 42.89500
C  50.28600 46.22700 43.13900
C  46.03300 48.57200 43.43800
N  45.94600 43.32600 42.96700
C  44.63800 43.13500 42.90100
C  44.23700 41.72500 42.64400
C  45.55400 40.95800 42.78500
C  46.59000 42.13300 42.90900
C  45.68900 39.91800 43.90800
C  43.43500 41.29600 41.34800
C  43.66100 42.10900 40.04400
H  43.22500 41.61000 38.58100
N  48.91700 44.26300 43.10600
C  49.04400 42.85800 43.00100
C  50.43800 42.53800 42.92600
C  51.20700 43.76100 42.76600
C  50.19300 44.82000 43.03200
C  50.95600 41.09500 42.89300
C  52.70000 43.88400 42.51700
O  53.32800 42.84600 42.22600
C  53.40300 45.15100 42.41700
N  47.98000 47.09100 43.33900
C  49.32900 47.26700 43.28600
C  49.82300 48.73200 43.44000
C  48.44100 49.46300 43.49300
C  47.39500 48.31800 43.39000
C  50.85700 49.00700 44.57000
C  48.22400 50.52600 42.35600
C  49.37000 51.58100 42.21000
N  45.29400 46.24000 43.42400
C  45.01500 47.62600 43.47000
C  43.57400 47.87900 43.40500
C  43.06800 46.54800 43.37500
C  44.11700 45.60400 43.31500
C  42.85000 49.13900 43.53800
C  41.83100 45.71800 43.35300
O  40.64800 46.04100 43.30600
C  42.31700 44.20800 43.32800
C  41.75400 43.48500 44.48300
O  40.80600 42.68200 44.42300
O  42.40900 43.79500 45.65700
C  41.74100 43.42300 46.91700
H  48.27400 40.90000 42.76100
H  51.33600 46.50400 43.25500
H  45.81000 49.64100 43.44400
H  43.54000 41.55600 43.46500
H  45.73300 40.35700 41.89400
H  44.76500 39.98100 44.48200
H  46.49400 40.02500 44.63500
H  45.83000 38.94200 43.44200
H  42.39200 41.32300 41.66100
H  43.54300 40.23700 41.11200
H  44.69500 42.42000 39.89700
H  43.03900 42.98700 40.22000
H  50.41700 40.51700 43.64400
H  51.97700 40.93000 43.23600
H  50.80600 40.59300 41.93700
H  52.96100 45.76800 41.63500
H  54.46600 44.99900 42.23100
H  53.34600 45.70500 43.35400
H  50.28300 48.97800 42.48200
H  48.36900 50.01500 44.43000
H  51.85400 48.70300 44.25100
H  50.54700 48.29900 45.33800
H  50.85100 50.03100 44.94500
H  47.37000 51.10800 42.70300
H  47.86300 50.05800 41.44000
H  49.05100 52.58800 42.47700
H  49.68200 51.56200 41.16600
H  50.25700 51.32800 42.79100
H  42.02800 49.21200 44.25000
H  42.43000 49.26200 42.54000
H  43.61000 49.91500 43.63700
H  41.86600 43.67700 42.49000
H  42.14500 42.47500 47.27100
H  40.69800 43.19600 46.69500
H  41.88300 44.19200 47.67700

