158

Mg 0.68900 -2.01800 45.29900
C  4.19100 -1.16100 44.49500
C  -0.30900 0.70000 43.54700
C  -2.41400 -3.24700 45.42600
C  2.04300 -5.18400 46.33800
N  1.83900 -0.50900 44.08200
C  3.21800 -0.25000 43.92900
C  3.46200 1.17600 43.42200
C  2.00100 1.70300 43.15800
C  1.07600 0.56800 43.66600
C  1.71000 3.04700 43.93100
C  4.42100 1.29600 42.14800
C  5.24600 2.68800 42.06000
H  5.41700 3.19300 40.57000
N  -1.16100 -1.36700 44.61600
C  -1.37300 -0.20800 43.93500
C  -2.79800 -0.06900 43.59200
C  -3.44900 -1.26400 44.08600
C  -2.32800 -2.01700 44.72700
C  -3.46300 1.10500 42.82000
C  -4.97100 -1.58300 44.06400
O  -5.74900 -0.83100 43.48100
C  -5.55000 -2.81900 44.75300
N  -0.01300 -3.97800 45.69700
C  -1.41600 -4.08000 45.92100
C  -1.71500 -5.42500 46.62700
C  -0.28800 -6.11900 46.83700
C  0.61500 -5.04200 46.28200
C  -2.58300 -5.35700 47.90900
C  -0.18300 -7.39600 45.96300
C  -0.29500 -8.72200 46.73400
N  2.69800 -2.95700 45.54300
C  3.06500 -4.24600 45.95200
C  4.47500 -4.37600 46.09700
C  5.00400 -3.24200 45.52700
C  3.88400 -2.40100 45.14600
C  5.19100 -5.53200 46.88100
C  6.21300 -2.50600 45.31500
O  7.38300 -2.79900 45.56300
C  5.76800 -1.10300 44.64000
C  6.25400 -0.01400 45.52000
O  6.17800 0.00000 46.71800
O  6.91300 0.97900 44.79500
C  7.53900 2.05400 45.65500
H  -0.62600 1.72700 43.35300
H  -3.38200 -3.70900 45.63000
H  2.20800 -6.16700 46.78400
H  3.80700 1.65700 44.33700
H  1.81800 1.87200 42.09700
H  1.96300 3.79200 43.17600
H  2.41600 3.12000 44.75800
H  0.67200 3.12500 44.25500
H  3.87100 1.36000 41.20900
H  5.10100 0.44500 42.18100
H  6.26300 2.68400 42.45200
H  4.68500 3.43200 42.62500
H  -2.88800 2.03100 42.79500
H  -4.29300 1.56500 43.35600
H  -3.82500 0.74600 41.85700
H  -5.18800 -2.72500 45.77700
H  -5.20900 -3.67700 44.17200
H  -6.63800 -2.84500 44.79600
H  -2.31200 -5.86600 45.82900
H  -0.17700 -6.50400 47.85100
H  -3.22000 -4.47300 47.86800
H  -1.90600 -5.16400 48.74100
H  -3.14400 -6.27200 48.10200
H  0.82000 -7.54600 45.56500
H  -0.87000 -7.43100 45.11700
H  -1.06100 -9.41800 46.39300
H  -0.79000 -8.35000 47.63100
H  0.56000 -9.39500 46.79600
H  5.44300 -5.00500 47.80200
H  6.08800 -5.69200 46.28400
H  4.52600 -6.38100 47.04000
H  6.29900 -0.93700 43.70300
H  8.30600 1.59000 46.27500
H  6.88300 2.63400 46.30400
H  8.08700 2.73900 45.00700
Mg 46.77400 16.91400 27.46900
C  44.56500 16.62000 30.41400
C  48.79300 18.72500 29.46700
C  48.26300 17.70700 24.71000
C  43.83200 15.66600 25.66800
N  46.43500 17.92600 29.70500
C  45.75200 17.32300 30.68400
C  46.27000 17.74800 32.05700
C  47.46100 18.71400 31.62200
C  47.57400 18.47900 30.14500
C  47.37100 20.21100 32.11300
C  46.67900 16.49500 32.85300
C  46.76200 16.72700 34.30500
H  46.97700 18.12500 34.90700
N  48.33200 18.01800 27.17000
C  49.15400 18.57800 28.10100
C  50.41300 18.96100 27.46200
C  50.20100 18.73700 26.11100
C  48.94600 18.04300 25.97100
C  51.64800 19.34600 28.19000
C  51.23900 19.15400 24.92300
O  50.97000 18.85600 23.78500
C  52.55700 19.78000 25.26400
N  46.12200 16.67000 25.56000
C  46.98100 17.13200 24.54400
C  46.38000 16.93900 23.11300
C  44.99100 16.14300 23.46100
C  44.95500 16.14000 24.99200
C  46.22800 18.31800 22.40800
C  44.89400 14.70500 22.76000
C  43.67300 14.46100 21.86900
N  44.65600 16.07500 27.92100
C  43.62000 15.61600 27.06800
C  42.45700 15.27900 27.91100
C  42.84900 15.64700 29.22500
C  44.14200 16.16600 29.16400
C  41.11700 14.69600 27.42600
C  42.37900 15.60200 30.58400
O  41.38600 15.14000 31.04500
C  43.54200 16.18600 31.47500
C  43.09200 17.29000 32.29800
O  42.88600 18.43100 31.82800
O  42.75700 16.87900 33.58700
C  42.29500 17.94700 34.47100
H  49.48900 19.19700 30.16300
H  48.85000 17.81200 23.79600
H  42.96100 15.30900 25.11500
H  45.52800 18.22300 32.70000
H  48.38400 18.34300 32.07000
H  46.65400 20.28000 32.93100
H  47.01400 20.74600 31.23400
H  48.34500 20.61700 32.38500
H  47.68100 16.18200 32.55800
H  46.05600 15.60200 32.80400
H  47.46800 15.98100 34.66900
H  45.78500 16.49200 34.72800
H  52.48000 18.69700 27.91800
H  51.45300 19.39100 29.26200
H  51.84500 20.35100 27.81600
H  52.42700 20.74000 25.76400
H  53.20600 19.86600 24.39200
H  53.10200 19.07400 25.89100
H  46.97900 16.22400 22.55000
H  44.18600 16.80100 23.13200
H  46.53900 19.14000 23.05400
H  45.17700 18.42100 22.13900
H  46.86000 18.29500 21.52000
H  44.99300 13.97000 23.55900
H  45.80800 14.67100 22.16800
H  43.18900 13.48900 21.96800
H  43.95200 14.55800 20.82000
H  42.90200 15.19500 22.10300
H  40.84600 15.08500 26.44400
H  40.37800 15.05300 28.14300
H  41.18000 13.61000 27.48600
H  43.93000 15.35500 32.06400
H  41.84700 18.77400 33.92000
H  43.09400 18.37400 35.07800
H  41.52300 17.62600 35.17000

