158

Mg 17.29200 -2.58500 28.29600
C  16.48700 -0.25000 30.64700
C  19.09300 -4.32000 30.56900
C  18.57800 -4.43700 25.73100
C  15.88600 -0.45400 25.82900
N  17.73400 -2.24600 30.35700
C  17.22200 -1.34400 31.19700
C  17.68700 -1.55400 32.65800
C  18.68700 -2.72100 32.49700
C  18.49400 -3.10300 31.05000
C  20.27400 -2.43000 32.75600
C  16.43800 -1.90500 33.54200
C  16.28400 -1.20400 34.88200
H  17.53800 -0.64100 35.53400
N  18.48400 -4.25400 28.18900
C  19.13300 -4.83500 29.26900
C  19.83300 -6.04000 28.90200
C  19.70800 -6.06600 27.48700
C  18.93700 -4.87800 27.03800
C  20.61200 -7.05700 29.86500
C  20.29100 -7.00500 26.55900
O  20.20300 -6.85000 25.36000
C  21.00700 -8.20700 27.09500
N  17.35800 -2.39300 26.14600
C  17.96400 -3.29000 25.32000
C  17.76900 -3.02800 23.85200
C  16.79100 -1.81800 23.88600
C  16.65900 -1.54900 25.39200
C  19.04800 -2.63200 23.14800
C  15.49900 -2.04400 23.15000
C  15.02100 -0.82300 22.35100
N  16.33300 -0.70200 28.20600
C  15.77000 0.04400 27.15700
C  15.00700 1.12700 27.69000
C  15.27200 1.05000 29.10300
C  16.05000 -0.04900 29.31900
C  14.15600 2.09100 26.90500
C  15.01400 1.71000 30.40200
O  14.36400 2.67800 30.64700
C  15.83400 0.87500 31.48400
C  16.70000 1.71800 32.38200
O  17.91900 1.82700 32.37300
O  15.88900 2.42300 33.26500
C  16.51500 3.50800 34.02700
H  19.58000 -4.72500 31.45900
H  18.80700 -5.17400 24.95900
H  15.51800 0.20700 25.04100
H  18.23800 -0.63600 32.86300
H  18.39800 -3.52600 33.17200
H  20.76200 -2.01900 31.87200
H  20.79200 -3.30900 33.13800
H  20.34100 -1.64600 33.51100
H  16.36100 -2.98900 33.62700
H  15.59100 -1.69900 32.88800
H  15.72800 -1.83900 35.57200
H  15.57800 -0.38000 34.77500
H  21.66500 -6.78400 29.93300
H  20.50400 -8.12400 29.66700
H  20.19800 -6.83400 30.84800
H  21.62500 -8.56200 26.27000
H  20.35600 -8.95700 27.54300
H  21.74100 -7.95500 27.86000
H  17.49900 -3.94400 23.32700
H  17.30300 -0.98000 23.41400
H  19.62600 -2.04900 23.86600
H  18.98000 -2.01400 22.25200
H  19.62500 -3.54900 23.03500
H  14.76300 -2.38400 23.87800
H  15.68800 -2.78800 22.37600
H  14.08800 -0.41900 22.74400
H  14.95800 -1.14000 21.31100
H  15.77000 -0.03400 22.28200
H  13.98100 3.09200 27.29900
H  13.24000 1.59600 26.58200
H  14.76200 2.22800 26.00900
H  15.12100 0.37000 32.13500
H  17.53800 3.30900 34.34700
H  16.03000 3.54400 35.00200
H  16.40600 4.31700 33.30400
Mg 26.33400 50.91400 26.05900
C  24.10400 51.97900 28.63800
C  28.39100 49.89600 28.54600
C  28.39400 50.21200 23.65300
C  24.14800 52.28200 23.79200
N  26.24300 50.90800 28.38200
C  25.20500 51.39700 29.13900
C  25.45600 51.09300 30.65000
C  26.91000 50.39100 30.59000
C  27.22500 50.44800 29.10800
C  28.00100 51.06500 31.48500
C  24.39900 50.16100 31.30900
C  24.82100 49.36600 32.62200
H  23.68800 49.32000 33.70400
N  28.16900 50.21100 26.12300
C  28.90200 49.77600 27.22200
C  30.21000 49.31700 26.77900
C  30.22700 49.48500 25.38800
C  28.93800 50.00000 25.05000
C  31.14700 48.64700 27.73400
C  31.35700 49.14500 24.45100
O  31.27700 49.39300 23.27200
C  32.66100 48.56700 25.01400
N  26.26200 51.11200 24.05600
C  27.19200 50.67200 23.25700
C  26.84500 50.85200 21.81000
C  25.32300 51.36800 21.87100
C  25.19900 51.57800 23.34400
C  27.77900 51.79200 21.10200
C  24.35800 50.38300 21.18000
C  24.02800 50.76800 19.75900
N  24.58100 52.02100 26.14300
C  23.83900 52.55500 25.11100
C  22.61700 53.17500 25.63000
C  22.71800 53.05700 27.03900
C  23.90200 52.30500 27.27900
C  21.50600 53.70200 24.76200
C  22.01500 53.21500 28.31800
O  20.91100 53.67600 28.64200
C  22.96900 52.50000 29.37400
C  23.31700 53.58500 30.39400
O  24.19300 54.44800 30.29300
O  22.61700 53.38200 31.54200
C  23.01300 54.10000 32.76800
H  29.09300 49.63900 29.34200
H  29.09100 50.02700 22.83300
H  23.42700 52.62500 23.04800
H  25.51100 52.00100 31.25100
H  26.75000 49.35600 30.89300
H  28.86200 51.31300 30.86500
H  28.26800 50.38700 32.29600
H  27.63200 51.97500 31.95900
H  24.13500 49.51600 30.47100
H  23.57500 50.81400 31.59800
H  25.68100 49.82500 33.10900
H  24.98800 48.36400 32.22700
H  31.06600 47.57500 27.55500
H  30.80800 48.78300 28.76100
H  32.17300 49.01200 27.69100
H  33.23900 48.26300 24.14100
H  32.50700 47.73200 25.69900
H  33.10300 49.42100 25.52800
H  26.88400 49.86400 21.34900
H  25.22500 52.38600 21.49200
H  28.47600 52.27000 21.79000
H  27.25900 52.60600 20.59700
H  28.39800 51.24800 20.38900
H  23.39800 50.26800 21.68400
H  24.85400 49.41300 21.14800
H  24.56400 50.09000 19.09600
H  24.35600 51.75700 19.43700
H  22.94600 50.71200 19.64000
H  21.96700 54.49400 24.17100
H  20.69700 54.02300 25.41800
H  21.07000 52.94900 24.10500
H  22.52700 51.62400 29.84700
H  23.37700 55.09200 32.50300
H  23.70000 53.52400 33.38800
H  22.11800 54.19500 33.38300

