158

Mg 1.88000 -1.68600 44.13400
C  5.45000 -0.96400 43.97700
C  1.40200 1.23700 42.37600
C  -1.25600 -2.68300 43.92200
C  2.85900 -4.95800 45.35800
N  3.29300 -0.11100 43.29500
C  4.66700 0.04500 43.38800
C  5.08800 1.24600 42.58600
C  3.81800 1.96400 42.23700
C  2.75800 0.95200 42.65300
C  3.67900 3.30900 43.04100
C  5.84000 0.86700 41.25500
C  7.25600 1.54000 41.14000
H  8.19200 0.89600 40.02700
N  0.25400 -0.82400 43.31700
C  0.24200 0.41400 42.62100
C  -1.15500 0.72100 42.33300
C  -1.89900 -0.45000 42.69900
C  -0.97100 -1.35300 43.39900
C  -1.59300 2.13100 41.89300
C  -3.36700 -0.64100 42.55800
O  -3.97200 0.34900 42.15800
C  -4.23500 -1.89700 42.69000
N  0.96800 -3.60500 44.48100
C  -0.38000 -3.65300 44.46400
C  -0.82800 -5.13900 44.79600
C  0.45700 -5.80600 45.22400
C  1.54900 -4.73300 44.99000
C  -2.07700 -5.20000 45.81300
C  0.91400 -7.11500 44.42400
C  1.28900 -8.25600 45.43100
N  3.74100 -2.81000 44.66300
C  3.97300 -4.10200 45.08100
C  5.43200 -4.27400 45.39000
C  5.99200 -3.01700 44.98000
C  4.96500 -2.18800 44.45100
C  6.09400 -5.52700 45.96200
C  7.30100 -2.24600 44.87000
O  8.45100 -2.63500 45.13700
C  6.94200 -0.89500 44.25300
C  7.16400 0.27400 45.19600
O  6.41900 0.72400 46.01400
O  8.37600 0.81500 44.89000
C  8.64300 2.18000 45.44100
H  1.30800 2.19800 41.86600
H  -2.32400 -2.89500 44.01100
H  3.16500 -5.92100 45.77100
H  5.82000 1.77100 43.20000
H  3.69000 2.17300 41.17500
H  4.63900 3.81900 43.11500
H  3.25600 3.11300 44.02600
H  3.00900 3.98500 42.51000
H  5.20000 1.04700 40.39100
H  5.97800 -0.21400 41.25800
H  7.69800 1.77000 42.11000
H  6.99300 2.52600 40.75800
H  -0.89300 2.79700 42.39700
H  -2.54300 2.31600 42.39400
H  -1.73100 2.24600 40.81800
H  -3.68700 -2.65400 42.12900
H  -5.27800 -1.79700 42.39100
H  -4.27500 -2.12500 43.75500
H  -1.08200 -5.47700 43.79200
H  0.47600 -5.95300 46.30300
H  -1.92200 -5.95500 46.58400
H  -2.99800 -5.47400 45.29900
H  -2.19200 -4.28200 46.38800
H  1.78200 -6.89800 43.80200
H  0.21600 -7.44500 43.65400
H  0.90000 -9.22100 45.10700
H  1.09700 -8.02900 46.48000
H  2.36900 -8.40600 45.40500
H  6.77000 -5.32600 46.79300
H  6.65100 -5.84800 45.08200
H  5.41200 -6.25000 46.40900
H  7.56300 -0.77100 43.36600
H  8.07400 3.03600 45.07900
H  9.68400 2.45600 45.27000
H  8.63900 2.20100 46.53100
Mg 29.73800 57.55800 39.20900
C  26.88900 55.51500 38.69900
C  31.69000 55.08100 37.79300
C  32.39100 59.65500 39.31700
C  27.58900 60.18800 40.03800
N  29.31700 55.57400 38.31400
C  28.06900 54.87100 38.36800
C  28.23500 53.43700 37.93000
C  29.72800 53.44600 37.53700
C  30.29400 54.78500 37.86500
C  30.53800 52.24700 38.25000
C  27.29700 52.81300 36.73100
C  27.01600 53.83200 35.59900
H  27.79600 53.78000 34.30800
N  31.75400 57.39000 38.68500
C  32.35500 56.25200 38.14300
C  33.78100 56.53400 38.03700
C  34.08600 57.88400 38.47100
C  32.74300 58.37600 38.89900
C  34.64000 55.52200 37.50200
C  35.39800 58.53500 38.28600
O  36.38200 57.91800 37.83400
C  35.57500 59.92400 38.65900
N  29.91400 59.60600 39.46100
C  31.15800 60.23000 39.57300
C  31.06400 61.68600 40.05600
C  29.49700 61.84400 40.22300
C  28.92100 60.45700 39.88600
C  31.89200 62.08800 41.26500
C  28.88900 62.91500 39.26500
C  27.74000 63.62800 39.92800
N  27.71300 57.79300 39.51000
C  26.98000 58.91100 39.83900
C  25.55200 58.64800 39.84500
C  25.46000 57.30300 39.42900
C  26.80100 56.81300 39.24400
C  24.37800 59.55500 40.12500
C  24.50300 56.22400 39.16300
O  23.25300 56.19100 39.18800
C  25.40400 55.02700 38.56500
C  25.13700 53.84500 39.41700
O  25.61200 53.61300 40.50200
O  24.11500 53.14600 38.85500
C  23.82600 51.86200 39.55600
H  32.33600 54.30900 37.36900
H  33.15900 60.43200 39.31800
H  26.94900 61.03400 40.29900
H  28.03800 52.87900 38.84500
H  29.85700 53.25700 36.47100
H  31.27400 51.77400 37.60000
H  29.76400 51.50300 38.43600
H  31.05800 52.60200 39.14000
H  26.41500 52.31200 37.12900
H  27.94000 52.02100 36.34700
H  27.02900 54.83900 36.01500
H  25.96800 53.61000 35.39500
H  34.83500 55.63300 36.43600
H  34.26300 54.50100 37.56600
H  35.57900 55.48800 38.05400
H  35.39700 59.95500 39.73400
H  34.98100 60.68200 38.14700
H  36.61600 60.22600 38.54900
H  31.42000 62.31500 39.24000
H  29.33500 62.19500 41.24200
H  32.40300 63.04300 41.14200
H  32.58900 61.28500 41.50500
H  31.18300 62.18100 42.08800
H  28.71200 62.40100 38.32100
H  29.67700 63.65400 39.11900
H  26.89600 63.54300 39.24300
H  27.88000 64.70300 40.04300
H  27.37800 63.32400 40.91000
H  24.01300 59.52700 41.15100
H  23.64600 59.30500 39.35600
H  24.62300 60.59500 39.91000
H  25.06500 54.78000 37.55900
H  24.65300 51.31800 40.01300
H  23.29400 51.16600 38.90800
H  23.22500 52.16000 40.41500

