158

Mg -1.87900 17.35600 26.63800
C  -2.30400 15.01600 29.47000
C  -2.23400 19.94000 28.93900
C  -1.84400 19.53800 24.21100
C  -2.51400 14.64800 24.52300
N  -2.29000 17.43900 28.93600
C  -2.26200 16.32700 29.84800
C  -2.48500 16.87100 31.23000
C  -2.53800 18.43800 31.01700
C  -2.33400 18.63200 29.55600
C  -3.77200 19.16200 31.51000
C  -1.42400 16.37300 32.26600
C  -0.85600 17.33800 33.30400
H  -0.22200 16.83400 34.62400
N  -2.04200 19.46500 26.58800
C  -2.10500 20.37600 27.61500
C  -1.89400 21.71800 27.13700
C  -1.70900 21.63100 25.73900
C  -1.81900 20.19300 25.48700
C  -1.86600 22.87800 27.97900
C  -1.29400 22.69400 24.75300
O  -1.06600 22.37600 23.58700
C  -0.94800 24.15000 25.23500
N  -2.29500 17.11200 24.70200
C  -2.12200 18.22300 23.83400
C  -2.30400 17.75800 22.34500
C  -2.49800 16.22300 22.52100
C  -2.44600 15.94200 24.01400
C  -3.28400 18.55900 21.50400
C  -1.45100 15.41400 21.60200
C  -0.02200 15.32500 22.24900
N  -2.22200 15.26400 26.87900
C  -2.39800 14.29600 25.88600
C  -2.52700 12.96300 26.49500
C  -2.42800 13.25200 27.89400
C  -2.24100 14.64100 28.07900
C  -2.86900 11.61600 25.81500
C  -2.54600 12.63000 29.24300
O  -2.61000 11.45800 29.53800
C  -2.40500 13.78100 30.35000
C  -1.11100 13.59900 31.14600
O  0.03300 13.79500 30.65900
O  -1.42300 13.14700 32.33800
C  -0.37900 13.10700 33.32500
H  -2.22100 20.77500 29.64300
H  -1.88400 20.23500 23.37100
H  -2.65200 13.91600 23.72400
H  -3.45200 16.57400 31.63700
H  -1.68300 18.95500 31.45200
H  -3.50800 19.95000 32.21600
H  -4.37100 18.46000 32.09000
H  -4.40800 19.49400 30.69000
H  -0.56300 16.09900 31.65700
H  -1.95700 15.56300 32.76400
H  -1.67000 17.97800 33.64300
H  -0.12900 17.94900 32.76900
H  -2.10300 22.65300 29.01900
H  -2.58400 23.64300 27.68200
H  -0.88100 23.33400 27.88300
H  -0.25700 24.21500 26.07500
H  -1.99000 24.46500 25.29200
H  -0.44100 24.69100 24.43600
H  -1.32200 17.93200 21.90600
H  -3.53400 16.11400 22.20200
H  -3.89200 17.85700 20.93300
H  -2.63500 19.06500 20.78900
H  -3.87700 19.29500 22.04600
H  -1.34800 15.77800 20.58000
H  -1.83200 14.42200 21.35900
H  0.68600 15.78900 21.56100
H  0.28800 14.29200 22.40400
H  -0.00800 15.79800 23.23000
H  -3.43900 11.77700 24.90100
H  -3.38900 10.96000 26.51300
H  -1.94400 11.11800 25.52400
H  -3.24800 13.71700 31.03800
H  -0.42400 14.06700 33.83800
H  0.62800 12.90600 32.96000
H  -0.58500 12.27600 34.00000
Mg -10.62200 37.80500 42.44700
C  -9.01300 34.97800 40.92400
C  -8.49100 39.74200 40.92400
C  -12.92400 40.38500 42.65100
C  -13.06300 35.58100 43.70700
N  -9.05100 37.36100 40.90100
C  -8.51000 36.21700 40.51900
C  -7.21200 36.38200 39.70200
C  -6.92800 37.90100 40.01700
C  -8.21800 38.33500 40.69400
C  -5.64900 38.31400 40.78200
C  -7.44300 35.94000 38.26200
C  -6.47500 35.01300 37.56700
H  -5.47700 35.76600 36.61300
N  -10.60900 39.85500 41.96400
C  -9.49400 40.50700 41.51700
C  -9.66400 41.88900 41.58000
C  -11.02700 42.09400 41.96300
C  -11.62800 40.72600 42.27800
C  -8.51100 42.80600 41.32000
C  -11.59000 43.48800 42.28200
O  -10.95700 44.45100 41.93000
C  -12.92700 43.72700 43.07200
N  -12.66800 37.95200 43.07500
C  -13.42200 39.12400 43.03000
C  -14.88000 38.88900 43.51900
C  -14.84200 37.37600 43.79500
C  -13.44400 36.90800 43.45300
C  -15.19700 39.80500 44.78200
C  -15.84900 36.54800 43.07600
C  -16.87700 35.81300 43.96800
N  -10.84500 35.73200 42.56900
C  -11.84200 34.98500 43.16700
C  -11.52100 33.53600 43.10200
C  -10.36900 33.56500 42.27000
C  -10.04700 34.85200 41.86900
C  -12.27900 32.31200 43.66100
C  -9.24800 32.69700 41.66600
O  -8.95600 31.51700 41.88500
C  -8.34200 33.65800 40.81500
C  -7.02300 33.46800 41.46600
O  -6.16700 32.67200 41.12500
O  -6.82600 34.38500 42.44300
C  -5.60700 34.14100 43.19500
H  -7.62300 40.32300 40.60700
H  -13.64300 41.20500 42.70800
H  -13.87900 34.97100 44.09900
H  -6.33100 35.86800 40.08300
H  -6.81700 38.51200 39.12100
H  -5.07500 37.39900 40.92600
H  -5.91200 38.72100 41.75800
H  -5.09800 39.04700 40.19200
H  -7.52100 36.83100 37.63900
H  -8.43800 35.49600 38.22200
H  -6.88300 34.26500 36.88800
H  -5.76800 34.50500 38.22200
H  -8.63000 43.88400 41.42800
H  -8.22100 42.57300 40.29500
H  -7.68200 42.43000 41.91900
H  -13.80000 43.36600 42.52900
H  -12.99300 44.78700 43.31700
H  -12.85200 43.29400 44.06900
H  -15.59300 39.23800 42.77200
H  -15.06600 37.18400 44.84400
H  -14.36300 40.50000 44.88400
H  -15.24300 39.30800 45.75100
H  -16.13600 40.29800 44.53200
H  -15.33700 35.77500 42.50200
H  -16.46100 37.17100 42.42500
H  -17.85300 36.12600 43.59800
H  -16.90000 36.16600 44.99900
H  -16.82300 34.73400 43.82500
H  -13.11200 32.03400 43.01500
H  -12.68800 32.62600 44.62100
H  -11.62900 31.44000 43.73300
H  -8.28300 33.40200 39.75700
H  -5.42800 34.88900 43.96800
H  -4.71100 34.25600 42.58500
H  -5.59000 33.23100 43.79400

