158

Mg 8.60200 2.98800 27.35400
C  9.66200 1.12200 30.18500
C  6.60400 4.92700 29.40200
C  7.43900 4.37600 24.55000
C  10.29300 0.47900 25.31500
N  8.17100 2.85900 29.49400
C  8.80800 2.16600 30.53100
C  8.45700 2.71500 31.92300
C  7.45400 3.92200 31.52700
C  7.36900 3.89100 30.03100
C  5.98300 3.66800 32.02900
C  9.82300 3.11000 32.70200
C  9.63400 4.04100 33.87600
H  10.45200 3.72700 35.21100
N  7.16900 4.40100 27.06700
C  6.50500 5.13800 28.01400
C  5.69200 6.12900 27.31000
C  5.93900 5.94700 25.86000
C  6.90800 4.85700 25.79300
C  4.76000 7.08500 28.05900
C  5.34800 6.67000 24.72000
O  5.50500 6.44000 23.51300
C  4.38100 7.85900 25.07200
N  8.84900 2.53000 25.23800
C  8.27600 3.29400 24.26700
C  8.64500 2.78000 22.79300
C  9.41200 1.44800 23.09300
C  9.50500 1.43000 24.64400
C  7.41800 2.63300 21.85200
C  10.81900 1.26500 22.32300
C  10.96600 -0.01000 21.46600
N  9.87200 1.22400 27.61000
C  10.46700 0.31000 26.73600
C  11.18600 -0.74300 27.47500
C  10.92900 -0.40900 28.83400
C  10.13200 0.76700 28.88300
C  11.97400 -1.90000 26.84200
C  11.18200 -0.88900 30.20500
O  11.77300 -1.82700 30.71600
C  10.41000 0.17100 31.09900
C  9.44600 -0.56000 31.99600
O  8.59500 -1.33200 31.60800
O  9.67700 -0.24500 33.35000
C  8.67400 -0.69300 34.31200
H  6.04900 5.57200 30.08600
H  7.32400 4.98100 23.64800
H  10.81900 -0.31100 24.77600
H  8.00700 1.95400 32.56000
H  7.85000 4.90100 31.80000
H  6.01100 2.95700 32.85500
H  5.34800 3.46600 31.16700
H  5.91500 4.68600 32.41400
H  10.38800 3.59300 31.90500
H  10.34600 2.29300 33.20000
H  8.56200 4.19100 34.00600
H  9.98400 5.03500 33.59700
H  4.83500 6.92900 29.13500
H  3.85500 6.70500 27.58400
H  4.91600 8.11200 27.72800
H  3.41700 7.58100 25.49800
H  4.19000 8.30900 24.09800
H  4.89500 8.56400 25.72500
H  9.31500 3.46600 22.27400
H  8.71400 0.63200 22.90700
H  6.48500 2.79200 22.39200
H  7.45400 1.61800 21.45800
H  7.41600 3.32700 21.01100
H  11.70600 1.13300 22.94400
H  11.05800 2.13600 21.71300
H  10.74500 0.35700 20.46400
H  10.19500 -0.74700 21.69100
H  11.98000 -0.39600 21.35700
H  12.53600 -1.59200 25.96000
H  11.39900 -2.77500 26.54000
H  12.76200 -2.14400 27.55500
H  11.16300 0.71100 31.67200
H  8.18700 -1.66700 34.25300
H  7.96500 0.09300 34.57300
H  9.24500 -0.89500 35.21800
Mg -1.67600 34.68600 26.62500
C  -3.24700 32.73200 29.11300
C  -0.60900 36.79800 29.07800
C  -0.57600 36.53400 24.27200
C  -3.29100 32.50300 24.19300
N  -1.94200 34.86200 28.84100
C  -2.54900 33.86000 29.67200
C  -2.34100 34.12500 31.15300
C  -1.58200 35.50800 31.13100
C  -1.33400 35.74100 29.59200
C  -2.14100 36.71300 31.90400
C  -1.64300 32.91900 31.92000
C  -2.30300 32.44700 33.20900
H  -1.35000 32.31100 34.32800
N  -0.67000 36.40500 26.69900
C  -0.31800 37.15100 27.76500
C  0.37200 38.35800 27.30200
C  0.41900 38.27100 25.90500
C  -0.30800 37.05900 25.55100
C  0.94200 39.37200 28.31200
C  0.98800 39.26400 24.94400
O  1.07900 39.16000 23.69900
C  1.38600 40.65800 25.53200
N  -1.93900 34.54800 24.51200
C  -1.32200 35.47800 23.78200
C  -1.55200 35.15400 22.22900
C  -2.23500 33.75600 22.28800
C  -2.52000 33.58800 23.78300
C  -2.44700 36.08300 21.41400
C  -1.53800 32.48600 21.75300
C  -0.31100 31.98900 22.60200
N  -2.96100 32.90300 26.55100
C  -3.56600 32.17700 25.53700
C  -4.41600 31.21300 26.17000
C  -4.29000 31.41400 27.56500
C  -3.37400 32.41300 27.70000
C  -5.15800 30.13100 25.44500
C  -4.76000 30.83500 28.79400
O  -5.56400 29.94000 28.98000
C  -4.16000 31.71100 29.88100
C  -5.29300 32.33700 30.69700
O  -6.00000 33.27200 30.32600
O  -5.43000 31.64300 31.86600
C  -6.63100 32.03800 32.59600
H  -0.23400 37.43100 29.88600
H  -0.24300 37.21600 23.48700
H  -3.77900 31.85700 23.46100
H  -3.34800 34.29000 31.53800
H  -0.56000 35.33100 31.46500
H  -1.49000 37.10300 32.68600
H  -3.09600 36.49200 32.38200
H  -2.22900 37.56200 31.22600
H  -0.68600 33.27500 32.30400
H  -1.54900 32.17500 31.12900
H  -2.65500 31.42600 33.05900
H  -3.14700 33.09000 33.45800
H  0.12600 40.08000 28.45300
H  1.87600 39.89100 28.09300
H  1.25900 38.80400 29.18600
H  2.25200 40.50400 26.17700
H  0.48800 41.04300 26.01400
H  1.70300 41.38200 24.78100
H  -0.61700 35.04300 21.68100
H  -3.28600 33.72200 22.00300
H  -3.20500 35.60200 20.79700
H  -1.89100 36.55200 20.60200
H  -2.94900 36.88100 21.96100
H  -1.19500 32.81500 20.77300
H  -2.24200 31.65700 21.67100
H  -0.78400 31.54700 23.47900
H  0.23600 32.87000 22.93700
H  0.40100 31.30500 22.14000
H  -6.07000 30.55900 25.02900
H  -5.48000 29.36200 26.14800
H  -4.63300 29.71300 24.58500
H  -3.61000 31.09600 30.59300
H  -7.47300 32.39900 32.00600
H  -6.41900 32.87800 33.25700
H  -6.88500 31.16600 33.19900

