158

Mg 8.31400 3.66600 27.62100
C  9.54500 2.00500 30.51700
C  6.34900 5.52200 29.68800
C  7.03000 4.90600 24.90700
C  9.78700 1.03600 25.74300
N  7.89200 3.63300 29.85400
C  8.65800 3.06100 30.82800
C  8.21700 3.51600 32.23700
C  6.97300 4.44900 31.96700
C  7.08800 4.59600 30.37300
C  5.49700 4.10200 32.40000
C  9.35900 4.16900 33.14900
C  8.90800 4.93500 34.37600
H  9.78400 4.79000 35.63000
N  6.99000 5.19200 27.29900
C  6.26500 5.85100 28.26600
C  5.41200 6.78200 27.64200
C  5.67700 6.61800 26.25000
C  6.60000 5.56000 26.10800
C  4.54100 7.74700 28.41200
C  5.03600 7.43100 25.11400
O  5.24100 7.27600 23.96000
C  4.09600 8.60600 25.39000
N  8.31800 2.92400 25.63500
C  7.84600 3.75000 24.69600
C  8.13100 3.15600 23.27900
C  9.07600 1.96900 23.57200
C  9.11900 2.00800 25.08200
C  6.78900 2.64500 22.60900
C  10.48700 2.10000 22.90200
C  10.96400 0.87400 22.05100
N  9.42900 1.85300 28.01500
C  9.92300 0.87200 27.16600
C  10.68700 -0.08800 27.87300
C  10.56000 0.28200 29.18400
C  9.75800 1.48100 29.21500
C  11.43800 -1.30400 27.23500
C  10.97200 -0.12600 30.56600
O  11.67400 -1.04100 31.03000
C  10.34000 1.02000 31.46200
C  9.44500 0.31800 32.43700
O  8.44800 -0.35300 32.16100
O  9.90500 0.50000 33.73700
C  9.24600 -0.17700 34.81500
H  5.81000 6.28800 30.25000
H  6.65100 5.27100 23.95100
H  10.31800 0.28100 25.16000
H  7.84100 2.57800 32.64300
H  7.10300 5.50500 32.20600
H  4.74300 4.45000 31.69400
H  5.31700 4.67500 33.31000
H  5.30100 3.03000 32.37600
H  9.96800 4.84600 32.55000
H  9.96300 3.40700 33.64000
H  7.97100 4.45100 34.64900
H  8.82800 6.00900 34.20900
H  3.54200 7.68500 27.98100
H  5.00300 8.71400 28.61300
H  4.38000 7.26100 29.37400
H  3.12600 8.39800 25.84300
H  3.78800 9.00100 24.42200
H  4.73300 9.31500 25.91800
H  8.64500 3.86400 22.62800
H  8.56100 1.05100 23.28700
H  5.94700 2.85800 23.26700
H  6.78200 1.60400 22.28500
H  6.83100 3.15200 21.64500
H  11.29300 2.06700 23.63500
H  10.65100 3.01700 22.33500
H  10.13700 0.17500 21.93000
H  11.79900 0.39300 22.56100
H  11.34900 1.21200 21.08900
H  12.10900 -1.75200 27.96800
H  12.17400 -1.01700 26.48500
H  10.80300 -2.03500 26.73300
H  11.10600 1.46200 32.09900
H  9.98000 -0.80400 35.32100
H  8.41100 -0.74700 34.40800
H  8.86900 0.51300 35.57000
Mg 27.49700 50.26900 26.98500
C  25.31700 51.44000 29.40500
C  29.77600 49.61100 29.40900
C  29.65000 49.56500 24.50200
C  25.33300 51.51700 24.58500
N  27.54900 50.56200 29.24500
C  26.43100 50.82600 30.01900
C  26.73300 50.68800 31.52700
C  28.28800 50.18500 31.47800
C  28.54200 50.11600 29.95500
C  29.38200 50.89900 32.34200
C  25.78700 49.64600 32.25400
C  25.12600 50.21900 33.45000
H  24.82900 49.31100 34.66000
N  29.40800 49.51400 26.96800
C  30.20100 49.36100 28.06200
C  31.52500 48.91900 27.66900
C  31.50900 48.99600 26.19800
C  30.17900 49.34500 25.81600
C  32.62700 48.64600 28.61800
C  32.71000 48.77900 25.26600
O  32.56300 48.83500 24.06400
C  34.08600 48.42400 25.78800
N  27.50500 50.46700 24.80700
C  28.46500 50.06800 24.00400
C  28.18900 50.43600 22.58300
C  26.68800 50.92600 22.60300
C  26.46300 50.92500 24.14200
C  29.29700 51.43800 22.08600
C  25.58200 50.11000 21.84600
C  24.90300 50.99000 20.72200
N  25.69900 51.24400 26.92000
C  24.94900 51.71300 25.91600
C  23.72700 52.26800 26.42700
C  23.81300 52.17600 27.78700
C  25.01000 51.54100 28.01900
C  22.61100 52.82400 25.57300
C  23.16500 52.47300 28.98800
O  22.05300 52.87500 29.25600
C  24.10600 52.03200 30.09700
C  24.36100 53.24700 30.90300
O  25.29800 54.02500 30.74500
O  23.43500 53.36000 31.97000
C  23.73200 54.35600 32.93100
H  30.47900 49.44000 30.22700
H  30.31700 49.40400 23.65200
H  24.59800 51.74400 23.81000
H  26.63800 51.65600 32.01900
H  28.31700 49.15500 31.83400
H  29.90000 51.58600 31.67400
H  30.05700 50.19400 32.82700
H  29.08800 51.53900 33.17400
H  26.28800 48.76300 32.65100
H  24.96700 49.37500 31.59000
H  24.15800 50.66500 33.22200
H  25.69400 51.09700 33.75900
H  32.44800 49.22700 29.52300
H  33.57300 49.01700 28.22400
H  32.72800 47.57300 28.77900
H  34.07000 47.62300 26.52700
H  34.42600 49.31800 26.31100
H  34.65900 48.21400 24.88400
H  28.30300 49.52000 22.00300
H  26.74000 51.96900 22.29300
H  28.78200 52.38800 21.94700
H  29.76300 51.12500 21.15200
H  30.07200 51.43100 22.85300
H  24.84100 49.87900 22.61100
H  25.81400 49.16900 21.34700
H  25.30600 51.99800 20.82600
H  23.84500 50.86100 20.94600
H  25.03700 50.67000 19.68900
H  22.89900 52.61400 24.54300
H  22.68100 53.91100 25.61200
H  21.60000 52.61600 25.92200
H  23.50700 51.34600 30.69500
H  23.81800 55.35000 32.49100
H  24.59800 54.15300 33.56000
H  22.82800 54.34800 33.54100

