158

Mg 8.48800 3.10700 27.12100
C  10.10800 1.49700 29.75600
C  7.07600 5.23200 29.32200
C  6.92400 4.47400 24.46400
C  9.83000 0.59500 24.95300
N  8.55300 3.31800 29.34200
C  9.40300 2.62900 30.17400
C  9.22800 3.10300 31.68900
C  8.25900 4.33300 31.55100
C  7.92900 4.32300 30.01400
C  7.09400 4.31100 32.47000
C  10.52300 3.30100 32.59000
C  10.44800 4.19400 33.83800
H  10.95600 3.51800 35.15400
N  7.17100 4.52200 26.95700
C  6.79300 5.38500 27.93400
C  5.83700 6.32000 27.39800
C  5.64800 6.02900 25.99000
C  6.65200 4.98300 25.74500
C  5.03300 7.27500 28.31100
C  4.71400 6.65500 24.99500
O  4.62400 6.29400 23.86700
C  3.62800 7.55800 25.45100
N  8.58800 2.69400 25.00600
C  7.72000 3.36700 24.19300
C  7.53900 2.47700 22.94100
C  8.57500 1.38700 23.00800
C  9.13000 1.60300 24.37900
C  6.03000 2.00200 22.74800
C  9.66800 1.37800 21.89200
C  9.69300 0.20800 20.92800
N  9.68300 1.37700 27.28900
C  10.27700 0.56800 26.30200
C  11.20500 -0.29500 26.97600
C  11.21100 0.00400 28.30800
C  10.25700 1.07300 28.46400
C  12.08100 -1.41000 26.42200
C  11.76100 -0.36400 29.68000
O  12.57600 -1.22400 30.04000
C  11.13000 0.71100 30.57300
C  10.57500 0.05100 31.82000
O  9.42900 -0.40100 31.99400
O  11.62600 0.02300 32.71100
C  11.36600 -0.31500 34.11400
H  6.72500 6.01800 29.99300
H  6.39200 4.84700 23.58600
H  10.09100 -0.28400 24.35900
H  8.70100 2.27900 32.16900
H  8.87400 5.20900 31.75900
H  6.68500 5.31900 32.54600
H  7.45500 3.94600 33.43100
H  6.35100 3.56400 32.19100
H  11.37900 3.61900 31.99500
H  10.69200 2.32300 33.04100
H  9.48300 4.62400 34.10400
H  11.11800 5.02700 33.62200
H  4.00000 7.05300 28.04400
H  5.33500 8.30900 28.14500
H  5.09300 7.11700 29.38700
H  3.14300 8.01300 24.58800
H  4.21200 8.38500 25.85600
H  2.97900 7.13100 26.21700
H  7.65700 3.16400 22.10300
H  7.96400 0.48800 22.93200
H  5.51600 2.15700 23.69700
H  5.98800 0.92300 22.60100
H  5.48700 2.49000 21.93800
H  10.63900 1.43300 22.38500
H  9.65100 2.25400 21.24400
H  8.87200 -0.48600 21.11200
H  10.61500 -0.36600 21.02100
H  9.60900 0.50000 19.88100
H  12.34700 -0.98100 25.45600
H  11.45000 -2.27900 26.23700
H  12.95700 -1.60700 27.04100
H  11.93800 1.37900 30.87000
H  11.46700 0.55200 34.76600
H  12.16500 -0.90200 34.56700
H  10.52400 -1.00000 34.21200
Mg 8.66200 47.59100 24.65800
C  6.24200 48.19600 27.23900
C  11.07600 48.72100 26.75200
C  10.81000 47.50500 22.08200
C  5.96700 47.35700 22.41000
N  8.63100 48.60700 26.68700
C  7.57000 48.41800 27.60000
C  8.00000 48.61500 29.03400
C  9.48200 49.20100 28.78900
C  9.82100 48.75100 27.35200
C  9.48800 50.77700 28.94600
C  8.10300 47.35300 29.89500
C  8.22000 47.56700 31.44300
H  7.58700 46.42300 32.18100
N  10.61800 47.85400 24.51500
C  11.46900 48.31000 25.49300
C  12.76600 48.25100 24.96800
C  12.75800 47.73800 23.61400
C  11.32500 47.65500 23.37700
C  14.05000 48.53500 25.86200
C  13.83000 47.45200 22.66400
O  13.68200 47.14300 21.48500
C  15.30200 47.63000 23.12500
N  8.36400 47.58700 22.53800
C  9.46300 47.53600 21.70000
C  9.00300 47.53100 20.22300
C  7.48500 47.05300 20.34200
C  7.21800 47.43700 21.78400
C  9.18100 48.92200 19.57900
C  7.27000 45.55600 19.98400
C  5.96400 45.22200 19.24500
N  6.50600 47.69300 24.75300
C  5.58500 47.52600 23.78700
C  4.25600 47.48500 24.42300
C  4.48000 47.74200 25.73600
C  5.84900 47.92600 25.91800
C  2.96900 47.30600 23.69200
C  3.77100 47.91600 27.01100
O  2.58100 47.81700 27.30100
C  4.87600 48.29600 28.03700
C  4.66700 47.39500 29.17800
O  4.77200 46.18800 29.17700
O  4.41900 48.16400 30.29700
C  4.12900 47.47000 31.54500
H  11.88800 49.10800 27.37300
H  11.46200 47.35800 21.21800
H  5.08300 47.04400 21.85200
H  7.36800 49.33500 29.55400
H  10.20300 48.79000 29.49600
H  9.60200 51.01800 30.00200
H  8.60800 51.18800 28.45000
H  10.34800 51.06600 28.34200
H  8.92900 46.71600 29.57800
H  7.25600 46.70600 29.66800
H  7.81000 48.52900 31.75100
H  9.28100 47.55000 31.69400
H  13.83300 49.02800 26.81000
H  14.69200 49.29900 25.42500
H  14.59700 47.61700 26.07700
H  15.57500 47.04600 24.00400
H  15.54200 48.69000 23.20200
H  15.98700 47.18200 22.40500
H  9.46900 46.74800 19.62600
H  6.93800 47.63100 19.59700
H  9.52700 49.63300 20.32900
H  8.26400 49.23700 19.08100
H  9.90700 48.73300 18.78900
H  7.18400 44.98900 20.91100
H  8.19000 45.21500 19.50800
H  5.39900 44.31900 19.47500
H  6.08900 45.19500 18.16200
H  5.30000 46.06400 19.44400
H  2.42400 46.60000 24.31800
H  3.18600 46.97300 22.67700
H  2.47300 48.27200 23.59600
H  4.68900 49.34400 28.27200
H  4.95200 47.83400 32.16000
H  4.13000 46.38400 31.46000
H  3.24600 47.91200 32.00800

