158

Mg 35.28100 48.59800 26.24000
C  35.49900 46.73000 29.25900
C  34.24600 51.20100 28.14900
C  34.84600 50.36500 23.35600
C  36.33500 45.82300 24.44300
N  35.05600 48.88400 28.51500
C  35.17300 48.05400 29.53000
C  35.24700 48.79500 30.88500
C  34.53000 50.16300 30.50900
C  34.65800 50.10900 28.96400
C  32.98100 50.28300 30.84200
C  36.73300 49.01200 31.37900
C  37.19100 48.36300 32.73600
H  37.33800 49.40300 33.84200
N  34.53900 50.40500 25.77200
C  34.10000 51.27900 26.72600
C  33.58600 52.43700 26.02800
C  33.59000 52.23700 24.59800
C  34.37400 50.99700 24.53300
C  32.84500 53.57500 26.70900
C  33.12700 53.07600 23.36000
O  33.28000 52.78800 22.16700
C  32.45500 54.43200 23.57300
N  35.60100 48.24900 24.21300
C  35.44100 49.10800 23.11500
C  35.58600 48.44900 21.76200
C  36.18600 47.06300 22.27200
C  36.14200 47.07200 23.74900
C  34.33500 48.38700 20.84800
C  37.68600 46.70000 21.85600
C  37.79700 45.39900 21.10100
N  35.78100 46.70300 26.70600
C  36.19100 45.70500 25.86100
C  36.35700 44.47200 26.64300
C  36.17000 44.81900 27.95500
C  35.72100 46.19600 27.97800
C  36.81000 43.12500 26.17400
C  36.22300 44.34000 29.31500
O  36.50600 43.26800 29.76800
C  35.66900 45.56100 30.20500
C  34.39300 45.18800 30.88900
O  33.37600 44.79000 30.37000
O  34.57600 45.30300 32.20700
C  33.41200 44.96300 33.00000
H  33.88900 52.00600 28.79400
H  34.72900 50.97100 22.45500
H  36.59600 44.90800 23.90600
H  34.61400 48.37200 31.66500
H  35.11400 50.99600 30.90000
H  32.69100 50.84900 31.72800
H  32.72600 49.24600 31.05900
H  32.30800 50.64800 30.06600
H  36.94300 50.08100 31.40200
H  37.36400 48.48400 30.66500
H  38.16200 47.88000 32.62800
H  36.45100 47.64900 33.10000
H  31.79900 53.68100 26.42100
H  33.31600 54.51200 26.41000
H  32.77800 53.50700 27.79500
H  32.15000 54.81900 22.60100
H  33.12600 55.17700 24.00000
H  31.55600 54.34100 24.18300
H  36.36100 49.01200 21.24100
H  35.52200 46.24100 22.00400
H  34.03900 47.35300 20.66900
H  34.55700 48.83900 19.88100
H  33.54900 49.03100 21.24300
H  38.28700 46.56400 22.75400
H  38.03300 47.44400 21.13900
H  38.58700 44.75200 21.48400
H  38.11600 45.68800 20.10000
H  36.81400 44.93800 21.00500
H  36.11100 42.40800 26.60400
H  37.79400 42.97400 26.61800
H  36.84300 43.06200 25.08600
H  36.43500 45.91100 30.89700
H  32.42700 45.08600 32.55000
H  33.49600 45.38400 34.00200
H  33.43900 43.88300 33.14700
Mg -12.47700 38.32900 42.56300
C  -9.83600 36.05200 41.92900
C  -10.68300 40.69800 40.85700
C  -15.19200 39.99100 42.45000
C  -14.27700 35.40600 43.66000
N  -10.53900 38.35300 41.46100
C  -9.66700 37.28300 41.31800
C  -8.49800 37.78800 40.42000
C  -8.55100 39.38300 40.49800
C  -9.99800 39.51800 40.95700
C  -7.49100 40.12400 41.36400
C  -8.63000 37.19100 39.02600
C  -7.54900 36.11600 38.73500
H  -6.58900 36.39300 37.64100
N  -12.88900 40.14700 41.89900
C  -11.96000 41.04400 41.29400
C  -12.60400 42.27400 41.06000
C  -13.99100 42.07000 41.47900
C  -14.07400 40.65700 41.97300
C  -11.94900 43.40800 40.41300
C  -15.05400 43.18200 41.50200
O  -14.78200 44.24200 40.91300
C  -16.37300 43.06600 42.20300
N  -14.51700 37.67400 42.70100
C  -15.46300 38.62100 42.80000
C  -16.77900 38.07900 43.30200
C  -16.47300 36.58700 43.53000
C  -15.01300 36.51700 43.26400
C  -17.24200 38.80900 44.63300
C  -17.32300 35.59600 42.68000
C  -17.60400 34.23200 43.37400
N  -12.07100 36.17100 42.95500
C  -12.90900 35.18900 43.41000
C  -12.11200 33.97300 43.60500
C  -10.85200 34.25400 43.07000
C  -10.97300 35.62000 42.61400
C  -12.41600 32.69000 44.22300
C  -9.44000 33.78900 42.82700
O  -8.95600 32.70600 43.13100
C  -8.79500 34.90600 41.97900
C  -7.38700 35.11500 42.45800
O  -6.35900 34.46800 42.17100
O  -7.40700 36.27000 43.14800
C  -6.21800 36.95000 43.54900
H  -10.04700 41.47200 40.42300
H  -16.15700 40.49400 42.53900
H  -14.88700 34.56600 43.99600
H  -7.54000 37.49800 40.85200
H  -8.31700 39.84900 39.54100
H  -7.96100 40.72800 42.14100
H  -6.75300 40.72900 40.83800
H  -6.95300 39.38800 41.96100
H  -8.43300 37.96100 38.27900
H  -9.61900 36.74700 38.90700
H  -8.06800 35.29500 38.24000
H  -7.07500 35.76500 39.65200
H  -12.45800 43.77800 39.52200
H  -10.94200 43.17400 40.06900
H  -11.84300 44.23500 41.11400
H  -16.17300 42.72100 43.21700
H  -17.00900 42.38000 41.64300
H  -16.91700 44.00600 42.29400
H  -17.56800 38.17700 42.55700
H  -16.58300 36.31900 44.58100
H  -17.87900 38.25300 45.32200
H  -17.83100 39.67200 44.32400
H  -16.30800 39.10200 45.11300
H  -16.68800 35.50800 41.79900
H  -18.26800 36.07200 42.41900
H  -18.67200 34.01900 43.40800
H  -17.08500 34.21000 44.33300
H  -17.18700 33.35900 42.87200
H  -13.27700 32.89200 44.86100
H  -11.60400 32.28000 44.82200
H  -12.63900 31.95300 43.45100
H  -8.67200 34.54500 40.95800
H  -6.54900 37.87400 44.02200
H  -5.59200 37.13200 42.67500
H  -5.70600 36.34900 44.30100

