158

Mg -1.62300 17.99700 27.57800
C  -2.10900 15.63400 30.13500
C  -1.86000 20.46200 29.96200
C  -1.75600 20.23900 25.02000
C  -1.61600 15.34600 25.26100
N  -1.74900 17.99700 29.84200
C  -2.01500 16.95900 30.68300
C  -2.32500 17.42900 32.12100
C  -2.58300 18.89500 31.81200
C  -2.02300 19.17400 30.47500
C  -4.12500 19.22900 32.04700
C  -1.19500 17.11300 33.15600
C  -1.46800 16.36800 34.42800
H  -0.18600 16.34600 35.34700
N  -1.57700 20.02500 27.47700
C  -1.62500 20.86300 28.62000
C  -1.45300 22.21600 28.14400
C  -1.57100 22.26300 26.72500
C  -1.68700 20.80600 26.31700
C  -1.25000 23.41000 29.05900
C  -1.40800 23.29800 25.76100
O  -1.49700 23.17300 24.57200
C  -1.02800 24.69200 26.28900
N  -1.67800 17.80500 25.45500
C  -1.75300 18.89200 24.69200
C  -1.54800 18.53200 23.19300
C  -1.24800 16.99400 23.27200
C  -1.51200 16.66500 24.74800
C  -2.75400 18.96000 22.30800
C  0.14600 16.49300 22.90500
C  1.24400 16.88400 23.86700
N  -1.76600 15.93300 27.61000
C  -1.76300 14.99500 26.57300
C  -1.97100 13.66500 27.08000
C  -2.11900 13.86500 28.48900
C  -2.06600 15.25100 28.75600
C  -1.99300 12.42300 26.32500
C  -2.39900 13.20700 29.74300
O  -2.53900 12.04000 29.94000
C  -2.31800 14.38100 30.88400
C  -1.24300 14.02900 31.76700
O  -0.05100 14.34200 31.67300
O  -1.70500 13.14000 32.76200
C  -0.70600 12.80100 33.72300
H  -2.17200 21.23700 30.66500
H  -1.65400 20.96600 24.21200
H  -1.39200 14.48600 24.62500
H  -3.25600 16.96200 32.44000
H  -2.03600 19.56800 32.47100
H  -4.67000 18.35800 32.40900
H  -4.55900 19.62300 31.12800
H  -4.20200 20.00500 32.80900
H  -0.71700 18.06600 33.38000
H  -0.39600 16.64000 32.58500
H  -1.77500 15.32900 34.31400
H  -2.34700 16.76400 34.93700
H  -0.38400 24.00300 28.76400
H  -1.25500 23.21000 30.13100
H  -2.16300 23.98100 28.89200
H  -1.15900 25.38800 25.46100
H  -0.02600 24.66400 26.71600
H  -1.83300 24.94900 26.97800
H  -0.71500 19.07500 22.74500
H  -1.85300 16.47400 22.52900
H  -2.46300 19.37700 21.34400
H  -3.33600 19.69900 22.85800
H  -3.29700 18.06500 22.00500
H  0.38300 16.85800 21.90500
H  -0.08500 15.42800 22.92000
H  0.96500 17.16300 24.88300
H  1.76600 17.72400 23.41100
H  1.77500 15.93500 23.94200
H  -1.45000 12.55100 25.38800
H  -3.04100 12.19400 26.13500
H  -1.50700 11.65700 26.92900
H  -3.25300 14.55600 31.41700
H  -0.12400 12.00800 33.25300
H  -1.22100 12.42300 34.60600
H  0.06000 13.52000 34.01200
Mg 50.22700 45.66600 42.74600
C  46.80700 46.39400 41.82800
C  49.73700 42.51000 41.59500
C  53.49500 45.17000 43.27000
C  50.65000 49.12600 43.41400
N  48.48000 44.67100 41.72100
C  47.17300 45.05500 41.57300
C  46.25900 43.97400 40.97700
C  47.21600 42.69100 41.12200
C  48.59900 43.32000 41.50800
C  46.84300 41.64100 42.23800
C  45.96900 44.33200 39.45600
C  44.46400 44.15900 39.03100
H  44.29900 43.16800 37.91200
N  51.38800 44.01700 42.54300
C  51.04000 42.81000 42.03100
C  52.17600 41.92000 41.97500
C  53.26100 42.68500 42.49300
C  52.75200 44.00400 42.73900
C  52.08400 40.49500 41.40900
C  54.69800 42.22200 42.66800
O  54.95200 41.04300 42.53500
C  55.87300 43.05200 43.13600
N  51.90700 47.05300 43.15300
C  53.11300 46.51800 43.46000
C  54.08700 47.60900 43.84400
C  53.20100 48.88800 43.73700
C  51.83100 48.36500 43.40100
C  54.80800 47.39000 45.19500
C  53.53700 50.13400 42.81200
C  55.03200 50.43200 42.65000
N  49.03200 47.37900 42.62400
C  49.35700 48.72700 42.94400
C  48.14800 49.55400 42.83900
C  47.14000 48.65100 42.44500
C  47.69800 47.35000 42.30800
C  48.09500 51.04000 43.13500
C  45.70800 48.56200 42.11500
O  44.75100 49.37100 42.14400
C  45.44300 47.02400 41.68200
C  44.38300 46.45500 42.54400
O  44.59900 46.02200 43.67700
O  43.17800 46.45200 41.86800
C  42.09100 45.84200 42.70400
H  49.60000 41.43500 41.45800
H  54.55300 45.06700 43.52100
H  50.65200 50.19100 43.65500
H  45.33700 43.81200 41.53600
H  47.25700 42.13600 40.18500
H  46.90800 40.74300 41.62300
H  45.83900 41.81300 42.62400
H  47.43500 41.66900 43.15300
H  46.52100 43.65000 38.80900
H  46.27600 45.35100 39.22200
H  43.98600 45.12100 38.84400
H  43.81400 43.70600 39.77900
H  51.31300 40.43200 40.64100
H  51.90400 39.78600 42.21600
H  53.05400 40.17700 41.02700
H  55.77000 43.42400 44.15500
H  56.10100 43.82900 42.40700
H  56.80000 42.49800 42.98700
H  54.85100 47.56700 43.06800
H  53.21500 49.28600 44.75100
H  55.68500 46.75100 45.08600
H  54.28700 46.74400 45.90200
H  55.00300 48.25700 45.82600
H  53.04000 51.02100 43.20500
H  53.17300 50.03500 41.79000
H  55.17800 50.44000 41.57000
H  55.71300 49.81100 43.23200
H  55.16100 51.47300 42.94600
H  48.78800 51.57400 42.48500
H  48.46000 51.02300 44.16200
H  47.08200 51.44300 43.13000
H  45.09900 46.95800 40.65000
H  41.11400 46.25700 42.45400
H  42.24300 45.88000 43.78300
H  42.09300 44.81400 42.34300

