158

Mg 45.79000 6.39400 48.13000
C  43.50800 8.92300 47.34600
C  43.52200 4.12900 47.00600
C  48.28500 4.12100 48.03400
C  48.25100 8.95300 48.68700
N  43.78800 6.48400 47.19500
C  43.05700 7.62000 47.16700
C  41.65700 7.33100 46.63100
C  41.57500 5.81000 46.94800
C  43.06100 5.43700 46.98300
C  40.75400 5.34800 48.18600
C  41.61000 7.70900 45.08600
C  40.22400 8.18500 44.59900
H  39.66000 7.48600 43.36500
N  45.89900 4.43900 47.75900
C  44.85700 3.66400 47.34000
C  45.34700 2.30400 47.17700
C  46.74600 2.29100 47.36100
C  47.01600 3.70500 47.76800
C  44.39200 1.24200 46.64800
C  47.61000 1.09600 47.26000
O  47.08900 -0.04200 47.14400
C  48.99300 1.01300 47.32000
N  47.96600 6.55400 48.30400
C  48.74900 5.42400 48.28500
C  50.16400 5.70300 48.74800
C  50.09400 7.16800 49.31400
C  48.75000 7.60800 48.68400
C  50.91800 4.62400 49.71700
C  51.23400 8.07600 48.92500
C  51.48100 9.28900 49.94600
N  45.90700 8.53200 48.18500
C  46.92700 9.42500 48.39200
C  46.38700 10.80000 48.26100
C  45.07800 10.64800 47.87800
C  44.81800 9.23800 47.78400
C  47.09800 12.07300 48.57200
C  43.81500 11.32800 47.56100
O  43.62700 12.56000 47.57500
C  42.78500 10.19700 47.20800
C  41.77500 10.28000 48.35000
O  41.95200 9.94400 49.48700
O  40.53300 10.64100 47.83300
C  39.32300 10.54000 48.65100
H  42.69300 3.42000 46.95400
H  49.13100 3.43200 48.08200
H  48.89900 9.73900 49.07800
H  40.90100 7.90100 47.17100
H  41.08000 5.31800 46.11000
H  39.72300 5.09200 47.94300
H  40.83000 6.17800 48.88800
H  41.20600 4.42700 48.55500
H  42.02800 6.91400 44.46900
H  42.39600 8.43600 44.88000
H  40.29800 9.25900 44.42600
H  39.46300 7.99500 45.35500
H  44.92200 0.53300 46.01200
H  43.57300 1.76100 46.15000
H  43.88800 0.84300 47.52800
H  49.26700 -0.03900 47.24900
H  49.31300 1.25300 48.33400
H  49.46900 1.57700 46.51800
H  50.69600 5.80900 47.80300
H  49.88400 7.14500 50.38300
H  50.29200 3.82800 50.12000
H  51.45600 5.14700 50.50700
H  51.74700 4.16800 49.17600
H  51.07000 8.66200 48.02100
H  52.20700 7.62400 48.73400
H  52.38700 9.05500 50.50600
H  50.58900 9.47300 50.54500
H  51.68700 10.23700 49.45000
H  46.86600 12.33900 49.60300
H  46.77000 12.92000 47.96900
H  48.17100 11.88100 48.54400
H  42.35700 10.38900 46.22400
H  39.24900 11.47100 49.21200
H  39.35100 9.68400 49.32600
H  38.38500 10.43400 48.10600
Mg 27.20900 50.51800 26.41900
C  25.09800 51.82500 29.13400
C  29.39900 49.33400 28.87900
C  29.38000 49.81900 23.95300
C  25.21400 52.40500 24.27900
N  27.27300 50.68900 28.69500
C  26.24200 51.05200 29.54600
C  26.54100 50.71300 31.02500
C  28.03700 50.02900 30.87800
C  28.25700 49.94500 29.38300
C  29.21500 50.71000 31.71800
C  25.49300 49.87800 31.77000
C  24.99000 50.55600 33.09000
H  26.07800 50.85600 34.17300
N  29.05300 49.50000 26.36800
C  29.82900 49.17200 27.47000
C  31.03600 48.60300 27.03800
C  31.01100 48.71400 25.56800
C  29.77000 49.36400 25.25900
C  31.88600 47.82200 27.92400
C  32.06500 48.27800 24.56900
O  32.00700 48.45800 23.37500
C  33.34700 47.64700 25.14400
N  27.31500 51.06300 24.50600
C  28.26500 50.65100 23.61500
C  27.97700 51.05300 22.17500
C  26.54200 51.58600 22.28400
C  26.33500 51.68800 23.78000
C  29.08100 51.92200 21.50200
C  25.38100 50.64400 21.75300
C  24.16300 51.34900 21.01400
N  25.44700 51.81900 26.59800
C  24.76500 52.50400 25.63400
C  23.57500 53.12600 26.17700
C  23.67500 52.89200 27.55900
C  24.85800 52.13700 27.77400
C  22.56600 53.82700 25.41900
C  23.00100 53.03000 28.79300
O  21.96400 53.62500 29.02000
C  23.97200 52.47700 29.86900
C  24.46700 53.60400 30.65500
O  25.48400 54.24200 30.53100
O  23.59100 53.62800 31.72900
C  24.10800 54.67200 32.67400
H  30.06800 48.99800 29.67400
H  30.03900 49.69700 23.09100
H  24.50500 52.87500 23.59500
H  26.54200 51.62000 31.62900
H  27.90800 48.98100 31.14900
H  29.63000 49.83100 32.21200
H  28.90400 51.49900 32.40200
H  29.86300 51.08200 30.92500
H  25.89600 48.92700 32.11800
H  24.62800 49.72300 31.12600
H  24.31700 49.79500 33.48600
H  24.37600 51.41200 32.81000
H  32.95800 48.00100 27.84600
H  31.83800 46.74300 27.77300
H  31.63900 47.94500 28.97800
H  33.03000 46.70700 25.59700
H  33.85100 48.25500 25.89500
H  33.96700 47.51900 24.25700
H  27.94900 50.15000 21.56500
H  26.42700 52.54500 21.77800
H  30.04500 51.88200 22.00900
H  28.60600 52.90100 21.44800
H  29.12900 51.59900 20.46200
H  24.94600 49.98900 22.50800
H  25.84900 49.96500 21.04000
H  24.29200 51.20900 19.94100
H  24.10700 52.42100 21.20000
H  23.18300 50.95200 21.27800
H  21.82400 54.34900 26.02300
H  22.12300 53.24100 24.61300
H  23.14800 54.65600 25.01700
H  23.37400 51.80600 30.48500
H  25.06700 54.42300 33.12600
H  23.60100 54.75400 33.63600
H  24.09400 55.67000 32.23700

