158

Mg 48.21100 15.92900 28.13000
C  46.06500 15.81800 30.95900
C  50.50400 17.68400 30.15100
C  50.13400 15.92600 25.51100
C  45.46800 14.45800 26.28200
N  48.22600 16.59900 30.34300
C  47.27900 16.44300 31.26600
C  47.71300 16.85100 32.65400
C  49.02600 17.71300 32.31100
C  49.26000 17.35700 30.84100
C  48.85200 19.18500 32.47700
C  48.06200 15.56800 33.50500
C  48.81300 15.72800 34.87400
H  48.78300 17.08800 35.53400
N  50.02900 16.79100 27.81200
C  50.81700 17.44000 28.76500
C  52.08400 17.75800 28.08200
C  52.05900 17.31200 26.74900
C  50.73000 16.59500 26.63100
C  53.14800 18.63800 28.69600
C  53.16800 17.37400 25.70100
O  53.04200 16.81700 24.61000
C  54.48800 18.04500 25.96600
N  47.76000 15.57700 26.14800
C  48.89300 15.47800 25.33700
C  48.44700 14.88600 23.96600
C  47.08100 14.19000 24.28700
C  46.70100 14.76200 25.64700
C  48.38100 15.93700 22.82800
C  46.99200 12.64400 24.11500
C  46.23100 11.96900 22.87400
N  46.12300 15.28900 28.49000
C  45.20900 14.68400 27.66100
C  43.94300 14.41400 28.35700
C  44.23400 14.76500 29.63800
C  45.56400 15.26000 29.67600
C  42.62300 13.94000 27.78500
C  43.67300 14.96900 30.92700
O  42.53000 14.73100 31.34500
C  44.82100 15.58000 31.80700
C  44.31100 16.75500 32.51000
O  44.15700 17.91800 32.20600
O  43.74200 16.21600 33.62200
C  43.23500 17.15600 34.65800
H  51.12600 18.29100 30.81100
H  50.88700 15.77300 24.73500
H  44.77500 13.89100 25.65700
H  46.90000 17.43400 33.08600
H  49.86400 17.34800 32.90400
H  48.14900 19.45300 33.26600
H  48.64700 19.58200 31.48300
H  49.85000 19.51000 32.77100
H  48.76700 14.98800 32.91000
H  47.13000 15.02100 33.65000
H  49.86500 15.49000 34.71600
H  48.45300 14.98500 35.58600
H  53.29800 19.50100 28.04700
H  54.08000 18.07600 28.65000
H  53.00000 18.81200 29.76200
H  55.19200 18.04900 25.13400
H  54.98300 17.43800 26.72300
H  54.35900 19.11600 26.12200
H  49.19100 14.10400 23.81500
H  46.30300 14.64500 23.67400
H  48.91700 16.78600 23.25000
H  47.39100 16.38600 22.75100
H  48.72900 15.68600 21.82600
H  46.48200 12.25400 24.99600
H  47.95000 12.12400 24.14400
H  46.80100 11.45000 22.10300
H  45.66000 12.61500 22.20800
H  45.52400 11.22700 23.24300
H  42.57500 12.85300 27.84400
H  42.50800 14.15400 26.72200
H  41.82800 14.33700 28.41500
H  45.04600 14.73100 32.45200
H  42.14900 17.12500 34.57100
H  43.56600 18.18700 34.53100
H  43.69500 16.91000 35.61600
Mg 35.96100 48.92100 26.21800
C  36.23800 46.79200 28.96500
C  34.61200 51.38100 28.44700
C  35.49500 50.91500 23.58400
C  37.01100 46.35300 24.21400
N  35.51400 49.03600 28.40900
C  35.82100 48.08100 29.30500
C  35.70400 48.63900 30.80600
C  34.95200 50.01300 30.57300
C  35.09000 50.16600 29.07200
C  33.34700 49.91300 30.96200
C  37.09700 48.81800 31.43600
C  37.27100 48.55500 32.95000
H  35.98900 48.46000 33.81800
N  35.24200 50.89600 26.04900
C  34.72400 51.72700 27.06900
C  34.31500 52.97000 26.40800
C  34.61200 52.88400 24.95800
C  35.14100 51.51700 24.80200
C  33.78200 54.19300 27.15600
C  34.32000 53.85400 23.94400
O  34.72300 53.73400 22.81000
C  33.37700 54.96300 24.13100
N  35.97400 48.53600 24.18700
C  35.84500 49.57900 23.32800
C  35.96300 49.01800 21.84600
C  36.75600 47.64900 22.09300
C  36.59800 47.48300 23.60100
C  34.58600 48.96600 21.15900
C  38.27500 47.49300 21.63000
C  39.18700 48.58700 22.11100
N  36.44700 47.03100 26.50600
C  36.98000 46.11000 25.56300
C  37.34900 44.86300 26.21500
C  37.05000 45.13200 27.55600
C  36.53800 46.42600 27.68400
C  38.03000 43.68600 25.57100
C  36.98800 44.61300 28.89700
O  37.34200 43.50900 29.23400
C  36.47300 45.63900 29.86600
C  35.25800 45.23500 30.55800
O  34.18500 44.90400 30.05400
O  35.46200 45.12500 31.91300
C  34.39200 44.70100 32.72800
H  34.10300 52.10600 29.08500
H  35.58000 51.47000 22.64800
H  37.35800 45.44100 23.72300
H  35.01900 48.04600 31.41200
H  35.31500 50.90600 31.08400
H  33.02800 48.95800 30.54400
H  32.80200 50.70700 30.45200
H  33.21800 49.99900 32.04100
H  37.35600 49.86100 31.25600
H  37.81700 48.14700 30.96600
H  37.83100 49.40100 33.34600
H  37.92000 47.68700 33.06800
H  32.69500 54.19200 27.07900
H  34.19400 55.06000 26.64100
H  34.23600 54.14100 28.14600
H  32.45900 54.65200 24.62900
H  33.05000 55.24200 23.12900
H  33.80500 55.88300 24.52800
H  36.61000 49.66500 21.25400
H  36.21600 46.83400 21.61100
H  34.54300 49.50600 20.21300
H  33.82400 49.37600 21.82200
H  34.26500 47.94700 20.94300
H  38.15200 47.60900 20.55300
H  38.48400 46.48300 21.98100
H  38.60700 49.48700 22.31700
H  39.99200 48.93000 21.46100
H  39.67500 48.25100 23.02600
H  38.75800 44.05100 24.84700
H  37.34900 42.97500 25.10400
H  38.47700 43.08400 26.36200
H  37.28300 45.79500 30.57900
H  34.79400 44.71200 33.74100
H  34.05500 43.68800 32.51000
H  33.67400 45.51900 32.78800

