158

Mg 42.00500 40.68500 27.32900
C  41.44000 43.30000 29.75600
C  42.67800 38.54000 30.04800
C  42.64900 38.21800 25.27400
C  41.59900 43.02400 24.90600
N  41.88200 40.87500 29.65400
C  41.61800 42.01100 30.35500
C  41.72300 41.71100 31.80000
C  42.32700 40.24700 31.92000
C  42.29100 39.81800 30.45600
C  43.81200 40.28600 32.56200
C  40.38500 41.92500 32.56200
C  40.29800 42.82500 33.75900
H  39.45800 42.15700 35.00000
N  42.59800 38.68700 27.59200
C  42.84200 38.01500 28.77400
C  43.21100 36.65000 28.44500
C  43.18300 36.50100 27.07200
C  42.78300 37.83700 26.60600
C  43.54300 35.60100 29.52200
C  43.34500 35.22600 26.24700
O  43.22900 35.18300 25.02700
C  43.48400 33.97300 26.91800
N  42.08600 40.65600 25.41100
C  42.39100 39.51900 24.69100
C  42.33500 39.68400 23.22400
C  41.67500 41.12500 23.13300
C  41.85900 41.67600 24.55200
C  43.73100 39.55600 22.62600
C  40.26900 41.27000 22.42900
C  39.03500 40.99200 23.31000
N  41.63400 42.73300 27.27300
C  41.43200 43.57600 26.16600
C  41.13800 44.92500 26.55100
C  41.10400 44.85600 27.97900
C  41.42700 43.49700 28.31000
C  40.78700 45.98500 25.60500
C  40.98000 45.60400 29.23600
O  40.79800 46.78600 29.27900
C  41.04700 44.63700 30.42300
C  42.10200 45.09600 31.35600
O  43.30900 44.98200 31.38100
O  41.31200 45.68800 32.33300
C  41.99700 46.19700 33.45500
H  42.84800 37.86500 30.89000
H  42.75000 37.30500 24.68400
H  41.69900 43.72000 24.07000
H  42.41300 42.45700 32.19500
H  41.70800 39.53800 32.46900
H  43.99700 41.21600 33.10000
H  44.42600 40.37600 31.66600
H  44.05000 39.42900 33.19200
H  39.97800 40.99400 32.95600
H  39.67600 42.17000 31.77100
H  39.78500 43.73800 33.45600
H  41.31700 43.07500 34.05500
H  44.62000 35.44200 29.47000
H  43.03600 34.65000 29.36000
H  43.32300 35.95000 30.53100
H  42.63300 33.74500 27.55900
H  44.45500 33.97100 27.41200
H  43.45700 33.27000 26.08500
H  41.61000 38.97000 22.83100
H  42.38300 41.69900 22.53600
H  44.38600 38.97900 23.27900
H  44.13200 40.51800 22.30600
H  43.53200 39.07700 21.66800
H  40.20700 40.70200 21.50000
H  40.22800 42.31100 22.10900
H  38.32000 40.23800 22.98200
H  38.46400 41.91100 23.44600
H  39.35400 40.78700 24.33200
H  40.52800 45.58500 24.62500
H  41.72600 46.53800 25.60300
H  40.07700 46.66600 26.07300
H  40.08900 44.40900 30.89100
H  41.47000 46.99400 33.97900
H  43.05600 46.38700 33.27900
H  41.85900 45.37300 34.15500
Mg 4.65700 54.86200 39.82700
C  4.57400 51.31400 40.26200
C  7.59100 54.41100 38.24800
C  4.28200 57.87800 38.74700
C  1.51700 54.81300 41.52400
N  5.87000 53.05400 39.31600
C  5.66900 51.71700 39.56100
C  6.81100 50.86700 39.12600
C  7.95200 52.01500 38.90700
C  7.08000 53.27200 38.79100
C  9.11200 52.21700 39.98900
C  6.58700 50.00500 37.83200
C  5.89400 50.70900 36.65100
H  6.75300 51.04100 35.44500
N  5.88700 56.07900 38.79300
C  7.06200 55.78800 38.17000
C  7.56700 56.93900 37.45200
C  6.62000 57.96400 37.61600
C  5.52900 57.39400 38.40800
C  8.86400 56.94300 36.69700
C  6.70000 59.38800 36.97000
O  7.55900 59.64100 36.12200
C  5.85100 60.50100 37.40100
N  3.10300 56.11100 40.08800
C  3.32200 57.40700 39.67200
C  2.15400 58.30100 40.22100
C  1.18400 57.30600 40.90600
C  1.97500 56.02000 40.86500
C  2.65400 59.53600 41.07100
C  -0.26700 57.23000 40.48000
C  -1.38200 57.45700 41.52400
N  3.33700 53.41000 40.79600
C  2.15200 53.55900 41.45900
C  1.73200 52.29500 42.03200
C  2.60100 51.34200 41.59000
C  3.59300 52.11700 40.87800
C  0.53500 52.13200 42.88500
C  2.89000 49.93300 41.51700
O  2.28200 49.01700 41.98500
C  4.19900 49.85700 40.76500
C  4.04200 48.89000 39.71900
O  3.42000 49.01900 38.67900
O  4.61900 47.68600 40.09400
C  4.42400 46.54600 39.20400
H  8.46400 54.21700 37.62200
H  4.10300 58.88100 38.35200
H  0.70500 54.79400 42.25500
H  7.09600 50.19600 39.93500
H  8.51600 51.77900 38.00400
H  9.19300 51.33500 40.62400
H  8.82900 53.05200 40.62900
H  10.02700 52.42800 39.43600
H  5.97700 49.12800 38.04800
H  7.54800 49.58800 37.53200
H  5.59900 51.71300 36.95500
H  5.07000 50.07200 36.32700
H  8.76300 57.02300 35.61500
H  9.36100 56.02600 37.01300
H  9.35200 57.76000 37.22800
H  4.94100 60.53200 36.80300
H  6.32200 61.43100 37.08100
H  5.71000 60.59200 38.47800
H  1.70700 58.76300 39.34000
H  1.18500 57.56900 41.96400
H  2.50400 60.47600 40.54000
H  3.71600 59.33400 41.20600
H  2.27200 59.59300 42.09000
H  -0.30900 56.23400 40.04000
H  -0.51900 57.93600 39.68800
H  -1.89100 58.38000 41.24700
H  -1.03500 57.60000 42.54700
H  -2.06300 56.60800 41.59300
H  0.85000 52.44500 43.88000
H  0.16700 51.11700 43.03100
H  -0.32800 52.71500 42.56200
H  4.99200 49.47800 41.40900
H  5.05900 46.41100 38.32900
H  3.45500 46.47300 38.71100
H  4.65300 45.62900 39.74800

