158

Mg 9.09900 3.41200 27.38100
C  10.19000 2.09900 30.37900
C  6.87600 5.36300 29.02800
C  7.99300 4.60300 24.34900
C  10.61300 0.75100 25.71900
N  8.52600 3.64700 29.53400
C  9.26400 3.13100 30.61700
C  8.69300 3.71200 31.92200
C  7.42100 4.58500 31.46900
C  7.50700 4.48300 29.92600
C  6.05100 4.17300 32.06200
C  9.81100 4.35000 32.78400
C  9.44700 4.89300 34.13500
H  10.37300 4.64100 35.33200
N  7.70700 4.96500 26.73800
C  6.94300 5.64700 27.63800
C  6.19400 6.57800 26.88700
C  6.45000 6.40300 25.50500
C  7.49700 5.35600 25.40700
C  5.17100 7.52900 27.54400
C  5.94700 7.07400 24.27000
O  6.35500 6.83300 23.09000
C  4.87300 8.04300 24.39800
N  9.30900 2.76500 25.36300
C  8.79800 3.47800 24.24900
C  9.22200 2.76600 22.92400
C  10.01800 1.51900 23.40100
C  9.97600 1.67800 24.92300
C  8.04700 2.48000 22.03700
C  11.40800 1.43800 22.67600
C  11.45800 0.36600 21.55500
N  10.10100 1.72300 27.89900
C  10.74100 0.76900 27.08200
C  11.51700 -0.12000 27.88900
C  11.32100 0.43500 29.15500
C  10.47500 1.55300 29.06600
C  12.37600 -1.24700 27.50800
C  11.82900 0.27600 30.45200
O  12.48600 -0.58100 30.88800
C  11.16600 1.39600 31.33600
C  10.61400 0.79200 32.52600
O  9.61300 0.09900 32.63100
O  11.26200 1.35200 33.56400
C  10.66400 1.01600 34.86800
H  6.23100 6.03500 29.59900
H  7.81300 5.05000 23.37000
H  11.28400 0.13400 25.11800
H  8.37400 2.81200 32.44700
H  7.51400 5.65000 31.68200
H  6.16900 3.60300 32.98300
H  5.47500 3.59900 31.33600
H  5.43900 5.03500 32.32500
H  10.31600 5.03500 32.10300
H  10.56600 3.61300 33.05800
H  8.45700 4.51000 34.38300
H  9.46000 5.98100 34.07200
H  4.16500 7.27100 27.21500
H  5.32500 8.57300 27.27200
H  5.27800 7.50300 28.62900
H  4.52700 8.32100 23.40300
H  5.42600 8.81000 24.94000
H  3.95500 7.78900 24.92800
H  10.00900 3.35000 22.44700
H  9.57000 0.53300 23.28000
H  7.19400 2.57800 22.70700
H  8.14700 1.45400 21.68200
H  8.10000 3.23300 21.25000
H  12.18200 1.11800 23.37400
H  11.74400 2.39100 22.26700
H  11.51100 0.89100 20.60100
H  10.63100 -0.34300 21.51200
H  12.26000 -0.37100 21.60500
H  13.00400 -1.58400 28.33300
H  12.93900 -0.87400 26.65200
H  11.73100 -2.06000 27.17500
H  12.01300 2.04600 31.55800
H  11.47300 0.92900 35.59400
H  10.11000 0.08300 34.96500
H  10.07300 1.88000 35.17200
Mg 47.18700 25.90800 29.16800
C  48.12700 27.95400 31.83400
C  45.87100 23.62600 31.52800
C  46.64000 23.60400 26.80800
C  48.71400 28.02100 26.99300
N  46.90500 25.85800 31.51100
C  47.34000 26.90600 32.34000
C  46.79400 26.62200 33.75000
C  46.28700 25.09100 33.73100
C  46.30700 24.84400 32.20400
C  47.07000 24.03300 34.64700
C  45.60800 27.62700 34.14300
C  45.75100 28.44800 35.49600
H  46.33200 27.65100 36.70500
N  46.36000 23.85800 29.18900
C  45.91400 23.14800 30.23300
C  45.33600 21.91800 29.74200
C  45.43000 21.85900 28.33900
C  46.15500 23.12900 28.03800
C  44.63600 20.89500 30.59300
C  44.96500 20.84000 27.26400
O  45.12200 21.02400 26.06100
C  44.24900 19.49700 27.65200
N  47.74400 25.80500 27.18800
C  47.35700 24.74500 26.37400
C  47.55900 25.11800 24.90900
C  48.16800 26.57400 24.89300
C  48.19900 26.89400 26.40400
C  48.41800 24.16700 24.07300
C  47.32000 27.57100 24.05300
C  48.08800 28.21000 22.87500
N  48.26200 27.54400 29.35700
C  48.78900 28.36600 28.38100
C  49.35200 29.53300 28.98500
C  49.13500 29.41200 30.34500
C  48.42900 28.18300 30.52200
C  50.20000 30.50600 28.14200
C  49.36600 30.08000 31.62000
O  50.02900 31.07100 31.85400
C  48.69200 29.12100 32.67500
C  49.74300 28.75600 33.67200
O  50.30500 27.66500 33.85200
O  49.70900 29.81800 34.60500
C  50.42300 29.53600 35.91800
H  45.34400 22.94100 32.19600
H  46.43100 23.02100 25.90900
H  48.99900 28.86300 26.35900
H  47.68600 26.67200 34.37500
H  45.25100 25.01400 34.05800
H  46.45300 23.51000 35.37900
H  47.93900 24.41500 35.18200
H  47.61400 23.33100 34.01400
H  44.62500 27.17300 34.01800
H  45.66400 28.34000 33.32100
H  44.77300 28.74400 35.87700
H  46.29500 29.37000 35.29300
H  43.58300 20.89200 30.31100
H  44.74600 21.18400 31.63800
H  45.04500 19.89100 30.48000
H  43.31600 19.83500 28.10400
H  44.91100 19.07200 28.40600
H  44.01100 18.85600 26.80300
H  46.54500 25.12800 24.50900
H  49.18200 26.50600 24.50000
H  48.08100 23.13300 24.14200
H  49.45700 24.27100 24.38800
H  48.31200 24.46400 23.03000
H  46.94200 28.33800 24.72900
H  46.44300 27.11900 23.58800
H  47.41100 28.40100 22.04200
H  48.79100 27.47900 22.47400
H  48.65900 29.11600 23.07900
H  49.64900 31.21500 27.52500
H  50.96800 29.92200 27.63500
H  50.71100 31.25100 28.75100
H  47.91300 29.71400 33.15500
H  50.66400 30.44700 36.46500
H  51.38200 29.02800 35.81400
H  49.75900 28.87900 36.47900

