158

Mg 2.40200 -2.00000 44.35300
C  5.79800 -0.91300 44.03500
C  1.44000 0.74900 42.46700
C  -0.61000 -3.21100 44.18800
C  3.66200 -5.04100 45.61100
N  3.49900 -0.24100 43.39800
C  4.83700 -0.01500 43.44700
C  5.22100 1.25500 42.56500
C  3.79200 1.80700 42.31200
C  2.82100 0.75500 42.81300
C  3.36100 3.22800 42.73500
C  6.02700 0.85400 41.24500
C  7.13200 1.88500 40.80700
H  6.56300 3.08700 39.99100
N  0.57700 -1.22500 43.55200
C  0.37900 -0.12300 42.82500
C  -1.01300 0.05100 42.47200
C  -1.66800 -1.09900 43.10700
C  -0.59000 -1.93600 43.65700
C  -1.55800 1.31700 41.79900
C  -3.17200 -1.38900 43.01300
O  -3.90200 -0.62400 42.34500
C  -3.81300 -2.32600 43.86700
N  1.68200 -3.79000 44.85300
C  0.33600 -4.08400 44.73700
C  0.01200 -5.53900 45.10300
C  1.41500 -6.02700 45.63900
C  2.33500 -4.88500 45.33600
C  -1.17300 -5.62800 46.10300
C  1.97600 -7.28200 44.90200
C  2.56800 -8.44900 45.76400
N  4.31800 -2.87200 44.82000
C  4.62900 -4.09500 45.35000
C  6.08200 -4.03100 45.69900
C  6.56900 -2.80300 45.22600
C  5.48600 -2.14000 44.62000
C  6.87300 -5.23400 46.30200
C  7.74400 -1.96600 45.03700
O  8.88600 -2.11300 45.37300
C  7.34400 -0.74200 44.16100
C  7.64600 0.48800 44.92800
O  7.31900 0.72700 46.09100
O  8.37300 1.37500 44.14700
C  8.81200 2.62900 44.74900
H  1.18200 1.62600 41.87000
H  -1.60800 -3.65100 44.23200
H  4.06600 -5.91800 46.11900
H  5.91200 1.89400 43.11400
H  3.61000 1.69600 41.24300
H  4.23300 3.78300 43.08200
H  2.74600 3.28400 43.63200
H  2.92800 3.76100 41.88800
H  5.33300 0.73000 40.41400
H  6.68000 -0.01400 41.33800
H  7.95000 1.29700 40.39100
H  7.54700 2.34000 41.70600
H  -1.74900 1.05100 40.76000
H  -0.94600 2.21200 41.90100
H  -2.51800 1.66400 42.18100
H  -4.87300 -2.14600 43.68600
H  -3.46800 -2.37300 44.90000
H  -3.52400 -3.35000 43.63400
H  -0.21500 -6.08700 44.18800
H  1.46900 -6.20700 46.71200
H  -0.95800 -5.09300 47.02700
H  -1.29100 -6.64200 46.48400
H  -2.09100 -5.32200 45.60100
H  2.62700 -6.79100 44.17800
H  1.16500 -7.75000 44.34500
H  3.64100 -8.57500 45.61700
H  2.19500 -9.46300 45.62000
H  2.38500 -8.35000 46.83400
H  6.79000 -6.12300 45.67700
H  6.57300 -5.26800 47.34900
H  7.92200 -4.93800 46.31100
H  7.83000 -0.67800 43.18800
H  9.62200 2.90300 44.07400
H  9.35700 2.42400 45.67100
H  8.23100 3.51500 45.00600
Mg 44.14800 5.23500 47.14300
C  42.18600 8.10000 46.48700
C  41.32400 3.30300 46.27300
C  46.11200 2.41800 46.83500
C  47.03600 7.20000 47.24800
N  41.96700 5.74600 46.37800
C  41.40100 6.95500 46.38200
C  39.92900 6.79900 46.31300
C  39.58400 5.24300 46.28600
C  41.03700 4.68600 46.33800
C  38.78200 4.60000 47.39300
C  39.28100 7.59400 45.12900
C  39.52800 7.06200 43.71800
H  40.47100 7.80500 42.69500
N  43.71100 3.17400 46.86400
C  42.54400 2.61400 46.48200
C  42.67100 1.20600 46.33600
C  44.00200 0.83200 46.68200
C  44.72500 2.16500 46.85500
C  41.59500 0.27000 45.85400
C  44.59900 -0.56100 46.59200
O  43.89200 -1.51400 46.26600
C  45.97700 -0.92700 46.84700
N  46.25000 4.91000 47.09200
C  46.81000 3.63300 47.10500
C  48.37000 3.68600 47.21400
C  48.66600 5.22300 47.46500
C  47.24900 5.82000 47.31900
C  48.92000 2.83100 48.37100
C  49.82400 5.81900 46.59200
C  50.86200 6.61400 47.26000
N  44.60500 7.22900 46.97700
C  45.79600 7.90800 47.07400
C  45.55500 9.35000 47.06200
C  44.09000 9.42900 46.91000
C  43.56700 8.16600 46.77700
C  46.56100 10.50100 47.13700
C  42.99000 10.36200 46.84000
O  43.00200 11.58600 46.86900
C  41.68900 9.57400 46.68700
C  40.76600 9.73500 47.82000
O  40.79200 9.00500 48.83200
O  39.87200 10.70300 47.63900
C  38.82700 10.86600 48.61500
H  40.45200 2.64700 46.23600
H  46.73200 1.53900 46.64400
H  47.87500 7.88800 47.36800
H  39.53000 7.32500 47.18100
H  39.07700 4.92600 45.37400
H  39.23800 3.75100 47.90200
H  37.96600 4.11900 46.85500
H  38.34000 5.30100 48.10100
H  39.61000 8.63300 45.08500
H  38.22100 7.48800 45.36200
H  38.56000 7.01800 43.21900
H  39.90900 6.05000 43.85000
H  41.23000 -0.25700 46.73600
H  41.93700 -0.35400 45.02800
H  40.82000 0.81700 45.31600
H  45.96400 -1.89000 47.35800
H  46.51000 -0.39800 47.63600
H  46.50300 -1.00900 45.89600
H  48.82200 3.41600 46.26000
H  48.91000 5.51300 48.48700
H  49.95800 3.07400 48.60000
H  48.97800 1.79000 48.05300
H  48.24300 2.98600 49.21200
H  49.36300 6.45300 45.83400
H  50.37900 5.07300 46.02300
H  50.98900 7.51000 46.65200
H  51.80200 6.06300 47.25600
H  50.60400 6.86700 48.28800
H  46.09500 11.30600 47.70600
H  46.88700 10.85900 46.16100
H  47.41300 9.97200 47.56500
H  41.13800 9.93400 45.81800
H  38.72500 11.91500 48.89200
H  39.06600 10.37700 49.56000
H  37.83900 10.45800 48.40300

