158

Mg 47.72600 25.68400 28.96000
C  48.53800 27.81800 31.60600
C  46.28800 23.56400 31.28700
C  47.35600 23.30400 26.65800
C  49.67100 27.64600 26.80300
N  47.41300 25.74200 31.15400
C  47.83200 26.70400 32.03100
C  47.22200 26.61700 33.37600
C  46.64600 25.15700 33.35700
C  46.71500 24.75900 31.82400
C  47.24500 24.10500 34.34500
C  46.15100 27.71400 33.76300
C  46.23200 28.30900 35.15800
H  46.70900 27.51900 36.35600
N  46.85700 23.75800 28.95000
C  46.19300 23.11600 29.97200
C  45.66000 21.86600 29.52100
C  46.03400 21.70500 28.21300
C  46.76700 22.92900 27.86500
C  44.85400 20.90800 30.41300
C  45.69200 20.60700 27.22900
O  45.98300 20.66500 26.04600
C  44.89500 19.39000 27.65200
N  48.42600 25.49200 27.11100
C  48.03200 24.42900 26.34000
C  48.62700 24.51800 24.90800
C  49.17600 26.00500 24.87500
C  49.12100 26.41500 26.35000
C  49.67600 23.43500 24.67000
C  48.49100 27.05600 23.93100
C  49.45100 28.11800 23.35300
N  48.83700 27.46200 29.08100
C  49.59600 28.15500 28.16400
C  50.11100 29.37600 28.76700
C  49.69200 29.27900 30.11900
C  49.02000 28.02600 30.24600
C  50.77800 30.45200 27.95600
C  49.80100 29.97900 31.35900
O  50.31400 31.03500 31.62200
C  49.12400 29.08300 32.32800
C  50.14800 28.76300 33.44600
O  51.01600 27.91100 33.33800
O  49.86000 29.41600 34.58200
C  50.81800 29.39400 35.71600
H  45.71100 22.98900 32.01500
H  47.06900 22.63600 25.84300
H  50.22200 28.19600 26.03800
H  48.11800 26.50500 33.98600
H  45.61600 25.13300 33.71400
H  47.85000 24.68600 35.04100
H  47.91600 23.42600 33.82000
H  46.45800 23.57000 34.87700
H  45.10000 27.42600 33.73700
H  46.24800 28.56800 33.09300
H  45.21800 28.64700 35.37300
H  46.70700 29.29000 35.12300
H  45.36000 19.94400 30.36300
H  43.83500 20.79000 30.04400
H  44.93500 21.23000 31.45200
H  45.44400 18.94100 28.48000
H  44.76800 18.71700 26.80400
H  43.89800 19.73600 27.92700
H  47.81000 24.43800 24.19000
H  50.23500 26.03700 24.62100
H  49.62400 23.28700 23.59200
H  49.30300 22.52300 25.13600
H  50.63300 23.64300 25.15000
H  47.78600 27.57800 24.57800
H  48.01800 26.51800 23.10900
H  49.08900 29.11500 23.60300
H  49.45200 28.12600 22.26300
H  50.51200 27.95300 23.54100
H  50.75600 30.27000 26.88200
H  51.81100 30.66400 28.23200
H  50.26700 31.40000 28.12100
H  48.32900 29.66400 32.79600
H  50.48900 28.77800 36.55200
H  50.85000 30.41700 36.09100
H  51.79600 29.07500 35.35300
Mg 10.69800 46.76900 25.61000
C  8.60800 47.27800 28.35400
C  13.20900 48.42900 27.30700
C  12.71600 46.21200 22.97300
C  7.92000 45.65400 23.78500
N  10.92900 47.56200 27.70400
C  9.95600 47.67900 28.71100
C  10.56100 48.18000 29.97800
C  11.81400 48.98800 29.42000
C  12.00700 48.27500 28.08200
C  11.77500 50.52900 29.49700
C  10.85800 46.98700 30.87200
C  10.42000 47.15500 32.33100
H  10.32500 45.98500 33.19600
N  12.79600 47.16900 25.23500
C  13.62300 47.84700 26.06000
C  14.95000 47.84800 25.45200
C  14.82000 47.28700 24.15400
C  13.44100 46.85100 24.06500
C  16.16500 48.44900 26.27300
C  15.89600 47.15100 23.13900
O  15.76600 46.49800 22.14000
C  17.19300 47.65300 23.38300
N  10.27100 46.24500 23.60600
C  11.35600 45.99300 22.76500
C  10.79300 45.49200 21.36900
C  9.31500 45.15900 21.70400
C  9.13000 45.67900 23.11300
C  10.96600 46.54900 20.24900
C  9.02200 43.61500 21.54600
C  9.43400 42.60300 22.68100
N  8.75800 46.42300 25.97400
C  7.73200 45.97900 25.11800
C  6.48400 46.01800 25.82000
C  6.84000 46.39700 27.14500
C  8.17500 46.73700 27.11200
C  5.13400 45.68100 25.34700
C  6.24800 46.62900 28.45500
O  5.09800 46.47400 28.89300
C  7.51200 47.04500 29.35200
C  7.76700 45.87400 30.15200
O  8.31700 44.82900 29.83800
O  7.14700 46.04100 31.41700
C  7.29000 44.92500 32.38300
H  14.07600 48.98600 27.66700
H  13.25400 45.89400 22.07800
H  7.03800 45.42900 23.18100
H  9.94900 48.89600 30.52800
H  12.67000 48.73800 30.04700
H  10.75300 50.83700 29.71800
H  12.06800 50.95000 28.53500
H  12.48800 50.79600 30.27700
H  11.94700 46.99100 30.92700
H  10.54500 45.98700 30.57000
H  9.41700 47.58200 32.31500
H  11.10700 47.80000 32.87900
H  15.92000 48.39000 27.33300
H  16.28900 49.50600 26.03700
H  17.05500 47.82700 26.17600
H  17.16600 48.71900 23.60700
H  17.81500 47.64200 22.48800
H  17.56500 46.97600 24.15300
H  11.28200 44.57000 21.05500
H  8.58100 45.68800 21.09700
H  11.85700 47.09400 20.55900
H  10.17600 47.28600 20.39000
H  11.22500 46.14100 19.27200
H  9.60700 43.28100 20.68900
H  7.95700 43.50100 21.34100
H  10.19800 41.89700 22.35600
H  8.58500 42.04000 23.07100
H  9.81900 43.15300 23.53900
H  5.33500 44.88200 24.63300
H  4.69700 46.51300 24.79500
H  4.47600 45.42400 26.17700
H  7.46900 47.90000 30.02800
H  7.39200 45.28300 33.40700
H  8.06200 44.17600 32.20700
H  6.32900 44.41600 32.30300

