158

Mg 0.00800 7.64600 26.62800
C  0.84600 9.63600 29.39500
C  -0.00500 4.95400 28.88800
C  -0.57100 5.42800 24.13600
C  0.36600 10.29400 24.52200
N  0.61300 7.28000 28.77600
C  0.70700 8.30500 29.69000
C  0.57400 7.81000 31.11400
C  0.74600 6.28700 30.94800
C  0.40900 6.09800 29.43900
C  2.12400 5.64500 31.22400
C  -0.79100 8.12100 31.69800
C  -0.92100 8.27300 33.22800
H  0.12100 7.63900 34.06000
N  -0.14300 5.54900 26.49000
C  -0.13900 4.63000 27.52000
C  -0.29700 3.33000 26.96600
C  -0.56300 3.38500 25.60600
C  -0.43900 4.86900 25.38300
C  -0.17100 2.09400 27.82300
C  -0.67600 2.34300 24.59700
O  -0.82000 2.53200 23.39800
C  -0.73000 0.89300 25.02100
N  0.20700 7.81900 24.60500
C  -0.25400 6.79400 23.79600
C  -0.60700 7.37900 22.38600
C  -0.33200 8.92100 22.55400
C  0.09500 9.00200 23.99900
C  0.23700 6.74300 21.18700
C  -1.53100 9.86900 22.22200
C  -1.45800 10.65300 20.85700
N  0.45500 9.58800 26.89500
C  0.57100 10.58100 25.97700
C  0.77600 11.82700 26.65600
C  0.93000 11.47700 28.01500
C  0.71000 10.14900 28.08700
C  0.89100 13.25100 26.02900
C  1.30000 12.00800 29.26700
O  1.77000 13.09600 29.55200
C  1.11200 10.89700 30.29000
C  2.19200 11.03500 31.26300
O  3.35100 10.80000 31.00600
O  1.75100 11.26400 32.48300
C  2.72200 11.23900 33.57200
H  -0.29600 4.22500 29.64700
H  -1.10300 4.94800 23.31200
H  0.63700 11.03600 23.76700
H  1.42000 8.23500 31.65300
H  0.03000 5.77100 31.58900
H  2.70600 6.09900 32.02600
H  2.72400 5.67100 30.31400
H  2.00100 4.59800 31.50300
H  -1.57100 7.42000 31.40200
H  -0.96000 9.13000 31.32200
H  -1.85100 7.82200 33.57300
H  -0.94800 9.34700 33.41300
H  -1.11000 1.55500 27.69600
H  -0.00800 2.21400 28.89400
H  0.69300 1.53200 27.46600
H  0.15500 0.45300 25.48000
H  -0.92900 0.31100 24.12100
H  -1.65100 0.83300 25.60100
H  -1.66300 7.14200 22.26000
H  0.52000 9.29300 21.98600
H  -0.55300 6.43200 20.50300
H  0.77200 5.85700 21.52700
H  0.77000 7.47800 20.58400
H  -1.53000 10.60000 23.03100
H  -2.51600 9.41600 22.33300
H  -2.49300 10.89400 20.61600
H  -1.03400 10.12100 20.00500
H  -0.85200 11.53100 21.08000
H  0.90500 13.25900 24.93900
H  1.78400 13.58000 26.56100
H  0.09300 13.90800 26.37500
H  0.21700 11.19800 30.83500
H  3.41300 10.41500 33.39300
H  2.12500 11.10900 34.47400
H  3.10500 12.25800 33.53100
Mg -11.65100 38.36400 42.46800
C  -9.03500 35.91300 41.90100
C  -9.32600 40.63800 41.56800
C  -14.14500 40.53900 42.32200
C  -13.89000 35.71600 43.02300
N  -9.46600 38.18100 41.73000
C  -8.56600 37.21800 41.56300
C  -7.22300 37.65500 41.06500
C  -7.33400 39.20700 41.44600
C  -8.83800 39.36100 41.56400
C  -6.52300 39.66300 42.71800
C  -6.97400 37.30600 39.52000
C  -5.87500 36.29800 39.28300
H  -5.92400 35.30900 38.06900
N  -11.76200 40.34800 41.97400
C  -10.61100 41.13600 41.74400
C  -11.12400 42.51300 41.70000
C  -12.53800 42.52500 42.05500
C  -12.87100 41.12100 42.08800
C  -10.14800 43.65400 41.67400
C  -13.39200 43.82700 42.20900
O  -12.81500 44.95000 42.09200
C  -14.93400 43.87000 42.47300
N  -13.77300 38.10000 42.40900
C  -14.58500 39.22300 42.45400
C  -16.01100 38.76900 42.72000
C  -15.93800 37.24500 43.02600
C  -14.45700 36.96000 42.73200
C  -16.69300 39.57500 43.91300
C  -16.94100 36.40500 42.30700
C  -16.67300 35.98800 40.82900
N  -11.50000 36.30100 42.51000
C  -12.54800 35.38900 42.85700
C  -12.06600 34.04300 42.80700
C  -10.63300 34.23700 42.52600
C  -10.39200 35.60300 42.25600
C  -12.89000 32.76200 43.05900
C  -9.36100 33.56400 42.35200
O  -9.14000 32.33700 42.39500
C  -8.25600 34.64100 41.95700
C  -7.21700 34.71100 43.05200
O  -7.30500 35.26000 44.12700
O  -6.09800 34.07600 42.60600
C  -5.10700 33.93300 43.67900
H  -8.46300 41.30400 41.50300
H  -14.95700 41.26900 42.33300
H  -14.59100 34.89100 43.16500
H  -6.39400 37.25500 41.64800
H  -7.05000 39.87000 40.62900
H  -5.77000 38.92300 42.98800
H  -7.21400 39.86100 43.53800
H  -5.96500 40.59000 42.58700
H  -6.64900 38.25600 39.09700
H  -7.90400 37.00700 39.03500
H  -5.80600 35.58900 40.10900
H  -4.91000 36.78800 39.15300
H  -10.12800 43.94100 40.62300
H  -9.14800 43.41800 42.03900
H  -10.50000 44.49200 42.27500
H  -15.46400 43.45900 41.61400
H  -15.23900 44.90600 42.62300
H  -15.23100 43.34900 43.38400
H  -16.61300 38.84300 41.81500
H  -16.17000 37.10200 44.08100
H  -16.16000 40.45500 44.27100
H  -16.92500 38.92200 44.75400
H  -17.59200 39.85400 43.36200
H  -17.93000 36.83000 42.47500
H  -16.99500 35.44700 42.82500
H  -17.56000 36.11300 40.20800
H  -16.40400 34.93300 40.87800
H  -15.97000 36.59800 40.26200
H  -12.19700 31.95800 43.30700
H  -13.44800 32.47800 42.16700
H  -13.59600 32.90900 43.87700
H  -7.72100 34.42400 41.03300
H  -5.53900 33.54900 44.60300
H  -4.76200 34.95300 43.84300
H  -4.39800 33.15700 43.38800

