158

Mg 1.29400 -1.77000 43.47100
C  4.67300 -1.17400 42.82600
C  0.55400 1.11900 41.81800
C  -1.93100 -2.67000 43.57500
C  2.13800 -4.74000 45.07000
N  2.48400 -0.29600 42.37200
C  3.84100 -0.21700 42.27300
C  4.32000 0.97100 41.41700
C  2.96700 1.78800 41.27700
C  1.88700 0.81300 41.91900
C  2.95600 3.13500 42.04800
C  4.92300 0.36300 40.04500
C  6.00900 1.13900 39.51900
H  6.02500 1.71000 38.11500
N  -0.47500 -0.86500 42.73700
C  -0.57700 0.38200 42.15700
C  -1.95600 0.63000 41.85200
C  -2.67000 -0.42900 42.43000
C  -1.67800 -1.40200 43.00800
C  -2.39800 1.88900 41.08400
C  -4.15900 -0.50300 42.40600
O  -4.89100 0.33700 41.83700
C  -4.86400 -1.65500 43.07200
N  0.33700 -3.45200 44.17900
C  -1.01300 -3.62100 44.04000
C  -1.43600 -5.00200 44.59300
C  -0.12100 -5.68200 44.97300
C  0.84600 -4.51200 44.79100
C  -2.47500 -4.87100 45.73800
C  0.26500 -6.91000 44.15000
C  0.32500 -8.18800 45.01300
N  3.04200 -2.85700 43.85000
C  3.26800 -3.96600 44.58300
C  4.69700 -4.20600 44.65900
C  5.33400 -3.06600 44.09200
C  4.30500 -2.35400 43.51300
C  5.25600 -5.41700 45.43100
C  6.60800 -2.40400 43.80100
O  7.83700 -2.63000 44.07100
C  6.17500 -1.15000 42.85200
C  6.83000 0.14100 43.23000
O  7.59900 0.79600 42.51000
O  6.54000 0.55900 44.53700
C  6.99800 1.95700 44.88700
H  0.39600 2.12300 41.41900
H  -2.88200 -3.20200 43.50500
H  2.48200 -5.65100 45.56500
H  5.07000 1.62600 41.85800
H  2.59300 1.84800 40.25500
H  2.33500 3.06700 42.94100
H  2.59600 3.97700 41.45700
H  3.98200 3.29600 42.37800
H  4.18300 0.57300 39.27300
H  5.13600 -0.70200 39.94900
H  6.84600 0.44100 39.52800
H  6.25100 1.98400 40.16300
H  -1.65400 2.66200 40.89400
H  -3.05100 2.43900 41.76200
H  -2.82900 1.58300 40.13000
H  -4.36000 -1.71100 44.03700
H  -4.77100 -2.58600 42.51200
H  -5.92100 -1.42500 43.20600
H  -1.91500 -5.56200 43.79000
H  -0.12300 -5.93500 46.03300
H  -2.62500 -3.82200 45.99700
H  -2.24200 -5.53300 46.57200
H  -3.45300 -5.16800 45.35700
H  1.16500 -6.78500 43.54700
H  -0.53300 -7.09500 43.43100
H  0.02100 -8.99400 44.34400
H  -0.30100 -8.07200 45.89700
H  1.30600 -8.32400 45.46900
H  5.97800 -5.02000 46.14500
H  5.78800 -6.10600 44.77500
H  4.62000 -5.90900 46.16700
H  6.42300 -1.38100 41.81600
H  6.48600 2.66900 44.23900
H  8.07800 2.04600 44.77700
H  6.73500 2.18800 45.91900
Mg 48.97900 44.57900 43.22600
C  45.68200 44.40200 42.19800
C  49.13600 41.09100 42.90200
C  52.37600 44.73100 43.19000
C  48.82500 48.00000 43.20800
N  47.59200 42.94000 42.67200
C  46.24800 43.12400 42.32800
C  45.55900 41.76900 42.09900
C  46.57600 40.75900 42.69200
C  47.84400 41.61000 42.78400
C  46.17600 40.18200 44.01100
C  45.17900 41.58000 40.55700
C  46.05400 42.37000 39.49100
H  46.14900 41.74000 38.04600
N  50.50800 43.08800 43.07600
C  50.37000 41.71900 42.94500
C  51.63200 41.11600 42.88200
C  52.60700 42.15500 42.96800
C  51.86300 43.36400 43.14400
C  51.82300 39.66700 42.60900
C  54.18200 41.92300 43.02000
O  54.65000 40.84100 42.75800
C  55.10700 43.00200 43.31400
N  50.39900 46.14300 43.20500
C  51.71100 45.96200 43.30300
C  52.49500 47.30400 43.44200
C  51.36700 48.34600 43.58300
C  50.11000 47.44900 43.29100
C  53.63800 47.42200 44.49000
C  51.56600 49.60500 42.69500
C  51.23300 49.47700 41.18300
N  47.52600 45.97600 42.95600
C  47.60200 47.36300 42.96500
C  46.35000 47.87900 42.58600
C  45.45600 46.76200 42.29300
C  46.29300 45.63200 42.47000
C  46.03200 49.32800 42.31500
C  44.18200 46.26500 41.89600
O  43.15800 46.86400 41.70600
C  44.20600 44.66900 41.96400
C  43.26400 44.18600 42.96300
O  42.37100 43.39100 42.73600
O  43.35500 44.92800 44.18600
C  42.14100 44.74700 45.04100
H  49.17700 40.00600 42.78600
H  53.46500 44.77800 43.26100
H  48.79500 49.09000 43.26600
H  44.58000 41.73800 42.57600
H  46.75800 40.01200 41.91900
H  45.95700 39.12300 43.87300
H  45.36000 40.64900 44.56300
H  46.96600 40.18000 44.76100
H  44.16600 41.95800 40.42300
H  45.15800 40.51300 40.33200
H  47.09900 42.52200 39.76100
H  45.59100 43.33100 39.26800
H  52.05500 39.53000 41.55300
H  50.92100 39.17600 42.97400
H  52.64500 39.26900 43.20500
H  55.20100 43.79600 42.57300
H  56.12300 42.63100 43.44900
H  54.88100 43.37600 44.31300
H  53.03700 47.50500 42.51800
H  51.09600 48.70500 44.57600
H  53.32300 48.07400 45.30500
H  54.49300 47.95800 44.07900
H  53.78100 46.41900 44.89400
H  52.63100 49.84000 42.69400
H  51.05000 50.45300 43.14500
H  50.95000 48.43300 41.04500
H  52.03900 49.68500 40.48000
H  50.47900 50.23700 40.97800
H  45.06600 49.32900 41.81000
H  46.84900 49.88500 41.85600
H  45.76600 49.94500 43.17300
H  43.90100 44.40300 40.95200
H  42.09500 45.51500 45.81300
H  42.07400 43.76300 45.50500
H  41.21000 44.87700 44.48900

