158

Mg 1.25000 -2.60900 44.84400
C  4.39400 -1.47400 43.76300
C  -0.24300 -0.06900 43.02600
C  -1.75700 -4.02800 45.43800
C  2.77200 -5.32300 46.08900
N  2.04900 -1.03000 43.48700
C  3.39600 -0.71000 43.20600
C  3.49600 0.58900 42.41300
C  1.96400 1.03100 42.32600
C  1.18500 -0.11000 43.04400
C  1.72800 2.45700 42.79300
C  4.24900 0.37200 41.04700
C  5.48300 1.31800 40.85600
H  6.47200 1.21000 39.64400
N  -0.73300 -2.10300 44.28500
C  -1.13700 -1.01700 43.57800
C  -2.56100 -0.87800 43.56600
C  -2.99100 -2.01200 44.34000
C  -1.82800 -2.75900 44.72000
C  -3.36200 0.08900 42.78200
C  -4.47500 -2.34400 44.66800
O  -5.27600 -1.56500 44.20300
C  -4.95400 -3.57900 45.41900
N  0.55700 -4.43300 45.64500
C  -0.70600 -4.79700 45.85000
C  -0.87700 -6.28500 46.36500
C  0.58500 -6.61900 46.70100
C  1.35900 -5.40500 46.13000
C  -1.97800 -6.46300 47.50200
C  1.13700 -7.95000 46.06800
C  1.70100 -8.96000 47.15500
N  3.14200 -3.29100 45.00300
C  3.61700 -4.38500 45.56800
C  5.05900 -4.32400 45.61500
C  5.41200 -3.19400 44.93900
C  4.19700 -2.67000 44.51300
C  6.05600 -5.26200 46.34100
C  6.51500 -2.42500 44.48700
O  7.73500 -2.67000 44.74400
C  5.89900 -1.17400 43.69800
C  6.13000 0.11600 44.38000
O  5.27400 0.77900 44.96000
O  7.42800 0.41700 44.34900
C  7.89400 1.56200 45.16200
H  -0.72200 0.77000 42.51600
H  -2.71000 -4.52500 45.62900
H  3.26500 -6.23100 46.44100
H  4.05200 1.34600 42.96600
H  1.61000 1.07400 41.29600
H  2.65100 2.97700 43.04900
H  1.04600 2.40000 43.64200
H  1.22400 3.02400 42.01000
H  3.55600 0.62100 40.24300
H  4.53100 -0.68000 41.02000
H  6.12200 1.12400 41.71800
H  5.06300 2.31400 40.98900
H  -3.67800 -0.59600 41.99600
H  -2.74000 0.95400 42.54900
H  -4.25300 0.50600 43.25100
H  -4.75900 -4.53500 44.93300
H  -6.04200 -3.55600 45.46700
H  -4.66800 -3.62100 46.47000
H  -1.22800 -6.91800 45.55000
H  0.73200 -6.64400 47.78100
H  -2.13300 -5.51800 48.02200
H  -1.60000 -7.13700 48.27100
H  -2.88000 -6.92900 47.10400
H  1.97900 -7.84600 45.38400
H  0.30900 -8.42000 45.53700
H  2.76100 -9.08000 46.92900
H  1.20900 -9.92700 47.25200
H  1.65800 -8.63300 48.19400
H  5.66200 -6.26900 46.20300
H  6.01600 -5.02000 47.40300
H  7.03800 -5.28400 45.86800
H  6.24200 -1.18600 42.66400
H  8.93800 1.28500 45.30500
H  7.45000 1.57400 46.15800
H  7.90400 2.53100 44.66300
Mg 41.52800 41.88900 26.84100
C  40.45800 44.23400 29.30900
C  42.22800 39.86600 29.26100
C  42.84900 39.90700 24.51900
C  41.23000 44.44900 24.51600
N  41.31000 42.11900 29.03300
C  40.75000 43.01000 29.87200
C  40.72200 42.63700 31.37500
C  41.61600 41.30800 31.36100
C  41.75000 41.04700 29.80100
C  42.97500 41.34900 32.03200
C  39.27600 42.52600 31.97100
C  39.00300 43.29900 33.28700
H  38.56700 42.46600 34.48000
N  42.34600 40.09800 26.85600
C  42.54500 39.41200 27.98600
C  43.10500 38.12700 27.68400
C  43.27500 38.07900 26.24400
C  42.79400 39.40500 25.80000
C  43.26400 37.02000 28.72000
C  43.75600 37.00000 25.30800
O  43.85100 37.18200 24.12300
C  44.07000 35.65500 25.86600
N  41.73000 42.12500 24.65200
C  42.42600 41.17800 24.00300
C  42.77200 41.68600 22.56000
C  41.97200 43.02800 22.45800
C  41.66500 43.21800 23.97400
C  44.23300 41.74000 22.20100
C  40.66300 42.92100 21.66400
C  40.27800 44.29100 21.27100
N  40.90100 43.85000 26.83400
C  40.87000 44.78900 25.84400
C  40.46300 46.10100 26.36000
C  40.20000 45.87500 27.71100
C  40.54100 44.54300 27.95800
C  40.35800 47.52100 25.72400
C  39.64600 46.52400 28.92900
O  39.23500 47.64500 29.22600
C  39.87200 45.40500 29.98800
C  40.78900 45.97600 30.99200
O  41.98300 46.03900 30.85700
O  40.13500 46.38900 32.10800
C  40.96500 46.62800 33.34000
H  42.45100 39.17700 30.07900
H  43.32600 39.27300 23.76900
H  41.19900 45.24400 23.76900
H  41.30200 43.38900 31.90900
H  41.18000 40.50100 31.95000
H  43.00700 41.92900 32.95400
H  43.67800 41.88400 31.39400
H  43.39800 40.34400 32.03200
H  38.95500 41.48900 32.06200
H  38.64700 43.02400 31.23200
H  38.23400 44.05600 33.13300
H  39.94400 43.79600 33.52500
H  43.57400 37.50500 29.64600
H  44.18700 36.51500 28.43700
H  42.46900 36.27500 28.73000
H  43.20500 35.23900 26.38200
H  44.87900 35.87500 26.56200
H  44.45500 35.02000 25.06800
H  42.40200 40.92000 21.87900
H  42.66100 43.86200 22.32200
H  44.56100 42.69300 22.61700
H  44.42400 41.66300 21.13000
H  44.68800 40.91200 22.74500
H  39.88700 42.47200 22.28400
H  40.77100 42.39700 20.71400
H  39.67600 44.64500 22.10800
H  39.71400 44.37000 20.34200
H  41.08800 45.01800 21.21700
H  40.89700 48.21200 26.37200
H  39.28300 47.62600 25.58000
H  40.86000 47.61000 24.76100
H  38.91900 45.15900 30.45800
H  42.00200 46.29400 33.31800
H  40.55500 46.16500 34.23700
H  40.98500 47.69300 33.56900

