158

Mg 8.76700 2.59700 26.96800
C  9.99700 1.20700 29.95300
C  7.01000 4.91600 29.02100
C  6.85800 3.57400 24.27900
C  10.31200 0.14100 25.09600
N  8.50800 2.98600 29.25800
C  9.16900 2.26000 30.25400
C  8.84500 2.91900 31.59800
C  7.73400 4.05000 31.17300
C  7.70300 3.98600 29.72000
C  6.42900 3.85900 31.96100
C  10.12500 3.44900 32.27800
C  9.87800 4.16500 33.61000
H  10.57700 3.61300 34.80600
N  7.26600 4.04300 26.64700
C  6.66000 4.83300 27.62000
C  5.70900 5.74000 27.04400
C  5.56100 5.34200 25.67700
C  6.60000 4.29300 25.45800
C  5.00600 6.88900 27.79800
C  4.70400 5.91900 24.58200
O  4.69700 5.50200 23.43300
C  3.73600 6.95400 25.03000
N  8.64000 1.99100 24.92100
C  7.78600 2.50100 23.97200
C  7.92600 1.78500 22.66300
C  9.20500 0.86800 22.88400
C  9.43700 1.00600 24.36700
C  6.64100 1.12500 22.26200
C  10.44100 1.16000 21.97000
C  10.50500 0.64000 20.60100
N  9.91700 0.99900 27.40700
C  10.46900 0.13700 26.53600
C  11.17100 -0.82200 27.29400
C  11.09500 -0.40700 28.61000
C  10.31000 0.73800 28.62400
C  11.87000 -2.09000 26.74600
C  11.58700 -0.69900 29.95300
O  12.40200 -1.54500 30.36700
C  10.87200 0.32100 30.88800
C  10.15300 -0.32700 31.98700
O  9.22400 -1.03300 31.77400
O  10.62700 0.03700 33.25200
C  10.02100 -0.59600 34.42600
H  6.52700 5.61900 29.70300
H  6.37300 3.87700 23.34800
H  10.83300 -0.64700 24.54900
H  8.41800 2.21300 32.31100
H  8.14900 5.03600 31.38000
H  6.28100 4.69700 32.64300
H  6.43100 2.95800 32.57400
H  5.61900 3.89000 31.23300
H  10.58300 4.07600 31.51300
H  10.98800 2.79000 32.36700
H  8.80400 4.25400 33.77200
H  10.36800 5.12500 33.44300
H  3.93500 6.68800 27.77600
H  5.34300 7.73500 27.20000
H  5.41700 6.99300 28.80200
H  3.19100 6.32400 25.73400
H  3.07100 7.27700 24.22900
H  4.26300 7.80700 25.45800
H  8.25800 2.61100 22.03400
H  8.83500 -0.14900 22.75500
H  6.08600 1.90800 21.74500
H  6.01800 0.78100 23.08800
H  6.70900 0.29300 21.56200
H  11.41500 0.94900 22.41100
H  10.60600 2.21900 21.77500
H  11.39900 0.07300 20.34000
H  10.46100 1.38500 19.80600
H  9.70300 -0.09100 20.50200
H  11.53600 -2.92500 27.36300
H  12.95000 -2.09800 26.88700
H  11.67200 -2.37900 25.71300
H  11.73000 0.91200 31.20900
H  10.79700 -0.70600 35.18400
H  9.57700 -1.58000 34.26900
H  9.33700 0.14200 34.84400
Mg 6.49000 53.67000 41.10400
C  5.62200 50.30000 41.14300
C  9.48900 52.75500 39.97600
C  7.04400 57.00400 40.46400
C  3.15700 54.45500 41.81800
N  7.29900 51.76500 40.33100
C  6.85600 50.49200 40.48700
C  7.77200 49.41100 40.01300
C  9.11000 50.16200 40.15500
C  8.61400 51.66200 40.09000
C  9.93200 49.88400 41.46200
C  7.55500 48.96400 38.58000
C  6.42600 49.56900 37.65200
H  5.91000 48.62500 36.56500
N  8.00600 54.78400 40.48000
C  9.17500 54.19700 40.08800
C  10.09400 55.21800 39.85800
C  9.49800 56.46000 39.93400
C  8.08000 56.12700 40.30500
C  11.66600 54.98200 39.56900
C  10.11400 57.76100 39.63200
O  11.21900 57.73900 39.08600
C  9.52400 59.07500 39.90700
N  5.25100 55.43500 41.00100
C  5.73100 56.69100 40.78500
C  4.64600 57.73700 40.88300
C  3.32800 56.93000 41.29900
C  3.98400 55.50000 41.38600
C  4.95200 58.86200 41.85100
C  2.21100 57.02400 40.22600
C  0.80400 57.28100 40.68900
N  4.65300 52.61100 41.45500
C  3.45900 53.07400 41.90500
C  2.72200 51.90300 42.33600
C  3.57400 50.82700 42.05100
C  4.74000 51.28100 41.54300
C  1.38500 51.88300 43.03900
C  3.59900 49.42100 42.13200
O  2.72200 48.62600 42.49200
C  4.95200 49.01500 41.60400
C  4.82300 47.99000 40.49500
O  4.15900 48.18300 39.48100
O  5.45200 46.77200 40.73400
C  5.19500 45.74700 39.81700
H  10.53300 52.50900 39.76800
H  7.22500 58.03600 40.15800
H  2.13500 54.74700 42.06900
H  7.74600 48.57800 40.71500
H  9.74400 49.92300 39.30200
H  11.00900 49.87400 41.29400
H  9.66200 48.91500 41.88200
H  9.70700 50.66400 42.18900
H  7.36400 47.90000 38.72000
H  8.48700 48.97200 38.01500
H  6.91200 50.44400 37.22000
H  5.58000 49.90600 38.25000
H  12.14000 55.46200 38.71300
H  11.76000 53.89800 39.51000
H  12.20100 55.41100 40.41500
H  9.03700 59.16600 40.87800
H  8.77800 59.24600 39.13100
H  10.26400 59.87500 39.93300
H  4.61800 58.17300 39.88400
H  2.96700 57.22000 42.28600
H  5.71700 58.41400 42.48600
H  4.13500 59.10700 42.52900
H  5.29000 59.69300 41.23200
H  2.11300 56.15200 39.58000
H  2.34300 57.90000 39.59000
H  0.57300 57.30600 41.75400
H  0.21200 56.45400 40.29700
H  0.58400 58.28200 40.31600
H  0.78300 51.05200 42.67200
H  0.92000 52.86000 42.91500
H  1.57300 51.77400 44.10700
H  5.62300 48.59400 42.35300
H  5.70800 44.84200 40.14300
H  5.59800 46.04700 38.84900
H  4.12000 45.59800 39.91400

