158

Mg -1.87300 17.37900 27.23500
C  -2.45100 15.36000 30.08000
C  -2.71900 20.12600 29.24300
C  -1.97600 19.19100 24.34300
C  -1.73100 14.35700 25.30600
N  -2.36700 17.67800 29.42900
C  -2.58700 16.73100 30.38200
C  -2.95700 17.35000 31.76200
C  -3.29200 18.83400 31.39200
C  -2.75300 18.89600 29.96800
C  -4.78600 19.15200 31.59500
C  -1.83600 17.16500 32.81600
C  -2.47600 16.62000 34.17100
H  -1.63000 17.02900 35.36800
N  -2.19700 19.34300 26.87600
C  -2.36900 20.34600 27.81600
C  -2.49000 21.61400 27.11300
C  -2.18900 21.36500 25.71600
C  -2.13000 19.92900 25.60800
C  -2.71200 22.92800 27.80700
C  -1.94300 22.44500 24.56600
O  -1.73800 22.11100 23.42100
C  -2.03000 23.99300 24.81900
N  -1.72900 16.87800 25.15000
C  -1.90500 17.78100 24.18200
C  -1.83300 17.13000 22.80900
C  -1.51600 15.67100 23.14500
C  -1.63400 15.59900 24.65500
C  -3.07300 17.32700 21.90400
C  -0.11400 15.21400 22.76000
C  1.15600 16.01000 23.29100
N  -1.91300 15.33000 27.59300
C  -1.94000 14.21800 26.71200
C  -2.13600 13.00500 27.44500
C  -2.38300 13.45100 28.75500
C  -2.20100 14.86500 28.82700
C  -2.10100 11.64800 26.77400
C  -2.66400 12.95500 30.03200
O  -2.93000 11.84800 30.47900
C  -2.63200 14.17300 30.97600
C  -1.58500 13.90300 32.02700
O  -0.42500 14.01800 31.83300
O  -2.17800 13.35100 33.14700
C  -1.21500 12.99000 34.14400
H  -3.06600 21.01400 29.77500
H  -2.09200 19.56900 23.32500
H  -1.76100 13.46800 24.67300
H  -3.86100 16.86100 32.12600
H  -2.66100 19.50000 31.98000
H  -4.71600 20.12500 32.08300
H  -5.18200 18.41400 32.29300
H  -5.37600 19.14000 30.67900
H  -1.38800 18.12600 33.07000
H  -1.04100 16.56500 32.37500
H  -2.34000 15.53900 34.14500
H  -3.53200 16.85700 34.30100
H  -1.95800 23.66500 27.53000
H  -2.81300 22.84600 28.88900
H  -3.63400 23.38900 27.45200
H  -1.89100 24.62300 23.94000
H  -1.30700 24.33800 25.55900
H  -3.00900 24.35300 25.13500
H  -0.96000 17.60800 22.36300
H  -2.25000 15.01300 22.68000
H  -3.56300 18.26900 22.14800
H  -3.85800 16.58400 22.04800
H  -2.84500 17.44100 20.84400
H  -0.09900 15.15800 21.67200
H  -0.10300 14.21400 23.19300
H  0.89600 16.93900 23.79900
H  1.88300 16.25100 22.51500
H  1.81700 15.47200 23.97000
H  -1.11700 11.42300 26.36300
H  -2.78300 11.67700 25.92500
H  -2.56600 10.99500 27.51300
H  -3.62000 14.28000 31.42300
H  -0.57000 13.84400 34.35400
H  -0.55500 12.16400 33.88100
H  -1.67600 12.71000 35.09100
Mg 5.91400 53.18100 41.10900
C  5.77500 49.75300 40.31300
C  9.19700 53.17700 39.64800
C  5.75900 56.52700 40.90600
C  2.56700 52.94700 41.98500
N  7.32600 51.62100 40.20200
C  7.08500 50.31000 40.06900
C  8.43600 49.58500 39.64000
C  9.50100 50.72400 39.83200
C  8.62200 51.94300 39.85500
C  10.28300 50.58900 41.16600
C  8.28600 49.08800 38.20100
C  7.56300 49.99300 37.10900
H  8.13100 49.88400 35.68800
N  7.29200 54.67200 40.37000
C  8.52800 54.44500 39.79000
C  9.14800 55.73300 39.61000
C  8.18300 56.75700 39.93300
C  7.01900 55.99300 40.46900
C  10.44200 55.96800 38.96600
C  8.37400 58.27400 39.74200
O  9.35600 58.68400 39.16400
C  7.42100 59.31500 40.32200
N  4.36000 54.49400 41.48900
C  4.56800 55.85500 41.31200
C  3.35500 56.57500 41.74900
C  2.29100 55.40600 41.97200
C  3.09500 54.20900 41.83900
C  3.71700 57.39300 43.00500
C  1.02000 55.44600 40.98400
C  -0.26700 55.56600 41.73900
N  4.52500 51.68900 41.25000
C  3.22200 51.75900 41.66200
C  2.61700 50.48300 41.72300
C  3.58400 49.64700 41.19300
C  4.73700 50.46000 40.88300
C  1.34800 50.00000 42.24600
C  3.94500 48.29400 40.84400
O  3.28400 47.29200 40.94600
C  5.39600 48.29200 40.21400
C  5.23600 47.86100 38.82200
O  4.43400 48.26200 38.01100
O  6.00800 46.77700 38.70300
C  5.85000 46.20000 37.33300
H  10.24000 53.17600 39.32600
H  5.75200 57.61100 41.03600
H  1.49600 53.00000 42.19000
H  8.60600 48.69200 40.24100
H  10.14400 50.88600 38.96700
H  11.31900 50.46000 40.85500
H  9.97300 49.71700 41.74300
H  10.11000 51.41500 41.85600
H  8.03100 48.04100 38.36500
H  9.35600 48.93000 38.06400
H  7.68700 51.00900 37.48200
H  6.51100 49.71000 37.15200
H  10.38200 56.32100 37.93600
H  11.07200 55.08000 38.92400
H  10.91100 56.77600 39.52700
H  7.80000 60.27400 39.96800
H  7.43100 59.27900 41.41100
H  6.41800 59.16200 39.92400
H  3.04400 57.23700 40.94100
H  1.94100 55.45800 43.00300
H  3.06900 57.02100 43.79900
H  3.55000 58.46400 42.88900
H  4.76100 57.19200 43.24500
H  0.92200 54.51400 40.42600
H  1.15000 56.17700 40.18600
H  -0.11700 55.62600 42.81700
H  -0.93000 54.77500 41.39100
H  -0.81100 56.46000 41.43100
H  0.59700 50.38800 41.55800
H  1.15100 50.34400 43.26200
H  1.22400 48.91900 42.18100
H  6.01500 47.58300 40.76500
H  6.76500 45.71000 37.00100
H  5.75500 46.96300 36.56100
H  5.05500 45.46700 37.19600

