158

Mg 35.61800 2.22100 29.59500
C  33.29300 3.17700 32.24200
C  38.02300 2.46400 31.85300
C  37.69400 1.51800 27.05100
C  33.09500 2.83300 27.32500
N  35.52600 2.57400 31.86400
C  34.60000 3.04500 32.67900
C  35.16800 2.99800 34.13400
C  36.70300 3.07000 33.97000
C  36.77400 2.66700 32.44600
C  37.28100 4.51900 34.20000
C  34.65700 1.85900 34.99100
C  34.89500 1.98900 36.54800
H  35.26800 3.35200 37.16200
N  37.66600 1.91100 29.47700
C  38.48300 2.12800 30.54300
C  39.77200 1.80900 30.07400
C  39.69900 1.40800 28.72900
C  38.32600 1.56300 28.36200
C  40.99100 1.97200 30.98800
C  40.69600 0.86700 27.63100
O  40.34900 0.53800 26.45300
C  42.12400 0.72400 27.94900
N  35.47700 2.29000 27.49600
C  36.39400 1.75300 26.68400
C  35.99900 1.72000 25.16900
C  34.51800 2.06500 25.30700
C  34.34100 2.37700 26.81100
C  36.73100 2.66900 24.17700
C  33.60500 0.82300 24.87500
C  32.10600 0.87800 24.77600
N  33.61300 2.87400 29.71600
C  32.67600 3.07600 28.66400
C  31.40600 3.47100 29.21100
C  31.61500 3.45200 30.64800
C  32.97300 3.13600 30.90300
C  30.17900 3.93100 28.46400
C  31.02600 3.79800 31.92700
O  29.90800 4.29200 32.03600
C  32.03400 3.52300 33.02300
C  32.05300 4.74300 33.86800
O  32.77000 5.70700 33.65400
O  31.19600 4.69200 34.89700
C  30.99300 5.81600 35.82000
H  38.89600 2.58800 32.49800
H  38.24500 1.15900 26.17900
H  32.35600 3.02000 26.54300
H  34.79700 3.92200 34.57700
H  37.34300 2.36100 34.49400
H  36.56700 5.05500 34.82600
H  37.40800 5.17700 33.34100
H  38.24500 4.56500 34.70700
H  34.97100 0.89800 34.58400
H  33.57900 1.84300 34.82800
H  35.72200 1.33300 36.82000
H  34.11600 1.68100 37.24600
H  41.86600 1.52100 30.51900
H  40.77400 1.26200 31.78600
H  41.15200 3.00500 31.29500
H  42.59800 1.69600 27.80800
H  42.50400 0.11000 27.13200
H  42.18000 0.12300 28.85600
H  36.08700 0.71400 24.76100
H  34.13700 2.87700 24.68700
H  37.64000 3.01200 24.67000
H  36.31300 3.58100 23.74900
H  36.97900 2.04100 23.32200
H  33.83400 0.07300 25.63200
H  34.04800 0.39100 23.97800
H  31.81300 0.21500 25.59000
H  31.90800 0.42200 23.80600
H  31.62400 1.85400 24.71700
H  30.29100 3.95600 27.38000
H  29.82200 4.90800 28.79000
H  29.33100 3.24700 28.48100
H  31.78700 2.63200 33.59900
H  31.02400 5.31600 36.78800
H  29.99500 6.20000 35.61100
H  31.77500 6.57200 35.75400
Mg 35.31100 48.39700 24.59500
C  35.45900 46.74600 27.73000
C  33.93300 51.15700 26.09600
C  34.73200 49.71200 21.52900
C  36.13600 45.23500 23.15700
N  34.61900 48.73400 26.76000
C  35.00100 48.04400 27.87000
C  34.70000 48.93300 29.15700
C  34.11300 50.27800 28.52900
C  34.21000 50.04600 26.99000
C  32.67200 50.59100 28.96500
C  35.85200 49.14400 30.21400
C  35.54900 48.66500 31.60000
H  34.10900 48.57500 32.10800
N  34.58100 50.16100 23.92900
C  34.13700 51.19000 24.64600
C  33.90500 52.33800 23.89000
C  33.98700 51.87400 22.49900
C  34.41600 50.52800 22.58800
C  33.49600 53.62100 24.39500
C  33.61900 52.64000 21.21400
O  33.70000 52.09200 20.10200
C  33.24900 53.99000 21.20300
N  35.33800 47.53600 22.69800
C  35.23900 48.33100 21.58900
C  35.53400 47.56400 20.34800
C  36.02700 46.13700 20.80100
C  35.81000 46.27600 22.32300
C  34.48000 47.56700 19.27100
C  37.49600 45.78500 20.51300
C  38.46800 46.80200 21.21900
N  35.73600 46.40300 25.22700
C  36.08600 45.32300 24.54000
C  36.43500 44.24500 25.44300
C  36.19100 44.76200 26.71400
C  35.80300 46.09000 26.53300
C  36.85600 42.93800 25.01600
C  36.28400 44.41300 28.07200
O  36.50400 43.37800 28.65500
C  35.81200 45.80900 28.80500
C  34.64400 45.42900 29.71100
O  33.45700 45.18300 29.41700
O  35.14800 45.18800 30.94000
C  34.34700 44.58100 31.98300
H  33.67300 52.07400 26.62800
H  34.56100 50.13300 20.53600
H  36.35900 44.34000 22.57300
H  33.95500 48.29400 29.63000
H  34.71800 51.16600 28.71500
H  32.19700 49.78000 29.51600
H  32.11500 50.77800 28.04700
H  32.64500 51.46200 29.62000
H  36.14300 50.19300 30.27300
H  36.71200 48.65400 29.75700
H  36.10700 49.27600 32.31000
H  36.10600 47.73600 31.71700
H  33.64600 54.48000 23.74100
H  34.04000 53.85300 25.31000
H  32.43700 53.66000 24.65100
H  34.12800 54.59100 21.43800
H  32.48900 54.26200 21.93600
H  32.85000 54.33200 20.24800
H  36.38100 48.15600 20.00100
H  35.29300 45.43100 20.41400
H  34.58600 46.61400 18.75300
H  34.60100 48.45400 18.64900
H  33.52100 47.58400 19.78800
H  37.69300 45.86200 19.44300
H  37.77200 44.75300 20.72700
H  39.12900 47.33500 20.53500
H  39.28300 46.44400 21.84900
H  37.93100 47.54800 21.80600
H  37.91600 42.68500 25.00400
H  36.31200 42.58500 24.13900
H  36.51600 42.41600 25.91000
H  36.65300 46.21900 29.36400
H  34.15300 43.54100 31.72100
H  33.40900 45.09600 32.18600
H  34.89400 44.55900 32.92600

