158

Mg 16.10300 -1.43700 28.18000
C  15.30000 0.60400 30.92500
C  18.39600 -3.05400 30.08200
C  16.94600 -3.18400 25.39500
C  14.54900 0.86700 26.12000
N  16.81800 -1.12900 30.30400
C  16.22200 -0.38100 31.27600
C  16.92700 -0.64400 32.60300
C  18.04700 -1.66400 32.24800
C  17.73000 -2.03300 30.81100
C  19.57400 -1.27500 32.41800
C  15.99000 -1.11300 33.77300
C  16.53700 -1.62800 35.01500
H  17.72100 -0.87600 35.74700
N  17.37400 -2.95300 27.84800
C  18.24200 -3.48000 28.72900
C  18.96000 -4.54500 28.08600
C  18.44200 -4.72100 26.82900
C  17.55300 -3.58600 26.62300
C  19.94100 -5.34100 28.86000
C  18.77200 -5.75200 25.71400
O  18.31600 -5.73800 24.60800
C  19.71500 -6.81300 25.99900
N  15.95300 -1.10000 26.01800
C  16.37100 -1.96700 25.10000
C  15.93300 -1.65700 23.71600
C  14.97700 -0.45400 23.92400
C  15.14100 -0.23600 25.43900
C  17.15900 -1.34500 22.75600
C  13.48000 -0.71400 23.53400
C  12.88900 0.05200 22.38100
N  15.11300 0.38800 28.47300
C  14.46800 1.16300 27.49300
C  13.77100 2.20300 28.11700
C  14.11500 2.03300 29.48600
C  14.83200 0.91100 29.61900
C  13.22200 3.35400 27.46400
C  13.99900 2.64600 30.76500
O  13.49700 3.62900 31.23100
C  14.71300 1.65200 31.77800
C  15.71500 2.34300 32.50800
O  16.69300 2.89300 31.97100
O  15.45300 2.32600 33.81600
C  16.32000 3.12600 34.69300
H  19.20200 -3.54100 30.63400
H  17.25200 -3.64700 24.45400
H  14.08000 1.60100 25.46200
H  17.32200 0.25600 33.07400
H  17.81700 -2.61300 32.73200
H  20.10900 -2.03400 32.98900
H  19.44800 -0.26900 32.81800
H  20.03700 -1.22100 31.43200
H  15.47800 -1.93300 33.26800
H  15.19700 -0.40000 34.00100
H  16.78300 -2.68500 34.91000
H  15.69500 -1.57500 35.70600
H  19.59300 -6.26900 29.31500
H  20.38000 -4.76900 29.67700
H  20.76600 -5.51300 28.17000
H  20.75800 -6.54300 26.16800
H  19.75300 -7.67800 25.33800
H  19.26800 -7.20400 26.91300
H  15.32800 -2.49100 23.36100
H  15.25300 0.48800 23.45000
H  17.21400 -0.26600 22.61700
H  17.13200 -1.80200 21.76700
H  18.11800 -1.52900 23.24000
H  12.89700 -0.75400 24.45400
H  13.46200 -1.73200 23.14500
H  12.49900 1.01300 22.71500
H  12.06200 -0.44900 21.87800
H  13.66500 0.15300 21.62100
H  13.11500 4.15300 28.19800
H  12.21600 3.11600 27.11800
H  13.75600 3.65300 26.56200
H  14.01000 1.21600 32.48800
H  15.94200 3.19300 35.71300
H  16.43000 4.10200 34.21900
H  17.27200 2.59800 34.72700
Mg -1.05400 33.96900 26.91500
C  -2.99500 32.48700 29.52900
C  0.39900 36.01300 29.22500
C  0.40900 35.76300 24.29300
C  -2.94400 32.24000 24.59000
N  -1.33900 34.33600 29.16700
C  -2.09100 33.57200 30.01000
C  -2.00700 34.03900 31.44200
C  -1.03000 35.25100 31.34600
C  -0.62200 35.25200 29.82400
C  -1.65700 36.65400 31.80600
C  -1.52500 32.91700 32.42900
C  -2.49000 32.51300 33.64800
H  -1.84400 32.25100 35.02500
N  0.34700 35.49100 26.80000
C  0.84400 36.14600 27.90600
C  1.88200 37.13400 27.42200
C  1.75900 37.13600 26.02800
C  0.84900 36.08700 25.60200
C  2.80200 37.86200 28.30400
C  2.43700 38.14400 24.99800
O  2.20900 38.16100 23.82300
C  3.52900 39.01000 25.52500
N  -1.23400 34.04800 24.85400
C  -0.57700 34.84800 23.96100
C  -0.97300 34.57200 22.43500
C  -1.73100 33.20700 22.56500
C  -1.99400 33.17100 24.08600
C  -1.61400 35.81000 21.76200
C  -0.95400 32.02700 22.02400
C  0.27400 31.61600 22.87000
N  -2.59300 32.59500 26.99300
C  -3.23600 31.97700 25.96000
C  -4.13900 30.96400 26.44100
C  -4.13500 31.22100 27.88000
C  -3.11400 32.12600 28.11400
C  -5.10900 30.14800 25.68700
C  -4.78000 30.78900 29.09500
O  -5.68100 29.97900 29.22700
C  -4.02600 31.58700 30.30000
C  -5.03900 32.41900 30.94000
O  -5.66700 33.34200 30.42100
O  -5.35100 31.95200 32.09500
C  -6.38100 32.65200 32.93800
H  0.90500 36.58500 30.00500
H  0.82300 36.37800 23.49100
H  -3.45300 31.68900 23.79700
H  -2.97700 34.37100 31.81100
H  -0.21700 35.02000 32.03400
H  -2.73800 36.55200 31.90800
H  -1.33900 37.46700 31.15400
H  -1.28700 36.93600 32.79200
H  -0.59300 33.14000 32.94800
H  -1.36900 32.04900 31.78800
H  -2.95500 31.56600 33.37300
H  -3.31500 33.22600 33.66500
H  2.56700 38.92500 28.35500
H  3.82500 37.65500 27.98800
H  2.76400 37.41900 29.29900
H  3.15300 39.70500 26.27600
H  4.06300 39.43900 24.67700
H  4.22000 38.35300 26.05500
H  -0.02400 34.42100 21.91900
H  -2.65900 33.30900 22.00200
H  -0.78200 36.09200 21.11800
H  -1.77200 36.65600 22.43100
H  -2.53200 35.51400 21.25400
H  -0.63200 32.10900 20.98600
H  -1.64100 31.18100 22.03300
H  0.29700 32.40100 23.62600
H  1.17000 31.69600 22.25500
H  0.13400 30.67800 23.40700
H  -5.17700 30.39400 24.62800
H  -6.09700 30.30500 26.12100
H  -4.87900 29.12700 25.99400
H  -3.63200 30.81000 30.95500
H  -7.22200 33.13700 32.44400
H  -5.81400 33.38100 33.51600
H  -6.67000 31.77200 33.51300

