158

Mg 36.61300 49.62900 25.13600
C  36.76800 47.62600 28.04300
C  35.66900 52.26000 27.05000
C  36.32300 51.37100 22.37600
C  37.67100 46.78300 23.28600
N  36.34300 49.86300 27.32200
C  36.47900 48.94500 28.34300
C  36.20800 49.50900 29.70400
C  35.74300 50.99900 29.33500
C  35.90700 51.04600 27.80400
C  34.36800 51.42600 29.90100
C  37.41000 49.43500 30.68200
C  37.11200 48.78700 32.09600
H  35.73400 48.90100 32.67100
N  36.16300 51.63600 24.74300
C  35.79000 52.56100 25.67500
C  35.54500 53.82300 25.00400
C  35.69100 53.52800 23.64300
C  36.06800 52.11600 23.51400
C  35.08600 55.09700 25.73100
C  35.59400 54.57400 22.50300
O  35.81000 54.33000 21.28000
C  35.13800 56.02600 22.78500
N  36.98700 49.13800 23.22600
C  36.72500 50.06700 22.23000
C  36.76600 49.46000 20.85000
C  37.64500 48.09800 21.14000
C  37.45700 47.96300 22.67100
C  35.43400 49.13100 20.18300
C  39.10500 48.16000 20.60000
C  39.83000 46.78300 20.52000
N  37.10800 47.57600 25.51500
C  37.47800 46.59500 24.69800
C  37.61400 45.43300 25.41300
C  37.27900 45.77100 26.66400
C  36.99900 47.12000 26.72500
C  37.85700 44.17000 24.89800
C  37.22300 45.21000 28.00800
O  37.43700 44.08200 28.32900
C  36.88300 46.42600 28.97500
C  35.61400 46.19200 29.83600
O  34.47700 46.41700 29.49400
O  36.00600 45.61600 31.01600
C  34.97400 45.15100 32.00000
H  35.42400 53.14700 27.63800
H  35.91700 51.79000 21.45300
H  37.93100 45.91100 22.68200
H  35.43500 48.89100 30.16100
H  36.44400 51.76000 29.67700
H  33.70000 51.66400 29.07300
H  34.53200 52.31000 30.51800
H  34.01200 50.59800 30.51400
H  38.02300 50.33400 30.75600
H  38.04500 48.79500 30.07000
H  37.65400 49.33600 32.86600
H  37.61900 47.82200 32.08800
H  35.62700 55.97400 25.37700
H  35.28600 54.99800 26.79800
H  34.02700 55.23500 25.51400
H  34.92600 56.44000 21.79900
H  36.01100 56.52100 23.21100
H  34.21000 55.96700 23.35400
H  37.33600 50.24000 20.34500
H  37.19300 47.21300 20.69300
H  34.57600 49.38200 20.80700
H  35.28900 48.12700 19.78500
H  35.33800 49.84100 19.36100
H  39.72300 48.72700 21.29500
H  39.12700 48.67700 19.64000
H  40.51000 46.74600 21.37100
H  40.32300 46.54000 19.57900
H  39.19500 45.91000 20.66800
H  38.92300 43.95700 24.82200
H  37.50200 44.11400 23.86900
H  37.36100 43.36300 25.43700
H  37.77100 46.47000 29.60600
H  34.81700 44.10000 31.76000
H  34.09300 45.78400 31.89500
H  35.37000 45.19800 33.01400
Mg 9.91400 47.36500 26.13500
C  7.85700 47.60000 29.02000
C  12.49100 48.87300 27.83400
C  11.77900 47.20000 23.35700
C  7.08000 46.52500 24.31200
N  10.15700 48.08600 28.26700
C  9.16400 48.09100 29.25400
C  9.86600 48.61000 30.60800
C  11.09800 49.43400 30.07100
C  11.29800 48.81200 28.61300
C  10.93200 50.98500 30.05300
C  10.32800 47.33900 31.43900
C  10.69400 47.52200 32.95000
H  10.39700 46.43800 34.01400
N  11.93700 47.75900 25.74500
C  12.81000 48.37500 26.60100
C  14.07200 48.56700 25.88200
C  13.83000 48.01000 24.58800
C  12.48400 47.61800 24.49900
C  15.31000 49.18400 26.53300
C  14.84700 47.81300 23.40500
O  14.60900 47.18600 22.32000
C  16.21500 48.30600 23.56000
N  9.52600 46.91700 24.08200
C  10.42200 46.95800 23.14000
C  9.82200 46.57500 21.70700
C  8.31200 46.40100 22.09900
C  8.31100 46.62100 23.58000
C  9.96000 47.69600 20.71900
C  7.58800 45.12300 21.56400
C  6.05700 45.22600 21.25100
N  7.81500 47.12200 26.51100
C  6.79500 46.71700 25.66300
C  5.62500 46.50100 26.45100
C  5.97600 46.82000 27.78800
C  7.28700 47.24100 27.73900
C  4.25100 46.16700 25.80500
C  5.45900 46.96800 29.15200
O  4.35600 46.73800 29.61600
C  6.69300 47.38200 30.05500
C  6.98100 46.21500 30.91500
O  7.36200 45.14600 30.48300
O  6.75000 46.52600 32.23700
C  6.97300 45.44800 33.20000
H  13.25600 49.42500 28.38400
H  12.18400 47.29100 22.34600
H  6.21100 46.20000 23.73500
H  9.21400 49.27100 31.17900
H  12.00700 49.25700 30.64500
H  11.16900 51.48700 29.11500
H  11.59900 51.44400 30.78200
H  10.00100 51.33100 30.50100
H  11.21500 46.99100 30.91000
H  9.65100 46.49400 31.31100
H  10.26900 48.47600 33.26300
H  11.77600 47.62900 33.03100
H  15.12500 49.69200 27.48000
H  15.91200 49.87400 25.94300
H  15.91100 48.32800 26.83900
H  16.28200 49.35000 23.87000
H  16.76100 48.29000 22.61700
H  16.64200 47.63500 24.30600
H  10.16200 45.57600 21.43500
H  7.74900 47.26900 21.75600
H  10.12300 48.62300 21.26900
H  9.07300 47.88100 20.11200
H  10.86100 47.50300 20.13700
H  7.64800 44.38100 22.36000
H  8.13800 44.66500 20.74100
H  5.50300 46.12800 21.51000
H  5.52600 44.44100 21.79000
H  5.91300 44.94800 20.20600
H  4.22300 45.41700 25.01500
H  3.88100 47.14300 25.48900
H  3.72000 45.81100 26.68700
H  6.47100 48.24900 30.67800
H  6.80500 44.42700 32.85800
H  6.28500 45.68600 34.01100
H  7.99100 45.45600 33.58900

