158

Mg 1.24500 8.01300 27.41200
C  1.59200 10.42200 29.86800
C  1.11100 5.63500 29.91700
C  0.95300 5.80000 24.99400
C  1.22600 10.65200 25.02900
N  1.15200 8.04100 29.70600
C  1.33600 9.15400 30.47800
C  1.20500 8.76600 31.97400
C  1.45300 7.19300 31.91900
C  1.18900 6.89900 30.42100
C  2.82300 6.65400 32.39400
C  -0.22600 9.07700 32.52400
C  -0.62200 8.66400 33.93000
H  0.51300 8.34200 34.86300
N  1.13000 5.94100 27.41200
C  1.09700 5.11100 28.57200
C  0.98700 3.78300 28.12600
C  0.87000 3.80300 26.71500
C  1.01100 5.25400 26.27400
C  0.77700 2.55700 29.01200
C  0.54500 2.71900 25.71000
O  0.38300 2.97800 24.52100
C  0.28300 1.32400 26.11100
N  1.14200 8.23200 25.38700
C  0.98000 7.13600 24.57300
C  0.79200 7.47300 23.04300
C  0.51600 9.02200 23.15000
C  0.87700 9.35700 24.65200
C  2.08500 7.01500 22.19200
C  -0.89000 9.44600 22.75700
C  -1.08300 10.00600 21.33700
N  1.40900 10.16000 27.37400
C  1.47700 11.08400 26.37000
C  1.72600 12.45000 26.89900
C  1.69400 12.24100 28.29700
C  1.57600 10.81300 28.50200
C  1.91000 13.79600 26.10500
C  1.90400 12.86100 29.55100
O  2.23700 14.02900 29.74200
C  1.69100 11.71800 30.66500
C  2.63600 11.74100 31.71800
O  3.83800 11.49900 31.65300
O  2.09300 12.23700 32.91600
C  2.96900 12.32000 34.05100
H  1.04600 4.86000 30.68300
H  0.73300 5.09500 24.19000
H  1.21500 11.49300 24.33300
H  2.00400 9.23800 32.54600
H  0.68300 6.79300 32.57900
H  3.12900 5.93300 31.63600
H  2.74700 6.12500 33.34400
H  3.56700 7.44700 32.47500
H  -0.99600 8.77200 31.81500
H  -0.30000 10.15700 32.39800
H  -1.30100 7.81100 33.90300
H  -1.15700 9.51400 34.35300
H  1.38700 1.71500 28.68600
H  -0.26200 2.22600 29.01300
H  1.00100 2.77700 30.05600
H  1.14400 0.92600 26.64800
H  0.31100 0.66200 25.24600
H  -0.52800 1.15800 26.82100
H  -0.07400 6.88800 22.73500
H  1.10500 9.64800 22.48000
H  1.62900 6.19200 21.64200
H  2.88600 6.64700 22.83400
H  2.38800 7.82400 21.52700
H  -1.14600 10.31100 23.36900
H  -1.53600 8.57700 22.88100
H  -0.37200 10.79700 21.09700
H  -2.05700 10.49600 21.33200
H  -0.95900 9.22100 20.59200
H  1.81600 13.69700 25.02400
H  2.92700 14.09800 26.35400
H  1.22500 14.60800 26.35100
H  0.73800 11.85700 31.17700
H  2.35000 12.26100 34.94600
H  3.46000 13.28900 34.15100
H  3.73900 11.56100 34.18600
Mg 24.41000 -4.92500 45.08900
C  26.25200 -2.61800 43.38100
C  21.76800 -4.38900 42.91800
C  22.98900 -7.86000 46.08300
C  27.32600 -5.94000 46.86700
N  24.11400 -3.56900 43.40100
C  24.96100 -2.73300 42.89500
C  24.37200 -1.95400 41.68300
C  22.87800 -2.32200 41.80500
C  22.91800 -3.50100 42.80900
C  21.94800 -1.17600 42.33600
C  25.05200 -2.37500 40.38200
C  25.52300 -1.31900 39.30900
H  25.28300 -1.56900 37.85600
N  22.49500 -5.83700 44.71200
C  21.59000 -5.49800 43.74100
C  20.48400 -6.42900 43.76800
C  20.79000 -7.46000 44.66300
C  22.14800 -7.07200 45.22400
C  19.20500 -6.35900 42.82800
C  19.98400 -8.77700 44.84400
O  18.94800 -8.92000 44.23600
C  20.42100 -9.95900 45.59600
N  25.02200 -6.61900 46.46200
C  24.25600 -7.72000 46.63000
C  24.90000 -8.75800 47.54100
C  26.14600 -7.97500 48.06000
C  26.20100 -6.78200 47.08100
C  23.93100 -9.18100 48.66700
C  27.43600 -8.81700 48.17300
C  28.41100 -8.47900 49.25800
N  26.37600 -4.27900 45.31700
C  27.45000 -4.76100 46.06000
C  28.62300 -3.93100 45.76700
C  28.22300 -3.09400 44.73200
C  26.86200 -3.37800 44.48700
C  30.01400 -4.04500 46.43100
C  28.65400 -2.08000 43.69900
O  29.77000 -1.56700 43.57500
C  27.35700 -1.73900 42.81300
C  27.04600 -0.23900 42.82400
O  26.62300 0.43300 43.74300
O  27.52100 0.27300 41.62300
C  27.23900 1.72700 41.34600
H  20.98500 -4.16300 42.19100
H  22.70900 -8.88400 46.33800
H  28.20600 -6.35900 47.35900
H  24.54900 -0.90700 41.92700
H  22.52600 -2.75800 40.87100
H  22.38100 -0.17800 42.26900
H  21.40900 -1.37800 43.26100
H  21.16700 -0.97800 41.60200
H  24.22700 -2.83900 39.84200
H  25.82800 -3.13500 40.48000
H  26.59000 -1.11600 39.40200
H  25.08900 -0.36000 39.59000
H  19.04000 -5.32600 42.52300
H  18.30000 -6.78600 43.25900
H  19.64400 -6.93900 42.01600
H  21.26400 -10.46100 45.12100
H  19.58800 -10.62000 45.83800
H  20.61500 -9.66600 46.62700
H  25.27700 -9.65100 47.04200
H  25.98300 -7.65600 49.08900
H  23.20900 -8.39100 48.87300
H  24.50500 -9.22300 49.59300
H  23.48700 -10.13800 48.39300
H  27.87500 -8.86200 47.17700
H  27.05400 -9.78600 48.49400
H  28.63000 -9.39700 49.80200
H  28.13000 -7.79500 50.05800
H  29.28500 -8.22100 48.65900
H  30.03400 -3.74300 47.47800
H  30.86900 -3.58300 45.93700
H  30.25700 -5.10600 46.38800
H  27.70200 -2.14100 41.86000
H  28.13000 2.19100 41.76800
H  26.30700 1.99500 41.84400
H  27.11300 1.98600 40.29400

