158

Mg 25.14800 1.44600 30.40800
C  27.27900 1.57500 33.42400
C  22.46800 1.55900 32.50600
C  23.27500 1.53500 27.70400
C  28.07000 1.18300 28.57700
N  24.97900 1.68800 32.73000
C  25.93500 1.75400 33.70100
C  25.27100 1.99900 35.03600
C  23.69100 1.92400 34.75100
C  23.69500 1.73100 33.24600
C  22.81900 1.00500 35.52900
C  25.82500 3.35300 35.72900
C  26.37100 3.12800 37.20000
H  25.90500 4.05900 38.30100
N  23.08900 1.57000 30.07100
C  22.12500 1.55900 31.09600
C  20.86900 1.72100 30.47900
C  21.05200 1.74700 29.06400
C  22.52800 1.65200 28.88100
C  19.54200 1.89500 31.16100
C  20.09000 1.81200 27.87800
O  20.48000 1.83300 26.70000
C  18.61100 1.72700 28.22200
N  25.63200 1.25100 28.48900
C  24.63600 1.49700 27.51700
C  25.25200 1.72100 26.10900
C  26.79400 1.43800 26.34700
C  26.88400 1.28400 27.87600
C  24.51600 0.84200 24.94100
C  27.73500 2.53400 25.71500
C  28.90200 1.95900 24.88700
N  27.29200 1.26900 30.84600
C  28.36700 1.15200 29.97300
C  29.53400 1.13000 30.73200
C  29.14900 1.28600 32.09300
C  27.77600 1.36200 32.09600
C  30.91600 1.08700 30.20200
C  29.72600 1.47800 33.46400
O  30.85700 1.61400 33.84700
C  28.47700 1.65300 34.40400
C  28.43000 0.53200 35.37000
O  27.98400 -0.56600 35.12200
O  28.93900 0.93100 36.54800
C  28.90700 0.17100 37.78700
H  21.66900 1.77500 33.21800
H  22.79400 1.47800 26.72500
H  28.93200 1.15000 27.90700
H  25.50700 1.10400 35.61200
H  23.26900 2.86300 35.10900
H  22.19300 0.35700 34.91600
H  22.14100 1.61400 36.12700
H  23.43700 0.38600 36.18100
H  25.04900 4.11800 35.69700
H  26.70500 3.82900 35.29800
H  27.39600 3.48100 37.08700
H  26.27900 2.05500 37.36800
H  19.04000 2.82900 30.90500
H  19.67100 2.08600 32.22600
H  18.83100 1.07200 31.08200
H  18.45700 0.81700 28.80200
H  17.96000 1.79200 27.35000
H  18.35200 2.58600 28.84000
H  25.09200 2.76300 25.83400
H  27.01500 0.46900 25.89900
H  23.88900 0.06300 25.37600
H  25.28600 0.32200 24.37100
H  23.94400 1.44600 24.23700
H  28.21400 3.15500 26.47200
H  27.11200 3.21500 25.13500
H  28.98500 0.87300 24.90200
H  29.85800 2.38200 25.19600
H  28.79800 2.20100 23.83000
H  31.48800 1.55700 31.00200
H  31.09500 1.59000 29.25100
H  31.13200 0.02200 30.12000
H  28.53800 2.62700 34.88900
H  28.05200 0.47300 38.39100
H  29.78500 0.21400 38.43100
H  28.90000 -0.88200 37.50500
Mg -6.10900 24.59200 25.51100
C  -4.35800 25.78400 28.25100
C  -8.00500 22.68400 27.58000
C  -7.63000 23.14400 22.83100
C  -4.08100 26.45400 23.50100
N  -6.22300 24.26100 27.73700
C  -5.40700 24.90000 28.65300
C  -5.78300 24.52900 30.09700
C  -6.87800 23.44300 29.89900
C  -7.14800 23.48300 28.36200
C  -6.63000 22.01500 30.49200
C  -6.28300 25.77200 30.95400
C  -5.80500 25.68100 32.43000
H  -5.66600 24.31900 33.12300
N  -7.61300 23.18900 25.23300
C  -8.26900 22.58400 26.18400
C  -9.34500 21.68500 25.62300
C  -9.20200 21.78100 24.19100
C  -8.10100 22.71200 24.03900
C  -10.42000 21.00200 26.48500
C  -9.94200 21.06700 23.09000
O  -9.69100 21.29200 21.91600
C  -11.14400 20.20000 23.43700
N  -5.85300 24.65100 23.43500
C  -6.68400 24.10200 22.49200
C  -6.31600 24.52600 21.07200
C  -5.30900 25.74900 21.31900
C  -5.02600 25.63700 22.82800
C  -5.76200 23.42600 20.14400
C  -5.89700 27.12400 20.88900
C  -5.22400 27.75300 19.60900
N  -4.53500 25.87600 25.69900
C  -3.78800 26.61600 24.80300
C  -2.80800 27.50700 25.54700
C  -3.01800 27.17200 26.87100
C  -4.02100 26.22300 26.90000
C  -1.67300 28.38000 24.89200
C  -2.51000 27.31000 28.16800
O  -1.48400 27.91100 28.42600
C  -3.31700 26.44900 29.15800
C  -2.36900 25.42100 29.78300
O  -2.07100 24.30500 29.32800
O  -1.71000 25.98900 30.84900
C  -1.07100 25.09400 31.84700
H  -8.55000 21.89800 28.10600
H  -8.11900 22.91400 21.88200
H  -3.59000 27.24900 22.93600
H  -4.83900 24.06600 30.38500
H  -7.68000 23.87800 30.49600
H  -5.65500 21.95100 30.97400
H  -6.57000 21.23700 29.73100
H  -7.39500 21.65500 31.17900
H  -7.37200 25.81700 30.94200
H  -5.97500 26.76100 30.61400
H  -6.55900 26.26600 32.95600
H  -4.80700 26.11900 32.45500
H  -10.29900 19.94400 26.25100
H  -11.44600 21.26600 26.22600
H  -10.28900 21.17100 27.55400
H  -10.68800 19.42600 24.05500
H  -11.55400 19.79900 22.51000
H  -11.81000 20.83900 24.01700
H  -7.22800 24.92600 20.63000
H  -4.39100 25.55800 20.76300
H  -6.39400 22.53900 20.11600
H  -4.79700 23.01000 20.43200
H  -5.58100 23.87900 19.16800
H  -5.58900 27.84500 21.64500
H  -6.96900 27.21300 20.71200
H  -6.01800 27.96600 18.89200
H  -4.44500 27.07100 19.27000
H  -4.69900 28.68200 19.83200
H  -1.11500 29.01300 25.58200
H  -2.14100 29.11300 24.23500
H  -0.98900 27.79100 24.28100
H  -3.72300 27.11500 29.91900
H  -1.84000 24.38600 32.15800
H  -0.84000 25.69000 32.73000
H  -0.21800 24.63700 31.34600

