158

Mg 49.26500 45.46400 42.97500
C  45.81300 44.94200 42.88700
C  49.63400 42.01400 43.12800
C  52.70500 45.86500 42.40300
C  48.79500 48.92100 42.31000
N  47.88000 43.67100 42.95300
C  46.49500 43.71400 42.96700
C  45.92800 42.29300 43.01200
C  47.17700 41.43600 43.28800
C  48.29800 42.45200 43.21000
C  47.21300 40.56800 44.63300
C  44.97600 41.86800 41.82400
C  45.36800 42.23300 40.41500
H  46.01400 41.11900 39.51100
N  50.89500 44.16800 42.80500
C  50.83600 42.82700 42.98500
C  52.14100 42.30600 42.95600
C  53.06900 43.39300 42.68400
C  52.24000 44.58100 42.62000
C  52.31100 40.77500 42.98700
C  54.56700 43.27300 42.45800
O  55.12700 42.17000 42.56500
C  55.40200 44.38800 41.93800
N  50.51500 47.12200 42.34100
C  51.89600 47.04200 42.30600
C  52.46400 48.43400 42.66100
C  51.34900 49.33600 42.04000
C  50.10800 48.40300 42.23100
C  52.58000 48.59200 44.17100
C  51.55200 49.54500 40.47900
C  51.01600 50.86500 39.93600
N  47.64300 46.80200 42.69800
C  47.57500 48.17000 42.46300
C  46.12800 48.46900 42.54300
C  45.42500 47.25800 42.72400
C  46.37300 46.26400 42.77900
C  45.42700 49.86300 42.38900
C  44.10400 46.70200 42.74800
O  42.94400 47.20000 42.55900
C  44.33300 45.17800 42.95300
C  43.57700 44.70500 44.12800
O  42.73400 43.88400 44.12400
O  44.04700 45.37600 45.22900
C  43.79000 44.79200 46.55500
H  49.72700 40.93800 43.29400
H  53.77300 46.07600 42.31500
H  48.69200 49.99800 42.16200
H  45.38900 42.37500 43.95600
H  47.24400 40.70100 42.48600
H  47.86600 39.74000 44.36000
H  46.21600 40.29700 44.97800
H  47.76000 41.00500 45.46900
H  43.96200 42.20800 42.03400
H  44.99000 40.77800 41.82400
H  46.21300 42.92000 40.46800
H  44.42200 42.66200 40.08500
H  52.57400 40.49400 41.96700
H  51.46700 40.17700 43.33200
H  53.16200 40.41500 43.56500
H  54.99000 44.87200 41.05300
H  56.37600 44.04200 41.59200
H  55.59500 45.07000 42.76600
H  53.43100 48.49700 42.16100
H  51.14000 50.18400 42.69300
H  52.40000 47.58600 44.55000
H  51.72500 49.16900 44.52300
H  53.49000 49.02800 44.58300
H  50.88100 48.81800 40.02100
H  52.60800 49.34900 40.29500
H  50.62600 50.60500 38.95200
H  51.83200 51.56500 39.75400
H  50.30900 51.21800 40.68700
H  44.45300 49.78100 42.87200
H  45.24800 50.02700 41.32600
H  45.96400 50.66800 42.89100
H  43.89800 44.77700 42.03700
H  44.67700 44.81400 47.18700
H  43.53500 43.74800 46.37500
H  42.88900 45.22400 46.98900
Mg -4.93300 24.93900 25.46700
C  -3.35800 26.41000 28.21500
C  -6.40000 22.74600 27.60800
C  -6.37100 23.49100 22.73000
C  -2.93200 26.89300 23.23700
N  -4.59400 24.39000 27.67400
C  -4.14600 25.29100 28.58300
C  -4.73800 24.93700 30.05000
C  -5.33400 23.47800 29.87200
C  -5.48100 23.50600 28.29500
C  -4.48700 22.33400 30.44100
C  -5.64100 26.07000 30.59300
C  -5.40400 26.63300 32.04600
H  -5.10300 25.51200 33.09300
N  -6.20000 23.37300 25.18600
C  -6.76100 22.59700 26.20200
C  -7.87900 21.82000 25.69300
C  -7.81500 21.98800 24.34500
C  -6.68400 22.95200 24.03100
C  -8.83300 20.96900 26.52200
C  -8.78200 21.41600 23.23900
O  -8.59800 21.63800 22.07000
C  -9.93600 20.52200 23.61000
N  -4.65600 25.11700 23.30900
C  -5.39700 24.45000 22.39700
C  -5.18300 24.96400 20.92600
C  -4.01900 25.98900 21.07100
C  -3.82900 26.04600 22.62200
C  -4.98000 23.72100 20.07800
C  -4.11000 27.38100 20.30600
C  -5.37700 28.19000 20.74600
N  -3.43000 26.21600 25.62000
C  -2.76000 27.02200 24.66200
C  -1.89000 28.00700 25.31300
C  -2.03400 27.73900 26.72600
C  -3.02200 26.71500 26.85400
C  -1.07700 29.11700 24.73300
C  -1.64200 28.19100 28.07600
O  -0.87000 29.03600 28.44200
C  -2.52500 27.36700 29.08100
C  -1.62000 26.55600 29.98100
O  -1.27900 25.39700 29.83200
O  -1.21200 27.31100 31.06900
C  -0.57800 26.65600 32.17200
H  -6.93100 22.05000 28.25900
H  -6.99000 23.26400 21.85900
H  -2.24400 27.47700 22.62100
H  -3.88000 24.94900 30.72200
H  -6.31400 23.45100 30.34800
H  -3.50500 22.66900 30.77500
H  -4.49300 21.58800 29.64700
H  -5.06600 21.96500 31.28700
H  -6.70300 25.82300 30.61100
H  -5.44100 26.90800 29.92600
H  -6.32900 27.10900 32.37200
H  -4.52000 27.27100 32.03700
H  -9.81800 21.39500 26.71100
H  -8.38400 20.77200 27.49600
H  -8.98000 19.99300 26.05900
H  -10.61500 20.96300 24.34000
H  -9.61300 19.57600 24.04600
H  -10.41400 20.20000 22.68500
H  -6.07500 25.41800 20.49300
H  -3.06700 25.57700 20.73800
H  -4.42400 22.97500 20.64500
H  -4.31100 24.02200 19.27100
H  -5.91200 23.30900 19.69100
H  -4.14500 27.07000 19.26200
H  -3.14600 27.84300 20.51900
H  -6.11400 28.22600 19.94500
H  -5.26100 29.25200 20.96100
H  -5.79800 27.64800 21.59400
H  -1.23000 30.04300 25.28600
H  -1.38100 29.37900 23.72000
H  -0.02200 28.85900 24.83100
H  -3.10300 28.06700 29.68400
H  -0.15300 25.70100 31.86300
H  -1.31000 26.65400 32.97900
H  0.24400 27.32700 32.42300

