158

Mg 42.79000 42.06700 27.10100
C  41.67400 44.36000 29.48200
C  43.93700 40.07100 29.72500
C  44.14400 40.04900 24.79000
C  42.60800 44.56400 24.59900
N  42.73100 42.20400 29.36800
C  42.12400 43.20300 30.07400
C  42.08900 42.87600 31.53300
C  43.05200 41.61100 31.62400
C  43.34300 41.30100 30.15200
C  44.37400 41.81800 32.45400
C  40.64700 42.67100 32.06900
C  40.27200 43.43200 33.36200
H  41.20100 43.51700 34.57000
N  43.68500 40.21300 27.31600
C  44.09200 39.58200 28.39200
C  44.58700 38.24700 28.00000
C  44.42400 38.12500 26.60300
C  44.03500 39.48700 26.14200
C  45.10600 37.15200 28.94200
C  44.62500 36.95200 25.70800
O  44.36000 36.99900 24.52500
C  44.93300 35.56400 26.28100
N  43.60400 42.45300 25.11900
C  44.00900 41.37000 24.36700
C  44.16700 41.72000 22.83300
C  43.76000 43.20200 22.79000
C  43.35300 43.45400 24.25300
C  45.47300 41.40400 22.15100
C  42.58400 43.45900 21.81700
C  41.28300 42.66500 22.24700
N  42.15800 44.07800 26.97600
C  42.03500 44.92900 25.88300
C  41.28400 46.10600 26.30200
C  41.17400 45.96700 27.71300
C  41.78000 44.75600 28.11000
C  40.86200 47.26800 25.45400
C  40.59900 46.57800 28.91400
O  40.20500 47.68700 29.13000
C  40.89200 45.52100 30.08000
C  41.70400 46.34700 31.11000
O  42.90600 46.62300 31.02200
O  40.83900 46.79100 32.08700
C  41.45500 47.66500 33.06800
H  44.17600 39.27300 30.43100
H  44.37000 39.39900 23.94200
H  42.50500 45.30300 23.80100
H  42.63400 43.73500 31.92400
H  42.44600 40.86000 32.13200
H  45.15900 41.62600 31.72200
H  44.43300 41.08000 33.25400
H  44.41800 42.85100 32.79900
H  40.43000 41.60800 32.17400
H  39.91400 42.99200 31.32900
H  39.26400 43.13100 33.64900
H  40.12900 44.45700 33.02100
H  46.15100 37.02100 28.66300
H  44.57600 36.23700 28.67600
H  44.96900 37.38100 29.99900
H  44.14600 35.30100 26.98800
H  45.87500 35.59300 26.82700
H  45.07600 34.88500 25.44000
H  43.46200 41.07500 22.30900
H  44.61700 43.84400 22.58600
H  46.05800 40.80500 22.84900
H  46.05100 42.31200 21.97600
H  45.35300 40.81100 21.24400
H  42.83800 43.17900 20.79500
H  42.37500 44.52600 21.75300
H  40.51500 43.38100 22.53900
H  41.41000 41.94200 23.05200
H  40.80900 42.08000 21.45800
H  40.39400 46.79700 24.59100
H  41.79000 47.81500 25.28600
H  40.20100 47.93600 26.00700
H  39.90700 45.17400 30.39400
H  42.39400 48.06900 32.69000
H  41.54800 47.23200 34.06400
H  40.72700 48.45500 33.25500
Mg 27.02000 49.78200 26.70100
C  24.75500 51.00800 29.28200
C  29.27600 49.28700 29.16600
C  29.08000 49.16900 24.28300
C  24.65900 51.30300 24.39900
N  26.90000 50.07000 28.99100
C  25.89200 50.42200 29.88200
C  26.34000 50.29400 31.31600
C  27.93100 50.09700 31.14100
C  28.05700 49.75400 29.63900
C  28.74600 51.41000 31.60000
C  25.61000 49.06600 32.01400
C  24.88600 49.37200 33.29800
H  25.76200 49.92200 34.47400
N  28.88300 49.25600 26.75100
C  29.67600 49.00700 27.86500
C  30.99300 48.52400 27.41600
C  30.96400 48.55600 25.96200
C  29.58400 49.02000 25.60100
C  32.08300 48.17200 28.35800
C  32.05800 48.17400 24.95300
O  31.89500 48.02400 23.75300
C  33.50500 47.88200 25.39200
N  26.90200 50.19500 24.69500
C  27.88500 49.70600 23.87400
C  27.50100 49.75000 22.35100
C  25.96600 50.20000 22.53500
C  25.82700 50.63300 23.92100
C  28.36200 50.68700 21.48300
C  24.92200 49.14700 21.97000
C  24.57700 47.97800 22.83900
N  25.07900 50.89400 26.77100
C  24.26300 51.43600 25.75800
C  23.15600 52.16000 26.35100
C  23.24200 51.93300 27.73000
C  24.44000 51.21700 27.93300
C  22.15300 52.93200 25.56400
C  22.57300 52.18800 28.95400
O  21.49700 52.64500 29.17000
C  23.58700 51.68500 30.08400
C  23.93600 52.71900 31.07800
O  24.53800 53.75900 30.98100
O  23.46300 52.22600 32.27900
C  23.56000 53.16200 33.39400
H  29.96400 49.07800 29.98800
H  29.86000 49.11400 23.52100
H  24.03700 51.70400 23.59600
H  26.13800 51.17000 31.93300
H  28.32600 49.26900 31.73000
H  29.64300 51.15500 32.16600
H  28.15500 52.06300 32.24200
H  29.05900 51.98600 30.73000
H  26.33900 48.28100 32.21200
H  24.75600 48.74400 31.41900
H  24.23900 48.57000 33.65400
H  24.30200 50.27600 33.12600
H  33.06600 48.58100 28.12200
H  32.21300 47.09000 28.32600
H  31.93300 48.50800 29.38300
H  34.13900 47.46200 24.61200
H  33.55000 47.22600 26.26200
H  33.93300 48.84300 25.67900
H  27.59700 48.72400 21.99800
H  25.88400 51.07300 21.88800
H  27.65700 51.20500 20.83300
H  29.00700 50.18000 20.76500
H  28.96400 51.35700 22.09700
H  25.28000 48.67800 21.05400
H  24.03800 49.70200 21.65800
H  24.52400 48.29000 23.88200
H  25.33900 47.20600 22.73300
H  23.58100 47.60500 22.60100
H  22.45600 53.08200 24.52700
H  21.93700 53.90500 26.00500
H  21.31200 52.25400 25.70800
H  23.05600 50.87700 30.58700
H  24.32700 52.84500 34.10100
H  22.67100 53.19200 34.02400
H  23.74300 54.20500 33.13500

