158

Mg 41.51200 8.28600 28.96600
C  43.27400 9.75700 31.51100
C  39.24700 6.95700 31.11600
C  39.70400 6.87400 26.27200
C  43.92000 9.37100 26.71000
N  41.33000 8.36700 31.04200
C  42.17200 8.95800 31.95600
C  41.65900 8.90500 33.35300
C  40.38000 8.03800 33.17400
C  40.27700 7.80600 31.71400
C  40.44600 6.73000 33.94400
C  41.44700 10.19600 34.29700
C  41.10700 9.95900 35.75500
H  41.50800 11.07800 36.70500
N  39.65400 7.12500 28.71900
C  38.93100 6.69600 29.73900
C  37.86500 5.91600 29.29200
C  37.88800 5.92800 27.88700
C  39.07100 6.67800 27.57100
C  36.72500 5.34800 30.22300
C  36.96100 5.27800 26.96600
O  37.26700 5.12700 25.78700
C  35.56600 4.76500 27.38100
N  41.82300 7.94500 26.80300
C  40.85900 7.50200 25.92400
C  41.35100 7.64900 24.44100
C  42.49200 8.76200 24.64800
C  42.85500 8.57400 26.14700
C  41.89100 6.34300 23.85300
C  42.03400 10.18800 24.34500
C  40.56900 10.57400 24.52800
N  43.32100 9.23500 29.08000
C  44.19800 9.62800 28.10500
C  45.26200 10.41900 28.63800
C  44.92300 10.58800 30.02700
C  43.76400 9.85500 30.19800
C  46.36800 11.06300 27.87200
C  45.31500 11.08900 31.28200
O  46.17000 11.87200 31.55500
C  44.22600 10.50100 32.33000
C  44.82400 9.62500 33.32900
O  45.33000 8.49100 33.19900
O  44.62600 10.17200 34.61200
C  45.05600 9.31000 35.68700
H  38.52400 6.61300 31.85900
H  39.09800 6.58800 25.41000
H  44.53100 9.81800 25.92300
H  42.39500 8.30600 33.89000
H  39.47000 8.53000 33.51700
H  39.46500 6.54600 34.38300
H  41.25400 6.82400 34.67000
H  40.65100 5.94900 33.21100
H  40.54300 10.67600 33.92000
H  42.29000 10.88600 34.27000
H  41.60500 9.02600 36.01900
H  40.01800 9.92600 35.72500
H  35.79100 5.85400 29.97800
H  37.00700 5.35300 31.27600
H  36.70800 4.30000 29.92400
H  34.97100 5.49600 27.92900
H  35.87400 3.93600 28.01900
H  35.06100 4.35000 26.50900
H  40.60800 8.04500 23.74900
H  43.26800 8.51500 23.92300
H  42.97500 6.31600 23.74300
H  41.37800 6.33300 22.89200
H  41.53900 5.63600 24.60500
H  42.28500 10.28900 23.28900
H  42.60100 10.95000 24.88100
H  40.41400 11.56400 24.95600
H  39.97400 9.95600 25.20100
H  40.02500 10.66100 23.58700
H  46.11200 11.27600 26.83400
H  47.18400 10.34600 27.95700
H  46.65300 11.93500 28.46100
H  43.62800 11.28700 32.79100
H  44.77900 9.93900 36.53200
H  46.14300 9.22700 35.72800
H  44.51300 8.37400 35.55900
Mg -2.76700 34.94700 26.47500
C  -3.60300 33.40000 29.50500
C  -0.88500 37.20400 28.26900
C  -2.45500 36.83300 23.67800
C  -5.20700 32.94900 24.81300
N  -2.36400 35.19300 28.68500
C  -2.87200 34.52800 29.74700
C  -2.31000 35.18200 31.09600
C  -1.37200 36.32400 30.66100
C  -1.58100 36.30200 29.11900
C  -1.55900 37.66300 31.30000
C  -1.61700 34.17000 32.10200
C  -2.26200 34.22000 33.59200
H  -1.36400 34.16800 34.80700
N  -1.64700 36.60800 25.98700
C  -0.98300 37.39300 26.89600
C  -0.39700 38.52300 26.24500
C  -0.80200 38.48700 24.80200
C  -1.69000 37.27200 24.78100
C  0.39000 39.49400 27.02100
C  -0.49500 39.34800 23.57200
O  -0.83100 39.09300 22.42300
C  0.30300 40.62500 23.77400
N  -3.64900 34.78700 24.57400
C  -3.29500 35.73700 23.53600
C  -4.18300 35.47200 22.23600
C  -4.69600 34.00300 22.54100
C  -4.57300 33.95800 24.07500
C  -5.25400 36.59400 21.99800
C  -3.89100 32.83800 21.84800
C  -4.28600 32.63700 20.39400
N  -4.12800 33.47800 26.98100
C  -4.98800 32.70100 26.19000
C  -5.53000 31.62700 26.98900
C  -5.05200 31.88700 28.28100
C  -4.16400 32.99700 28.22700
C  -6.51400 30.56600 26.55800
C  -5.05200 31.40200 29.59800
O  -5.51900 30.40500 30.09900
C  -4.35300 32.47700 30.51300
C  -5.37800 33.11700 31.47500
O  -6.07000 34.06800 31.21800
O  -5.34100 32.42900 32.65300
C  -6.10200 32.98600 33.78800
H  -0.23300 37.80200 28.90900
H  -2.39800 37.27100 22.67900
H  -5.91800 32.28300 24.32100
H  -3.16600 35.54400 31.66600
H  -0.34200 36.13900 30.96600
H  -1.63500 38.48900 30.59300
H  -0.81300 37.97100 32.03300
H  -2.42000 37.68900 31.96800
H  -0.54400 34.31200 32.23100
H  -1.73500 33.15200 31.73100
H  -3.01500 33.43200 33.59900
H  -2.73400 35.20100 33.64500
H  1.00700 40.09800 26.35400
H  1.10700 39.15600 27.77000
H  -0.31100 40.25600 27.35900
H  0.03900 41.28000 24.60500
H  0.53100 41.15300 22.84800
H  1.23500 40.16200 24.09900
H  -3.58200 35.46200 21.32600
H  -5.77200 34.04200 22.36900
H  -5.16500 37.26800 22.85000
H  -6.26600 36.18900 22.01300
H  -5.07400 37.12600 21.06400
H  -3.89300 31.90900 22.41700
H  -2.84600 33.11400 21.70800
H  -5.13200 33.27300 20.13200
H  -4.72300 31.64000 20.32900
H  -3.43900 32.81100 19.73100
H  -6.10300 29.55600 26.53400
H  -7.06800 30.78600 25.64600
H  -7.28900 30.63600 27.32200
H  -3.55700 32.01900 31.10000
H  -7.01300 33.43100 33.38800
H  -5.44600 33.79900 34.10000
H  -6.37100 32.24800 34.54400

