158

Mg 8.93800 3.63100 27.99900
C  10.06100 1.92100 30.86800
C  7.12000 5.86400 30.00800
C  7.47100 5.03400 25.27000
C  10.13100 1.06900 25.97900
N  8.58800 3.72900 30.11400
C  9.24600 3.02900 31.12400
C  9.08400 3.75800 32.42900
C  8.07900 4.89800 32.22400
C  7.87900 4.82400 30.67100
C  6.69400 4.80000 33.05000
C  10.40800 4.13600 33.18800
C  10.69400 3.54200 34.59000
H  11.37900 4.42400 35.67200
N  7.62500 5.34300 27.68300
C  7.00800 6.11100 28.60400
C  6.29600 7.19100 27.97600
C  6.27800 6.86400 26.62200
C  7.19600 5.74000 26.43500
C  5.58200 8.28200 28.72500
C  5.39800 7.45800 25.52100
O  5.38500 6.99000 24.42300
C  4.44600 8.68600 25.78100
N  8.92400 3.13900 25.93100
C  8.30500 3.94100 24.97600
C  8.29300 3.28600 23.60200
C  9.22500 2.04100 23.73100
C  9.40300 2.05700 25.29600
C  6.81600 2.89000 23.21800
C  10.53400 2.12200 22.97800
C  10.63300 1.17000 21.78700
N  9.94700 1.87500 28.31300
C  10.38100 0.94800 27.43500
C  11.02900 -0.09600 28.09900
C  10.93000 0.19400 29.44000
C  10.21600 1.41300 29.54300
C  11.67700 -1.26500 27.39000
C  11.36700 -0.15000 30.84500
O  12.00300 -1.06500 31.24900
C  10.73900 0.96800 31.78500
C  9.85700 0.28500 32.78500
O  8.79100 -0.22500 32.56000
O  10.38800 0.31500 34.06400
C  9.63200 -0.41400 35.07300
H  6.55100 6.44300 30.73800
H  7.13100 5.47400 24.33100
H  10.53000 0.24300 25.38800
H  8.66200 3.02100 33.11200
H  8.56200 5.84900 32.45000
H  6.44800 5.81400 33.36500
H  6.92400 4.23800 33.95500
H  5.87900 4.37700 32.46300
H  10.33800 5.21300 33.33800
H  11.26800 3.92300 32.55400
H  11.47400 2.78300 34.53900
H  9.77300 3.09400 34.96500
H  4.50000 8.21100 28.60600
H  5.92800 9.22300 28.29900
H  5.87100 8.35300 29.77300
H  3.78500 8.88400 24.93700
H  5.02500 9.58100 26.01000
H  3.80600 8.61900 26.66000
H  8.36000 4.04000 22.81800
H  8.72500 1.09500 23.52300
H  6.12900 3.26400 23.97800
H  6.68800 1.81000 23.15300
H  6.61500 3.40100 22.27700
H  11.32800 1.73600 23.61800
H  10.67300 3.09700 22.51300
H  11.03500 1.60300 20.87100
H  9.68700 0.72300 21.48000
H  11.27000 0.30800 21.98700
H  11.11500 -1.67600 26.55100
H  11.92600 -2.10900 28.03200
H  12.58300 -0.82100 26.97600
H  11.58500 1.42000 32.30200
H  10.13900 -1.34500 35.32400
H  8.61000 -0.64800 34.77500
H  9.49300 0.21600 35.95200
Mg 47.05700 45.13800 43.06100
C  43.66700 44.12000 43.23900
C  47.76200 41.69800 42.45000
C  50.12600 45.99000 42.61200
C  46.00400 48.51200 43.40800
N  45.78100 43.14700 42.81200
C  44.49000 43.01400 43.01300
C  44.02300 41.52500 42.71800
C  45.40000 40.81000 42.85900
C  46.38700 41.96700 42.70000
C  45.55300 39.79800 44.03000
C  43.20000 41.23100 41.51800
C  43.62300 42.01200 40.30700
H  43.19800 41.50700 38.93700
N  48.73600 43.96900 42.42800
C  48.84500 42.54900 42.23300
C  50.21200 42.21300 41.91700
C  50.89900 43.49300 41.85700
C  49.97700 44.57100 42.33100
C  50.72800 40.86400 41.59900
C  52.40700 43.60100 41.53400
O  53.09900 42.65500 41.23200
C  53.06600 44.95700 41.53600
N  47.95500 47.05400 42.95500
C  49.27500 47.09800 42.92900
C  49.73300 48.54100 43.05700
C  48.47200 49.36300 43.35300
C  47.37600 48.28400 43.27100
C  50.96800 48.81600 43.95900
C  48.14600 50.51900 42.29100
C  47.64700 51.73800 42.99000
N  45.23400 46.12900 43.32300
C  44.99800 47.47300 43.42400
C  43.54500 47.70000 43.62000
C  42.98700 46.37800 43.50800
C  44.09000 45.51900 43.30700
C  42.76700 49.04800 43.83100
C  41.73500 45.63800 43.30800
O  40.62000 46.07200 43.13000
C  42.12800 44.15700 43.40600
C  41.80500 43.66400 44.81700
O  42.31900 44.15200 45.76900
O  41.09100 42.50600 44.77600
C  40.87400 41.87900 46.08900
H  47.98300 40.62900 42.44100
H  51.18400 46.25300 42.65700
H  45.78800 49.57300 43.55100
H  43.41300 41.23200 43.57200
H  45.56200 40.21700 41.95900
H  45.97400 38.89500 43.58800
H  44.61400 39.61100 44.55100
H  46.30500 40.23900 44.68500
H  42.12700 41.34400 41.67400
H  43.34900 40.15200 41.48500
H  44.71100 42.05200 40.26000
H  43.30400 43.04200 40.46800
H  49.80900 40.32300 41.37600
H  51.12400 40.36600 42.48400
H  51.30600 40.95900 40.68000
H  52.47400 45.78500 41.14900
H  53.92800 44.78700 40.89100
H  53.36200 45.12700 42.57100
H  50.06300 48.79000 42.04900
H  48.53700 49.72100 44.38100
H  51.08600 47.96700 44.63200
H  50.83500 49.77700 44.45700
H  51.83500 48.91200 43.30600
H  47.39700 50.14000 41.59600
H  49.09200 50.72300 41.78900
H  48.43600 52.48900 42.96100
H  47.33900 51.60400 44.02600
H  46.83100 52.14900 42.39700
H  41.68400 49.05900 43.71100
H  43.13400 49.75500 43.08700
H  43.03800 49.60100 44.73000
H  41.53600 43.53200 42.73800
H  41.86400 41.70400 46.51100
H  40.48600 40.87700 45.90500
H  40.36600 42.65400 46.66200

