158

Mg 46.27300 5.93700 49.12800
C  43.91300 8.36300 48.44600
C  44.10300 3.51000 47.97600
C  48.85400 3.70300 49.15500
C  48.51600 8.51100 49.85900
N  44.29000 5.96700 48.11600
C  43.50800 7.10900 48.00900
C  42.12900 6.75500 47.38900
C  42.11100 5.17600 47.41000
C  43.58000 4.86900 47.88000
C  41.05500 4.54200 48.44800
C  42.09100 7.37200 45.90700
C  41.06500 8.48600 45.55000
H  40.29200 8.02300 44.28100
N  46.40800 3.80700 48.63900
C  45.37800 2.96200 48.36400
C  45.89200 1.66000 48.13800
C  47.31200 1.64400 48.45300
C  47.62800 3.05400 48.74300
C  45.10300 0.52600 47.63700
C  48.17500 0.43900 48.41100
O  47.73500 -0.66000 48.04600
C  49.66600 0.60100 48.63100
N  48.36700 6.09300 49.39000
C  49.23500 5.00600 49.39000
C  50.70200 5.37500 49.71000
C  50.53200 6.82300 50.11800
C  49.03600 7.19400 49.76900
C  51.27000 4.49200 50.84800
C  51.52500 7.88300 49.51100
C  52.16600 8.92900 50.42000
N  46.21800 8.03000 49.20900
C  47.20000 8.93700 49.59300
C  46.70900 10.28700 49.51400
C  45.37000 10.08500 49.15900
C  45.15300 8.69300 48.86500
C  47.63000 11.45200 49.51100
C  44.19100 10.76200 48.81500
O  43.89500 11.93200 48.72000
C  43.15600 9.63700 48.38000
C  41.92500 9.75400 49.27700
O  41.83300 9.40100 50.45300
O  40.90700 10.25100 48.56200
C  39.53200 10.48200 49.17400
H  43.39200 2.75800 47.62700
H  49.61300 2.95400 49.39000
H  49.27700 9.25300 50.11000
H  41.26400 7.17900 47.89900
H  41.89700 4.82400 46.40100
H  40.36200 5.31600 48.77800
H  41.61200 4.11200 49.28000
H  40.51200 3.82700 47.83000
H  42.06700 6.65400 45.08700
H  43.02400 7.87900 45.66400
H  41.59400 9.42800 45.40700
H  40.36600 8.70000 46.35900
H  44.84600 -0.21300 48.39600
H  45.58300 -0.05800 46.85300
H  44.13300 0.82500 47.24000
H  50.07500 1.37000 47.97600
H  50.15900 -0.34400 48.40300
H  49.89000 0.81500 49.67600
H  51.26300 5.29400 48.77900
H  50.49900 6.93200 51.20200
H  50.50700 3.84700 51.28600
H  51.60300 5.12500 51.67000
H  52.12000 3.84500 50.63100
H  50.94100 8.45200 48.78700
H  52.38100 7.32800 49.12900
H  52.06600 9.97900 50.14600
H  53.24400 8.77200 50.43400
H  51.78100 8.63700 51.39800
H  48.09300 11.42900 50.49800
H  47.04800 12.34600 49.29000
H  48.43200 11.22100 48.80900
H  42.86800 9.79300 47.34000
H  39.59700 11.22300 49.97100
H  39.08100 9.57900 49.58700
H  38.77000 10.86300 48.49400
Mg -10.55500 39.11700 39.74600
C  -9.78100 35.73100 39.63700
C  -7.11500 39.70000 39.17900
C  -11.29700 42.28500 39.55800
C  -13.86700 38.24400 40.43900
N  -8.60900 37.87800 39.45800
C  -8.59200 36.50600 39.51500
C  -7.14100 35.95400 39.19700
C  -6.30700 37.26700 39.47200
C  -7.39100 38.35600 39.39000
C  -5.59900 37.36000 40.84700
C  -7.05800 35.23600 37.81500
C  -7.41400 35.99900 36.48800
H  -8.76400 35.86300 35.86000
N  -9.42100 40.80100 39.28800
C  -8.03700 40.83300 39.10900
C  -7.67100 42.20200 38.81400
C  -8.78900 43.05700 39.00500
C  -9.91900 42.08300 39.35500
C  -6.25200 42.66300 38.67400
C  -8.86800 44.57800 38.92400
O  -7.91800 45.18500 38.42500
C  -10.07300 45.39300 39.33400
N  -12.39700 40.06000 39.88200
C  -12.42700 41.39800 39.74200
C  -13.78900 41.99700 39.95700
C  -14.65600 40.68900 40.36800
C  -13.57000 39.56600 40.20100
C  -13.94800 43.22400 40.92700
C  -15.89400 40.52800 39.44500
C  -17.12700 40.25700 40.23600
N  -11.63700 37.31000 39.96300
C  -12.99100 37.14300 40.30500
C  -13.23500 35.79300 40.38000
C  -12.03700 35.13900 40.06000
C  -11.09700 36.13900 39.76300
C  -14.51600 35.17400 40.71900
C  -11.48100 33.88600 39.89700
O  -12.06700 32.82800 39.97000
C  -9.89700 34.15900 39.55700
C  -9.06000 33.35800 40.45300
O  -9.21500 33.16200 41.66200
O  -8.00400 32.91700 39.80300
C  -6.83800 32.40900 40.51000
H  -6.06800 39.90500 38.94200
H  -11.62400 43.32700 39.55000
H  -14.94600 38.14100 40.56700
H  -7.11200 35.25100 40.02900
H  -5.47900 37.32700 38.76600
H  -6.04600 38.12900 41.47700
H  -4.53600 37.56600 40.71900
H  -5.66100 36.40300 41.36600
H  -7.59100 34.28600 37.80800
H  -6.05600 34.83000 37.67200
H  -6.72500 35.70900 35.69600
H  -7.14900 37.05500 36.54900
H  -6.12900 43.48400 37.96700
H  -5.63700 41.81500 38.37200
H  -5.97700 43.07900 39.64300
H  -10.25400 45.15100 40.38100
H  -10.98100 45.23200 38.75300
H  -9.83700 46.44400 39.16200
H  -14.08200 42.27400 38.94400
H  -14.98700 40.63700 41.40500
H  -14.93100 43.17000 41.39400
H  -13.89300 44.11100 40.29500
H  -13.11000 43.35700 41.61100
H  -15.74600 39.67100 38.78700
H  -15.97400 41.33900 38.72000
H  -16.93100 40.60700 41.24900
H  -17.37800 39.19600 40.25200
H  -17.98100 40.87400 39.95600
H  -14.97400 34.89700 39.76900
H  -15.15200 35.84000 41.30100
H  -14.38300 34.25300 41.28700
H  -9.79100 33.92000 38.49900
H  -6.37100 31.51700 40.09200
H  -7.16000 32.11800 41.51000
H  -6.09700 33.20300 40.59900

