158

Mg 42.70000 41.35100 26.22100
C  41.92200 43.92200 28.55100
C  43.62800 39.38300 28.66300
C  43.78200 39.25500 23.77600
C  41.99500 43.77700 23.68000
N  42.57500 41.59200 28.37000
C  42.26900 42.68400 29.12200
C  42.21800 42.26600 30.61700
C  43.01700 40.92100 30.58900
C  43.11900 40.60700 29.11100
C  44.41000 40.94500 31.32100
C  40.76900 42.27400 31.26700
C  40.58800 43.18100 32.45400
H  40.19200 42.59900 33.78600
N  43.35500 39.58500 26.20000
C  43.73700 38.91700 27.34900
C  44.36400 37.59600 26.96100
C  44.02400 37.42800 25.59100
C  43.70300 38.79000 25.09000
C  44.96800 36.68400 28.06300
C  43.98800 36.24600 24.72000
O  43.37500 36.35300 23.66600
C  44.47900 34.91500 25.14900
N  42.95100 41.52900 24.00800
C  43.44600 40.53100 23.29300
C  43.32000 40.73300 21.73800
C  42.63600 42.13300 21.72600
C  42.46500 42.49300 23.21300
C  44.70500 40.57000 20.92900
C  41.20200 42.13500 21.13600
C  40.67100 43.32900 20.31000
N  42.00000 43.40000 26.11900
C  41.73200 44.19000 25.02200
C  41.11100 45.41300 25.48400
C  41.17200 45.36500 26.83100
C  41.74200 44.16300 27.17000
C  40.67000 46.55600 24.51700
C  40.87500 46.14300 28.05600
O  40.25200 47.15500 28.17300
C  41.32200 45.22200 29.25400
C  42.38600 45.77700 30.11800
O  43.59800 45.59300 29.96700
O  41.83400 46.60800 31.06200
C  42.80800 47.26000 31.83800
H  43.94000 38.71000 29.46500
H  44.08900 38.66400 22.91100
H  41.72000 44.56800 22.98000
H  42.87200 43.03800 31.02300
H  42.41200 40.19900 31.13600
H  44.44300 40.09400 32.00100
H  44.48400 41.85600 31.91500
H  45.22200 40.98800 30.59400
H  40.58600 41.24600 31.58000
H  39.97800 42.48500 30.54800
H  39.75700 43.78400 32.08900
H  41.33800 43.96100 32.58400
H  45.30300 37.25900 28.92600
H  45.86000 36.20900 27.65600
H  44.25500 35.92500 28.38400
H  45.54800 35.04700 25.31500
H  44.44000 34.15500 24.36900
H  44.05100 34.60600 26.10300
H  42.54300 40.05400 21.38900
H  43.05800 42.94200 21.12900
H  45.27400 39.72700 21.32200
H  45.28200 41.47700 20.75000
H  44.43900 40.21800 19.93300
H  40.53500 42.08000 21.99700
H  40.93700 41.36500 20.41200
H  40.24000 44.07400 20.98000
H  39.93600 42.85200 19.66000
H  41.48400 43.81700 19.77300
H  40.14200 46.24900 23.61400
H  41.55900 47.16500 24.34800
H  39.97400 47.20100 25.05200
H  40.46100 44.99600 29.88300
H  43.54500 47.77200 31.22000
H  43.33500 46.60900 32.53500
H  42.33700 48.06500 32.40200
Mg 29.73800 57.55800 39.20900
C  26.88900 55.51500 38.69900
C  31.69000 55.08100 37.79300
C  32.39100 59.65500 39.31700
C  27.58900 60.18800 40.03800
N  29.31700 55.57400 38.31400
C  28.06900 54.87100 38.36800
C  28.23500 53.43700 37.93000
C  29.72800 53.44600 37.53700
C  30.29400 54.78500 37.86500
C  30.53800 52.24700 38.25000
C  27.29700 52.81300 36.73100
C  27.01600 53.83200 35.59900
H  27.79600 53.78000 34.30800
N  31.75400 57.39000 38.68500
C  32.35500 56.25200 38.14300
C  33.78100 56.53400 38.03700
C  34.08600 57.88400 38.47100
C  32.74300 58.37600 38.89900
C  34.64000 55.52200 37.50200
C  35.39800 58.53500 38.28600
O  36.38200 57.91800 37.83400
C  35.57500 59.92400 38.65900
N  29.91400 59.60600 39.46100
C  31.15800 60.23000 39.57300
C  31.06400 61.68600 40.05600
C  29.49700 61.84400 40.22300
C  28.92100 60.45700 39.88600
C  31.89200 62.08800 41.26500
C  28.88900 62.91500 39.26500
C  27.74000 63.62800 39.92800
N  27.71300 57.79300 39.51000
C  26.98000 58.91100 39.83900
C  25.55200 58.64800 39.84500
C  25.46000 57.30300 39.42900
C  26.80100 56.81300 39.24400
C  24.37800 59.55500 40.12500
C  24.50300 56.22400 39.16300
O  23.25300 56.19100 39.18800
C  25.40400 55.02700 38.56500
C  25.13700 53.84500 39.41700
O  25.61200 53.61300 40.50200
O  24.11500 53.14600 38.85500
C  23.82600 51.86200 39.55600
H  32.33600 54.30900 37.36900
H  33.15900 60.43200 39.31800
H  26.94900 61.03400 40.29900
H  28.03800 52.87900 38.84500
H  29.85700 53.25700 36.47100
H  31.27400 51.77400 37.60000
H  29.76400 51.50300 38.43600
H  31.05800 52.60200 39.14000
H  26.41500 52.31200 37.12900
H  27.94000 52.02100 36.34700
H  27.02900 54.83900 36.01500
H  25.96800 53.61000 35.39500
H  34.83500 55.63300 36.43600
H  34.26300 54.50100 37.56600
H  35.57900 55.48800 38.05400
H  35.39700 59.95500 39.73400
H  34.98100 60.68200 38.14700
H  36.61600 60.22600 38.54900
H  31.42000 62.31500 39.24000
H  29.33500 62.19500 41.24200
H  32.40300 63.04300 41.14200
H  32.58900 61.28500 41.50500
H  31.18300 62.18100 42.08800
H  28.71200 62.40100 38.32100
H  29.67700 63.65400 39.11900
H  26.89600 63.54300 39.24300
H  27.88000 64.70300 40.04300
H  27.37800 63.32400 40.91000
H  24.01300 59.52700 41.15100
H  23.64600 59.30500 39.35600
H  24.62300 60.59500 39.91000
H  25.06500 54.78000 37.55900
H  24.65300 51.31800 40.01300
H  23.29400 51.16600 38.90800
H  23.22500 52.16000 40.41500

