158

Mg 15.78300 -1.87200 27.38400
C  14.80000 0.21800 30.37400
C  17.87300 -3.57700 29.48200
C  16.96300 -3.30700 24.75000
C  13.88900 0.37900 25.52000
N  16.32100 -1.60500 29.69100
C  15.75700 -0.80400 30.68000
C  16.32800 -1.23900 32.00700
C  17.19100 -2.50900 31.72200
C  17.11600 -2.58600 30.21700
C  18.64800 -2.40600 32.32900
C  15.30100 -1.59200 33.12000
C  15.53800 -0.83300 34.49200
H  16.86800 -0.28000 34.94700
N  17.23600 -3.36800 27.12600
C  17.98700 -3.93500 28.06300
C  18.83400 -4.92200 27.48100
C  18.50900 -4.89200 26.09300
C  17.54100 -3.81000 25.89100
C  19.80000 -5.84800 28.24900
C  19.12900 -5.66400 25.00700
O  18.82800 -5.53600 23.81800
C  20.09600 -6.78100 25.28100
N  15.32400 -1.59600 25.39200
C  15.99900 -2.31100 24.44500
C  15.61100 -1.75300 23.05600
C  14.39700 -0.79600 23.30300
C  14.44200 -0.70600 24.82700
C  16.81700 -1.08200 22.33800
C  13.08900 -1.41600 22.87900
C  12.81500 -1.23200 21.37600
N  14.69200 -0.07300 27.76700
C  14.01600 0.64300 26.87500
C  13.34500 1.75200 27.53600
C  13.59500 1.63200 28.89200
C  14.36300 0.47500 29.03800
C  12.64100 2.88800 26.85400
C  13.34000 2.28400 30.22500
O  12.97600 3.39100 30.57200
C  14.10900 1.34100 31.24200
C  15.00400 2.22700 32.04300
O  15.99000 2.77000 31.59900
O  14.49800 2.50500 33.23100
C  15.20000 3.39800 34.13300
H  18.44300 -4.18100 30.19100
H  17.37900 -3.65900 23.80400
H  13.25300 1.05800 24.94900
H  16.96300 -0.45900 32.42600
H  16.59700 -3.37900 32.00500
H  18.71100 -1.47200 32.88700
H  19.39700 -2.40800 31.53700
H  18.67900 -3.35700 32.86100
H  15.33000 -2.66600 33.30600
H  14.31200 -1.33000 32.74600
H  15.15900 -1.43200 35.32000
H  14.96400 0.06800 34.27400
H  20.77100 -5.37600 28.40100
H  19.91000 -6.88900 27.94300
H  19.40700 -5.90000 29.26400
H  21.02200 -6.32800 25.63500
H  20.27600 -7.42700 24.42100
H  19.64400 -7.38600 26.06700
H  15.21500 -2.50700 22.37600
H  14.58300 0.23100 22.98800
H  16.77100 -0.02800 22.61200
H  16.76000 -1.23800 21.26100
H  17.79000 -1.47000 22.64000
H  12.25500 -0.95600 23.40900
H  12.93300 -2.43000 23.24700
H  13.76800 -0.91200 20.95400
H  12.17300 -0.37400 21.17700
H  12.39800 -2.08300 20.83900
H  13.30100 3.45400 26.19600
H  12.25400 3.55300 27.62600
H  11.81500 2.54400 26.23100
H  13.41800 0.91200 31.96700
H  15.04200 4.45400 33.91500
H  16.24500 3.11100 34.25600
H  14.72200 3.28700 35.10600
Mg 30.74400 58.31900 39.55600
C  27.98500 56.48600 38.15500
C  32.87300 55.72300 38.47500
C  33.37800 60.14300 40.45000
C  28.52700 60.92600 40.24300
N  30.43100 56.42800 38.23000
C  29.23800 55.85900 37.87100
C  29.50700 54.43600 37.33600
C  31.04900 54.21500 37.61200
C  31.52500 55.54400 38.13300
C  31.31200 52.98900 38.54800
C  29.00000 54.31400 35.83200
C  29.60100 55.34800 34.93900
H  28.67600 56.30400 34.05200
N  32.82800 57.99900 39.43700
C  33.50900 56.91400 38.91700
C  34.92400 57.12400 39.03300
C  35.06300 58.36900 39.71500
C  33.74300 58.91100 39.91300
C  35.94100 56.19400 38.34000
C  36.43300 58.92500 40.07000
O  37.38200 58.23000 39.80200
C  36.69200 60.20700 40.69700
N  30.85300 60.18100 40.24900
C  32.06700 60.73400 40.60500
C  31.92700 62.20400 40.91600
C  30.39400 62.41600 41.05200
C  29.83000 61.06900 40.56000
C  32.86200 62.69300 42.04600
C  29.91500 63.68600 40.24700
C  30.11400 65.07800 40.96200
N  28.72000 58.62200 39.39600
C  27.92000 59.78700 39.70900
C  26.56600 59.46200 39.46100
C  26.58800 58.17400 38.92300
C  27.90900 57.68700 38.89800
C  25.44500 60.36600 39.87000
C  25.70400 57.19500 38.35200
O  24.47100 57.13800 38.21700
C  26.53200 56.00100 37.89900
C  26.09900 54.76100 38.63800
O  26.19300 54.65900 39.88600
O  25.40800 53.90800 37.78800
C  25.03500 52.59800 38.41400
H  33.57000 54.88400 38.40900
H  34.25100 60.68900 40.81300
H  27.84100 61.70600 40.57900
H  28.90300 53.77500 37.95900
H  31.54000 53.93400 36.68000
H  30.45000 52.32300 38.50400
H  31.36000 53.48500 39.51700
H  32.29300 52.54900 38.37200
H  27.91900 54.45300 35.80200
H  29.35900 53.32200 35.56000
H  30.12300 54.70300 34.23200
H  30.38300 56.01100 35.30800
H  36.69800 56.81000 37.85500
H  35.35400 55.51500 37.72100
H  36.49400 55.64500 39.10100
H  36.30700 60.99600 40.05100
H  37.76700 60.35700 40.79400
H  36.08500 60.13900 41.60000
H  32.21400 62.67300 39.97500
H  30.00500 62.54700 42.06100
H  33.49100 61.99700 42.60200
H  32.12900 63.08000 42.75400
H  33.43300 63.56900 41.73900
H  28.83600 63.73200 40.10200
H  30.53900 63.77200 39.35700
H  30.84000 65.61500 40.35200
H  30.50900 64.97400 41.97200
H  29.18400 65.64600 40.97100
H  24.54200 59.78700 39.67500
H  25.39500 61.41000 39.55900
H  25.52000 60.42700 40.95500
H  26.40600 55.82500 36.83100
H  25.69100 52.31900 39.23800
H  25.09700 51.82000 37.65300
H  24.09400 52.61900 38.96400

