158

Mg 44.25600 5.49500 47.89700
C  41.90100 8.11000 47.44800
C  41.79100 3.21300 47.67300
C  46.62500 3.12000 47.93500
C  46.80700 7.85000 47.29300
N  42.05600 5.68700 47.57300
C  41.29000 6.81800 47.53800
C  39.79100 6.43400 47.44300
C  39.75200 4.84100 47.57400
C  41.34400 4.51000 47.62400
C  39.00900 4.35000 48.83600
C  38.90600 7.03400 46.30200
C  39.18900 6.66000 44.86100
H  39.39600 7.82700 43.95700
N  44.27300 3.40000 47.82400
C  43.12100 2.63900 47.69500
C  43.50800 1.24900 47.67400
C  44.93200 1.17000 47.74200
C  45.35000 2.58700 47.82400
C  42.46200 0.09400 47.59300
C  45.75100 -0.14600 47.85700
O  45.12700 -1.19300 48.00800
C  47.26100 -0.12900 47.78000
N  46.36100 5.51100 47.61900
C  47.15800 4.41800 47.86200
C  48.63900 4.57700 47.55800
C  48.60900 6.12500 47.10100
C  47.18900 6.53200 47.32800
C  49.57500 4.23400 48.76500
C  49.17000 6.46300 45.62900
C  48.77200 5.52900 44.51900
N  44.38500 7.55700 47.63900
C  45.48600 8.42300 47.40600
C  45.06800 9.79000 47.35500
C  43.64300 9.61700 47.36100
C  43.28900 8.27600 47.47600
C  45.87500 11.10900 47.13600
C  42.40500 10.40300 47.26800
O  42.30600 11.61100 47.11500
C  41.18800 9.41700 47.39100
C  40.39900 9.71500 48.59100
O  40.46200 9.13200 49.66600
O  39.44000 10.65100 48.27100
C  38.57900 11.18100 49.28600
H  40.98200 2.48300 47.61100
H  47.33000 2.30300 48.10300
H  47.67700 8.50100 47.18400
H  39.46600 6.97800 48.33000
H  39.36800 4.30200 46.70800
H  38.70600 5.27400 49.33000
H  39.79100 3.99100 49.50600
H  38.15100 3.73600 48.56300
H  38.94300 8.10100 46.52300
H  37.92300 6.77000 46.69300
H  38.31700 6.13200 44.47500
H  40.06600 6.02200 44.75900
H  42.81400 -0.69800 46.93300
H  41.51600 0.38000 47.13300
H  42.27500 -0.25200 48.61000
H  47.58900 0.54800 46.99100
H  47.50900 -1.17500 47.59600
H  47.73700 0.10900 48.73100
H  48.97300 3.83800 46.83000
H  49.19300 6.68900 47.82900
H  50.37800 4.96000 48.89100
H  50.07600 3.27900 48.61100
H  49.08800 4.10600 49.73200
H  50.22500 6.69600 45.76700
H  48.84800 7.44800 45.29000
H  48.57800 6.12500 43.62800
H  47.87000 4.96400 44.75600
H  49.59900 4.89100 44.20900
H  45.22100 11.98100 47.15700
H  46.62300 11.16600 46.34500
H  46.35600 11.10700 48.11400
H  40.55700 9.38300 46.50300
H  38.23800 12.20000 49.10500
H  39.12500 11.16100 50.22900
H  37.69500 10.57000 49.46600
Mg 43.34500 41.70500 26.10700
C  42.70100 44.10500 28.47600
C  44.13200 39.52400 28.90900
C  44.37600 39.37900 23.99900
C  43.10900 44.02900 23.61800
N  43.31100 41.81100 28.50000
C  43.00900 42.91500 29.20000
C  43.04900 42.67100 30.67000
C  43.58300 41.16400 30.79100
C  43.70700 40.77600 29.36400
C  44.79200 40.80500 31.74200
C  41.65900 43.04800 31.33300
C  41.02600 42.20000 32.52600
H  40.43200 42.82500 33.79000
N  44.06000 39.70500 26.34700
C  44.29900 39.03200 27.59200
C  44.79900 37.69600 27.19600
C  44.79200 37.54800 25.76900
C  44.39900 38.90600 25.34600
C  45.29500 36.69800 28.20600
C  44.98400 36.26500 24.95200
O  44.93200 36.32500 23.68500
C  45.18300 34.91200 25.52800
N  43.63500 41.76200 24.16500
C  43.96100 40.58900 23.52500
C  43.87300 40.79600 21.94600
C  43.61400 42.31800 21.80600
C  43.39000 42.75500 23.26300
C  45.00700 40.32600 21.08900
C  42.42200 42.67500 20.88300
C  42.69700 42.74800 19.38900
N  43.01400 43.59800 26.06100
C  42.88400 44.47200 24.96000
C  42.43900 45.76600 25.42500
C  42.35300 45.65700 26.76300
C  42.74600 44.35800 27.11900
C  42.08700 46.93300 24.63400
C  41.98400 46.40600 27.99900
O  41.59500 47.51800 28.21700
C  42.32900 45.41200 29.12800
C  43.35600 46.13400 30.03300
O  44.51000 46.40000 29.61700
O  42.79300 46.52800 31.23200
C  43.80300 46.95000 32.25400
H  44.24500 38.86300 29.77000
H  44.82300 38.75600 23.22100
H  42.94700 44.72900 22.79600
H  43.75800 43.38200 31.09300
H  42.84800 40.51800 31.27100
H  45.63900 40.41200 31.18000
H  44.48400 40.07100 32.48700
H  45.17900 41.70800 32.21500
H  40.92900 43.02100 30.52400
H  41.71500 44.05800 31.74000
H  41.60300 41.29800 32.72900
H  40.15300 41.91200 31.94000
H  46.34600 36.54000 27.96500
H  44.81300 35.73000 28.06400
H  45.26900 36.99100 29.25500
H  46.16000 34.94300 26.01200
H  45.24600 34.16600 24.73600
H  44.42000 34.61400 26.24700
H  42.95600 40.27100 21.67700
H  44.49200 42.85800 21.45300
H  44.80200 39.29900 20.78600
H  45.92200 40.52700 21.64700
H  45.15800 40.94500 20.20500
H  41.93600 43.62600 21.10100
H  41.65600 41.90400 20.97200
H  42.63200 43.73500 18.93100
H  42.06300 42.07100 18.81700
H  43.72100 42.37500 19.38200
H  41.88000 47.83200 25.21400
H  41.32000 46.76100 23.87900
H  43.00100 47.15300 24.08200
H  41.33800 45.25700 29.55400
H  44.68300 47.43500 31.83200
H  44.12000 46.13000 32.89900
H  43.30400 47.73900 32.81600

