158

Mg 41.92500 41.81600 26.98100
C  41.02800 44.22600 29.43200
C  42.96500 39.76000 29.44400
C  42.72500 39.58300 24.51700
C  41.41800 44.32600 24.50400
N  41.79500 42.00500 29.10100
C  41.32600 42.99000 29.86900
C  41.37600 42.56600 31.32400
C  42.27600 41.32700 31.43200
C  42.42300 41.00900 29.89500
C  43.58800 41.45500 32.18500
C  39.94500 42.40600 31.93900
C  39.80100 42.85800 33.48700
H  39.26100 41.87000 34.43800
N  42.70500 39.91400 27.02500
C  43.05200 39.25000 28.13000
C  43.63600 38.02200 27.73000
C  43.50700 37.92100 26.27600
C  42.88200 39.14900 25.89600
C  44.07900 36.94000 28.70700
C  43.92000 36.79500 25.32100
O  43.83100 36.83600 24.08200
C  44.56200 35.62700 25.80100
N  42.13500 41.96300 24.79700
C  42.51900 40.89200 24.08800
C  42.36400 41.21200 22.64000
C  42.03000 42.76700 22.59100
C  41.80200 43.08500 24.04700
C  43.58300 40.87100 21.80100
C  40.77900 42.93700 21.69400
C  41.03200 43.20700 20.19500
N  41.40800 43.82900 26.92200
C  41.17800 44.65800 25.86700
C  40.67400 45.92200 26.31800
C  40.61300 45.84900 27.73300
C  41.14800 44.54900 28.02400
C  40.42300 47.18400 25.37400
C  40.37800 46.58900 28.95300
O  40.12200 47.75500 29.14200
C  40.51600 45.49000 30.15800
C  41.48600 46.06400 31.15400
O  42.57900 46.65200 30.85000
O  40.92600 46.04300 32.45400
C  41.86100 46.60200 33.46400
H  43.24200 39.15800 30.31100
H  42.77700 38.78500 23.77300
H  41.20500 45.06900 23.73200
H  41.84400 43.37100 31.89000
H  41.77500 40.46500 31.87200
H  43.52500 40.88600 33.11200
H  43.75800 42.52300 32.31800
H  44.52400 41.18900 31.69300
H  39.72700 41.34000 32.00400
H  39.25300 43.04900 31.39500
H  39.24300 43.79400 33.52100
H  40.78100 43.15400 33.86200
H  43.32800 36.16500 28.85900
H  44.40900 37.41100 29.63300
H  45.03900 36.64200 28.28700
H  45.47400 35.83900 26.36000
H  44.82200 34.98900 24.95600
H  43.69100 35.34300 26.39100
H  41.52400 40.58600 22.33900
H  42.91000 43.34600 22.31100
H  44.16600 41.78300 21.67800
H  43.26500 40.67500 20.77600
H  44.25500 40.11700 22.21100
H  40.11800 43.66800 22.16100
H  40.08900 42.10500 21.83800
H  40.48900 44.09500 19.87100
H  40.60500 42.36800 19.64500
H  42.06900 43.31200 19.87500
H  39.63000 47.78600 25.81800
H  40.07700 47.03400 24.35100
H  41.27100 47.86400 25.29700
H  39.57700 45.35300 30.69500
H  42.87700 46.38700 33.13300
H  41.82200 46.09300 34.42700
H  41.77200 47.66900 33.67300
Mg -4.72400 25.28800 26.31600
C  -3.55700 26.75800 29.25600
C  -6.92100 23.44300 28.07600
C  -5.69200 23.99400 23.36800
C  -2.31500 27.23400 24.52900
N  -5.14100 25.12600 28.41900
C  -4.58700 25.80300 29.44700
C  -5.17300 25.45500 30.77900
C  -5.83800 24.08700 30.30400
C  -6.02800 24.21800 28.84300
C  -5.11800 22.81400 30.66100
C  -6.10700 26.61500 31.39100
C  -6.21700 26.66600 32.96200
H  -5.64900 25.46800 33.72300
N  -6.09000 23.84200 25.82800
C  -6.99300 23.31600 26.66500
C  -7.96500 22.60200 25.89200
C  -7.61700 22.70600 24.50500
C  -6.44200 23.61700 24.52600
C  -9.02600 21.83700 26.59800
C  -8.34200 22.12900 23.30100
O  -7.96900 22.42200 22.19900
C  -9.55000 21.22800 23.39600
N  -3.99000 25.57800 24.14600
C  -4.54900 24.74500 23.17200
C  -4.01400 25.23000 21.77200
C  -2.97400 26.32400 22.15900
C  -3.01500 26.36500 23.66900
C  -3.49600 23.99700 20.95900
C  -3.25800 27.64100 21.39200
C  -2.17100 28.27400 20.61400
N  -3.28800 26.78500 26.75000
C  -2.36900 27.41200 25.96600
C  -1.57200 28.24200 26.78300
C  -2.00500 28.03100 28.11000
C  -2.95600 27.07600 28.03500
C  -0.60600 29.23900 26.20400
C  -1.88400 28.51500 29.44500
O  -1.17300 29.39200 29.95200
C  -2.87900 27.66100 30.26800
C  -2.05200 26.81600 31.15000
O  -1.41900 25.85100 30.85400
O  -2.06900 27.36700 32.39200
C  -1.14200 26.92400 33.41500
H  -7.57700 22.74700 28.60300
H  -5.92600 23.48200 22.43200
H  -1.52500 27.91100 24.19800
H  -4.25400 25.25300 31.32700
H  -6.85100 24.09200 30.70700
H  -5.13500 22.20600 29.75700
H  -5.68900 22.30200 31.43500
H  -4.06800 23.00900 30.88300
H  -7.12400 26.37300 31.08200
H  -5.88000 27.61600 31.02400
H  -7.20600 26.90600 33.35100
H  -5.60800 27.52700 33.23900
H  -9.99500 21.80300 26.10000
H  -9.31600 22.11400 27.61200
H  -8.63800 20.81900 26.59000
H  -9.48700 20.53800 24.23800
H  -9.49700 20.66800 22.46200
H  -10.38300 21.92700 23.48000
H  -4.93000 25.70800 21.42700
H  -1.95200 26.10800 21.84700
H  -2.43100 24.08500 20.74300
H  -4.17800 23.83000 20.12500
H  -3.65000 23.03700 21.45100
H  -3.66700 28.37100 22.09100
H  -4.08200 27.51400 20.69000
H  -1.88700 27.66700 19.75400
H  -1.36600 28.63500 21.25300
H  -2.49800 29.20200 20.14500
H  0.30800 28.78600 25.81800
H  -0.41600 29.82700 27.10200
H  -1.05000 29.82400 25.39900
H  -3.59800 28.31700 30.76000
H  -1.38300 25.88600 33.64600
H  -1.39600 27.49500 34.30800
H  -0.06700 26.97800 33.24700

