158

Mg 25.93600 51.64200 25.52900
C  23.75800 52.63500 28.02500
C  28.26700 50.80800 27.72900
C  28.12000 51.18500 22.92500
C  23.48300 52.70500 23.13900
N  25.94800 51.76000 27.75500
C  24.98300 52.19100 28.50800
C  25.38200 51.87400 30.00600
C  26.83700 51.28100 29.93600
C  27.06100 51.26600 28.39000
C  27.92600 52.01600 30.71700
C  24.43200 50.81300 30.69100
C  23.49900 51.23200 31.85500
H  23.32300 50.44000 33.12200
N  27.84800 50.99700 25.38100
C  28.67000 50.72000 26.39600
C  29.97200 50.30900 25.95000
C  29.94700 50.39800 24.55800
C  28.59000 50.87400 24.20100
C  31.10900 49.90800 26.89400
C  31.06300 50.18000 23.55600
O  30.88300 50.16800 22.37200
C  32.52100 49.86200 24.04900
N  25.82700 51.93300 23.30400
C  26.85100 51.48900 22.49200
C  26.43900 51.62000 20.99200
C  25.04100 52.28800 21.04100
C  24.68500 52.21400 22.55600
C  27.43800 52.32600 20.04300
C  23.88300 51.44300 20.18800
C  23.77500 52.07700 18.77800
N  24.04200 52.65900 25.47600
C  23.16100 52.86500 24.51100
C  21.92400 53.38500 25.06500
C  22.03600 53.17300 26.47900
C  23.37900 52.75900 26.63200
C  20.80500 53.93000 24.23900
C  21.40500 53.31500 27.77700
O  20.23100 53.52200 28.07700
C  22.48700 52.96400 28.83700
C  22.74600 54.15500 29.78000
O  23.57500 55.01300 29.56400
O  21.95000 54.10800 30.91700
C  22.38000 54.86900 32.10900
H  28.91200 50.36200 28.48900
H  28.73700 51.00900 22.04200
H  22.71100 53.10000 22.47600
H  25.40600 52.74100 30.66600
H  26.85800 50.27700 30.36200
H  28.36300 52.78600 30.08200
H  28.66700 51.29500 31.06200
H  27.53400 52.48100 31.62100
H  24.98600 49.99300 31.14800
H  23.73800 50.43400 29.94200
H  22.47500 51.30600 31.48800
H  23.82300 52.24000 32.11300
H  31.42000 48.89000 26.65900
H  30.78900 49.92700 27.93600
H  31.94700 50.60200 26.82300
H  32.68300 48.83000 24.36000
H  32.88900 50.59900 24.76300
H  33.11300 49.97900 23.14200
H  26.38700 50.60600 20.59600
H  25.11000 53.31600 20.68500
H  27.04300 53.29700 19.74500
H  27.52200 51.62400 19.21300
H  28.38900 52.57100 20.51600
H  22.92400 51.40700 20.70300
H  24.17600 50.41100 19.99400
H  24.23800 51.36600 18.09400
H  24.30000 53.03100 18.72600
H  22.72600 52.31800 18.60500
H  21.16500 54.33200 23.29200
H  20.35200 54.86300 24.57600
H  20.18400 53.13300 23.83100
H  22.03400 52.17600 29.43900
H  23.28000 54.36500 32.46100
H  21.52600 54.96000 32.78000
H  22.82100 55.85800 31.97700
Mg 9.04300 47.55900 26.85200
C  7.08800 47.14200 29.63300
C  11.70500 47.95700 28.99900
C  10.84800 48.65400 24.17000
C  6.13600 47.65000 24.84200
N  9.38100 47.62100 29.14300
C  8.41700 47.35000 30.06000
C  9.01600 47.38700 31.49200
C  10.53000 47.70700 31.25100
C  10.53100 47.77500 29.72100
C  11.21800 48.89100 31.98500
C  8.67700 46.25200 32.55400
C  9.79400 45.90200 33.53000
H  9.43700 45.15500 34.80800
N  11.04500 48.08100 26.60100
C  11.99700 48.13600 27.58900
C  13.24900 48.39400 26.97400
C  13.02100 48.54600 25.58500
C  11.59000 48.48000 25.39500
C  14.55900 48.30900 27.81700
C  14.02000 48.80400 24.50000
O  13.77300 49.01200 23.30500
C  15.46000 49.01900 24.92000
N  8.55100 48.17900 24.80500
C  9.47400 48.66100 23.92400
C  8.86200 48.94000 22.60400
C  7.38200 48.39800 22.75900
C  7.34400 48.00500 24.24100
C  8.87300 50.45600 22.24600
C  7.01200 47.12500 21.77900
C  6.20700 47.45400 20.45000
N  7.01800 47.41700 27.11300
C  5.94600 47.31200 26.18400
C  4.68500 47.10600 26.89000
C  5.06300 47.06900 28.25000
C  6.50100 47.22100 28.33100
C  3.34600 47.07600 26.19600
C  4.59300 46.82900 29.62000
O  3.46100 46.69600 30.06300
C  5.92900 46.73100 30.52600
C  6.01000 45.34700 31.12000
O  6.63700 44.42300 30.63000
O  5.44300 45.35800 32.39300
C  5.70300 44.28600 33.28600
H  12.56200 48.03500 29.67100
H  11.42700 48.85000 23.26500
H  5.27800 47.64800 24.16700
H  8.62700 48.23400 32.05600
H  11.11500 46.81600 31.47800
H  11.74300 49.52900 31.27300
H  12.02600 48.41700 32.54300
H  10.52300 49.47000 32.59400
H  8.56300 45.28200 32.07000
H  7.81300 46.58200 33.13100
H  10.15300 46.88300 33.84000
H  10.61100 45.36100 33.05300
H  14.95600 49.32200 27.74800
H  15.35500 47.65100 27.46900
H  14.37400 48.13100 28.87600
H  15.67400 49.69400 25.74900
H  15.91600 49.33600 23.98200
H  15.85400 48.00800 25.02800
H  9.44900 48.37800 21.87800
H  6.58900 49.14200 22.67900
H  9.41200 50.57400 21.30600
H  9.51300 50.87900 23.02100
H  7.86800 50.87600 22.27300
H  6.50300 46.36400 22.37000
H  8.02500 46.88500 21.45700
H  5.30600 46.84100 20.46700
H  6.72300 47.23100 19.51500
H  5.77700 48.45400 20.39600
H  3.15700 46.32500 25.42800
H  3.19200 48.06600 25.76800
H  2.46200 46.94100 26.81900
H  5.86500 47.51800 31.27700
H  6.41200 43.58200 32.85000
H  4.76700 43.82500 33.60000
H  6.26100 44.61300 34.16400

