158

Mg 25.06800 2.03300 30.05000
C  27.14300 2.02800 32.80300
C  22.36700 1.83100 32.27500
C  22.90000 1.83200 27.38800
C  27.78500 1.81400 27.92100
N  24.76500 2.12600 32.29400
C  25.78800 2.19900 33.18900
C  25.29300 2.45900 34.68600
C  23.69100 1.97500 34.50400
C  23.55200 1.93000 32.96800
C  23.41600 0.59400 35.10700
C  25.52400 3.95100 35.16900
C  26.64400 4.09100 36.32600
H  26.41400 5.03100 37.47500
N  22.95200 1.96000 29.83900
C  22.01600 1.88300 30.90300
C  20.69200 1.82700 30.33400
C  20.83900 1.69700 28.94000
C  22.25300 1.88300 28.63600
C  19.46900 1.73700 31.17300
C  19.80900 1.40600 27.91700
O  19.97800 1.32600 26.70200
C  18.39900 1.11400 28.33700
N  25.34200 1.71200 27.97800
C  24.31800 1.78000 27.10500
C  24.83800 1.94300 25.64700
C  26.36100 1.97200 25.86600
C  26.49500 1.84100 27.34200
C  24.38700 0.72200 24.70700
C  27.01900 3.25100 25.25100
C  26.72700 4.63700 25.89600
N  27.06000 1.89100 30.20900
C  28.04600 1.79200 29.29600
C  29.32800 1.84200 30.02500
C  29.02900 1.95500 31.35000
C  27.64300 1.94100 31.43100
C  30.67600 1.65800 29.33600
C  29.60200 2.01100 32.70500
O  30.75400 2.00200 33.05000
C  28.37100 2.16800 33.66600
C  28.44800 1.21200 34.78800
O  28.15200 0.03300 34.68500
O  29.09600 1.80400 35.89900
C  29.02900 0.91400 37.13300
H  21.54800 1.86400 32.99700
H  22.31000 1.92800 26.47400
H  28.59900 1.95300 27.20600
H  25.73900 1.69300 35.32100
H  23.11800 2.75400 35.00600
H  22.53100 0.17700 34.62700
H  23.12500 0.80800 36.13500
H  24.25400 -0.10300 35.10800
H  24.55700 4.37100 35.44600
H  25.93100 4.49600 34.31700
H  27.53800 4.35200 35.76000
H  26.84300 3.09900 36.73200
H  18.83300 2.57300 30.88100
H  19.62300 1.76500 32.25200
H  18.88500 0.82200 31.07200
H  17.93200 1.97400 28.81800
H  18.42800 0.26200 29.01700
H  17.90800 0.90200 27.38800
H  24.50400 2.85300 25.14900
H  26.82400 1.12900 25.35100
H  24.65600 1.07100 23.71000
H  23.33100 0.45300 24.66900
H  25.07100 -0.06200 25.03100
H  26.81900 3.40700 24.19100
H  28.10000 3.23900 25.39300
H  27.68200 5.09700 26.14900
H  26.13500 4.42100 26.78500
H  26.26100 5.44200 25.32700
H  30.68200 2.40900 28.54600
H  30.77700 0.63800 28.96400
H  31.47200 1.95000 30.02200
H  28.36300 3.17400 34.08500
H  30.01100 0.94600 37.60400
H  28.84100 -0.14500 36.95800
H  28.29300 1.15100 37.90100
Mg 0.53500 41.99700 25.39100
C  1.81600 41.89500 28.75500
C  -2.39400 40.95700 26.51200
C  -0.26100 41.22800 22.27200
C  3.80500 42.87700 24.34900
N  -0.20600 41.57500 27.38900
C  0.41200 41.60400 28.58900
C  -0.52300 41.34200 29.75900
C  -1.79100 40.77100 29.09500
C  -1.44900 41.11900 27.55600
C  -2.05800 39.26700 29.39600
C  -0.69900 42.79200 30.35700
C  -0.99800 42.72300 31.95100
H  -1.66300 41.51000 32.69300
N  -1.18600 41.38900 24.43500
C  -2.33900 41.09900 25.09500
C  -3.37800 40.88000 24.13000
C  -2.73600 40.90000 22.81500
C  -1.33700 41.16500 23.15200
C  -4.84500 40.67800 24.41700
C  -3.37100 40.75200 21.42300
O  -2.72400 40.97600 20.40400
C  -4.86000 40.56100 21.38500
N  1.60100 42.00700 23.64800
C  1.06600 41.61600 22.43300
C  2.09500 41.69100 21.37900
C  3.10700 42.67500 21.95900
C  2.86800 42.47000 23.43100
C  2.63200 40.33500 20.74200
C  3.09200 44.19700 21.55400
C  3.98200 44.59300 20.34500
N  2.47100 42.21600 26.32400
C  3.65300 42.67600 25.73800
C  4.67700 42.96600 26.78400
C  4.02700 42.63900 28.06500
C  2.67500 42.16800 27.67400
C  6.05400 43.45500 26.53500
C  4.09500 42.47700 29.48100
O  4.99900 42.59700 30.24400
C  2.70200 42.06000 29.92600
C  2.73000 40.77100 30.68800
O  2.90100 39.62400 30.30900
O  2.28800 41.08600 31.97200
C  1.81200 39.97400 32.77400
H  -3.39100 40.58500 26.75700
H  -0.42100 40.87500 21.25100
H  4.78200 43.17800 23.96600
H  0.08600 40.70500 30.40100
H  -2.70100 41.28900 29.39500
H  -2.41400 39.22000 30.42500
H  -1.22400 38.62400 29.11500
H  -2.83800 38.86600 28.74700
H  -1.57500 43.14800 29.81400
H  0.18900 43.36300 30.08800
H  -1.52000 43.65000 32.18600
H  0.02900 42.92100 32.25700
H  -5.37700 41.53700 24.00600
H  -5.00800 40.77300 25.49100
H  -5.26200 39.73100 24.07600
H  -5.27400 40.29600 20.41200
H  -5.32800 41.48000 21.73600
H  -4.96800 39.67100 22.00500
H  1.70900 42.24700 20.52500
H  4.05100 42.21500 21.66900
H  1.89000 39.53700 20.78600
H  3.50500 39.96100 21.27700
H  2.83400 40.54300 19.69200
H  3.42700 44.85500 22.35600
H  2.08600 44.52700 21.29300
H  3.33900 44.95100 19.54100
H  4.51700 43.74300 19.92000
H  4.74500 45.33500 20.58000
H  6.09600 44.17700 25.72000
H  6.73900 42.67100 26.21500
H  6.34500 43.94000 27.46700
H  2.35200 42.86800 30.56900
H  1.51600 40.56200 33.64300
H  2.62300 39.25900 32.91600
H  0.91000 39.51800 32.36500

