158

Mg 46.59400 44.93300 43.74500
C  43.33000 43.79600 43.46300
C  47.70000 41.76200 43.13000
C  49.65700 46.14100 43.26600
C  45.31000 48.20200 43.84300
N  45.59000 43.01700 43.27000
C  44.26600 42.78400 43.17200
C  43.96300 41.26000 42.89100
C  45.37500 40.60300 42.89300
C  46.30200 41.85100 43.10200
C  45.56600 39.45600 43.87500
C  43.06100 40.95900 41.62900
C  43.23800 41.93200 40.44200
H  42.70200 41.60000 38.99600
N  48.40700 44.02000 43.57200
C  48.73100 42.72400 43.37600
C  50.19800 42.55000 43.31900
C  50.78800 43.81400 43.35000
C  49.61100 44.73300 43.44300
C  50.89700 41.25500 43.20700
C  52.23200 44.16500 43.39500
O  53.03700 43.27700 43.24600
C  52.82300 45.53100 43.50500
N  47.39700 46.86200 43.61400
C  48.74700 47.15500 43.47100
C  48.98600 48.69400 43.17500
C  47.61200 49.33200 43.51900
C  46.73700 48.08300 43.69800
C  50.20900 49.41900 43.87800
C  47.11700 50.34000 42.49000
C  47.09500 51.76700 43.05400
N  44.72000 45.86700 43.88200
C  44.34500 47.18100 43.94500
C  42.96300 47.27400 44.13300
C  42.48500 45.96900 43.93300
C  43.63800 45.11900 43.71600
C  42.19400 48.54000 44.36600
C  41.31800 45.12500 43.92300
O  40.13900 45.28900 44.22700
C  41.85100 43.67900 43.53400
C  41.33800 42.60600 44.43400
O  40.66600 41.69100 44.04100
O  41.66600 42.85400 45.72900
C  41.27200 41.83700 46.76400
H  48.14600 40.83100 42.77100
H  50.53200 46.67600 42.89300
H  45.08200 49.25600 44.01700
H  43.37500 40.85600 43.71500
H  45.48200 40.22600 41.87600
H  45.88800 38.67600 43.18400
H  44.60900 39.12000 44.27500
H  46.22900 39.70900 44.70200
H  42.01600 40.91100 41.93400
H  43.36500 40.04900 41.11300
H  44.30800 42.01300 40.25400
H  43.08600 42.96400 40.76000
H  50.18700 40.51900 43.58300
H  51.81300 41.12100 43.78200
H  51.14800 41.06700 42.16300
H  52.21000 46.15800 44.15200
H  52.81400 46.12600 42.59200
H  53.80200 45.52900 43.98400
H  49.03000 48.71600 42.08600
H  47.67700 49.81900 44.49200
H  50.82600 48.72400 44.44700
H  49.87200 50.09400 44.66500
H  50.88000 49.84600 43.13300
H  46.22600 49.98900 41.96900
H  47.89500 50.44900 41.73500
H  47.01400 51.73500 44.14100
H  46.20700 52.26300 42.66100
H  47.99900 52.29600 42.75000
H  41.34900 48.22100 44.97700
H  41.86500 49.03000 43.45000
H  42.68800 49.23800 45.04100
H  41.35600 43.44800 42.59100
H  41.56400 40.82100 46.50000
H  40.18300 41.84900 46.78400
H  41.56700 42.18900 47.75300
Mg 29.41100 59.43000 41.77500
C  26.28300 58.08300 40.76600
C  30.95900 56.52600 40.45000
C  32.46400 60.82400 42.08900
C  27.79800 62.23100 42.79800
N  28.67600 57.60700 40.59100
C  27.40600 57.27200 40.37500
C  27.41500 55.99800 39.61900
C  28.82800 55.41300 39.75300
C  29.53800 56.52300 40.45100
C  28.98400 54.00600 40.26500
C  26.81300 56.07800 38.13500
C  26.11300 54.83300 37.70400
H  26.64600 54.26200 36.38300
N  31.44200 58.79600 41.23100
C  31.92800 57.51400 40.78600
C  33.27000 57.45400 40.63500
C  33.70000 58.77300 40.96600
C  32.52800 59.53600 41.48100
C  33.97300 56.22500 40.08100
C  35.07500 59.22100 40.87600
O  35.95200 58.41200 40.56700
C  35.56400 60.63200 41.14000
N  30.06700 61.29600 42.30100
C  31.38000 61.64300 42.44400
C  31.52700 63.08300 42.95000
C  29.98900 63.54000 43.10900
C  29.22200 62.32400 42.62500
C  32.29800 63.27600 44.29900
C  29.63000 64.85300 42.25400
C  29.10000 65.95700 43.20200
N  27.44000 59.99100 41.91200
C  26.93100 61.20900 42.41100
C  25.45300 61.03300 42.51900
C  25.19600 59.84800 41.82800
C  26.43400 59.30900 41.39900
C  24.54400 62.13100 42.90100
C  24.09800 58.97800 41.31300
O  22.89300 59.00100 41.42200
C  24.83100 57.78400 40.62200
C  24.38300 56.49200 41.17900
O  24.34300 56.26300 42.34900
O  24.00800 55.62300 40.20900
C  23.48400 54.42200 40.89600
H  31.47100 55.64400 40.05900
H  33.40000 61.28800 42.40500
H  27.43200 63.18700 43.17800
H  26.74800 55.40500 40.24500
H  29.24200 55.58800 38.76000
H  29.75800 54.14200 41.02000
H  29.31400 53.43700 39.39600
H  28.01200 53.62600 40.58100
H  27.63300 56.18500 37.42500
H  26.16900 56.93900 37.95400
H  25.06400 55.02100 37.47700
H  26.12100 54.05800 38.47000
H  34.03300 56.34400 39.00000
H  33.61300 55.21400 40.27500
H  34.92800 56.04800 40.57700
H  34.72200 61.28600 40.91600
H  36.44600 60.83100 40.53100
H  35.75300 60.59900 42.21400
H  32.10800 63.55500 42.15700
H  29.89800 63.72300 44.18000
H  31.95700 64.07900 44.95200
H  33.29500 63.44200 43.88900
H  32.27500 62.32800 44.83700
H  28.86100 64.60600 41.52200
H  30.49600 65.15100 41.66300
H  29.51900 66.94500 43.01400
H  29.15600 65.59200 44.22800
H  28.02200 66.07800 43.10000
H  23.62700 61.64500 43.23300
H  24.43100 62.72800 41.99600
H  24.85600 62.70000 43.77700
H  24.54200 57.75500 39.57200
H  24.36500 53.87600 41.23100
H  22.93100 53.80500 40.18800
H  22.75000 54.62200 41.67700

