158

Mg 8.53300 3.31000 27.77300
C  10.08500 2.03100 30.44700
C  6.61900 5.42900 29.87900
C  6.89000 4.58700 25.08000
C  10.01600 0.94200 25.75300
N  8.25800 3.61300 29.98100
C  9.11500 2.95100 30.91300
C  8.93600 3.54300 32.26900
C  7.68600 4.59900 32.01500
C  7.44000 4.51700 30.54000
C  6.46700 4.36800 32.84100
C  10.19700 4.28000 32.88600
C  9.98800 4.64300 34.33900
H  10.83900 3.93900 35.41100
N  6.94600 4.76900 27.56700
C  6.34300 5.55400 28.55000
C  5.42800 6.47500 27.94800
C  5.45400 6.14100 26.55800
C  6.45400 5.13400 26.34100
C  4.63500 7.42200 28.74300
C  4.54600 6.62800 25.41300
O  4.79700 6.36000 24.23900
C  3.39200 7.60300 25.65900
N  8.48600 2.82900 25.79800
C  7.88500 3.59100 24.86200
C  8.12500 3.09600 23.45800
C  8.96400 1.81200 23.67200
C  9.12500 1.85400 25.15900
C  6.82500 2.85900 22.53700
C  10.30600 1.76400 22.85500
C  10.41400 0.62200 21.84900
N  9.77500 1.69900 28.02600
C  10.41400 0.86800 27.10800
C  11.29200 -0.09100 27.81700
C  11.26900 0.41400 29.10300
C  10.27600 1.50000 29.20900
C  12.14300 -1.16400 27.23700
C  11.70100 0.13100 30.46100
O  12.53300 -0.69700 30.90800
C  10.96100 1.15100 31.36400
C  10.13100 0.50200 32.42700
O  9.17300 -0.18400 32.24500
O  10.67100 0.74800 33.66600
C  9.95800 0.24800 34.89400
H  6.24400 6.05700 30.69000
H  6.36200 4.90200 24.17800
H  10.53500 0.27600 25.06000
H  8.65300 2.79100 33.00600
H  8.09900 5.60100 32.12800
H  6.45800 5.01700 33.71600
H  6.56800 3.28900 32.96200
H  5.53400 4.56200 32.31200
H  10.38200 5.17700 32.29600
H  11.07900 3.71500 32.58600
H  8.96700 4.33900 34.56900
H  10.16800 5.71100 34.46700
H  4.87600 7.40500 29.80600
H  3.58900 7.11600 28.71600
H  4.72200 8.42800 28.33300
H  2.55800 7.06200 26.10700
H  3.09400 7.91400 24.65700
H  3.61900 8.38600 26.38200
H  8.69000 3.82000 22.87000
H  8.37200 0.95900 23.33800
H  5.97400 2.94800 23.21100
H  6.94100 1.93100 21.97700
H  6.71100 3.68600 21.83700
H  11.15400 1.73000 23.53900
H  10.40200 2.70000 22.30600
H  11.23300 -0.03600 22.13800
H  10.76700 1.03800 20.90600
H  9.53900 0.02000 21.60400
H  13.09600 -0.72100 26.94700
H  11.69200 -1.44300 26.28500
H  12.16500 -2.07300 27.84000
H  11.75200 1.70400 31.86900
H  9.38800 -0.67100 34.75900
H  9.25300 1.05800 35.07900
H  10.64000 0.18200 35.74100
Mg 47.85800 25.25500 28.68800
C  48.58400 27.53100 31.17400
C  47.13800 22.87300 31.27100
C  47.25400 23.08200 26.26000
C  49.00400 27.55400 26.34600
N  47.62700 25.27200 30.99600
C  47.99800 26.39200 31.77200
C  47.68800 26.20900 33.23700
C  47.37100 24.64400 33.26000
C  47.40200 24.17900 31.73400
C  48.25900 23.77700 34.11600
C  46.56800 27.23200 33.87200
C  47.00700 28.12800 35.07200
H  46.06400 28.40300 36.28300
N  47.16200 23.21100 28.75600
C  46.98100 22.44100 29.92400
C  46.60700 21.11100 29.46000
C  46.61000 21.13800 28.02000
C  46.96200 22.51700 27.59200
C  46.29800 19.97700 30.40600
C  46.28600 19.94600 27.08000
O  46.43700 20.02000 25.90400
C  45.97400 18.67100 27.59900
N  48.09400 25.37700 26.58700
C  47.77600 24.33700 25.77900
C  48.07100 24.59400 24.26400
C  48.40700 26.10800 24.27700
C  48.56800 26.40900 25.79900
C  49.12100 23.66300 23.61600
C  47.47200 27.08400 23.57300
C  48.02100 28.01100 22.44300
N  48.79000 27.11600 28.70300
C  49.09600 27.95000 27.70400
C  49.54000 29.25100 28.22600
C  49.37000 29.12600 29.61800
C  48.88800 27.80000 29.82700
C  50.05900 30.40300 27.45400
C  49.49800 29.86400 30.81300
O  49.87100 30.96100 31.13000
C  49.05300 28.80100 31.87100
C  50.19700 28.51300 32.81600
O  51.17800 27.82600 32.51200
O  49.88300 29.10000 34.04400
C  51.04000 29.05800 35.00500
H  47.00600 22.13100 32.06200
H  47.11400 22.27800 25.53500
H  49.26000 28.31900 25.61000
H  48.56200 26.44300 33.84500
H  46.32100 24.66600 33.55100
H  48.78200 23.01200 33.54200
H  47.66400 23.24600 34.85800
H  49.06800 24.41400 34.47500
H  45.73300 26.68700 34.31200
H  46.24700 27.80100 33.00000
H  47.08400 29.10900 34.60400
H  48.05000 27.98300 35.35400
H  47.02200 19.21100 30.12800
H  45.27100 19.64000 30.26400
H  46.53800 20.21900 31.44200
H  46.90000 18.38000 28.09500
H  45.62200 18.08000 26.75400
H  45.11000 18.91300 28.21800
H  47.10100 24.57100 23.76600
H  49.40400 26.12800 23.83700
H  49.62900 24.05300 22.73300
H  48.72900 22.72700 23.21900
H  49.86300 23.35700 24.35300
H  47.08800 27.75100 24.34500
H  46.57400 26.53700 23.28600
H  47.86300 29.08800 22.49600
H  47.57900 27.67000 21.50600
H  49.09700 27.91700 22.30000
H  49.63700 31.30900 27.88700
H  49.73800 30.21000 26.43000
H  51.14700 30.37900 27.50800
H  48.22300 29.08400 32.51900
H  50.84700 28.37300 35.83100
H  51.16300 30.04600 35.45000
H  51.99300 28.97200 34.48300

