158

Mg 24.66100 -3.95800 45.58200
C  26.84800 -1.89700 44.07300
C  22.17500 -2.96000 43.68800
C  22.96600 -6.96800 46.19700
C  27.40100 -5.51000 47.26000
N  24.47000 -2.45500 44.22100
C  25.47800 -1.74500 43.59100
C  24.97000 -0.89900 42.42100
C  23.41900 -0.95700 42.61100
C  23.36600 -2.21200 43.54200
C  22.62100 0.15500 43.26700
C  25.51000 -1.13500 40.97000
C  24.83400 -0.33400 39.84600
H  25.19200 -0.71600 38.40000
N  22.78700 -4.78400 45.15300
C  21.87400 -4.17400 44.36000
C  20.65500 -4.86300 44.44900
C  20.80900 -6.02300 45.22500
C  22.23800 -5.92500 45.59800
C  19.41100 -4.43900 43.66100
C  19.79600 -7.08100 45.69600
O  18.62900 -7.06000 45.19400
C  20.14600 -8.03300 46.80100
N  25.27000 -6.20800 46.32400
C  24.34900 -7.17100 46.55400
C  24.87100 -8.30700 47.38700
C  26.40200 -7.79500 47.70400
C  26.42200 -6.47600 47.02900
C  23.95200 -8.67500 48.62700
C  27.45600 -8.79900 47.14200
C  27.85200 -9.99600 48.04900
N  26.67200 -3.63400 45.86900
C  27.66100 -4.36700 46.51300
C  28.95000 -3.71300 46.37800
C  28.71400 -2.74700 45.37900
C  27.27500 -2.73900 45.15200
C  30.27500 -4.07800 47.03300
C  29.29500 -1.81400 44.47100
O  30.50100 -1.60400 44.35900
C  28.06200 -1.09900 43.61200
C  28.05300 0.32700 43.94500
O  27.68100 0.79500 45.03600
O  28.65600 1.03800 42.93300
C  29.13700 2.33700 43.39100
H  21.33300 -2.58900 43.10100
H  22.37300 -7.82000 46.53500
H  28.28900 -5.89400 47.76600
H  25.41100 0.07400 42.63900
H  22.84400 -1.23100 41.72700
H  23.07300 1.03300 43.72800
H  22.07500 -0.28400 44.10200
H  21.96100 0.59600 42.52100
H  25.38600 -2.21600 40.90800
H  26.57700 -0.91800 40.91800
H  25.10400 0.70600 40.02700
H  23.74400 -0.35200 39.87700
H  19.42100 -5.03300 42.74800
H  19.64700 -3.43300 43.31400
H  18.47600 -4.55100 44.21200
H  19.15300 -8.38500 47.07900
H  20.54300 -7.52600 47.68100
H  20.64800 -8.93300 46.44500
H  24.92100 -9.14600 46.69200
H  26.49900 -7.76600 48.78900
H  23.50100 -9.64100 48.40000
H  23.07800 -8.03800 48.76500
H  24.63000 -8.71700 49.47900
H  28.31600 -8.14000 47.02500
H  27.19000 -9.16500 46.15000
H  27.77600 -10.93000 47.49200
H  27.17200 -10.01900 48.90100
H  28.84000 -9.87300 48.49100
H  30.07500 -4.14300 48.10300
H  30.91100 -3.20900 46.86600
H  30.68900 -5.04800 46.75800
H  28.18700 -1.11900 42.52900
H  28.66800 3.02500 42.68800
H  30.19700 2.21900 43.16500
H  28.95000 2.65400 44.41700
Mg 35.64400 2.77700 29.41200
C  33.65500 3.95700 32.11100
C  38.22800 2.44000 31.46500
C  37.36000 2.15400 26.69000
C  32.72800 3.27900 27.38100
N  35.87400 3.32400 31.59300
C  34.91200 3.59300 32.54900
C  35.51700 3.57500 33.90000
C  37.03500 3.25400 33.63500
C  37.00800 2.84800 32.14600
C  37.96900 4.45500 33.95100
C  34.76600 2.64400 34.90000
C  34.32900 3.24100 36.27700
H  35.30000 4.16800 36.93900
N  37.57200 2.25100 29.12900
C  38.57500 2.21700 30.07200
C  39.84400 1.83500 29.49200
C  39.56300 1.75700 28.04000
C  38.10600 2.03300 27.88900
C  41.07700 1.54100 30.23200
C  40.37700 1.37100 26.85000
O  39.92800 1.09700 25.77000
C  41.86300 1.14700 27.15900
N  35.15700 2.74100 27.34300
C  36.07100 2.46700 26.41700
C  35.44700 2.39100 25.01600
C  33.97400 2.70600 25.29600
C  33.95000 2.90900 26.77400
C  36.08200 3.21800 23.92300
C  32.93000 1.58200 24.78100
C  31.62900 2.18000 24.17500
N  33.62100 3.60100 29.56300
C  32.58400 3.70400 28.68900
C  31.43100 4.35400 29.39900
C  31.81900 4.39700 30.68900
C  33.15200 3.97300 30.79100
C  30.02500 4.50200 28.95800
C  31.29900 4.76500 31.96200
O  30.26600 5.24500 32.38900
C  32.52600 4.43400 33.01900
C  32.77800 5.74700 33.77300
O  33.55600 6.60300 33.47100
O  31.95500 5.81000 34.86700
C  31.93700 7.04400 35.66300
H  39.00900 2.28000 32.21200
H  37.92000 1.92500 25.78100
H  31.81600 3.35100 26.78500
H  35.46400 4.61300 34.23000
H  37.39700 2.38500 34.18400
H  37.57800 5.24200 34.59600
H  38.04100 4.96800 32.99200
H  38.92600 4.11100 34.34200
H  35.40500 1.77200 35.03900
H  33.84400 2.31500 34.42000
H  34.24500 2.38900 36.95200
H  33.38100 3.75100 36.10700
H  41.44300 0.58000 29.87300
H  40.99800 1.38700 31.30800
H  41.75400 2.38900 30.12400
H  42.19700 2.01300 27.73000
H  42.24400 1.25200 26.14400
H  42.05600 0.18700 27.63900
H  35.63500 1.32800 24.86900
H  33.76200 3.69800 24.89600
H  35.25600 3.70700 23.40600
H  36.67200 2.61600 23.23300
H  36.68500 4.02200 24.34600
H  32.51200 0.91400 25.53500
H  33.37300 1.01600 23.96200
H  30.81900 1.85100 24.82600
H  31.45100 1.92900 23.12900
H  31.61100 3.27000 24.18300
H  29.75600 3.60500 28.40100
H  29.67400 5.41700 28.48100
H  29.21100 4.43500 29.68000
H  32.09600 3.70200 33.70200
H  32.82200 7.68000 35.64800
H  31.85100 6.55000 36.63100
H  31.03600 7.62900 35.48000

