158

Mg 9.35700 3.23900 27.23000
C  10.52800 1.69000 30.16000
C  7.33800 5.17300 29.28500
C  7.57000 4.04400 24.51300
C  10.82000 0.57300 25.46700
N  9.06000 3.43500 29.49700
C  9.62900 2.64500 30.48100
C  9.27700 3.14900 31.85600
C  8.07000 4.09600 31.57300
C  8.21400 4.31000 30.04500
C  6.69400 3.57100 31.92200
C  10.56000 3.81800 32.46900
C  10.37300 4.80100 33.66500
H  10.86500 4.15600 34.97700
N  7.84900 4.55000 26.96200
C  7.20000 5.33500 27.91000
C  6.24700 6.22600 27.28500
C  6.35200 5.96400 25.89800
C  7.29400 4.81000 25.69500
C  5.32400 7.13700 28.02100
C  5.66200 6.67000 24.74400
O  5.96600 6.36300 23.57900
C  4.51500 7.54400 24.97300
N  9.11200 2.42300 25.26900
C  8.32800 2.96100 24.28500
C  8.44700 2.20200 23.02600
C  9.73500 1.31400 23.28700
C  9.98300 1.46900 24.73300
C  7.28800 1.35200 22.50000
C  11.01100 1.67600 22.53200
C  11.67700 0.49500 21.89500
N  10.56700 1.59600 27.69300
C  11.07600 0.57700 26.86000
C  11.98100 -0.28700 27.60500
C  11.79800 0.14000 28.92500
C  10.92600 1.23000 28.88800
C  12.89100 -1.20800 27.06300
C  12.22000 -0.12600 30.25500
O  12.93100 -0.99900 30.71500
C  11.33400 0.82900 31.13900
C  10.44600 -0.03400 32.01300
O  9.37400 -0.55600 31.66500
O  11.06700 -0.14700 33.22700
C  10.28900 -0.72800 34.28700
H  6.66400 5.67200 29.98400
H  6.98300 4.24200 23.61400
H  11.25700 -0.29500 24.96900
H  9.12200 2.29400 32.51300
H  8.06700 5.01000 32.16700
H  6.80700 2.56400 32.32600
H  6.09100 3.44800 31.02200
H  6.19600 4.21800 32.64400
H  11.06400 4.31900 31.64300
H  11.09500 2.92400 32.79000
H  9.34200 5.14200 33.76100
H  10.98100 5.69100 33.50500
H  5.73500 8.14100 27.91300
H  5.33500 6.85500 29.07300
H  4.27800 7.05800 27.72700
H  3.70600 7.14000 25.58100
H  4.07700 7.55400 23.97500
H  4.85600 8.56500 25.14100
H  8.58900 2.90900 22.20800
H  9.44800 0.26400 23.24200
H  6.78900 0.95500 23.38400
H  7.83600 0.57300 21.97000
H  6.68900 1.98800 21.84800
H  11.75100 2.09300 23.21500
H  10.83400 2.32700 21.67600
H  11.93800 0.72700 20.86300
H  10.95700 -0.32100 21.84700
H  12.50600 0.11900 22.49500
H  12.28100 -1.96200 26.56600
H  13.61700 -1.59200 27.77900
H  13.34500 -0.54400 26.32700
H  12.09400 1.36000 31.71200
H  9.29400 -0.31100 34.44300
H  10.76800 -0.37600 35.20100
H  10.21600 -1.81500 34.31500
Mg 47.56000 45.30000 43.79100
C  44.19600 44.96500 43.03200
C  48.06900 42.13200 42.70900
C  50.76600 45.94600 43.93800
C  46.98000 48.72300 44.54000
N  46.32800 43.85300 42.91800
C  44.98900 43.89700 42.65300
C  44.53700 42.65400 41.90200
C  45.56000 41.59600 42.43600
C  46.73500 42.55900 42.74100
C  45.05100 40.83700 43.69600
C  44.51100 42.82700 40.36700
C  43.10600 42.72000 39.64600
H  43.11200 41.84700 38.29300
N  49.24800 44.11900 43.45700
C  49.25800 42.90700 42.88600
C  50.68700 42.44800 42.83000
C  51.49600 43.52100 43.34100
C  50.50600 44.59000 43.57200
C  51.03300 41.05100 42.35800
C  52.95000 43.42000 43.67800
O  53.63800 42.48800 43.30300
C  53.73800 44.56300 44.41300
N  48.65800 47.13600 44.00700
C  50.02300 47.13500 44.05000
C  50.65300 48.43000 44.47500
C  49.46400 49.33100 44.62700
C  48.27500 48.37600 44.42500
C  51.61200 48.42900 45.72400
C  49.42300 50.54000 43.59300
C  49.28900 51.90300 44.23300
N  45.92200 46.63600 43.88300
C  45.84200 47.91500 44.15800
C  44.42500 48.41300 44.13500
C  43.71500 47.26100 43.73300
C  44.70000 46.19100 43.56200
C  43.86900 49.74500 44.41900
C  42.38900 46.71100 43.32700
O  41.32100 47.31500 43.28000
C  42.69400 45.14500 42.91800
C  42.04100 44.35500 44.06100
O  41.15900 43.56600 43.89100
O  42.57300 44.67400 45.29900
C  42.32800 43.89500 46.47900
H  48.23400 41.05800 42.60000
H  51.83000 46.12100 44.11000
H  46.65400 49.74700 44.73200
H  43.54600 42.46800 42.31600
H  45.83000 40.89400 41.64700
H  44.00300 40.97200 43.96400
H  45.61800 41.19000 44.55700
H  45.27600 39.79800 43.45400
H  45.22900 42.12900 39.93700
H  44.89600 43.79800 40.05700
H  42.76600 43.65700 39.20600
H  42.30100 42.24300 40.20600
H  51.88700 40.92300 41.69300
H  50.23500 40.49500 41.86400
H  51.30100 40.47000 43.24000
H  54.00500 45.37000 43.73100
H  54.68000 44.19700 44.82100
H  53.13700 45.07300 45.16700
H  51.17600 48.81200 43.59800
H  49.43800 49.71400 45.64700
H  51.46200 49.24400 46.43200
H  52.59600 48.54800 45.27000
H  51.46500 47.44200 46.16200
H  48.58400 50.27300 42.95100
H  50.37200 50.56700 43.05700
H  48.28300 52.12100 44.59300
H  49.60100 52.59600 43.45300
H  49.95500 51.96200 45.09400
H  43.98000 50.38100 43.54100
H  44.54200 50.07900 45.20900
H  42.80800 49.60500 44.62600
H  42.31000 44.90800 41.92600
H  41.85500 44.58300 47.17900
H  43.22300 43.68600 47.06500
H  41.83900 42.93300 46.32600

