158

Mg 26.01800 0.95600 28.55400
C  27.80100 0.35700 31.52000
C  23.16500 1.26700 30.40800
C  24.28900 0.81400 25.78300
C  28.91400 0.20500 26.67800
N  25.57900 0.77500 30.83400
C  26.45000 0.68300 31.83900
C  25.83200 0.88400 33.22600
C  24.34000 1.24300 32.81000
C  24.30700 1.07200 31.23100
C  23.27100 0.35500 33.46300
C  26.52700 1.97400 34.10000
C  27.09100 1.50300 35.51300
H  26.76900 2.38400 36.73100
N  24.01500 0.96200 28.14500
C  23.00500 1.21600 29.01200
C  21.72400 1.31500 28.31400
C  22.03000 1.15300 26.92100
C  23.50800 0.98600 26.91500
C  20.39300 1.45100 28.96500
C  21.16700 1.06700 25.68000
O  21.59100 0.93800 24.54300
C  19.62800 0.99400 25.98400
N  26.54100 0.59000 26.50200
C  25.62200 0.61800 25.55500
C  26.16500 0.57000 24.14500
C  27.73500 0.70500 24.41500
C  27.77500 0.41900 25.96300
C  25.62500 -0.58400 23.27900
C  28.25100 2.16200 24.03000
C  28.15000 3.42100 24.91000
N  27.98500 0.55200 28.94200
C  29.03300 0.22200 28.07100
C  30.16800 -0.07900 28.90600
C  29.81100 0.00600 30.20100
C  28.42300 0.35500 30.21400
C  31.61100 -0.51100 28.35800
C  30.23500 -0.15200 31.59000
O  31.28200 -0.53000 32.08300
C  28.94300 0.16800 32.42500
C  28.69700 -0.95700 33.30500
O  27.90900 -1.88900 33.05100
O  29.32700 -0.74400 34.43700
C  29.02000 -1.66300 35.52000
H  22.25900 1.53900 30.95300
H  23.81900 0.84200 24.79800
H  29.82700 -0.01500 26.12200
H  25.79800 -0.09900 33.69500
H  24.19700 2.31600 32.93900
H  23.53100 -0.70100 33.38800
H  22.31900 0.52300 32.96000
H  23.11000 0.62400 34.50700
H  25.78100 2.73000 34.34500
H  27.30100 2.47100 33.51500
H  28.17300 1.63300 35.46700
H  26.75300 0.48800 35.72400
H  20.47000 1.65200 30.03400
H  19.84300 0.52800 28.78000
H  19.73000 2.21700 28.56200
H  19.37300 0.33200 26.81100
H  19.23700 0.37800 25.17400
H  19.27200 2.00600 26.17500
H  25.80100 1.51200 23.73600
H  28.27400 -0.05300 23.84700
H  24.92100 -1.17200 23.87000
H  26.48700 -1.14000 22.91000
H  25.25900 -0.00700 22.43000
H  27.95900 2.53300 23.04700
H  29.32700 2.09600 23.87200
H  28.06900 3.21300 25.97700
H  27.28700 4.02200 24.62400
H  29.02100 4.07600 24.90900
H  32.07700 0.30400 27.80400
H  31.54700 -1.30600 27.61500
H  32.23800 -0.85300 29.18100
H  29.28700 1.04300 32.97800
H  27.94200 -1.60700 35.66800
H  29.60100 -1.41900 36.41000
H  29.09600 -2.72300 35.27400
Mg 9.46100 47.63300 26.58700
C  7.35700 47.56300 29.39500
C  12.12300 48.28900 28.62500
C  11.34100 47.86900 23.85200
C  6.61700 47.44000 24.45400
N  9.64900 48.21800 28.78300
C  8.65200 47.97900 29.74500
C  9.36200 48.03000 31.23100
C  10.85200 48.38700 30.84300
C  10.90300 48.30200 29.34300
C  11.39200 49.77100 31.42300
C  9.23700 46.63600 32.01700
C  10.39000 46.29500 33.12700
H  10.15100 45.35100 34.29600
N  11.45600 47.97100 26.30000
C  12.44400 48.15000 27.23700
C  13.72500 48.18900 26.60800
C  13.51200 48.11500 25.14200
C  12.04800 48.01200 25.05500
C  14.95500 48.32200 27.47000
C  14.48100 48.29200 23.99900
O  14.12000 48.41100 22.78200
C  15.92000 48.34000 24.38800
N  9.03800 47.68200 24.44000
C  10.02100 47.70500 23.49200
C  9.48600 47.46400 22.03600
C  7.99100 47.16000 22.34100
C  7.83900 47.41000 23.84700
C  9.77600 48.55900 20.96100
C  7.53800 45.73500 21.94300
C  8.21600 44.59300 22.73500
N  7.43200 47.51700 26.83300
C  6.42400 47.34400 25.86800
C  5.16800 47.04600 26.57500
C  5.47700 47.09400 27.92600
C  6.89600 47.45200 28.03300
C  3.78300 46.82100 26.00300
C  4.94600 47.00600 29.30000
O  3.85400 46.71800 29.68800
C  6.13200 47.34700 30.33400
C  6.21700 46.10200 31.11300
O  6.78000 45.05000 30.74400
O  5.59400 46.20300 32.33300
C  5.58800 44.99400 33.10500
H  12.97200 48.33600 29.31100
H  11.88500 47.74700 22.91300
H  5.80700 47.11200 23.79900
H  8.95900 48.85200 31.82200
H  11.56700 47.62700 31.15700
H  11.98000 50.30500 30.67700
H  12.12400 49.55000 32.20000
H  10.62000 50.35200 31.92800
H  9.31200 45.83200 31.28500
H  8.23000 46.52400 32.42000
H  10.74800 47.25700 33.49300
H  11.16700 45.73900 32.60200
H  15.41200 49.30700 27.57100
H  15.77600 47.65200 27.21800
H  14.80600 47.95900 28.48700
H  16.01500 49.21300 25.03200
H  16.55900 48.25700 23.50900
H  16.00700 47.53600 25.11900
H  10.00800 46.57100 21.69100
H  7.46900 47.98700 21.85900
H  10.46100 49.29500 21.38200
H  8.92000 49.19900 20.74600
H  10.28400 48.18900 20.07100
H  7.82700 45.73800 20.89200
H  6.45000 45.67100 21.98100
H  8.73100 43.92500 22.04400
H  7.47000 43.90200 23.12500
H  9.00300 45.03000 23.35000
H  3.25600 47.67100 26.43700
H  3.32400 45.88700 26.32600
H  3.67600 46.97600 24.92900
H  5.78100 48.11900 31.01900
H  5.04800 45.28800 34.00400
H  6.58100 44.63700 33.37800
H  5.06300 44.13000 32.69800

