158

Mg 16.88900 52.22400 26.74400
C  18.63500 50.81200 29.45900
C  14.37800 53.06200 28.87300
C  15.22000 53.26200 24.11800
C  19.27900 50.73800 24.55100
N  16.43700 51.66800 28.95300
C  17.41600 51.37500 29.92600
C  16.91600 51.60500 31.34800
C  15.41400 52.07600 31.09500
C  15.43600 52.40300 29.58400
C  14.35800 51.01700 31.49600
C  17.99500 52.58100 32.12600
C  18.31000 52.30500 33.59300
H  17.32300 51.61900 34.59800
N  15.00400 53.06300 26.53300
C  14.11300 53.30600 27.54700
C  12.92600 53.84400 27.02600
C  13.14100 53.89300 25.59300
C  14.49500 53.48000 25.37100
C  11.70000 54.25100 27.76700
C  12.32400 54.52600 24.44400
O  12.75500 54.82900 23.32200
C  10.99100 54.97900 24.71100
N  17.02200 51.76200 24.62100
C  16.28400 52.52200 23.74900
C  16.77800 52.40000 22.29800
C  18.25500 51.97700 22.53900
C  18.24800 51.43200 23.96400
C  15.89800 51.33200 21.48400
C  19.19600 53.23700 22.33800
C  20.68000 52.93100 22.16000
N  18.55700 50.93400 26.91200
C  19.45200 50.41800 25.95300
C  20.44600 49.66700 26.61900
C  20.14800 49.88700 27.96500
C  19.02500 50.62800 28.09600
C  21.54300 48.87700 26.03500
C  20.55100 49.50700 29.29800
O  21.44900 48.79800 29.69800
C  19.59800 50.13200 30.30000
C  19.05800 49.03200 31.22500
O  18.18900 48.24800 30.89500
O  19.74800 48.96700 32.38700
C  19.43900 47.90500 33.36400
H  13.59700 53.36800 29.57300
H  14.81300 53.73300 23.22100
H  20.11700 50.45700 23.91000
H  16.98900 50.64100 31.85100
H  15.29600 52.99700 31.66500
H  13.56400 50.85000 30.76700
H  13.79900 51.41800 32.34200
H  14.84400 50.07600 31.75300
H  17.49100 53.54200 32.01700
H  18.97300 52.63900 31.64900
H  18.51500 53.30600 33.97300
H  19.27100 51.81900 33.75600
H  11.69100 54.14500 28.85200
H  10.98400 53.63700 27.22000
H  11.46100 55.29400 27.55700
H  11.06600 55.70600 25.52000
H  10.51000 54.03800 24.97900
H  10.39100 55.32300 23.86800
H  16.64600 53.36000 21.79800
H  18.63800 51.25800 21.81500
H  16.48200 50.41500 21.40300
H  15.70200 51.62200 20.45200
H  14.90200 51.11000 21.86900
H  19.08700 53.84300 23.23800
H  18.83300 53.86000 21.52100
H  20.66700 51.84500 22.24800
H  21.40300 53.30700 22.88400
H  20.94800 53.20700 21.14000
H  22.33600 49.56900 25.75000
H  21.14900 48.43000 25.12200
H  21.87300 48.09200 26.71500
H  20.18900 50.86200 30.85400
H  20.30600 47.59600 33.94800
H  18.97400 47.05000 32.87400
H  18.70100 48.39100 34.00300
Mg -6.66000 24.82500 26.40600
C  -5.47400 26.36700 29.33900
C  -8.38800 22.58600 28.26800
C  -7.62700 23.19200 23.63100
C  -4.29000 26.73400 24.61400
N  -6.69100 24.45000 28.58100
C  -6.38700 25.37100 29.59200
C  -7.11500 24.90500 30.86000
C  -7.70000 23.51500 30.53900
C  -7.59400 23.54100 29.01700
C  -6.84300 22.33000 31.02400
C  -8.23800 25.78300 31.49100
C  -8.71400 25.38500 32.96100
H  -7.83700 24.44600 33.81200
N  -7.88000 23.13700 25.99600
C  -8.50500 22.38300 26.89700
C  -9.17600 21.33200 26.28600
C  -9.10300 21.55900 24.86300
C  -8.19300 22.70300 24.77000
C  -9.92400 20.29100 27.04900
C  -9.76300 20.73900 23.69600
O  -9.51700 20.97400 22.54000
C  -10.86500 19.72500 24.01500
N  -6.07300 24.98400 24.46800
C  -6.63000 24.16400 23.47200
C  -5.90900 24.44200 22.14700
C  -4.86900 25.54000 22.41400
C  -5.08500 25.78200 23.90700
C  -5.54500 23.25600 21.19100
C  -4.94200 26.74100 21.49400
C  -5.96200 27.86600 21.85000
N  -5.24600 26.43900 26.84300
C  -4.31000 27.04400 25.98300
C  -3.58800 28.00700 26.76300
C  -4.06800 27.84700 28.14400
C  -4.96100 26.79400 28.10000
C  -2.60200 29.00500 26.19500
C  -3.99600 28.29400 29.52200
O  -3.26900 29.17000 29.98300
C  -4.82600 27.30400 30.34500
C  -3.99500 26.77100 31.44600
O  -3.28600 25.77900 31.40500
O  -3.80800 27.56600 32.59000
C  -2.82600 27.11900 33.57500
H  -8.93100 21.94800 28.96900
H  -7.85500 22.72000 22.67300
H  -3.66300 27.44000 24.06500
H  -6.34400 24.78700 31.62100
H  -8.74600 23.42400 30.83200
H  -6.43300 21.81600 30.15500
H  -7.45700 21.59600 31.54600
H  -6.06000 22.47400 31.76800
H  -9.14600 25.65200 30.90200
H  -7.99400 26.83500 31.34400
H  -9.62600 24.80200 32.83100
H  -8.84000 26.34600 33.46000
H  -10.05600 19.34800 26.51800
H  -10.89000 20.72000 27.31300
H  -9.46900 19.90900 27.96400
H  -11.32700 19.41500 23.07800
H  -11.59300 20.20700 24.66700
H  -10.40100 18.84900 24.46900
H  -6.66200 24.97400 21.56600
H  -3.88400 25.07200 22.39900
H  -4.49300 23.37800 20.93100
H  -6.19400 23.11800 20.32600
H  -5.63700 22.32700 21.75400
H  -5.07000 26.37500 20.47600
H  -3.95300 27.15900 21.68100
H  -6.82500 27.42700 22.35100
H  -6.32000 28.32700 20.92900
H  -5.38000 28.56300 22.45300
H  -1.59100 28.60300 26.25300
H  -2.61600 29.93200 26.76900
H  -2.93400 29.27000 25.19100
H  -5.58300 27.72100 31.01000
H  -1.84600 27.12500 33.09800
H  -3.13300 26.22900 34.12500
H  -2.70500 27.93600 34.28600

