158

Mg 48.46500 46.29400 43.52900
C  45.33900 46.69300 42.37800
C  48.48600 43.20600 42.14900
C  51.82300 46.24300 44.22100
C  48.54700 49.62800 44.68700
N  47.09100 45.28200 42.23000
C  45.81400 45.49700 41.89000
C  45.14600 44.45500 40.97600
C  46.09900 43.28500 41.20600
C  47.30300 43.94200 41.96800
C  45.43600 42.04400 41.94000
C  44.99100 44.77200 39.41500
C  43.62200 44.47900 38.85200
H  43.65100 43.40700 37.82800
N  49.94600 44.89700 43.24900
C  49.76800 43.69600 42.63400
C  51.06900 43.03200 42.55000
C  52.03800 43.83100 43.18900
C  51.34600 45.03100 43.54500
C  51.22800 41.72200 41.81600
C  53.52700 43.46100 43.36300
O  54.08500 42.53400 42.83800
C  54.29400 44.23800 44.29500
N  49.97900 47.77300 44.39400
C  51.22100 47.42600 44.64300
C  52.07500 48.49400 45.24600
C  51.06600 49.72300 45.25300
C  49.79400 49.07400 44.73200
C  52.69800 48.14800 46.58300
C  51.43500 51.00300 44.35800
C  51.10500 52.35100 45.06900
N  47.26700 47.83600 43.65300
C  47.37400 49.04700 44.18100
C  46.08100 49.74700 44.15300
C  45.27000 48.86200 43.45200
C  46.00300 47.71800 43.20300
C  45.80600 51.14700 44.72100
C  43.91800 48.66100 43.00100
O  42.93400 49.39300 43.03000
C  43.95200 47.29500 42.26700
C  42.88700 46.43700 42.79900
O  42.89200 45.69600 43.79600
O  41.84300 46.52100 41.91700
C  40.81900 45.50600 42.27300
H  48.47100 42.17700 41.78500
H  52.87100 46.31600 44.51900
H  48.49200 50.66900 45.01200
H  44.18800 44.27900 41.46600
H  46.37100 42.82700 40.25500
H  44.43700 41.85500 41.54800
H  45.44600 42.15600 43.02400
H  46.05200 41.15100 41.82600
H  45.67600 44.22200 38.76900
H  45.16300 45.83900 39.27400
H  43.06000 45.31600 38.43700
H  43.03000 44.11500 39.69200
H  52.16800 41.78000 41.26700
H  50.45300 41.45000 41.10000
H  51.17600 40.89500 42.52500
H  53.60500 44.53300 45.08600
H  54.68100 45.06800 43.70500
H  55.11400 43.62900 44.67600
H  52.81800 48.60300 44.45600
H  50.79800 49.95500 46.28400
H  53.66700 47.66600 46.45100
H  52.03800 47.45800 47.10900
H  53.01700 49.05400 47.09700
H  50.96900 50.79700 43.39400
H  52.51600 50.93300 44.23600
H  50.74600 52.99300 44.26500
H  52.07600 52.68000 45.44100
H  50.30800 52.28400 45.81000
H  46.30400 51.19900 45.68900
H  44.73600 51.33700 44.80500
H  46.21200 51.95500 44.11200
H  43.71400 47.43100 41.21200
H  40.16900 45.82500 43.08800
H  41.24200 44.52400 42.48400
H  40.23600 45.52200 41.35200
Mg -11.52200 38.27500 42.33400
C  -9.03600 35.83500 41.74700
C  -9.55900 40.53900 40.77500
C  -14.10200 40.42500 42.43300
C  -13.59900 35.71600 43.34300
N  -9.44300 38.11200 41.24300
C  -8.77100 36.96300 40.99800
C  -7.53200 37.26400 40.13900
C  -7.67500 38.89800 39.90400
C  -9.02100 39.23500 40.62800
C  -6.47100 39.65700 40.46300
C  -7.70600 36.42200 38.85300
C  -6.43100 35.62400 38.55600
H  -5.67700 36.16600 37.34000
N  -11.70000 40.26500 41.84300
C  -10.69900 41.05300 41.36000
C  -11.10400 42.45100 41.54000
C  -12.45700 42.43700 41.88400
C  -12.81100 41.02600 42.12700
C  -10.31500 43.64500 41.03300
C  -13.32700 43.67200 42.04600
O  -12.87900 44.79400 42.00700
C  -14.83000 43.57600 42.32000
N  -13.64700 38.05400 42.62200
C  -14.52200 39.10900 42.58300
C  -15.92700 38.64600 42.59400
C  -15.76900 37.08600 42.98100
C  -14.21000 36.87400 42.99900
C  -16.96600 39.35000 43.52600
C  -16.54400 36.36300 41.85700
C  -15.92700 35.64800 40.61400
N  -11.36500 36.17600 42.68600
C  -12.26800 35.32400 43.26200
C  -11.58800 34.03900 43.50000
C  -10.32000 34.18600 42.87500
C  -10.23300 35.50400 42.53500
C  -12.24700 32.77500 43.85800
C  -9.05200 33.52900 42.51900
O  -8.64600 32.38900 42.74700
C  -8.18800 34.52300 41.73300
C  -6.88700 34.53800 42.49500
O  -6.00700 33.72100 42.43700
O  -6.76500 35.78700 43.20400
C  -5.51300 35.95300 43.95100
H  -8.87300 41.30600 40.41000
H  -14.88400 41.18700 42.40800
H  -14.17300 34.86800 43.72300
H  -6.58500 37.08900 40.65000
H  -7.94000 39.20700 38.89300
H  -6.21900 40.27300 39.60000
H  -5.56100 39.15400 40.79100
H  -6.70300 40.38500 41.24100
H  -7.85200 37.17500 38.07900
H  -8.59400 35.80500 38.99100
H  -6.66600 34.57600 38.37100
H  -5.66100 35.53000 39.32200
H  -10.74600 44.19400 40.19600
H  -9.28800 43.34400 40.82500
H  -10.25600 44.34500 41.86600
H  -15.44600 43.20000 41.50300
H  -15.22500 44.58700 42.41700
H  -15.03100 43.07300 43.26600
H  -16.21700 38.84300 41.56200
H  -16.04800 36.79300 43.99300
H  -16.53900 40.17200 44.10100
H  -17.40300 38.57600 44.15700
H  -17.72500 39.68600 42.81900
H  -17.32700 37.07800 41.60200
H  -17.13900 35.65700 42.43700
H  -16.03200 34.56400 40.65900
H  -14.84200 35.71200 40.54000
H  -16.37000 36.09600 39.72400
H  -12.72000 32.83900 44.83800
H  -11.49600 32.00000 44.00800
H  -12.83000 32.56000 42.96200
H  -7.97100 34.16700 40.72600
H  -5.69600 36.65500 44.76400
H  -4.66300 36.18100 43.30700
H  -5.21100 35.00800 44.40300

