158

Mg 47.94700 15.91300 28.21100
C  45.36500 15.98600 30.69400
C  50.15700 17.13500 30.49300
C  50.12700 16.31600 25.69700
C  45.46700 15.08800 25.93600
N  47.69600 16.63100 30.33200
C  46.61500 16.38200 31.16900
C  46.96800 16.75700 32.60300
C  48.36000 17.56300 32.35500
C  48.79700 17.10500 30.97000
C  48.25600 19.10100 32.48200
C  47.04800 15.45100 33.46200
C  46.98000 15.52900 35.01300
H  46.62500 16.84700 35.66500
N  49.88700 16.49700 28.13100
C  50.63300 16.91000 29.18900
C  51.98800 17.08600 28.85300
C  52.06000 16.87300 27.39000
C  50.65200 16.53300 27.02000
C  53.08200 17.55400 29.85000
C  53.28200 16.95400 26.58700
O  53.29500 16.74500 25.38500
C  54.60900 17.31800 27.16800
N  47.80600 16.12000 26.05600
C  48.88100 16.14900 25.22700
C  48.47600 15.77000 23.76700
C  47.07200 15.12700 24.00100
C  46.74300 15.48200 25.43300
C  48.63600 16.92300 22.70600
C  46.88400 13.63900 23.64000
C  47.11700 12.62200 24.83700
N  45.87600 15.56500 28.24700
C  45.07400 15.13100 27.29000
C  43.74000 14.67600 27.83400
C  43.80800 15.08800 29.14600
C  45.15000 15.53500 29.41800
C  42.63500 14.00100 27.07100
C  43.02400 15.23400 30.31600
O  41.86700 15.05200 30.41800
C  44.06500 15.74100 31.44000
C  43.52900 16.85400 32.25300
O  43.56700 18.05500 31.99800
O  42.90600 16.38100 33.41700
C  42.48300 17.40600 34.47000
H  50.83300 17.36400 31.32000
H  50.83800 16.13100 24.88900
H  44.78800 14.69000 25.17900
H  46.30600 17.43600 33.14000
H  49.09600 17.27900 33.10700
H  47.23200 19.47400 32.46600
H  48.77100 19.47700 31.59800
H  48.88700 19.45100 33.29900
H  48.04800 15.03300 33.35100
H  46.25400 14.77800 33.13700
H  47.92500 15.16000 35.41200
H  46.24400 14.83800 35.42400
H  52.75800 17.73900 30.87400
H  53.23600 18.57500 29.50000
H  53.94800 16.89800 29.77500
H  54.55600 18.33500 27.55800
H  55.45000 17.26600 26.47700
H  54.95900 16.61300 27.92200
H  49.12000 14.94400 23.46400
H  46.31100 15.62300 23.39900
H  47.64800 17.04100 22.26200
H  49.42300 16.64200 22.00600
H  48.81800 17.87300 23.20800
H  47.42000 13.30200 22.75200
H  45.86000 13.52900 23.28400
H  47.37700 13.11300 25.77500
H  47.89500 11.92400 24.52400
H  46.17700 12.08500 24.96200
H  42.93300 13.81500 26.03900
H  41.76500 14.65200 27.15100
H  42.69900 13.06900 27.63200
H  44.18700 14.95500 32.18500
H  42.80700 17.01100 35.43300
H  41.40500 17.48900 34.60900
H  43.04700 18.33800 34.41900
Mg -0.27600 44.42200 26.91600
C  2.03300 44.23200 29.42200
C  -2.81300 44.22000 29.22700
C  -2.59600 44.15300 24.38600
C  2.11400 44.66600 24.41900
N  -0.36200 44.28700 29.02600
C  0.70500 44.15300 29.87500
C  0.28600 44.02500 31.34000
C  -1.22100 43.71300 31.21700
C  -1.49500 44.20800 29.76800
C  -1.66100 42.32100 31.60700
C  0.51800 45.36200 32.06500
C  0.98300 45.23900 33.56200
H  0.61500 43.96800 34.42900
N  -2.41600 44.31500 26.80400
C  -3.23500 44.31400 27.89100
C  -4.61300 44.15200 27.46800
C  -4.56300 44.05300 26.01800
C  -3.15400 44.19800 25.68300
C  -5.65800 43.91400 28.46300
C  -5.72600 43.72800 25.11700
O  -5.59600 43.78200 23.89100
C  -7.12500 43.30900 25.70600
N  -0.19600 44.42700 24.64300
C  -1.31100 44.23400 23.87300
C  -0.95200 44.16700 22.40500
C  0.51800 44.55700 22.38400
C  0.87300 44.51300 23.86000
C  -1.26300 42.82800 21.71000
C  0.78100 45.86100 21.66400
C  2.06300 45.85800 20.70800
N  1.72300 44.45700 26.93100
C  2.60200 44.58900 25.82500
C  3.94800 44.57900 26.31700
C  3.79200 44.46200 27.71000
C  2.38400 44.39100 27.99300
C  5.11500 44.80300 25.45200
C  4.44000 44.34300 29.01700
O  5.60700 44.33500 29.26400
C  3.27300 44.23100 30.14100
C  3.52700 43.01700 30.99200
O  3.24500 41.87200 30.65600
O  3.97700 43.42600 32.22800
C  4.46700 42.37900 33.11200
H  -3.53700 44.06600 30.03000
H  -3.28200 44.01800 23.54700
H  2.97100 44.77300 23.75000
H  0.84100 43.22100 31.82300
H  -1.75800 44.26000 31.99100
H  -0.93600 41.75000 32.18700
H  -1.95500 41.77400 30.71100
H  -2.55000 42.37300 32.23600
H  -0.37400 45.98300 32.14700
H  1.27900 45.99100 31.60300
H  0.71900 46.11500 34.15600
H  2.07300 45.25300 33.54700
H  -6.60100 44.38900 28.19500
H  -5.53300 44.46100 29.39700
H  -5.80400 42.86000 28.70100
H  -7.91800 43.20800 24.96500
H  -7.43100 44.11000 26.37800
H  -6.97100 42.39500 26.27900
H  -1.55100 44.94800 21.93700
H  1.15900 43.74300 22.04800
H  -1.53900 42.07800 22.45200
H  -0.39600 42.43700 21.17600
H  -2.04100 43.09400 20.99400
H  0.95900 46.63400 22.41100
H  -0.07100 46.17700 21.06200
H  2.80600 46.47200 21.21700
H  1.86400 46.31400 19.73900
H  2.34500 44.81600 20.55800
H  4.86200 45.52300 24.67400
H  5.44500 43.83300 25.08200
H  5.76800 45.39000 26.09700
H  3.36800 45.14300 30.73000
H  4.55900 41.44000 32.56600
H  3.77400 42.32100 33.95100
H  5.43000 42.69200 33.51500

