158

Mg 25.70700 -0.15400 29.52700
C  27.50400 -0.32100 32.48400
C  22.78500 0.05100 31.50500
C  23.86400 0.07400 26.76400
C  28.61100 -0.60800 27.75000
N  25.18900 -0.24700 31.75700
C  26.16200 -0.19500 32.71200
C  25.46800 -0.14400 34.13300
C  23.96900 -0.20500 33.84100
C  23.97400 -0.11300 32.29600
C  23.15500 -1.38900 34.43200
C  25.91800 0.85900 35.18000
C  24.90400 1.61300 36.02300
H  25.37500 2.23700 37.34200
N  23.65300 0.03000 29.17400
C  22.61600 0.14900 30.13200
C  21.37200 0.17000 29.39600
C  21.67200 0.12600 28.00400
C  23.09600 0.13700 27.92000
C  20.04600 0.19100 30.06100
C  20.65000 0.22700 26.85900
O  20.97200 0.15500 25.66300
C  19.22500 0.38400 27.23100
N  26.13300 -0.35000 27.58700
C  25.24000 -0.11200 26.63900
C  25.89200 -0.19600 25.24000
C  27.39400 -0.13100 25.57300
C  27.38600 -0.32900 27.10800
C  25.39300 -1.37100 24.34800
C  28.17100 1.22600 25.24700
C  29.45500 0.95000 24.57000
N  27.67600 -0.55000 29.91800
C  28.83900 -0.69500 29.11200
C  30.01100 -0.86300 29.84600
C  29.57700 -0.63200 31.21700
C  28.15500 -0.55000 31.21900
C  31.34900 -0.97600 29.37400
C  29.96900 -0.48300 32.60400
O  31.10500 -0.43400 33.04400
C  28.63700 -0.28200 33.50300
C  28.50800 -1.31200 34.46800
O  28.21100 -2.46200 34.20500
O  28.87200 -0.83700 35.68800
C  28.91200 -1.78300 36.78500
H  21.90300 -0.03900 32.14300
H  23.25000 0.42800 25.93300
H  29.40900 -0.62300 27.00500
H  25.69500 -1.07800 34.64700
H  23.41400 0.71200 34.03800
H  22.49100 -1.03600 35.22100
H  23.91000 -2.05700 34.84500
H  22.58600 -1.94000 33.68300
H  26.48400 1.57600 34.58500
H  26.64200 0.46200 35.89200
H  24.14300 0.88300 36.30100
H  24.35200 2.36000 35.45300
H  19.53500 -0.75200 29.86700
H  19.46400 1.07000 29.78500
H  20.14600 0.28300 31.14200
H  19.03900 -0.51300 27.82200
H  18.49300 0.35800 26.42300
H  19.18800 1.31400 27.79700
H  25.60400 0.75900 24.80100
H  27.90800 -0.97000 25.10400
H  25.17500 -1.09000 23.31800
H  24.50400 -1.87200 24.73200
H  26.15100 -2.14100 24.49000
H  28.35400 1.75000 26.18500
H  27.53400 1.97000 24.76800
H  30.28300 1.08600 25.26600
H  29.51300 1.59600 23.69400
H  29.59100 -0.06700 24.19900
H  31.83200 -1.72100 30.00700
H  31.87800 -0.03800 29.54500
H  31.43700 -1.23400 28.31900
H  28.56900 0.71200 33.94600
H  29.29700 -2.74000 36.43200
H  27.93000 -1.79600 37.25800
H  29.49200 -1.43100 37.63800
Mg 43.95500 3.22400 47.52600
C  41.76300 5.89400 46.94100
C  41.23200 1.08000 47.29400
C  46.03100 0.57900 47.86300
C  46.56800 5.45400 47.54000
N  41.73600 3.52800 47.29800
C  41.02900 4.68900 47.01800
C  39.52800 4.48800 46.75600
C  39.44800 2.96000 47.15000
C  40.92700 2.44300 47.22400
C  38.77600 2.69000 48.55600
C  39.08400 4.83500 45.31400
C  37.72100 5.55000 45.17500
H  37.63400 6.62100 44.00800
N  43.65500 1.04800 47.64500
C  42.47000 0.42800 47.44500
C  42.68000 -1.00800 47.53400
C  44.09800 -1.21400 47.59100
C  44.67500 0.16200 47.74100
C  41.56200 -2.01100 47.35600
C  44.74000 -2.60900 47.46500
O  43.97300 -3.59200 47.36500
C  46.26800 -2.80200 47.43500
N  46.04500 3.00000 47.59900
C  46.61700 1.78900 47.82100
C  48.15000 2.06000 47.92100
C  48.41000 3.57800 47.69500
C  46.94900 4.06300 47.64900
C  48.80600 1.21800 49.10100
C  49.43900 4.02600 46.64200
C  50.84500 4.51700 47.17600
N  44.20300 5.32700 47.17300
C  45.35200 6.06800 47.22400
C  44.97900 7.47300 46.96000
C  43.60900 7.44400 46.96900
C  43.16400 6.10300 47.07300
C  45.85200 8.60700 46.96500
C  42.44100 8.31100 46.77900
O  42.48200 9.56000 46.60000
C  41.20000 7.28200 46.76100
C  40.25300 7.68800 47.81400
O  40.04300 7.08000 48.83200
O  39.52200 8.83500 47.40700
C  38.48000 9.30000 48.34500
H  40.41400 0.35800 47.34100
H  46.71500 -0.26300 47.98500
H  47.31000 6.25300 47.59500
H  38.91600 4.95300 47.52800
H  38.89200 2.38800 46.40600
H  39.54800 2.39000 49.26600
H  38.04800 1.87900 48.58200
H  38.29700 3.56000 49.00400
H  38.89500 3.86500 44.85400
H  39.85100 5.25800 44.66700
H  37.26400 5.86700 46.11200
H  37.04200 4.74600 44.89100
H  41.45300 -2.49900 46.38700
H  40.60400 -1.58200 47.64600
H  41.61800 -2.78300 48.12300
H  46.87900 -2.50100 46.58400
H  46.35300 -3.88700 47.51000
H  46.60800 -2.44200 48.40600
H  48.45900 1.61200 46.97700
H  48.76500 4.02200 48.62500
H  48.01000 1.07400 49.83200
H  49.55600 1.96300 49.36400
H  49.25100 0.24400 48.89800
H  48.94300 4.89900 46.21800
H  49.51200 3.22700 45.90400
H  51.67100 3.88300 46.85400
H  50.83500 4.38400 48.25800
H  51.13900 5.52100 46.86800
H  45.51600 9.20000 46.11500
H  46.90700 8.49300 46.71900
H  45.86300 9.15700 47.90600
H  40.62500 7.47500 45.85500
H  37.74300 9.83300 47.74400
H  38.94100 9.98800 49.05400
H  38.02000 8.44200 48.83500

