158

Mg 1.88000 -1.68600 44.13400
C  5.45000 -0.96400 43.97700
C  1.40200 1.23700 42.37600
C  -1.25600 -2.68300 43.92200
C  2.85900 -4.95800 45.35800
N  3.29300 -0.11100 43.29500
C  4.66700 0.04500 43.38800
C  5.08800 1.24600 42.58600
C  3.81800 1.96400 42.23700
C  2.75800 0.95200 42.65300
C  3.67900 3.30900 43.04100
C  5.84000 0.86700 41.25500
C  7.25600 1.54000 41.14000
H  8.19200 0.89600 40.02700
N  0.25400 -0.82400 43.31700
C  0.24200 0.41400 42.62100
C  -1.15500 0.72100 42.33300
C  -1.89900 -0.45000 42.69900
C  -0.97100 -1.35300 43.39900
C  -1.59300 2.13100 41.89300
C  -3.36700 -0.64100 42.55800
O  -3.97200 0.34900 42.15800
C  -4.23500 -1.89700 42.69000
N  0.96800 -3.60500 44.48100
C  -0.38000 -3.65300 44.46400
C  -0.82800 -5.13900 44.79600
C  0.45700 -5.80600 45.22400
C  1.54900 -4.73300 44.99000
C  -2.07700 -5.20000 45.81300
C  0.91400 -7.11500 44.42400
C  1.28900 -8.25600 45.43100
N  3.74100 -2.81000 44.66300
C  3.97300 -4.10200 45.08100
C  5.43200 -4.27400 45.39000
C  5.99200 -3.01700 44.98000
C  4.96500 -2.18800 44.45100
C  6.09400 -5.52700 45.96200
C  7.30100 -2.24600 44.87000
O  8.45100 -2.63500 45.13700
C  6.94200 -0.89500 44.25300
C  7.16400 0.27400 45.19600
O  6.41900 0.72400 46.01400
O  8.37600 0.81500 44.89000
C  8.64300 2.18000 45.44100
H  1.30800 2.19800 41.86600
H  -2.32400 -2.89500 44.01100
H  3.16500 -5.92100 45.77100
H  5.82000 1.77100 43.20000
H  3.69000 2.17300 41.17500
H  4.63900 3.81900 43.11500
H  3.25600 3.11300 44.02600
H  3.00900 3.98500 42.51000
H  5.20000 1.04700 40.39100
H  5.97800 -0.21400 41.25800
H  7.69800 1.77000 42.11000
H  6.99300 2.52600 40.75800
H  -0.89300 2.79700 42.39700
H  -2.54300 2.31600 42.39400
H  -1.73100 2.24600 40.81800
H  -3.68700 -2.65400 42.12900
H  -5.27800 -1.79700 42.39100
H  -4.27500 -2.12500 43.75500
H  -1.08200 -5.47700 43.79200
H  0.47600 -5.95300 46.30300
H  -1.92200 -5.95500 46.58400
H  -2.99800 -5.47400 45.29900
H  -2.19200 -4.28200 46.38800
H  1.78200 -6.89800 43.80200
H  0.21600 -7.44500 43.65400
H  0.90000 -9.22100 45.10700
H  1.09700 -8.02900 46.48000
H  2.36900 -8.40600 45.40500
H  6.77000 -5.32600 46.79300
H  6.65100 -5.84800 45.08200
H  5.41200 -6.25000 46.40900
H  7.56300 -0.77100 43.36600
H  8.07400 3.03600 45.07900
H  9.68400 2.45600 45.27000
H  8.63900 2.20100 46.53100
Mg 47.13600 16.43800 28.75000
C  45.23500 16.29000 31.71700
C  49.24900 18.46900 30.27900
C  48.54700 17.01000 25.65800
C  44.34800 15.20800 26.99500
N  47.21000 17.28800 30.79100
C  46.44500 16.95600 31.92800
C  47.05700 17.58300 33.09800
C  48.19400 18.50300 32.59500
C  48.25000 18.03400 31.12700
C  48.17100 20.07900 32.83000
C  47.44700 16.53700 34.20500
C  47.16000 16.92400 35.68500
H  47.21300 18.47000 36.20200
N  48.76700 17.38500 28.09000
C  49.55500 18.16600 28.92400
C  50.71200 18.64900 28.18900
C  50.60000 18.06900 26.87100
C  49.25900 17.41400 26.79100
C  51.79100 19.49900 28.74500
C  51.67800 18.07300 25.71100
O  51.48100 17.60500 24.62400
C  52.97500 18.84800 25.90200
N  46.58900 16.08000 26.58700
C  47.34600 16.43000 25.55300
C  46.55800 16.24900 24.25200
C  45.28500 15.43700 24.66300
C  45.43400 15.61500 26.17100
C  46.31300 17.72300 23.68100
C  45.27600 13.85900 24.22500
C  44.30500 13.53800 23.07900
N  45.26100 15.71700 29.15500
C  44.30200 15.18600 28.41500
C  43.17300 14.73000 29.28600
C  43.53700 15.24300 30.52300
C  44.76800 15.80400 30.48900
C  41.84100 14.05600 28.79800
C  43.02900 15.31200 31.83800
O  41.96900 14.96800 32.29700
C  44.16900 15.87300 32.68500
C  43.53100 16.95400 33.52600
O  42.90100 17.92600 33.13100
O  43.81100 16.69400 34.85600
C  43.26000 17.58500 35.91700
H  49.89200 19.10700 30.88900
H  49.09500 17.13500 24.72200
H  43.52000 14.85100 26.37800
H  46.35100 18.20100 33.65300
H  49.12700 18.10900 32.99800
H  47.91800 20.54500 31.87800
H  49.07700 20.48900 33.27600
H  47.40600 20.24300 33.58900
H  48.52500 16.38300 34.27100
H  47.05500 15.54700 33.97300
H  47.83400 16.35600 36.32500
H  46.16700 16.52800 35.89800
H  51.58100 19.68400 29.79900
H  51.67900 20.39200 28.13000
H  52.76100 19.02700 28.58800
H  52.80200 19.81500 26.37500
H  53.44400 18.96000 24.92500
H  53.52800 18.11600 26.49100
H  47.27800 15.73800 23.61300
H  44.33900 15.92100 24.41900
H  45.28700 17.70700 23.31600
H  47.01200 17.96900 22.88100
H  46.30600 18.42700 24.51300
H  45.16000 13.31300 25.16100
H  46.30000 13.61300 23.94700
H  43.96000 14.43500 22.56500
H  43.37000 13.11100 23.44000
H  44.73300 12.83200 22.36800
H  42.10500 13.00300 28.70000
H  41.34600 14.51700 27.94400
H  41.19600 14.16200 29.67000
H  44.55900 15.15000 33.40200
H  42.17300 17.51800 35.92100
H  43.66800 18.56600 35.67200
H  43.66100 17.37700 36.91000

