158

Mg 17.28000 -1.53100 27.66800
C  16.36400 0.42600 30.40900
C  19.34100 -3.32400 29.85900
C  18.70800 -2.96200 24.98400
C  15.54700 0.76900 25.48700
N  17.77900 -1.43800 29.83700
C  17.16800 -0.60100 30.78300
C  17.62800 -0.89500 32.21100
C  18.89800 -1.83000 31.99900
C  18.65200 -2.26500 30.46900
C  20.32600 -1.23500 32.36200
C  16.57200 -1.51900 33.10700
C  16.42000 -1.07600 34.55300
H  17.13500 -2.13300 35.39800
N  18.65200 -3.14600 27.50200
C  19.42800 -3.71400 28.49500
C  20.24400 -4.72400 27.94500
C  19.99000 -4.69700 26.49700
C  19.11200 -3.53200 26.24500
C  20.83800 -5.79300 28.83800
C  20.53100 -5.58500 25.37600
O  20.08400 -5.50600 24.24100
C  21.59200 -6.69100 25.66700
N  17.00100 -1.18200 25.53700
C  17.68300 -1.95900 24.64100
C  17.50500 -1.49700 23.20400
C  16.25600 -0.44500 23.40200
C  16.26800 -0.25400 24.92000
C  18.74600 -0.87500 22.46800
C  14.89600 -0.86800 22.82800
C  13.75800 -1.26800 23.77200
N  16.13000 0.14600 27.86600
C  15.53800 1.00700 26.89300
C  14.85200 2.07200 27.55700
C  15.07900 1.83600 28.94000
C  15.90400 0.70100 29.08100
C  14.11200 3.12700 26.91100
C  14.70600 2.29900 30.32000
O  14.02000 3.22400 30.69600
C  15.60800 1.38800 31.23800
C  16.46400 2.30000 32.07300
O  17.37000 3.03200 31.69500
O  16.12800 2.19300 33.39000
C  16.92000 3.02600 34.32800
H  20.00200 -3.74600 30.61800
H  19.18100 -3.38800 24.09700
H  15.02100 1.48300 24.85000
H  17.89700 0.07700 32.62300
H  18.82800 -2.74600 32.58500
H  20.86100 -1.00600 31.44000
H  20.88200 -1.89800 33.02500
H  20.14800 -0.34100 32.95900
H  16.73400 -2.59700 33.07800
H  15.62700 -1.34000 32.59400
H  15.36400 -0.99300 34.81000
H  16.91000 -0.10300 34.55700
H  21.92800 -5.79000 28.81600
H  20.43500 -6.76400 28.55000
H  20.44200 -5.66800 29.84600
H  22.49500 -6.39600 26.20200
H  21.94600 -7.09700 24.71900
H  21.16400 -7.58000 26.13000
H  17.25100 -2.41500 22.67400
H  16.57800 0.41500 22.81600
H  19.36200 -1.54000 21.86300
H  19.35900 -0.40100 23.23500
H  18.35300 -0.04200 21.88500
H  15.05300 -1.73800 22.19100
H  14.40800 -0.11300 22.21100
H  13.50000 -0.34900 24.29700
H  14.22800 -1.95800 24.47300
H  12.96900 -1.75500 23.20000
H  14.82200 3.50100 26.17300
H  13.93600 4.01000 27.52400
H  13.15900 2.87300 26.44600
H  14.99700 0.77100 31.89700
H  17.80800 2.51100 34.69500
H  16.23300 3.25500 35.14300
H  17.32200 3.96100 33.93700
Mg 1.51500 42.51600 26.79700
C  3.73600 42.67400 29.61000
C  -0.97400 41.59600 29.01500
C  -0.37400 41.73300 24.14200
C  4.21500 42.99600 24.65700
N  1.44100 42.15800 29.11000
C  2.44000 42.35500 30.01300
C  1.87900 42.31000 31.38300
C  0.45500 41.72300 31.21500
C  0.31900 41.92200 29.69300
C  0.37700 40.16800 31.56200
C  1.84000 43.81500 31.77500
C  1.89300 44.24900 33.28300
H  1.80000 43.05500 34.27400
N  -0.40300 41.75800 26.55700
C  -1.28200 41.46600 27.57600
C  -2.42200 40.93200 26.98700
C  -2.32900 40.89200 25.59100
C  -0.99000 41.42800 25.32300
C  -3.62200 40.50600 27.81400
C  -3.30900 40.46200 24.49000
O  -2.90900 40.38400 23.34300
C  -4.72900 40.08200 24.76900
N  1.80400 42.65300 24.77200
C  0.86900 42.28000 23.84900
C  1.31400 42.54200 22.37700
C  2.76900 43.10000 22.58700
C  2.98200 42.90500 24.06300
C  1.36700 41.21700 21.49800
C  2.76100 44.60500 22.13900
C  3.10800 44.77200 20.62300
N  3.51400 42.78100 27.07600
C  4.47500 42.99500 26.05500
C  5.77900 43.25100 26.68600
C  5.51200 43.08200 28.06600
C  4.10200 42.84500 28.27300
C  7.05700 43.62100 25.98600
C  6.15900 43.02200 29.32300
O  7.37200 42.97900 29.57400
C  5.04900 42.84300 30.39100
C  5.26300 41.66400 31.29300
O  5.39100 40.49800 30.85100
O  5.32600 42.02900 32.62700
C  5.50100 40.97500 33.68000
H  -1.80400 41.35100 29.68100
H  -1.07300 41.57000 23.31900
H  5.08700 43.09000 24.00800
H  2.48100 41.67800 32.03700
H  -0.30400 42.26900 31.77600
H  -0.50800 39.69700 31.13600
H  0.41000 40.00100 32.63900
H  1.27500 39.79100 31.07200
H  0.86100 44.18500 31.47100
H  2.48200 44.46700 31.18300
H  1.04500 44.91100 33.45700
H  2.85800 44.70400 33.50700
H  -3.88200 39.47200 27.59000
H  -4.51400 41.11500 27.67000
H  -3.45100 40.43100 28.88800
H  -4.85700 39.01300 24.94100
H  -5.25400 40.28900 23.83700
H  -5.16800 40.65900 25.58200
H  0.64200 43.27100 21.92500
H  3.51400 42.58500 21.98000
H  1.12800 40.31600 22.06200
H  2.35500 40.95100 21.12300
H  0.75800 41.21200 20.59400
H  3.54100 45.18200 22.63400
H  1.77800 45.06700 22.23600
H  3.71100 45.66400 20.45200
H  2.19800 44.76400 20.02300
H  3.64300 43.92400 20.19400
H  7.21400 44.69000 26.12800
H  7.09000 43.35300 24.93000
H  7.75300 42.98500 26.53400
H  5.01600 43.76100 30.97700
H  4.68800 40.25800 33.56200
H  5.31800 41.50900 34.61300
H  6.49100 40.51800 33.70600

