158

Mg -11.56400 38.52300 42.37500
C  -9.50600 35.81200 41.86900
C  -9.08100 40.50300 40.95900
C  -13.70200 41.17700 42.22100
C  -14.08500 36.40100 43.33000
N  -9.66700 38.16100 41.18700
C  -9.00900 36.95000 41.23000
C  -7.68600 37.01000 40.48200
C  -7.40700 38.52400 40.53100
C  -8.80600 39.09700 40.88300
C  -6.23300 38.98600 41.63000
C  -7.92000 36.35000 39.07900
C  -6.81400 35.64200 38.23800
H  -6.32600 36.36500 36.96300
N  -11.38000 40.60900 41.87500
C  -10.23100 41.19200 41.36900
C  -10.52900 42.60700 41.06600
C  -11.90600 42.86300 41.35600
C  -12.35800 41.55800 41.83100
C  -9.49600 43.57800 40.29400
C  -12.72800 44.07300 41.19600
O  -12.21400 45.15500 40.72900
C  -14.27200 44.16700 41.29300
N  -13.62700 38.74800 42.57300
C  -14.25100 39.94000 42.61300
C  -15.56000 39.81900 43.34400
C  -15.78000 38.25800 43.45900
C  -14.42000 37.73300 43.02000
C  -15.49200 40.64400 44.68500
C  -17.02900 37.64200 42.65200
C  -17.79700 36.66900 43.39900
N  -11.84100 36.51500 42.66600
C  -12.85700 35.80800 43.11200
C  -12.41900 34.51800 43.46400
C  -11.06300 34.38000 42.98600
C  -10.81900 35.69200 42.41100
C  -13.30900 33.39600 44.09200
C  -9.93100 33.58500 42.82900
O  -9.88500 32.41900 43.09900
C  -8.85200 34.43000 41.98500
C  -7.62900 34.44500 42.92300
O  -7.61100 34.62400 44.11700
O  -6.55000 34.10400 42.19600
C  -5.32600 33.89800 43.00000
H  -8.37600 41.22100 40.53500
H  -14.39700 41.99800 42.40900
H  -14.80100 35.75300 43.84000
H  -6.85700 36.49100 40.96200
H  -7.01600 38.88200 39.57900
H  -5.26600 39.14000 41.15200
H  -6.12400 38.23600 42.41300
H  -6.42400 39.94800 42.10500
H  -8.22500 37.22500 38.50600
H  -8.84500 35.77400 39.10500
H  -7.22400 34.65800 38.01100
H  -5.94900 35.62000 38.90100
H  -8.64900 43.01300 39.90300
H  -9.33600 44.43600 40.94800
H  -10.00300 43.98500 39.42000
H  -14.63100 43.35200 40.66500
H  -14.70600 45.14000 41.06700
H  -14.53000 44.06100 42.34700
H  -16.30300 40.18500 42.63500
H  -15.94800 38.07400 44.52000
H  -15.93400 40.14700 45.54900
H  -15.99000 41.61300 44.65100
H  -14.43900 40.85200 44.87300
H  -16.61100 37.16800 41.76400
H  -17.74600 38.39100 42.31600
H  -18.84500 36.93900 43.27400
H  -17.70200 36.75700 44.48100
H  -17.69000 35.64700 43.03500
H  -12.71200 32.53500 44.39200
H  -14.17200 33.08100 43.50600
H  -13.81800 33.83100 44.95200
H  -8.83900 34.03500 40.97000
H  -5.48200 33.02500 43.63300
H  -5.09500 34.65400 43.75100
H  -4.47200 33.67700 42.36100
Mg -10.81100 16.57200 42.55000
C  -7.80100 15.04100 42.50500
C  -9.46900 19.35200 41.07200
C  -14.06200 17.90700 42.14600
C  -12.38000 13.58000 43.54200
N  -8.83100 17.05500 41.70700
C  -7.72000 16.34100 42.06700
C  -6.47600 17.14600 41.65900
C  -7.02300 18.60700 41.53600
C  -8.53800 18.33800 41.39400
C  -6.60600 19.67200 42.58200
C  -5.80600 16.65900 40.32800
C  -4.36000 16.07200 40.41300
H  -4.19900 14.89100 39.44100
N  -11.64700 18.43800 41.85100
C  -10.87700 19.34300 41.18900
C  -11.79500 20.39100 40.71600
C  -13.09600 20.12300 41.14100
C  -12.99300 18.81000 41.78300
C  -11.30300 21.57600 39.94600
C  -14.28100 20.98000 40.98300
O  -14.16800 22.15200 40.54900
C  -15.69500 20.60300 41.36700
N  -12.95100 15.81400 42.92500
C  -14.05800 16.60400 42.67400
C  -15.34300 15.86600 42.92500
C  -14.82800 14.54700 43.63900
C  -13.34500 14.59300 43.32300
C  -16.47300 16.49500 43.66200
C  -15.44100 13.23400 43.18900
C  -15.77000 12.21800 44.22300
N  -10.29400 14.69900 42.83700
C  -10.98400 13.57500 43.28600
C  -10.03700 12.50300 43.53400
C  -8.81700 13.07000 43.29200
C  -8.99700 14.36600 42.87300
C  -10.35800 11.07700 43.99900
C  -7.38100 12.74000 43.25800
O  -6.88200 11.66000 43.57800
C  -6.62700 14.05900 42.78500
C  -5.80700 14.52900 43.95400
O  -6.16500 15.07400 44.97800
O  -4.52200 14.29000 43.62600
C  -3.54800 14.84500 44.59500
H  -8.88600 20.16900 40.64100
H  -15.06900 18.12000 41.78000
H  -12.79700 12.66400 43.96600
H  -5.71500 17.08900 42.43700
H  -6.73800 19.01000 40.56400
H  -7.49100 20.11000 43.04400
H  -6.06500 20.44300 42.03200
H  -5.85200 19.35400 43.30200
H  -5.89300 17.46400 39.59900
H  -6.47400 16.00100 39.77300
H  -4.04300 15.68600 41.38200
H  -3.66600 16.88300 40.19200
H  -11.31900 22.41700 40.64000
H  -11.93100 21.81800 39.08900
H  -10.28500 21.54900 39.55800
H  -16.33600 21.43000 41.06400
H  -15.73300 20.44000 42.44400
H  -16.01000 19.76200 40.74800
H  -15.75500 15.58600 41.95500
H  -14.95800 14.55800 44.72100
H  -17.36000 16.59000 43.03500
H  -16.15600 17.48700 43.98000
H  -16.68600 15.85200 44.51500
H  -14.84400 12.66800 42.47400
H  -16.27400 13.45500 42.52200
H  -16.85900 12.18700 44.26100
H  -15.38000 12.47200 45.20900
H  -15.51300 11.16900 44.07000
H  -10.55900 10.46400 43.12000
H  -11.21500 11.02200 44.67000
H  -9.42900 10.78400 44.48600
H  -5.99400 13.84400 41.92500
H  -3.07400 15.77200 44.27200
H  -2.65500 14.23400 44.71900
H  -3.93500 15.17500 45.56000

