158

Mg 25.70700 -0.15400 29.52700
C  27.50400 -0.32100 32.48400
C  22.78500 0.05100 31.50500
C  23.86400 0.07400 26.76400
C  28.61100 -0.60800 27.75000
N  25.18900 -0.24700 31.75700
C  26.16200 -0.19500 32.71200
C  25.46800 -0.14400 34.13300
C  23.96900 -0.20500 33.84100
C  23.97400 -0.11300 32.29600
C  23.15500 -1.38900 34.43200
C  25.91800 0.85900 35.18000
C  24.90400 1.61300 36.02300
H  25.37500 2.23700 37.34200
N  23.65300 0.03000 29.17400
C  22.61600 0.14900 30.13200
C  21.37200 0.17000 29.39600
C  21.67200 0.12600 28.00400
C  23.09600 0.13700 27.92000
C  20.04600 0.19100 30.06100
C  20.65000 0.22700 26.85900
O  20.97200 0.15500 25.66300
C  19.22500 0.38400 27.23100
N  26.13300 -0.35000 27.58700
C  25.24000 -0.11200 26.63900
C  25.89200 -0.19600 25.24000
C  27.39400 -0.13100 25.57300
C  27.38600 -0.32900 27.10800
C  25.39300 -1.37100 24.34800
C  28.17100 1.22600 25.24700
C  29.45500 0.95000 24.57000
N  27.67600 -0.55000 29.91800
C  28.83900 -0.69500 29.11200
C  30.01100 -0.86300 29.84600
C  29.57700 -0.63200 31.21700
C  28.15500 -0.55000 31.21900
C  31.34900 -0.97600 29.37400
C  29.96900 -0.48300 32.60400
O  31.10500 -0.43400 33.04400
C  28.63700 -0.28200 33.50300
C  28.50800 -1.31200 34.46800
O  28.21100 -2.46200 34.20500
O  28.87200 -0.83700 35.68800
C  28.91200 -1.78300 36.78500
H  21.90300 -0.03900 32.14300
H  23.25000 0.42800 25.93300
H  29.40900 -0.62300 27.00500
H  25.69500 -1.07800 34.64700
H  23.41400 0.71200 34.03800
H  22.49100 -1.03600 35.22100
H  23.91000 -2.05700 34.84500
H  22.58600 -1.94000 33.68300
H  26.48400 1.57600 34.58500
H  26.64200 0.46200 35.89200
H  24.14300 0.88300 36.30100
H  24.35200 2.36000 35.45300
H  19.53500 -0.75200 29.86700
H  19.46400 1.07000 29.78500
H  20.14600 0.28300 31.14200
H  19.03900 -0.51300 27.82200
H  18.49300 0.35800 26.42300
H  19.18800 1.31400 27.79700
H  25.60400 0.75900 24.80100
H  27.90800 -0.97000 25.10400
H  25.17500 -1.09000 23.31800
H  24.50400 -1.87200 24.73200
H  26.15100 -2.14100 24.49000
H  28.35400 1.75000 26.18500
H  27.53400 1.97000 24.76800
H  30.28300 1.08600 25.26600
H  29.51300 1.59600 23.69400
H  29.59100 -0.06700 24.19900
H  31.83200 -1.72100 30.00700
H  31.87800 -0.03800 29.54500
H  31.43700 -1.23400 28.31900
H  28.56900 0.71200 33.94600
H  29.29700 -2.74000 36.43200
H  27.93000 -1.79600 37.25800
H  29.49200 -1.43100 37.63800
Mg 26.29700 50.93200 25.56600
C  24.20700 52.02800 28.18000
C  28.70800 50.19800 27.90300
C  28.53000 50.46200 22.99800
C  24.00100 52.01900 23.26600
N  26.43500 51.20100 27.87800
C  25.41600 51.53700 28.69000
C  25.74200 51.19800 30.12900
C  27.31900 50.88400 30.08800
C  27.50800 50.69200 28.54200
C  28.33500 51.95300 30.67900
C  24.94300 50.07500 30.91300
C  24.19800 50.43900 32.18000
H  25.03500 50.96300 33.28800
N  28.29500 50.29500 25.40600
C  29.08600 50.08800 26.52000
C  30.41000 49.64100 26.06100
C  30.43800 49.70900 24.65700
C  29.09200 50.19300 24.28100
C  31.39000 49.19600 27.11300
C  31.46800 49.34600 23.67400
O  31.36800 49.52500 22.47900
C  32.74300 48.75500 24.10100
N  26.25200 51.09200 23.43800
C  27.26800 50.91100 22.59700
C  26.81500 50.88300 21.10300
C  25.38900 51.49100 21.22300
C  25.18100 51.49000 22.75200
C  27.80800 51.72100 20.31600
C  24.37000 50.58900 20.43800
C  23.09700 51.24500 19.91500
N  24.49200 51.91400 25.63100
C  23.65600 52.26000 24.65200
C  22.45000 52.90700 25.28300
C  22.61100 52.81000 26.62100
C  23.91600 52.24300 26.80200
C  21.32100 53.49400 24.39700
C  21.97600 53.13700 27.86800
O  20.94800 53.66800 28.12400
C  22.97900 52.60100 28.94000
C  23.32800 53.73400 29.83000
O  24.08400 54.69400 29.67300
O  22.49900 53.61800 30.93500
C  22.91500 54.30900 32.11700
H  29.36400 49.91600 28.72900
H  29.17700 50.32100 22.13000
H  23.30600 52.32500 22.48200
H  25.53100 52.08700 30.72300
H  27.40700 49.99900 30.71900
H  28.35000 51.80000 31.75800
H  27.84100 52.89700 30.44900
H  29.23000 52.05100 30.06500
H  25.51200 49.19100 31.20100
H  24.19200 49.77500 30.18200
H  23.88700 49.46700 32.56400
H  23.32500 51.06800 32.00400
H  31.52400 49.72800 28.05500
H  32.39600 49.17600 26.69500
H  31.15600 48.14700 27.29600
H  33.38300 48.59900 23.23300
H  32.53000 47.84000 24.65400
H  33.26400 49.46300 24.74500
H  26.79700 49.85000 20.75700
H  25.33800 52.48300 20.77600
H  28.27100 52.58900 20.78500
H  27.32200 51.99100 19.37900
H  28.63800 51.06600 20.04900
H  24.18200 49.78500 21.14900
H  24.89000 50.17200 19.57600
H  23.06000 51.00600 18.85200
H  22.94000 52.31900 20.00700
H  22.25500 50.76100 20.40900
H  20.33100 53.34700 24.83000
H  21.50800 53.05100 23.41800
H  21.58400 54.52800 24.17500
H  22.48300 51.76600 29.43400
H  22.42300 53.77200 32.92800
H  22.61100 55.35600 32.15000
H  23.99900 54.20900 32.17800

