158

Mg 2.55700 -1.31400 44.24300
C  6.05200 -1.22500 43.81400
C  2.23200 1.37300 42.21600
C  -0.74200 -1.95500 44.25000
C  3.12000 -4.20300 46.24300
N  4.01600 -0.21900 43.03200
C  5.39800 -0.24900 43.04100
C  5.98200 0.85300 42.25800
C  4.69000 1.92700 42.16500
C  3.53500 1.00900 42.53200
C  4.78900 3.09100 43.18700
C  6.54900 0.54500 40.84200
C  7.68600 1.37000 40.26200
H  7.41700 2.43300 39.18600
N  0.93700 -0.42600 43.33700
C  1.04800 0.67300 42.51900
C  -0.32500 1.03900 42.20700
C  -1.16600 0.11600 42.72400
C  -0.37400 -0.84500 43.47400
C  -0.53700 2.42100 41.50000
C  -2.75200 0.16300 42.62000
O  -3.29600 1.14300 42.05800
C  -3.61300 -0.77800 43.27600
N  1.35500 -2.97200 44.89300
C  -0.01100 -2.81400 44.96400
C  -0.69400 -3.92000 45.75300
C  0.56700 -4.69600 46.35300
C  1.82600 -3.92800 45.81300
C  -1.69900 -3.50100 46.80900
C  0.57200 -6.24300 46.16400
C  1.11000 -7.01600 47.38600
N  4.22000 -2.42000 44.92400
C  4.27300 -3.53200 45.75500
C  5.65000 -3.91900 46.05700
C  6.41400 -2.92500 45.37600
C  5.49800 -2.12900 44.63800
C  6.26900 -5.09400 46.94400
C  7.76700 -2.51400 45.10700
O  8.79900 -2.89700 45.67800
C  7.53300 -1.41500 43.99400
C  8.16900 -0.20300 44.69400
O  8.14200 0.02800 45.88500
O  8.89700 0.60600 43.81600
C  9.36200 1.95300 44.36600
H  2.21200 2.25200 41.56900
H  -1.80700 -1.98400 44.48900
H  3.32900 -5.09500 46.83700
H  6.63200 1.35800 42.97200
H  4.56700 2.31500 41.15400
H  5.28200 3.87900 42.61800
H  5.25200 2.64200 44.06600
H  3.82200 3.46300 43.52600
H  5.73000 0.60000 40.12600
H  6.88100 -0.49300 40.81200
H  8.52200 0.72700 39.98700
H  8.00100 1.87600 41.17400
H  -1.53600 2.79600 41.27500
H  -0.14900 2.33700 40.48500
H  0.00900 3.21500 42.01000
H  -4.58000 -0.65900 42.78700
H  -3.60200 -0.44800 44.31500
H  -3.34500 -1.82300 43.12500
H  -1.27300 -4.50700 45.04000
H  0.46100 -4.35300 47.38300
H  -1.83300 -2.42100 46.75000
H  -1.41400 -3.83200 47.80700
H  -2.66600 -3.97500 46.64000
H  1.24200 -6.50800 45.34600
H  -0.42500 -6.58900 45.89000
H  0.50100 -7.90800 47.53500
H  1.16000 -6.35200 48.24900
H  2.11700 -7.31400 47.09200
H  6.72100 -5.80400 46.25100
H  5.43700 -5.59900 47.43500
H  6.98300 -4.67500 47.65300
H  8.17700 -1.57000 43.12800
H  10.19900 1.75400 45.03500
H  8.58200 2.46700 44.92900
H  9.72700 2.61600 43.58100
Mg 26.43800 50.28900 27.14500
C  24.27700 51.27500 29.68200
C  28.53700 49.02400 29.48800
C  28.31600 49.13400 24.68200
C  24.23400 51.76600 24.85800
N  26.37100 50.12800 29.32400
C  25.37000 50.58000 30.19700
C  25.69500 50.26400 31.63600
C  27.13500 49.66600 31.52400
C  27.38400 49.58800 30.03200
C  28.21200 50.42000 32.41700
C  24.67100 49.33500 32.40700
C  24.08200 49.83800 33.73300
H  24.22400 48.82200 34.90600
N  28.19200 49.12400 27.11200
C  28.94700 48.73200 28.18400
C  30.16900 48.10800 27.69300
C  30.06000 48.18900 26.26700
C  28.77300 48.81100 25.98700
C  31.31100 47.51200 28.52400
C  31.10200 47.73300 25.23100
O  30.95200 47.88700 24.00500
C  32.34800 46.97500 25.66000
N  26.34400 50.56600 25.06700
C  27.24600 49.86400 24.25200
C  26.92200 50.15600 22.77100
C  25.45100 50.72000 22.86000
C  25.29600 51.06300 24.34100
C  28.04300 51.11300 22.11800
C  24.32400 49.80800 22.29000
C  23.56200 48.88400 23.25300
N  24.72700 51.43800 27.21300
C  23.86000 51.87500 26.21300
C  22.73700 52.48300 26.77300
C  22.85400 52.19800 28.13200
C  24.07200 51.64100 28.38100
C  21.64000 53.15700 26.06600
C  22.21200 52.36500 29.38000
O  21.07800 52.77600 29.59600
C  23.08600 51.83600 30.48300
C  23.47600 52.90400 31.44900
O  24.27200 53.72800 31.10000
O  22.73700 52.79800 32.58400
C  22.67900 53.94700 33.56200
H  29.22800 48.69400 30.26700
H  28.86100 48.65800 23.86400
H  23.52200 52.15100 24.12400
H  25.74700 51.19000 32.21000
H  27.17500 48.63900 31.88700
H  28.88900 49.76600 32.96600
H  27.79900 50.98200 33.25500
H  28.64600 51.16500 31.75000
H  25.13500 48.37300 32.62500
H  23.96400 48.98400 31.65500
H  23.01100 50.02600 33.65900
H  24.51500 50.81100 33.96400
H  31.18000 46.43500 28.62300
H  31.23300 47.92800 29.52900
H  32.28800 47.81400 28.14700
H  32.78600 46.80300 24.67700
H  32.18000 45.98200 26.07700
H  33.04400 47.41800 26.37200
H  26.95300 49.18700 22.27300
H  25.44400 51.62900 22.25900
H  28.77200 51.44500 22.85800
H  27.65500 52.03800 21.69000
H  28.53100 50.56200 21.31400
H  24.80600 49.16500 21.55400
H  23.61500 50.47000 21.79300
H  24.26800 48.57000 24.02200
H  23.11000 48.08900 22.66000
H  22.67300 49.38900 23.63200
H  21.98100 54.05800 25.55400
H  20.76000 53.48700 26.61900
H  21.19500 52.46600 25.35000
H  22.49100 51.06900 30.97700
H  22.90900 54.89300 33.07400
H  23.41300 53.64700 34.31000
H  21.70000 53.95500 34.04200

