158

Mg 8.04000 3.21100 27.11500
C  9.45400 1.65500 29.98000
C  6.20100 5.19500 29.43200
C  6.19400 4.32000 24.57500
C  9.43900 0.76800 25.13000
N  7.94900 3.50600 29.43800
C  8.66800 2.78100 30.37300
C  8.47100 3.26200 31.85200
C  7.41900 4.47700 31.61700
C  7.12600 4.36000 30.09700
C  6.17400 4.57500 32.50400
C  9.76300 3.69000 32.60800
C  9.72600 4.75000 33.72500
H  10.65400 4.54400 34.98700
N  6.54100 4.55100 27.03700
C  5.95800 5.35200 28.05200
C  5.09900 6.32300 27.45600
C  5.25500 6.20600 26.05800
C  6.02400 5.03000 25.84200
C  4.29800 7.27800 28.30400
C  4.70000 7.05400 24.93000
O  5.00600 6.93400 23.74400
C  3.82600 8.23200 25.28600
N  7.98700 2.67900 25.03800
C  7.08500 3.28800 24.20500
C  7.44200 2.84100 22.72000
C  8.62500 1.81100 22.87900
C  8.68300 1.72200 24.40400
C  6.28500 2.26500 21.87900
C  9.95800 2.21600 22.27200
C  10.92600 1.09300 21.94500
N  9.16100 1.56700 27.43300
C  9.64600 0.67600 26.53600
C  10.48200 -0.31800 27.25400
C  10.44800 0.07100 28.60800
C  9.66500 1.24600 28.65200
C  10.98200 -1.60900 26.73200
C  11.00600 -0.27600 29.92000
O  11.75200 -1.20700 30.24000
C  10.32600 0.80700 30.89800
C  9.55200 0.15100 31.94200
O  8.54300 -0.53900 31.71400
O  10.03500 0.44600 33.20200
C  9.27400 0.01400 34.41800
H  5.64900 5.82200 30.13500
H  5.56400 4.66000 23.75100
H  9.92200 -0.05300 24.59500
H  8.08200 2.38100 32.36300
H  7.89100 5.45300 31.72600
H  6.07300 5.54500 32.99100
H  6.28300 3.80200 33.26400
H  5.27900 4.32200 31.93500
H  10.36500 4.14500 31.82200
H  10.38100 2.87500 32.98500
H  8.73500 4.81600 34.17400
H  10.03600 5.69600 33.28000
H  4.00200 6.83600 29.25500
H  3.30100 7.30600 27.86400
H  4.81100 8.22700 28.46000
H  3.24700 8.41800 24.38200
H  4.33600 9.16500 25.52500
H  2.97100 8.16800 25.95900
H  7.67300 3.82300 22.30600
H  8.31700 0.82000 22.54600
H  5.41100 2.74000 22.32500
H  6.18200 1.18000 21.89100
H  6.31700 2.49000 20.81300
H  10.41500 2.96000 22.92400
H  9.68800 2.74800 21.36000
H  10.38800 0.14500 21.92200
H  11.69100 0.99200 22.71400
H  11.41400 1.23100 20.98000
H  10.44500 -1.92600 25.83800
H  10.95400 -2.45700 27.41700
H  12.02800 -1.36700 26.54400
H  11.18000 1.36700 31.27800
H  10.01900 -0.54900 34.98000
H  8.48500 -0.70500 34.19900
H  8.93400 0.87000 35.00200
Mg 25.33600 0.94500 29.61700
C  27.46100 0.98400 32.18600
C  22.69100 1.34000 31.69000
C  23.24700 0.57900 26.95100
C  28.10800 0.40400 27.40600
N  25.09800 1.01800 31.73200
C  26.12800 1.13100 32.59900
C  25.55600 1.44900 34.05100
C  24.04400 1.27600 33.86700
C  23.93300 1.21200 32.37400
C  23.47200 0.02800 34.57500
C  26.06400 2.80000 34.70800
C  26.81800 2.77000 36.11800
H  26.66700 3.74700 37.25300
N  23.25500 0.89100 29.37000
C  22.32300 1.16900 30.34500
C  20.96500 1.20200 29.83400
C  21.09100 0.98800 28.44400
C  22.61200 0.84900 28.14600
C  19.68700 1.14000 30.71300
C  20.01000 0.84200 27.37000
O  20.37900 0.60600 26.20700
C  18.54500 1.01300 27.72400
N  25.68800 0.43300 27.43600
C  24.63200 0.46400 26.56900
C  25.08900 0.63000 25.16700
C  26.63000 0.84200 25.24900
C  26.87400 0.56200 26.76800
C  24.72900 -0.56500 24.19900
C  27.11400 2.26800 24.74400
C  27.27100 3.40900 25.73600
N  27.39000 0.63100 29.70100
C  28.33000 0.34700 28.77100
C  29.60400 0.18600 29.41200
C  29.33200 0.46700 30.78000
C  27.94900 0.73600 30.90300
C  30.93200 -0.06400 28.77700
C  29.84000 0.57600 32.16100
O  30.98200 0.51900 32.57700
C  28.65300 1.01600 33.10200
C  28.58600 0.10000 34.32400
O  28.09200 -1.00500 34.32900
O  29.19400 0.62700 35.52500
C  29.31200 -0.24800 36.71800
H  21.81700 1.50900 32.32200
H  22.60600 0.70800 26.07700
H  28.99500 0.45100 26.77100
H  26.00100 0.69200 34.69700
H  23.44400 2.13800 34.15700
H  24.15000 -0.28800 35.36800
H  23.34900 -0.84900 33.94000
H  22.48700 0.24800 34.98600
H  25.16000 3.29300 35.06700
H  26.66500 3.31100 33.95700
H  27.88400 2.77200 35.89400
H  26.77900 1.80000 36.61200
H  19.82000 1.16800 31.79400
H  19.34200 0.12700 30.50300
H  18.94400 1.86100 30.37200
H  18.28900 0.12900 28.30700
H  17.94200 1.07400 26.81800
H  18.25000 1.88700 28.30600
H  24.68300 1.54500 24.73500
H  27.28000 0.13000 24.74100
H  24.27900 -0.02900 23.36300
H  24.08700 -1.36000 24.58000
H  25.61900 -1.04000 23.78500
H  26.38300 2.60200 24.00800
H  28.05000 2.09200 24.21300
H  28.28500 3.71100 25.47500
H  26.96700 3.10400 26.73800
H  26.61000 4.20800 25.40000
H  31.11700 0.15200 27.72500
H  31.24500 -1.09800 28.91900
H  31.64800 0.61700 29.23800
H  28.60700 2.05500 33.42800
H  29.29900 -1.30000 36.43300
H  28.57800 -0.13100 37.51500
H  30.29800 -0.02900 37.12900

