158

Mg 47.08900 16.00300 28.26700
C  44.82200 15.44900 30.96900
C  49.25100 17.34500 30.68600
C  49.09900 16.81500 25.79300
C  44.72500 14.78300 26.20600
N  47.01200 16.44900 30.58600
C  46.04000 16.03800 31.43500
C  46.33800 16.44100 32.89700
C  47.65200 17.28500 32.75800
C  48.01800 17.09000 31.25700
C  47.47900 18.85700 32.99600
C  46.51100 15.20200 33.78500
C  46.08200 15.41900 35.26800
H  46.35600 16.94700 35.71200
N  48.98700 16.80100 28.27300
C  49.69200 17.27400 29.34700
C  50.99100 17.71200 28.85700
C  50.97300 17.50800 27.38700
C  49.69500 16.97300 27.06500
C  52.04600 18.10400 29.73300
C  52.11000 17.65800 26.26200
O  52.01400 17.21300 25.14400
C  53.41600 18.31900 26.68200
N  46.86000 15.85100 26.24300
C  47.82200 16.41400 25.39500
C  47.20100 16.52500 24.00800
C  46.05200 15.47700 24.03000
C  45.83400 15.32900 25.53900
C  46.69500 17.96500 23.84000
C  46.45000 14.01700 23.53500
C  45.31900 13.15700 22.83600
N  45.13200 15.29400 28.46400
C  44.31600 14.73600 27.54600
C  43.14700 14.19000 28.16000
C  43.27600 14.50300 29.53500
C  44.56300 15.09800 29.64600
C  41.96900 13.65300 27.36700
C  42.58300 14.49500 30.77600
O  41.45900 14.10300 31.05800
C  43.57500 15.04300 31.82800
C  42.90200 16.22600 32.48200
O  42.67900 17.21900 31.86000
O  42.65900 15.89300 33.77400
C  42.03700 16.97900 34.47900
H  49.94600 17.75300 31.42200
H  49.51500 17.45200 25.00900
H  44.02500 14.36600 25.47900
H  45.47500 17.04400 33.17900
H  48.42900 16.91800 33.42900
H  47.97200 19.31800 32.14000
H  47.99800 19.30500 33.84400
H  46.41900 19.09700 33.08100
H  47.49600 14.77300 33.60100
H  45.76200 14.52500 33.37400
H  46.81200 14.87200 35.86500
H  45.05700 15.08500 35.43000
H  52.71900 17.24700 29.68500
H  51.68900 18.40900 30.71600
H  52.60400 18.94200 29.31400
H  53.98700 18.53300 25.77800
H  53.98100 17.55800 27.22000
H  53.21800 19.22100 27.26100
H  47.95000 16.28000 23.25500
H  45.15500 15.84300 23.53000
H  45.61100 17.85900 23.84600
H  47.10200 18.34000 22.90100
H  47.03800 18.63900 24.62500
H  46.83300 13.52600 24.42900
H  47.28100 14.14800 22.84200
H  44.30300 13.55100 22.80700
H  45.19900 12.24800 23.42500
H  45.63900 12.88400 21.83000
H  41.28700 13.24400 28.11300
H  42.22500 12.84800 26.67900
H  41.65800 14.59600 26.91700
H  43.91400 14.19800 32.42800
H  41.62300 17.78800 33.87700
H  42.80600 17.36000 35.15100
H  41.23900 16.51600 35.05900
Mg 30.50000 57.98400 40.43800
C  27.79900 55.99900 39.18500
C  32.69400 55.49800 39.28400
C  33.03400 60.15000 40.87800
C  28.19200 60.57700 40.95000
N  30.23900 55.98300 39.31600
C  29.08300 55.36200 39.09200
C  29.38200 53.92400 38.46700
C  30.87700 53.72500 38.80400
C  31.33200 55.16400 39.19100
C  31.24500 52.73400 39.85100
C  29.12700 53.80500 36.86800
C  28.08700 52.92200 36.34700
H  27.06600 53.61400 35.43100
N  32.54100 57.87000 40.08900
C  33.29200 56.76600 39.64300
C  34.76400 57.10500 39.64400
C  34.83600 58.43600 40.18100
C  33.40100 58.90600 40.35600
C  35.89300 56.18800 39.24800
C  36.16700 59.16100 40.48600
O  37.17800 58.62600 40.13900
C  36.27100 60.31100 41.34500
N  30.62500 60.09900 40.91500
C  31.78900 60.71800 41.03800
C  31.61400 62.25100 41.27400
C  30.04200 62.37200 41.27600
C  29.58700 60.93300 41.10500
C  32.31300 62.76800 42.53200
C  29.43600 63.41300 40.22900
C  29.21900 64.80200 40.71400
N  28.38700 58.28200 40.21000
C  27.59400 59.40100 40.47800
C  26.17700 59.07200 40.25400
C  26.21000 57.75600 39.75100
C  27.58700 57.35500 39.72000
C  24.92800 59.86500 40.58000
C  25.39700 56.61600 39.34000
O  24.19400 56.48200 39.34100
C  26.37300 55.44100 39.07100
C  26.14800 54.30500 40.03300
O  26.45700 54.35500 41.24500
O  25.60800 53.23800 39.42700
C  25.37800 52.09400 40.35600
H  33.46900 54.73700 39.17500
H  33.77400 60.95200 40.90600
H  27.53200 61.44000 41.05600
H  28.70100 53.23400 38.96500
H  31.45800 53.45100 37.92400
H  30.30500 52.25700 40.12700
H  31.68500 53.06200 40.79300
H  31.91600 51.94000 39.52500
H  29.99800 53.30200 36.44700
H  29.05600 54.82700 36.49500
H  27.45500 52.52900 37.14400
H  28.53200 52.04400 35.87800
H  36.69600 55.98600 39.95600
H  36.33200 56.51400 38.30500
H  35.47900 55.19900 39.05400
H  35.40400 60.24600 42.00200
H  36.31300 61.22500 40.75300
H  37.10200 60.25700 42.04800
H  31.95200 62.84400 40.42400
H  29.72500 62.69800 42.26600
H  31.53900 63.21900 43.15200
H  33.20800 63.37800 42.40900
H  32.72500 61.89500 43.03900
H  28.48900 63.03700 39.84100
H  30.06800 63.46500 39.34300
H  30.03200 65.44100 40.37100
H  29.20400 64.87500 41.80100
H  28.39200 65.30900 40.21600
H  25.23000 60.65500 41.26700
H  24.11700 59.28300 41.01800
H  24.53900 60.39800 39.71200
H  26.14200 55.05700 38.07800
H  26.17300 51.91800 41.08100
H  25.38100 51.27700 39.63400
H  24.46600 52.14000 40.95100

