158

Mg -10.28100 38.98600 40.93300
C  -8.39600 36.19400 39.88400
C  -7.84800 41.02600 39.34200
C  -12.41700 41.48700 41.24600
C  -12.63900 36.71800 42.23100
N  -8.43400 38.60700 39.61400
C  -7.79700 37.39400 39.39700
C  -6.46300 37.55500 38.54100
C  -6.24600 39.12800 38.76800
C  -7.60700 39.62300 39.29200
C  -5.00500 39.50000 39.63400
C  -6.63800 37.22000 37.05400
C  -5.73800 36.29100 36.33900
H  -5.33500 36.56800 34.95400
N  -10.10900 41.02000 40.48700
C  -9.07600 41.67200 39.87200
C  -9.33200 43.08700 40.00200
C  -10.69300 43.28200 40.46700
C  -11.12700 41.87100 40.78400
C  -8.27500 44.22300 39.69200
C  -11.36800 44.62000 40.67200
O  -10.73300 45.65800 40.45600
C  -12.78000 44.83000 41.30800
N  -12.37900 39.03300 41.38400
C  -12.99500 40.24200 41.51500
C  -14.52400 39.97500 41.87800
C  -14.54800 38.42800 42.22900
C  -13.10000 38.02500 41.93500
C  -15.11200 40.81000 43.07600
C  -15.61800 37.64500 41.42100
C  -16.14800 36.35000 42.09100
N  -10.48700 36.88700 41.10300
C  -11.44700 36.17500 41.83100
C  -11.01700 34.79100 41.87400
C  -9.82500 34.73600 41.13300
C  -9.62000 36.01700 40.62600
C  -11.65600 33.64500 42.55100
C  -8.79900 33.86400 40.55900
O  -8.62000 32.65000 40.67700
C  -7.83500 34.78700 39.74500
C  -6.56500 34.61100 40.35600
O  -5.78100 33.67900 40.08000
O  -6.20500 35.59200 41.34600
C  -5.03900 35.34300 42.17200
H  -7.02800 41.65900 38.99700
H  -13.05600 42.37200 41.21800
H  -13.25700 35.99100 42.76300
H  -5.70700 36.88300 38.94500
H  -5.96500 39.62200 37.83800
H  -4.20800 39.81900 38.96200
H  -4.59800 38.56800 40.02600
H  -5.22800 40.15000 40.48000
H  -6.50500 38.13800 36.48200
H  -7.66000 36.85100 36.97600
H  -6.23600 35.32400 36.26800
H  -4.88900 36.11700 37.00000
H  -8.33400 44.89600 38.83600
H  -7.42000 43.59900 39.43200
H  -7.99100 44.77600 40.58700
H  -12.94900 45.87300 41.57400
H  -12.93600 44.36700 42.28300
H  -13.45900 44.59600 40.48700
H  -15.13100 40.21200 41.00500
H  -14.71000 38.17700 43.27700
H  -14.32000 41.47300 43.42400
H  -15.40500 40.24800 43.96400
H  -15.91300 41.46200 42.72700
H  -15.13200 37.23000 40.53700
H  -16.40900 38.35300 41.17500
H  -17.23500 36.41300 42.04400
H  -15.85600 36.10700 43.11300
H  -15.66200 35.60100 41.46600
H  -12.72300 33.84600 42.64300
H  -11.27800 33.75700 43.56700
H  -11.40400 32.65200 42.17600
H  -7.68400 34.46500 38.71500
H  -5.08000 36.05000 43.00100
H  -4.13200 35.54500 41.60200
H  -5.11300 34.32200 42.54500
Mg 0.79100 43.96700 25.47500
C  2.58300 43.93800 28.50000
C  -2.10600 43.46700 27.31600
C  -0.87300 43.70600 22.53400
C  3.75400 44.61100 23.75300
N  0.29700 43.56400 27.63000
C  1.21700 43.72700 28.70700
C  0.57400 43.40300 30.03300
C  -0.91200 43.12500 29.57000
C  -0.95700 43.42900 28.09100
C  -1.43300 41.61700 29.77500
C  0.64300 44.65500 31.03500
C  1.33900 44.48900 32.40500
H  1.00000 43.25900 33.19000
N  -1.16400 43.62000 24.99300
C  -2.23200 43.61100 25.87900
C  -3.47900 43.37400 25.12900
C  -3.14400 43.31600 23.75100
C  -1.70000 43.57800 23.71400
C  -4.87600 43.38300 25.67900
C  -4.04300 43.21800 22.54900
O  -3.58400 43.07200 21.42800
C  -5.56900 43.25800 22.64400
N  1.34400 44.15200 23.45300
C  0.50000 43.90600 22.38200
C  1.29300 43.93700 21.04000
C  2.58500 44.72800 21.51500
C  2.60700 44.50200 23.01400
C  1.53200 42.56400 20.61800
C  2.61300 46.18900 21.03900
C  2.85400 46.29300 19.52300
N  2.72000 44.19000 25.96700
C  3.84000 44.42500 25.19800
C  5.09300 44.51800 25.93400
C  4.65200 44.33400 27.28500
C  3.21700 44.14000 27.21700
C  6.44900 44.76700 25.50700
C  5.06400 44.21800 28.71500
O  6.20400 44.16100 29.22400
C  3.72600 44.10200 29.51700
C  3.94800 42.88100 30.34700
O  3.60400 41.71900 30.09800
O  4.57500 43.29600 31.52200
C  4.97200 42.25500 32.55200
H  -3.00500 43.25500 27.89900
H  -1.33500 43.71900 21.54500
H  4.66100 44.79800 23.17400
H  1.05300 42.51800 30.45400
H  -1.67700 43.67500 30.11800
H  -0.64900 41.08900 30.31800
H  -1.72000 41.08500 28.86800
H  -2.32700 41.82600 30.36200
H  -0.35900 44.98700 31.30500
H  1.20300 45.39000 30.45600
H  1.01900 45.35900 32.97900
H  2.42400 44.57200 32.34100
H  -5.52500 44.17900 25.31600
H  -4.97100 43.22400 26.75300
H  -5.35500 42.46200 25.34400
H  -6.03400 42.34900 23.02600
H  -6.01900 43.32600 21.65400
H  -5.78900 44.09100 23.31200
H  0.78400 44.48300 20.24600
H  3.54300 44.25600 21.29600
H  2.26100 42.53100 19.80900
H  0.61200 42.11500 20.24100
H  1.88700 41.87800 21.38600
H  3.51900 46.53000 21.54000
H  1.72000 46.75400 21.30300
H  3.83900 46.70500 19.30300
H  2.23100 47.03700 19.02800
H  2.78700 45.28000 19.12800
H  7.12800 43.99600 25.87100
H  6.71600 45.76300 25.85900
H  6.48700 44.91800 24.42800
H  3.58700 45.03200 30.06900
H  4.55700 42.58200 33.50500
H  6.06100 42.27500 32.51800
H  4.58100 41.26500 32.31900

