158

Mg 26.84700 51.51900 26.98100
C  24.54600 52.43600 29.50400
C  28.96100 50.46000 29.39600
C  29.13300 50.79000 24.56200
C  24.71900 53.01500 24.54900
N  26.71800 51.49100 29.20200
C  25.70800 51.95200 30.04000
C  26.04900 51.53600 31.47400
C  27.62200 51.17000 31.41600
C  27.80100 51.05900 29.91700
C  28.68600 52.08100 32.02100
C  25.09000 50.40700 32.04100
C  24.64900 50.49100 33.53000
H  25.63000 51.23000 34.55800
N  28.72900 50.58900 26.95100
C  29.45400 50.24800 28.09800
C  30.67200 49.59000 27.64000
C  30.71500 49.57200 26.27700
C  29.49000 50.26700 25.85700
C  31.68500 48.92400 28.62300
C  31.73100 48.96300 25.29800
O  31.65200 49.06400 24.05900
C  32.83900 48.09300 25.82000
N  26.91200 51.92100 24.85400
C  28.01500 51.43300 24.06000
C  27.71100 51.62400 22.47500
C  26.22600 52.33100 22.56900
C  25.88600 52.44500 24.07200
C  28.68900 52.41100 21.60900
C  25.12000 51.54000 21.87900
C  24.72300 50.17600 22.41000
N  25.12000 52.60800 26.95500
C  24.35900 53.15800 25.94000
C  23.12000 53.71400 26.49800
C  23.18900 53.51600 27.85700
C  24.41300 52.79400 28.10700
C  22.03100 54.40000 25.70800
C  22.49100 53.75400 29.12100
O  21.46600 54.36700 29.36700
C  23.35400 53.12900 30.25700
C  23.77500 54.12800 31.30300
O  24.66600 54.98400 31.20800
O  23.06100 54.01200 32.45600
C  23.33000 54.79300 33.64500
H  29.67600 50.00000 30.08300
H  29.79800 50.57400 23.72400
H  24.02000 53.43900 23.82600
H  26.03300 52.44000 32.08400
H  27.77700 50.17900 31.84300
H  28.26200 52.86000 32.65400
H  29.38700 52.45500 31.27600
H  29.25800 51.49500 32.74200
H  25.46300 49.39100 31.91200
H  24.19400 50.48300 31.42600
H  24.57100 49.45300 33.85500
H  23.66200 50.95000 33.47600
H  31.62900 47.85700 28.40700
H  31.42300 49.04100 29.67400
H  32.68800 49.34900 28.57800
H  33.68300 47.87900 25.16500
H  32.52300 47.09300 26.11700
H  33.26300 48.62900 26.66900
H  27.58800 50.58100 22.18300
H  26.14000 53.33200 22.14600
H  29.47300 52.70800 22.30400
H  28.12600 53.25700 21.21500
H  29.06700 51.75900 20.82100
H  25.35400 51.41000 20.82200
H  24.20200 52.12500 21.82000
H  25.43800 49.84800 23.16500
H  24.84800 49.40600 21.64800
H  23.74300 50.02900 22.86400
H  22.46800 55.24300 25.17200
H  21.18600 54.70900 26.32400
H  21.64300 53.73300 24.93800
H  22.74000 52.38700 30.76700
H  23.36300 54.10100 34.48700
H  22.48400 55.47800 33.70500
H  24.22200 55.41700 33.58500
Mg -4.62600 25.50200 25.08100
C  -3.25200 27.00500 28.09700
C  -6.69600 23.66800 27.06600
C  -5.91700 24.18600 22.35200
C  -2.45900 27.47000 23.32300
N  -4.77200 25.30700 27.31400
C  -4.19900 25.99200 28.35500
C  -4.73500 25.60400 29.73200
C  -5.57000 24.27300 29.35300
C  -5.76700 24.40400 27.79500
C  -4.96700 22.91400 29.79300
C  -5.57500 26.77300 30.41700
C  -6.43700 26.39100 31.63400
H  -6.01800 25.32800 32.64600
N  -6.08400 24.05200 24.76000
C  -6.86000 23.39200 25.68000
C  -7.74700 22.47400 24.97600
C  -7.65600 22.75700 23.59100
C  -6.52200 23.71900 23.50600
C  -8.65400 21.52200 25.69400
C  -8.43000 22.17400 22.39500
O  -8.06900 22.45900 21.28900
C  -9.52200 21.28300 22.61000
N  -4.13300 25.70000 23.12600
C  -4.90200 25.15300 22.16600
C  -4.28800 25.50600 20.77600
C  -3.24400 26.59600 21.01100
C  -3.26400 26.60000 22.57700
C  -3.56400 24.25500 20.06200
C  -3.59000 27.98600 20.43700
C  -2.44400 28.87300 19.95900
N  -3.09100 26.91400 25.60700
C  -2.32800 27.64900 24.74100
C  -1.55800 28.60800 25.43300
C  -1.85000 28.44700 26.81200
C  -2.79200 27.35700 26.86000
C  -0.59700 29.64400 24.83500
C  -1.54400 28.74700 28.16800
O  -0.71200 29.58000 28.61600
C  -2.42400 27.74400 29.07000
C  -1.56900 26.93600 29.91200
O  -0.53400 26.41000 29.55400
O  -2.04900 27.00200 31.24500
C  -1.17100 26.25500 32.18300
H  -7.30600 23.03600 27.71500
H  -6.37900 23.89000 21.40800
H  -1.79500 28.07500 22.70300
H  -3.95700 25.55600 30.49400
H  -6.57600 24.30800 29.76900
H  -5.17000 22.15100 29.04100
H  -5.41500 22.55100 30.71800
H  -3.88100 22.96600 29.87600
H  -6.31300 27.05300 29.66500
H  -4.99200 27.68400 30.55200
H  -7.41000 26.02200 31.30900
H  -6.67200 27.31200 32.16700
H  -8.34200 20.52100 25.39800
H  -9.69000 21.64500 25.37500
H  -8.63500 21.66600 26.77400
H  -9.27300 20.42500 23.23400
H  -9.89900 21.02500 21.62100
H  -10.31700 21.80900 23.13800
H  -5.14700 25.76400 20.15600
H  -2.29600 26.24100 20.60800
H  -3.93200 23.26100 20.31700
H  -2.48700 24.32000 20.21500
H  -3.83600 24.36000 19.01200
H  -4.08100 28.60600 21.18800
H  -4.29700 27.86100 19.61600
H  -2.75900 29.22900 18.97800
H  -1.61600 28.17700 19.82000
H  -2.12000 29.62200 20.68100
H  -0.49600 29.60700 23.75000
H  0.44500 29.64500 25.15300
H  -0.96500 30.64200 25.07600
H  -3.04600 28.28000 29.78700
H  -0.64800 26.88000 32.90700
H  -0.52600 25.49100 31.74900
H  -1.95100 25.73600 32.74100

