158

Mg -2.23200 17.87400 27.34500
C  -2.61500 15.56900 30.17200
C  -2.33300 20.25300 29.61300
C  -2.24600 19.78800 24.80200
C  -2.96100 15.01300 25.26700
N  -2.62000 17.88500 29.62600
C  -2.52900 16.90700 30.59100
C  -2.52500 17.48900 32.03300
C  -2.83800 18.96500 31.71100
C  -2.63600 19.04600 30.17000
C  -4.19800 19.53300 32.03700
C  -1.20800 17.19900 32.83100
C  -0.87300 18.11300 34.02600
H  -0.60300 17.43700 35.35200
N  -2.09500 19.78100 27.26200
C  -2.07500 20.64300 28.27300
C  -1.84000 21.93200 27.68700
C  -1.62300 21.78500 26.26200
C  -2.01700 20.39100 26.08000
C  -1.95300 23.21000 28.51500
C  -1.31900 22.80100 25.20700
O  -1.22200 22.55900 24.01900
C  -0.99800 24.23300 25.66600
N  -2.46900 17.40100 25.36500
C  -2.50600 18.46100 24.48300
C  -2.83100 17.94800 23.02800
C  -2.98900 16.48200 23.24600
C  -2.78000 16.29900 24.71700
C  -3.92400 18.69800 22.41100
C  -2.12300 15.59100 22.32700
C  -0.65000 15.43200 22.67200
N  -2.67300 15.68900 27.56600
C  -2.94100 14.70900 26.65700
C  -2.90700 13.43200 27.28600
C  -2.91600 13.72300 28.64400
C  -2.77000 15.12000 28.83600
C  -2.80800 12.11400 26.65400
C  -2.90000 13.15800 29.98800
O  -2.89700 11.92200 30.25900
C  -2.81100 14.38900 30.99500
C  -1.70000 14.07100 31.91800
O  -0.51400 14.18400 31.72700
O  -2.29800 13.45700 33.07800
C  -1.34600 13.32600 34.19000
H  -2.11100 21.11500 30.24600
H  -2.24800 20.56300 24.03300
H  -3.21900 14.14400 24.65800
H  -3.32900 16.94700 32.53000
H  -2.30100 19.75500 32.23600
H  -4.91800 19.61100 31.22200
H  -4.24600 20.40600 32.68800
H  -4.63900 18.74100 32.64200
H  -0.37700 17.21600 32.12600
H  -1.47400 16.23900 33.27400
H  -1.74600 18.75600 34.14200
H  -0.01000 18.73700 33.79300
H  -2.29300 23.05000 29.53800
H  -2.57100 23.93400 27.98400
H  -1.02200 23.77500 28.46800
H  -0.34100 24.19500 26.53500
H  -1.95200 24.74600 25.78900
H  -0.57200 24.74500 24.80300
H  -1.94900 18.12600 22.41300
H  -4.03100 16.16600 23.19200
H  -3.71000 19.76700 22.41200
H  -4.97000 18.56000 22.68400
H  -3.92500 18.59600 21.32600
H  -2.13300 15.99200 21.31300
H  -2.69000 14.66200 22.27400
H  -0.42000 15.83300 23.65900
H  -0.06800 15.95000 21.91000
H  -0.27000 14.41200 22.71900
H  -2.20500 11.50300 27.32600
H  -2.37600 12.15500 25.65400
H  -3.82000 11.73800 26.50200
H  -3.81700 14.51900 31.39500
H  -1.89800 13.37300 35.12800
H  -0.63900 14.15600 34.18000
H  -0.89100 12.34700 34.03900
Mg 9.57500 48.26100 25.00400
C  7.65500 47.90300 28.01400
C  12.04500 49.58900 26.88400
C  11.22600 48.33700 22.27600
C  6.69100 46.96100 23.24500
N  9.76700 48.83500 27.18400
C  8.88700 48.56900 28.25900
C  9.53500 49.07300 29.59400
C  10.64700 50.03100 29.08300
C  10.87500 49.48500 27.65400
C  10.30600 51.59800 29.04800
C  10.05000 47.99100 30.53600
C  9.32600 48.08400 31.92000
H  9.76700 47.00300 32.97200
N  11.37800 48.93900 24.61300
C  12.29100 49.35100 25.49100
C  13.60400 49.59900 24.82200
C  13.31200 49.15300 23.51900
C  11.93200 48.85200 23.38500
C  14.83400 50.03500 25.53800
C  14.27600 49.02200 22.37900
O  13.97400 48.53000 21.26900
C  15.71400 49.35900 22.60700
N  8.90800 47.93200 23.07600
C  9.88000 48.00100 22.07100
C  9.32800 47.64000 20.69700
C  8.02900 47.05300 21.09500
C  7.84000 47.33000 22.61600
C  9.25200 48.78300 19.62100
C  7.90300 45.49700 20.73800
C  8.53200 44.45000 21.54400
N  7.50400 47.67600 25.47900
C  6.50000 47.11000 24.67900
C  5.32600 46.84900 25.46300
C  5.77300 47.08700 26.80400
C  7.11600 47.57500 26.74500
C  3.97000 46.65500 25.07700
C  5.31900 47.21900 28.18700
O  4.20000 46.95800 28.69800
C  6.57200 47.58500 28.99200
C  6.86600 46.28900 29.79200
O  7.59600 45.37500 29.54300
O  6.23200 46.42700 30.99400
C  6.37400 45.29700 31.97000
H  12.87200 49.87400 27.53800
H  11.79800 48.32100 21.34500
H  5.96900 46.34700 22.70300
H  8.84600 49.74200 30.11000
H  11.56900 49.86400 29.64000
H  10.88500 52.11100 29.81500
H  9.22500 51.72100 29.10700
H  10.73700 51.87900 28.08600
H  11.13000 48.08000 30.65200
H  10.00400 47.01400 30.05500
H  8.25400 47.90700 31.82500
H  9.59800 49.02100 32.40600
H  15.41800 49.12100 25.65100
H  14.61000 50.36400 26.55300
H  15.41900 50.87600 25.16800
H  16.30900 49.14400 21.71900
H  16.17000 48.72200 23.36400
H  15.83400 50.41600 22.84700
H  9.95600 46.85900 20.26800
H  7.27400 47.57000 20.50100
H  9.38100 49.70700 20.18400
H  8.30500 48.82400 19.08300
H  10.18200 48.63000 19.07300
H  8.17900 45.25900 19.71100
H  6.81900 45.38100 20.74800
H  8.86300 44.92000 22.47100
H  9.37300 44.04800 20.97900
H  7.87700 43.63100 21.84100
H  3.60700 47.59800 24.66900
H  3.43500 46.42300 25.99800
H  3.86400 45.90700 24.29100
H  6.43400 48.42700 29.66900
H  6.27900 45.81600 32.92400
H  7.28200 44.69300 31.98900
H  5.53600 44.60700 31.87300

