158

Mg 41.70200 41.10300 26.56400
C  40.85800 43.26700 29.13100
C  42.75700 38.83900 28.85300
C  43.11600 39.48300 23.87400
C  40.87300 43.74300 24.28800
N  41.83200 41.07100 28.83000
C  41.40300 42.08200 29.67400
C  41.55900 41.70500 31.19200
C  42.30500 40.28200 31.08500
C  42.25900 39.95900 29.54000
C  43.78700 40.15700 31.63800
C  40.14900 41.64200 31.85800
C  40.02300 42.42800 33.25300
H  39.38700 41.77500 34.46600
N  42.63200 39.34200 26.38100
C  42.84400 38.56100 27.46900
C  43.57100 37.40300 26.91300
C  43.90400 37.61700 25.49700
C  43.24400 38.88700 25.19500
C  43.88600 36.18000 27.78900
C  44.77000 36.80500 24.56400
O  45.01700 37.18900 23.39900
C  45.50200 35.54800 24.98100
N  42.15100 41.65000 24.39100
C  42.57000 40.71400 23.54600
C  42.44100 41.16600 22.09200
C  41.40000 42.35800 22.21800
C  41.50200 42.70300 23.71700
C  43.83000 41.56700 21.48300
C  39.93600 42.01300 21.73200
C  39.04600 41.23700 22.70800
N  41.14600 43.10100 26.60200
C  40.71100 43.99400 25.69000
C  40.34900 45.24200 26.26500
C  40.23300 44.93100 27.61400
C  40.75900 43.60100 27.80300
C  39.94900 46.47200 25.63000
C  39.74300 45.43600 28.86500
O  39.12500 46.42900 29.17800
C  40.28700 44.43900 29.90500
C  41.32300 45.18200 30.75600
O  42.54300 45.11900 30.63900
O  40.67300 45.94900 31.71700
C  41.39200 46.22500 32.92900
H  43.30000 38.17600 29.53000
H  43.41600 38.80000 23.07600
H  40.47500 44.51900 23.63100
H  42.12000 42.53000 31.63000
H  41.81400 39.48300 31.64000
H  44.01200 39.15000 31.99100
H  43.93300 40.83600 32.47800
H  44.58200 40.49100 30.97200
H  39.96100 40.59300 32.08600
H  39.36900 42.01100 31.19200
H  39.51500 43.36800 33.03700
H  41.04900 42.69500 33.50900
H  43.63000 35.23900 27.30200
H  43.38600 36.15400 28.75700
H  44.96600 36.17800 27.94100
H  46.08300 35.80500 25.86700
H  46.22600 35.19900 24.24500
H  44.72700 34.80400 25.16400
H  42.14700 40.40000 21.37400
H  41.70500 43.23500 21.64800
H  44.48800 41.45300 22.34400
H  43.96500 42.61900 21.23000
H  44.11200 40.95200 20.62900
H  40.06500 41.37900 20.85400
H  39.36300 42.93300 21.62000
H  39.76100 40.69800 23.32900
H  38.41100 40.49500 22.22500
H  38.39300 41.88200 23.29700
H  40.56400 46.72300 24.76600
H  40.00100 47.15200 26.48000
H  38.89000 46.36800 25.39300
H  39.49800 44.25900 30.63600
H  42.24300 46.85000 32.66000
H  41.64700 45.27100 33.39100
H  40.71700 46.70900 33.63500
Mg -4.34900 25.87200 26.16100
C  -3.36600 27.33900 28.98600
C  -6.23000 23.74200 28.04100
C  -5.33500 24.18300 23.38300
C  -2.38000 27.94800 24.20700
N  -4.86000 25.61400 28.25000
C  -4.38200 26.41400 29.20800
C  -4.91500 26.07100 30.55500
C  -5.72700 24.74300 30.32500
C  -5.62600 24.69200 28.78100
C  -5.29100 23.46500 31.05800
C  -5.76900 27.24200 31.19400
C  -5.83500 27.20300 32.75300
H  -5.40000 25.98100 33.56300
N  -5.74000 24.32900 25.78400
C  -6.41600 23.57800 26.68400
C  -7.47300 22.79800 26.12100
C  -7.17000 22.82700 24.68300
C  -6.02400 23.78500 24.50700
C  -8.50300 22.00800 26.89400
C  -7.84900 22.06900 23.50700
O  -7.59600 22.23700 22.31900
C  -8.96600 21.09800 23.68200
N  -3.74200 25.95900 24.09000
C  -4.34700 25.15500 23.13500
C  -3.68100 25.36800 21.78000
C  -3.00400 26.80600 21.95800
C  -3.09000 26.94600 23.50500
C  -2.79500 24.15600 21.28700
C  -3.67300 28.06500 21.28500
C  -2.89600 28.66700 20.13600
N  -3.06900 27.28400 26.49400
C  -2.25700 28.05900 25.58600
C  -1.34000 28.82800 26.41900
C  -1.77800 28.71700 27.76400
C  -2.83800 27.73900 27.69500
C  -0.18400 29.70600 25.99000
C  -1.56400 29.11600 29.09100
O  -0.76700 29.94900 29.58900
C  -2.50100 28.20700 29.94400
C  -1.60200 27.41500 30.76300
O  -0.65800 26.76800 30.39700
O  -1.81800 27.73500 32.02600
C  -1.23700 27.04700 33.17300
H  -6.90800 23.15200 28.66100
H  -5.74200 23.65700 22.51700
H  -1.73000 28.64900 23.67900
H  -4.03000 25.73700 31.09700
H  -6.78300 24.72100 30.59700
H  -6.11600 23.00900 31.60600
H  -4.55900 23.83400 31.77600
H  -4.87900 22.68200 30.42200
H  -6.73300 27.04300 30.72400
H  -5.31200 28.18100 30.88100
H  -6.84600 27.55200 32.96200
H  -5.34400 28.12600 33.06300
H  -8.16900 21.67800 27.87800
H  -8.66000 21.10400 26.30600
H  -9.44400 22.55700 26.93600
H  -9.61300 20.93700 22.82000
H  -9.66800 21.46000 24.43300
H  -8.48100 20.14900 23.91500
H  -4.51900 25.50600 21.09700
H  -1.93700 26.71500 21.75500
H  -1.90800 24.60000 20.83600
H  -3.41600 23.60200 20.58400
H  -2.51000 23.55000 22.14600
H  -3.91000 28.88000 21.96900
H  -4.62300 27.85200 20.79300
H  -2.05800 28.00800 19.90600
H  -2.53100 29.68100 20.29700
H  -3.59000 28.62800 19.29700
H  -0.44900 30.76200 25.94800
H  0.21600 29.22100 25.10000
H  0.59300 29.60300 26.74700
H  -3.14900 28.85800 30.53100
H  -0.26200 27.47200 33.40900
H  -1.03900 25.98500 33.03200
H  -1.82900 27.25700 34.06400

