158

Mg 45.18300 5.19900 47.00900
C  42.85500 7.83400 46.58400
C  42.55000 2.99300 46.40900
C  47.43300 2.88800 46.56300
C  47.83200 7.65500 46.85500
N  43.00900 5.46900 46.45800
C  42.24400 6.61400 46.30800
C  40.73400 6.37700 46.28200
C  40.65600 4.80000 46.11000
C  42.11000 4.38000 46.38600
C  39.56900 4.13700 47.17700
C  39.85800 7.09500 45.13900
C  40.62000 7.44600 43.78000
H  39.88400 6.96100 42.49000
N  44.99400 3.18000 46.59200
C  43.87800 2.45200 46.49800
C  44.20800 1.02700 46.43100
C  45.66200 1.02000 46.24000
C  46.11400 2.35500 46.45800
C  43.19400 -0.07100 46.29500
C  46.43100 -0.22600 45.81300
O  45.85200 -1.30800 45.57000
C  48.00400 -0.12000 45.49900
N  47.31100 5.29200 46.86300
C  47.99300 4.12000 46.76200
C  49.54100 4.28300 46.94800
C  49.71800 5.79200 47.01500
C  48.26800 6.27800 46.89100
C  50.19100 3.61000 48.23300
C  50.74300 6.34600 46.01600
C  51.98000 6.97200 46.63100
N  45.35000 7.27100 46.84200
C  46.45400 8.11700 46.82900
C  45.99600 9.52000 46.82900
C  44.59300 9.37000 46.90700
C  44.24900 8.06900 46.79100
C  46.84400 10.71800 46.92500
C  43.46000 10.18700 47.04300
O  43.36200 11.37400 47.33200
C  42.23100 9.18400 46.66200
C  41.22400 9.18300 47.78000
O  41.18200 8.38700 48.69100
O  40.36200 10.29000 47.53400
C  39.29500 10.56200 48.47300
H  41.78500 2.25600 46.15400
H  48.23100 2.15900 46.40900
H  48.65800 8.34000 47.05800
H  40.15900 6.64200 47.17000
H  40.29900 4.65300 45.09100
H  39.05600 4.83500 47.83800
H  40.06900 3.41000 47.81600
H  38.79000 3.56300 46.67500
H  39.69800 8.11000 45.50100
H  38.89900 6.58500 45.04900
H  41.56100 6.93000 43.97400
H  40.75000 8.52800 43.74800
H  43.38600 -0.69300 45.42100
H  42.16700 0.28500 46.21400
H  43.16500 -0.65100 47.21700
H  48.61000 -0.09600 46.40500
H  48.12200 0.80600 44.93700
H  48.26000 -0.96900 44.86400
H  50.03200 3.85300 46.07500
H  49.91400 6.15700 48.02400
H  51.08000 4.15800 48.54800
H  50.47000 2.58700 47.98100
H  49.34900 3.59200 48.92500
H  50.19300 7.12100 45.48100
H  50.96000 5.53400 45.32200
H  51.75700 8.03900 46.65300
H  52.86900 6.69300 46.06600
H  52.11300 6.56900 47.63600
H  47.74500 10.59000 47.52500
H  46.26500 11.57200 47.27700
H  47.21200 10.99700 45.93700
H  41.77800 9.53800 45.73600
H  39.10900 11.63500 48.51100
H  39.63600 10.31800 49.47900
H  38.40600 9.99000 48.20700
Mg -5.60600 24.88700 26.95000
C  -4.59000 26.76900 29.75100
C  -7.37500 23.05300 29.16600
C  -6.87500 23.24300 24.33300
C  -3.79500 26.96400 24.96800
N  -5.86800 24.93800 29.21800
C  -5.45600 25.81900 30.12900
C  -6.07400 25.55700 31.52000
C  -6.76100 24.16300 31.31600
C  -6.67800 24.00600 29.79800
C  -6.13700 22.87900 32.06300
C  -7.00800 26.70900 31.98000
C  -7.06100 27.19600 33.53900
H  -6.52000 26.23100 34.61200
N  -6.98800 23.38000 26.72100
C  -7.69100 22.79700 27.79000
C  -8.63400 21.82100 27.21300
C  -8.48000 21.80700 25.76600
C  -7.44500 22.89200 25.56500
C  -9.56100 20.95900 28.09500
C  -9.10300 20.95000 24.73200
O  -9.06600 21.27100 23.53000
C  -10.07500 19.90200 25.14200
N  -5.26800 25.00500 24.95300
C  -5.92300 24.19100 24.07200
C  -5.36800 24.44400 22.61600
C  -4.45300 25.68900 22.84700
C  -4.50000 25.87700 24.37000
C  -4.56200 23.25600 22.02600
C  -4.92600 27.01600 22.00500
C  -4.10000 27.22100 20.70900
N  -4.35100 26.46600 27.23600
C  -3.69100 27.25300 26.27400
C  -2.96200 28.25000 26.92900
C  -3.23500 28.08200 28.31700
C  -4.16400 27.07800 28.45300
C  -2.02600 29.20300 26.28900
C  -3.00200 28.63600 29.61500
O  -2.34000 29.57200 30.03400
C  -3.94300 27.87600 30.62600
C  -3.16700 27.38600 31.80300
O  -2.44100 26.41500 31.84900
O  -3.21200 28.28800 32.88300
C  -2.25800 28.20900 34.02700
H  -7.79100 22.32400 29.86400
H  -7.12000 22.55100 23.52500
H  -3.25400 27.60500 24.26900
H  -5.32700 25.35500 32.28800
H  -7.79800 24.08900 31.64300
H  -5.35400 23.31400 32.68500
H  -5.77000 22.14300 31.34800
H  -6.91800 22.50700 32.72600
H  -8.01900 26.51000 31.62400
H  -6.57300 27.56000 31.45400
H  -8.05600 27.52200 33.84200
H  -6.54300 28.14500 33.68000
H  -9.44400 19.93300 27.74900
H  -10.57800 21.33900 28.00500
H  -9.36900 21.00700 29.16700
H  -9.81300 19.22200 25.95200
H  -10.45900 19.26700 24.34300
H  -10.98100 20.37200 25.52500
H  -6.24300 24.62400 21.99300
H  -3.40000 25.47000 22.67500
H  -4.32100 22.44800 22.71700
H  -3.61100 23.58600 21.60800
H  -5.22900 22.87600 21.25200
H  -4.93700 27.93000 22.59900
H  -5.93300 26.89600 21.60500
H  -3.35900 26.46100 20.46000
H  -3.52100 28.14300 20.75700
H  -4.72700 27.30800 19.82200
H  -1.43500 29.64200 27.09400
H  -2.38100 29.93400 25.56300
H  -1.26900 28.62500 25.76000
H  -4.72300 28.56400 30.95400
H  -1.29400 27.78200 33.75000
H  -2.61000 27.75300 34.95200
H  -1.99300 29.21300 34.35900

