158

Mg 2.15400 -2.12000 43.97500
C  5.37400 -0.87000 43.59500
C  1.04400 0.69900 42.43000
C  -0.93400 -3.57900 43.67700
C  3.51500 -5.20000 44.93000
N  3.08900 -0.36200 43.09600
C  4.40300 -0.07300 43.08600
C  4.64500 1.21600 42.32400
C  3.24100 1.90600 42.30800
C  2.39600 0.70700 42.74500
C  3.19100 3.10900 43.21900
C  5.21600 0.90800 40.90600
C  6.36400 1.86200 40.32700
H  7.09400 1.18700 39.16100
N  0.28900 -1.50600 43.12800
C  0.07200 -0.33000 42.52900
C  -1.29800 -0.25500 42.11800
C  -1.91700 -1.42000 42.55900
C  -0.85000 -2.25400 43.15200
C  -1.89200 1.00700 41.44300
C  -3.38800 -1.77200 42.43300
O  -4.19000 -0.99500 41.94100
C  -3.94400 -2.96600 43.06500
N  1.36900 -4.12000 44.25000
C  0.05700 -4.38700 44.25700
C  -0.14800 -5.83100 44.69700
C  1.29100 -6.35400 45.12800
C  2.09700 -5.20300 44.64700
C  -1.19800 -5.96100 45.80500
C  1.78400 -7.70000 44.46500
C  2.50300 -8.59500 45.55200
N  4.04100 -2.91900 44.33600
C  4.43600 -4.10600 44.84900
C  5.88800 -4.09900 44.98400
C  6.28500 -2.85900 44.50100
C  5.10300 -2.19400 44.07600
C  6.66700 -5.25800 45.50500
C  7.43300 -2.01900 44.25800
O  8.65200 -2.20300 44.34500
C  6.88900 -0.67500 43.68400
C  7.24200 0.36700 44.74500
O  6.65400 0.59700 45.81400
O  8.33100 1.10100 44.25400
C  8.70500 2.38200 44.98300
H  0.70100 1.65200 42.02200
H  -1.85300 -4.14200 43.49500
H  3.93400 -6.13300 45.31200
H  5.37200 1.83800 42.84600
H  3.02800 2.22000 41.28600
H  4.07200 3.31700 43.82700
H  2.45100 2.92400 43.99800
H  3.03500 3.94000 42.53200
H  4.44200 1.11500 40.16600
H  5.46700 -0.15100 40.84800
H  7.13800 2.03800 41.07300
H  5.94400 2.84300 40.10800
H  -1.93600 1.68000 42.29900
H  -2.85400 0.87900 40.94600
H  -1.18700 1.37600 40.69800
H  -3.74300 -3.89000 42.52300
H  -5.01500 -2.76600 43.08800
H  -3.55000 -2.96600 44.08200
H  -0.38900 -6.34400 43.76600
H  1.35300 -6.41200 46.21500
H  -1.51400 -4.96800 46.12300
H  -0.90500 -6.58700 46.64800
H  -2.01100 -6.53900 45.36500
H  2.43600 -7.40800 43.64200
H  0.92800 -8.28500 44.13100
H  2.07200 -8.54700 46.55200
H  3.58900 -8.65500 45.47400
H  2.25600 -9.56700 45.12600
H  7.56600 -4.90700 46.01100
H  6.99500 -5.84000 44.64300
H  6.10000 -5.95200 46.12500
H  7.37500 -0.46200 42.73100
H  7.81400 2.93200 45.28700
H  9.45100 3.00500 44.49000
H  9.11100 2.14300 45.96600
Mg 9.31700 48.29300 25.62900
C  7.41000 48.17700 28.56500
C  11.85600 49.71700 27.53200
C  11.18700 48.18000 22.92600
C  6.56600 47.26700 23.86800
N  9.54700 48.92700 27.82100
C  8.68000 48.72700 28.82000
C  9.17200 49.20500 30.13700
C  10.61100 49.79900 29.83800
C  10.67800 49.52400 28.27400
C  10.94000 51.17000 30.23300
C  9.08400 48.21900 31.29800
C  9.84200 48.68300 32.49200
H  9.23200 48.28700 33.89000
N  11.28100 48.95700 25.21200
C  12.18800 49.51900 26.09900
C  13.41700 49.70200 25.41800
C  13.28500 49.16600 24.12400
C  11.87100 48.79400 24.01700
C  14.58400 50.41700 26.02300
C  14.42300 48.85900 23.04600
O  14.11200 48.60900 21.92300
C  15.73200 48.90800 23.47800
N  8.84100 47.98600 23.68000
C  9.89100 47.72700 22.82200
C  9.41000 46.91600 21.52100
C  7.93000 46.67000 21.81300
C  7.76700 47.33300 23.20500
C  9.60700 47.55400 20.08800
C  7.56500 45.19400 21.75500
C  7.91700 44.38100 23.02200
N  7.37600 47.76900 26.05200
C  6.35100 47.46100 25.20300
C  5.06000 47.40300 25.94800
C  5.44400 47.67100 27.32500
C  6.80700 47.88900 27.30100
C  3.68000 47.37600 25.33000
C  4.95800 47.96300 28.62400
O  3.85800 48.07200 29.06200
C  6.21300 47.91600 29.45900
C  6.26900 46.63000 30.22000
O  6.64300 45.51200 29.77200
O  5.96400 46.78100 31.54600
C  6.13200 45.65700 32.44700
H  12.61800 50.09600 28.21700
H  11.83700 47.76300 22.15300
H  5.70400 46.87600 23.32400
H  8.55000 50.08300 30.30900
H  11.37300 49.07100 30.11700
H  10.05900 51.66300 30.64300
H  11.24900 51.75600 29.36700
H  11.66600 51.06500 31.04000
H  9.31000 47.20900 30.95800
H  8.02500 48.26100 31.55000
H  9.76600 49.76800 32.56400
H  10.87700 48.35700 32.59100
H  14.37100 50.70900 27.05200
H  14.84900 51.14500 25.25600
H  15.38000 49.67700 26.11300
H  15.93900 49.97300 23.58800
H  16.33900 48.52500 22.65700
H  15.89900 48.37800 24.41500
H  9.79700 45.90100 21.43400
H  7.35400 47.21400 21.06500
H  10.58900 47.28400 19.69800
H  9.51100 48.62900 20.23900
H  8.85500 47.29400 19.34200
H  8.13500 44.76600 20.93000
H  6.52500 45.06600 21.45300
H  8.34000 44.99200 23.81900
H  8.61400 43.61200 22.69000
H  7.00600 43.98200 23.46900
H  3.72100 47.29700 24.24400
H  3.23500 48.31900 25.64800
H  3.09500 46.53700 25.70500
H  6.06600 48.83500 30.02600
H  5.14500 45.20600 32.53900
H  6.32500 46.14200 33.40400
H  6.89100 44.93600 32.14400

