158

Mg 40.99500 9.13400 29.44000
C  42.45400 10.28600 32.53900
C  38.53600 7.72700 31.28200
C  39.96400 7.64300 26.76800
C  43.99800 10.01400 28.00900
N  40.60300 8.98500 31.64600
C  41.21500 9.64500 32.73300
C  40.38500 9.62000 34.03900
C  39.15600 8.74500 33.63400
C  39.39700 8.49500 32.08500
C  39.08500 7.45700 34.41900
C  40.04900 11.08200 34.45600
C  39.03300 11.24700 35.65400
H  39.58300 11.42800 37.07300
N  39.40100 7.92300 29.05400
C  38.48400 7.47700 29.92900
C  37.40900 6.72400 29.18400
C  37.74700 6.79600 27.82300
C  39.04800 7.49300 27.86200
C  36.33200 5.93000 29.92200
C  37.03200 6.27500 26.62800
O  37.46100 6.24800 25.46200
C  35.64100 5.64800 26.82900
N  41.97400 8.64600 27.67800
C  41.24200 8.20500 26.62600
C  41.79500 8.39500 25.24100
C  43.07200 9.21800 25.65900
C  43.00900 9.38500 27.19200
C  42.26400 7.16400 24.44800
C  43.23700 10.56000 24.93300
C  42.03100 11.49200 25.02600
N  42.70900 10.10000 30.00800
C  43.86900 10.33400 29.33100
C  44.82000 11.10200 30.04700
C  44.23400 11.23300 31.30600
C  43.02700 10.49300 31.27800
C  46.08800 11.57300 29.61900
C  44.43400 11.78400 32.65200
O  45.22100 12.64300 33.08900
C  43.33000 11.11800 33.49000
C  43.86500 10.15200 34.55700
O  44.81400 9.38200 34.47500
O  43.00700 10.12000 35.65100
C  43.45000 9.23100 36.77200
H  37.65700 7.37500 31.82700
H  39.53600 7.22500 25.85500
H  44.83600 10.50000 27.50600
H  41.00400 9.14100 34.79800
H  38.15900 9.18300 33.59500
H  39.09700 6.57500 33.77900
H  38.17200 7.40000 35.01100
H  39.91400 7.51200 35.12500
H  39.60300 11.62200 33.62100
H  40.95700 11.53200 34.85600
H  38.40600 10.36500 35.78700
H  38.31400 12.04300 35.46400
H  36.45100 5.97600 31.00400
H  36.28200 4.85500 29.74600
H  35.40100 6.41600 29.63000
H  35.74800 4.87400 27.58800
H  35.30700 5.31300 25.84600
H  34.83200 6.31100 27.13600
H  41.20900 8.95500 24.51300
H  44.02300 8.74300 25.41600
H  43.20700 6.77600 24.83300
H  42.46300 7.48200 23.42500
H  41.62600 6.29300 24.59500
H  43.38300 10.33000 23.87800
H  44.03100 11.13300 25.41400
H  42.19100 12.48300 25.45100
H  41.30400 11.11000 25.74200
H  41.43000 11.66600 24.13300
H  46.08000 12.38700 28.89500
H  46.46700 10.71800 29.06000
H  46.82500 11.72800 30.40700
H  42.74100 11.93000 33.91600
H  44.38200 9.59100 37.20700
H  43.56600 8.18300 36.49500
H  42.76800 9.21900 37.62300
Mg 49.15100 45.37200 42.68000
C  45.79500 46.07500 41.61400
C  48.71100 42.28600 41.23500
C  52.39700 45.25700 42.77000
C  49.39400 48.99300 43.29500
N  47.41500 44.36100 41.49600
C  46.14300 44.79400 41.27800
C  45.31500 43.71700 40.57900
C  46.16700 42.46000 40.71100
C  47.51700 43.04700 41.03200
C  45.69900 41.50300 41.82700
C  44.88500 44.10000 39.08400
C  45.86200 44.93900 38.24800
H  45.73800 44.88500 36.78000
N  50.34500 43.89000 42.31300
C  50.03000 42.66100 41.74500
C  51.26900 41.88900 41.80400
C  52.29900 42.69300 42.30400
C  51.74000 44.00300 42.55700
C  51.30300 40.40700 41.40800
C  53.69000 42.14800 42.51500
O  54.04400 41.04900 42.01700
C  54.77500 42.80300 43.35900
N  50.57700 46.93400 43.03900
C  51.88700 46.56000 43.00100
C  52.84700 47.71000 43.19200
C  51.87600 48.94900 43.49800
C  50.53300 48.30900 43.23200
C  54.11800 47.41900 44.05700
C  52.06700 50.21600 42.61800
C  51.93300 51.61900 43.23600
N  47.84300 47.11800 42.69000
C  48.10300 48.45300 43.01600
C  46.86300 49.22700 43.01700
C  45.88000 48.30300 42.52300
C  46.57700 47.05500 42.22500
C  46.75100 50.58500 43.50000
C  44.53800 48.25600 42.11500
O  43.66900 49.14300 42.10400
C  44.41400 46.83600 41.47400
C  43.29700 46.02000 41.94900
O  42.36300 45.61800 41.27200
O  43.22000 46.06000 43.29500
C  42.06400 45.40000 43.88000
H  48.65200 41.26400 40.85500
H  53.47700 45.26000 42.92600
H  49.41300 50.08500 43.28300
H  44.39900 43.57200 41.15200
H  46.28000 41.91100 39.77500
H  46.55300 41.13500 42.39500
H  45.08300 40.73200 41.36300
H  45.10400 41.99400 42.59700
H  43.90300 44.57200 39.07100
H  44.62700 43.17900 38.56100
H  46.86600 44.66100 38.57000
H  45.65300 45.96500 38.54900
H  51.26300 39.82500 42.32900
H  52.22600 39.99500 41.00100
H  50.52100 40.15200 40.69300
H  55.57500 42.07800 43.51200
H  54.36300 43.15200 44.30600
H  55.12400 43.59600 42.69800
H  53.10500 47.85600 42.14300
H  52.05300 49.15600 44.55300
H  54.91200 47.23900 43.33200
H  54.02200 46.54600 44.70200
H  54.28100 48.28200 44.70200
H  51.21500 50.20900 41.93900
H  52.90500 50.18600 41.92200
H  52.94700 52.01800 43.26200
H  51.62600 51.65600 44.28100
H  51.28100 52.22400 42.60500
H  45.87400 50.66500 44.14300
H  46.54600 51.26500 42.67300
H  47.63600 50.80800 44.09500
H  44.17200 46.99800 40.42300
H  41.66700 44.57600 43.28700
H  41.33000 46.19800 43.99500
H  42.42200 45.02600 44.83900

