158

Mg 42.64600 41.70200 26.47500
C  42.03100 44.15600 29.01900
C  43.61000 39.57200 29.08800
C  43.68900 39.51100 24.24700
C  42.31000 44.10900 24.11800
N  42.80800 41.88300 28.85000
C  42.50600 43.02700 29.59500
C  42.61900 42.68900 31.11900
C  43.35300 41.23200 31.10000
C  43.19500 40.80700 29.61500
C  44.87200 41.35000 31.52000
C  41.09100 42.58400 31.78900
C  40.91500 43.32600 33.15700
H  40.09100 42.68300 34.20800
N  43.32600 39.71500 26.65100
C  43.67800 39.05800 27.78400
C  44.08300 37.68100 27.42300
C  44.23900 37.72900 26.00100
C  43.73800 39.01400 25.59500
C  44.54800 36.70400 28.44700
C  44.67200 36.65700 25.02300
O  44.64800 36.76000 23.81800
C  45.39100 35.41800 25.52100
N  43.13900 41.80900 24.41100
C  43.36000 40.73400 23.70900
C  43.57300 41.14700 22.21600
C  42.79600 42.42500 22.18000
C  42.76100 42.87700 23.61900
C  45.05600 41.20300 21.79700
C  41.37400 42.39100 21.48100
C  40.35300 41.24600 21.79900
N  42.22100 43.69800 26.50600
C  42.12400 44.54600 25.42500
C  41.71000 45.82300 25.81400
C  41.52300 45.66600 27.18200
C  41.99300 44.39700 27.63400
C  41.26100 47.00000 24.90700
C  41.14800 46.29800 28.43000
O  40.75300 47.43500 28.56200
C  41.41300 45.35700 29.60200
C  42.34700 46.04300 30.44200
O  43.53500 46.29100 30.11700
O  41.80200 46.39700 31.64300
C  42.66700 47.02800 32.67600
H  44.07600 38.94400 29.84900
H  43.75100 38.81100 23.41200
H  42.18200 44.82800 23.30600
H  43.26400 43.35200 31.69600
H  42.79500 40.56900 31.76200
H  44.95700 40.78200 32.44600
H  45.16000 42.39500 31.63300
H  45.57500 40.98700 30.77000
H  40.88100 41.59500 32.19600
H  40.33200 42.84600 31.05200
H  40.25000 44.18200 33.04300
H  41.87600 43.55500 33.61800
H  44.96500 35.78200 28.04200
H  43.74200 36.31200 29.06900
H  45.32400 37.10700 29.09700
H  45.83500 34.86700 24.69200
H  44.71100 34.80600 26.11200
H  46.26900 35.76000 26.07000
H  43.02600 40.43600 21.59600
H  43.46100 43.12100 21.66900
H  45.74500 40.70800 22.48200
H  45.42600 42.20100 21.56300
H  45.15600 40.69900 20.83600
H  41.37700 42.56400 20.40500
H  40.99500 43.35800 21.81200
H  39.98700 40.62400 20.98300
H  39.62100 41.68200 22.47800
H  40.80300 40.58400 22.54000
H  40.58900 47.66700 25.44700
H  40.81200 46.65400 23.97600
H  42.13800 47.59100 24.64100
H  40.54300 45.18600 30.23700
H  42.42800 48.07400 32.86500
H  43.74700 46.88300 32.63000
H  42.39200 46.53600 33.60900
Mg 2.02200 42.79300 26.50600
C  3.16900 42.84300 29.66100
C  -0.96300 41.36900 27.62600
C  1.16700 41.69300 23.34400
C  5.08400 43.65700 25.36100
N  1.19100 42.21600 28.36300
C  1.92200 42.28500 29.49300
C  1.01100 42.09500 30.70800
C  -0.27200 41.42300 30.10500
C  0.01500 41.65200 28.62600
C  -0.44500 39.93300 30.59800
C  0.83600 43.29900 31.58200
C  0.99500 43.11600 33.11800
H  0.44800 41.89800 33.73300
N  0.26500 41.85000 25.65700
C  -0.89100 41.46500 26.26000
C  -1.85400 40.95900 25.27300
C  -1.20300 40.97100 23.98100
C  0.11400 41.58200 24.29900
C  -3.14600 40.43200 25.62200
C  -1.68200 40.57700 22.67500
O  -1.09200 40.64300 21.64000
C  -3.01800 39.99500 22.45500
N  2.97300 42.63200 24.63000
C  2.42200 42.29400 23.48600
C  3.41300 42.38400 22.34300
C  4.51700 43.35400 22.89100
C  4.15900 43.29500 24.40700
C  3.97800 41.02100 21.87500
C  4.43700 44.79700 22.24900
C  3.80600 45.98300 23.08800
N  3.75000 43.21800 27.30700
C  4.92500 43.57300 26.76200
C  5.90700 43.67300 27.74800
C  5.28900 43.54400 28.96300
C  3.94500 43.21300 28.60100
C  7.39400 43.86100 27.56700
C  5.50200 43.37100 30.34300
O  6.48100 43.39400 31.09600
C  4.05900 42.92300 30.92900
C  4.31100 41.65900 31.58900
O  4.74900 40.69400 31.03600
O  4.07900 41.79300 32.96000
C  4.15400 40.44900 33.66900
H  -1.92400 41.03400 28.02300
H  1.08300 41.18300 22.38200
H  6.01500 44.16100 25.09400
H  1.56700 41.35700 31.28700
H  -1.14500 42.00800 30.39500
H  0.33900 39.49300 31.21400
H  -0.61500 39.31600 29.71600
H  -1.32900 39.98300 31.23200
H  -0.15600 43.74100 31.48600
H  1.49000 44.15300 31.40700
H  0.54500 43.94200 33.66900
H  2.06900 43.15500 33.30100
H  -3.09900 39.37400 25.88000
H  -3.96000 40.64300 24.92800
H  -3.53600 40.88900 26.53200
H  -3.16300 39.28500 23.27000
H  -3.07600 39.44200 21.51800
H  -3.66200 40.87200 22.50100
H  2.97600 42.78900 21.43000
H  5.49500 42.87200 22.88400
H  3.34800 40.25100 22.32000
H  4.95300 40.89000 22.34400
H  4.08800 40.94400 20.79300
H  3.79800 44.71800 21.36900
H  5.44200 45.05700 21.91500
H  3.46500 45.67800 24.07800
H  2.98300 46.35500 22.47900
H  4.64000 46.65900 23.28000
H  7.65100 44.60400 26.81200
H  7.91900 42.98500 27.18600
H  7.83100 44.09400 28.53900
H  3.72000 43.66000 31.65600
H  5.02800 40.47600 34.32100
H  4.09000 39.55800 33.04500
H  3.44400 40.22500 34.46600

