158

Mg 37.29100 50.21400 24.18400
C  36.79100 48.69500 27.46400
C  36.87400 53.19500 25.88100
C  37.37400 51.65600 21.17100
C  37.67400 47.10100 22.96600
N  36.65000 50.83200 26.44900
C  36.55300 50.05700 27.51800
C  36.57700 50.91500 28.88200
C  36.44900 52.38300 28.37000
C  36.64000 52.10800 26.81200
C  35.09900 53.10700 28.69200
C  37.83000 50.69100 29.84900
C  37.49800 50.20400 31.30600
H  36.12100 50.65600 31.86100
N  37.16900 52.16100 23.63000
C  37.06100 53.20400 24.44300
C  37.02900 54.33400 23.59500
C  37.14500 53.96300 22.25300
C  37.21300 52.53200 22.26600
C  36.78300 55.78000 24.11200
C  37.16500 54.84800 21.01500
O  37.29800 54.34500 19.84300
C  37.10100 56.34500 21.11700
N  37.17100 49.47700 22.32300
C  37.46400 50.25400 21.20500
C  37.62800 49.38900 19.91900
C  38.11800 48.05500 20.58300
C  37.58600 48.19900 22.03800
C  36.40500 49.25300 18.93000
C  39.66400 47.68500 20.38900
C  39.87500 46.32300 19.66400
N  37.15900 48.20800 24.90600
C  37.32700 47.02600 24.31300
C  37.31800 45.94400 25.29300
C  37.16700 46.56200 26.52200
C  37.03600 47.96800 26.25900
C  37.53500 44.52000 25.04700
C  37.02300 46.28700 27.90700
O  37.16500 45.25200 28.55400
C  36.76000 47.66000 28.62100
C  35.46900 47.56300 29.30800
O  34.40000 47.88800 28.81300
O  35.53300 47.00500 30.51900
C  34.29300 46.75400 31.29400
H  36.88100 54.18300 26.34600
H  37.40300 51.99900 20.13400
H  38.09100 46.19300 22.52700
H  35.68200 50.69100 29.46300
H  37.33800 52.94800 28.64900
H  35.38900 54.07000 29.11400
H  34.51800 52.63100 29.48200
H  34.42900 53.31800 27.85900
H  38.44500 51.59000 29.88700
H  38.50200 50.00100 29.33900
H  38.22000 50.58500 32.02800
H  37.48100 49.11400 31.33000
H  36.22900 55.81100 25.05100
H  36.05900 56.19300 23.41000
H  37.64300 56.44700 24.16800
H  36.15200 56.69800 21.52000
H  37.15000 56.71400 20.09200
H  37.98000 56.87900 21.47600
H  38.46700 49.75100 19.32600
H  37.59100 47.21400 20.13100
H  35.59300 49.94700 19.14900
H  35.99900 48.24400 18.86000
H  36.89000 49.59300 18.01600
H  40.05800 47.80700 21.39800
H  40.24200 48.35900 19.75800
H  39.89000 45.53000 20.41200
H  40.88300 46.31900 19.24900
H  39.16500 46.28500 18.83900
H  37.94600 44.36700 24.04900
H  36.53300 44.09300 25.00400
H  38.10400 44.26100 25.94000
H  37.69900 47.79600 29.15900
H  33.63900 47.61300 31.14000
H  34.50600 46.55200 32.34300
H  33.67000 45.99600 30.81900
Mg -10.26100 18.22300 42.80200
C  -7.03600 17.21300 42.37900
C  -9.37300 21.46200 42.30900
C  -13.56300 19.00700 42.68600
C  -11.21800 14.76000 42.48000
N  -8.48300 19.20800 42.01600
C  -7.23500 18.62000 42.14100
C  -6.15000 19.64800 41.97100
C  -6.86800 21.03400 42.06200
C  -8.37300 20.55300 42.16400
C  -6.45200 21.87000 43.37700
C  -5.13300 19.46400 40.79500
C  -5.74600 18.96400 39.48400
H  -5.00500 19.20600 38.23800
N  -11.38700 20.02600 42.59400
C  -10.79200 21.23700 42.36100
C  -11.84100 22.23900 42.23500
C  -13.05200 21.58900 42.46700
C  -12.70000 20.15900 42.61700
C  -11.70500 23.73400 41.87100
C  -14.47900 22.20400 42.75600
O  -14.66600 23.39900 42.77200
C  -15.73400 21.34300 43.25900
N  -12.12400 17.00600 42.88700
C  -13.32400 17.65400 42.88900
C  -14.47500 16.60900 42.83000
C  -13.71600 15.21800 42.64300
C  -12.26200 15.68100 42.57000
C  -15.44500 16.58900 44.04700
C  -14.27300 14.34900 41.47200
C  -14.68300 12.99800 41.97000
N  -9.36500 16.32600 42.68200
C  -9.86400 14.99900 42.56500
C  -8.70900 14.10700 42.50900
C  -7.59600 14.90000 42.57100
C  -8.07200 16.24200 42.53800
C  -8.75700 12.61600 42.34800
C  -6.19300 14.88200 42.41200
O  -5.39400 13.98600 42.30800
C  -5.78500 16.42900 42.54900
C  -5.04400 16.68200 43.82300
O  -3.81000 16.69000 43.93400
O  -5.95800 16.96700 44.80600
C  -5.35300 17.24600 46.14600
H  -9.19900 22.53100 42.17700
H  -14.63400 19.21200 42.72700
H  -11.38700 13.70500 42.25800
H  -5.52600 19.59900 42.86300
H  -6.70600 21.74300 41.25000
H  -7.37200 21.89400 43.96000
H  -6.16800 22.91100 43.22700
H  -5.63200 21.43000 43.94500
H  -4.38300 18.72500 41.07700
H  -4.68300 20.45100 40.68200
H  -6.83100 19.05800 39.51200
H  -5.64100 17.87900 39.46100
H  -12.61500 24.04200 41.35600
H  -10.78700 23.93700 41.32000
H  -11.57200 24.32200 42.77900
H  -15.47400 20.81100 44.17300
H  -16.15300 20.69500 42.48900
H  -16.60600 21.98700 43.37700
H  -15.03800 16.75400 41.90800
H  -13.89600 14.67600 43.57100
H  -16.41700 16.87600 43.64600
H  -15.08400 17.20900 44.86800
H  -15.51300 15.55100 44.37300
H  -13.61900 14.34500 40.59900
H  -15.21600 14.78200 41.13900
H  -14.25600 12.83900 42.96100
H  -14.27500 12.22200 41.32300
H  -15.77100 12.97400 41.89800
H  -9.65200 12.17600 42.78900
H  -7.98200 12.12800 42.93900
H  -8.81800 12.45000 41.27200
H  -5.05100 16.61600 41.76500
H  -5.50600 16.37200 46.77800
H  -5.93400 17.95100 46.74000
H  -4.32200 17.59900 46.18000

