158

Mg 26.19500 -7.90500 47.73200
C  27.81700 -5.15600 46.41900
C  23.41900 -7.17200 45.74900
C  24.77100 -10.91000 48.73100
C  29.18900 -8.96900 49.15500
N  25.79600 -6.46500 45.91300
C  26.54200 -5.32800 45.74700
C  25.80500 -4.28000 44.95000
C  24.28300 -4.78300 45.10700
C  24.47200 -6.25100 45.65300
C  23.42800 -3.95200 46.11600
C  26.41600 -4.14400 43.45300
C  26.85100 -2.71700 43.04500
H  26.81200 -2.26500 41.59400
N  24.34300 -8.83900 47.35500
C  23.33600 -8.39200 46.51800
C  22.14100 -9.23600 46.69900
C  22.47200 -10.28400 47.57700
C  23.94000 -10.09700 47.92200
C  20.84000 -9.01400 45.82300
C  21.57100 -11.40900 47.98600
O  20.38700 -11.46800 47.67200
C  22.00900 -12.47800 48.89900
N  26.90800 -9.75100 48.67700
C  26.10800 -10.78100 49.07800
C  26.84800 -11.89300 49.96800
C  28.31000 -11.33800 49.89500
C  28.11300 -9.92700 49.24200
C  26.15600 -12.05400 51.43800
C  29.33800 -12.22600 49.13000
C  30.76700 -12.34500 49.74300
N  28.06900 -7.19100 47.86600
C  29.18800 -7.76700 48.40600
C  30.24200 -6.72400 48.53200
C  29.70000 -5.66500 47.83800
C  28.41100 -6.06300 47.24600
C  31.64500 -6.91200 49.14200
C  29.92800 -4.30800 47.35800
O  30.88600 -3.56200 47.51200
C  28.79100 -4.00200 46.31900
C  28.16900 -2.78800 46.91300
O  27.54600 -2.61800 47.97200
O  28.64100 -1.68800 46.24700
C  28.00000 -0.40900 46.36200
H  22.45200 -6.79200 45.41200
H  24.36000 -11.86800 49.05600
H  30.01100 -9.24000 49.82100
H  25.88900 -3.34000 45.49600
H  23.75500 -4.69800 44.15800
H  23.60600 -4.24600 47.15000
H  22.38400 -4.15100 45.87500
H  23.70000 -2.90700 45.96100
H  25.58700 -4.35500 42.77700
H  27.23700 -4.82200 43.22000
H  27.78900 -2.42800 43.51900
H  26.13200 -2.01500 43.46600
H  21.00600 -9.43600 44.83200
H  20.67400 -7.93800 45.86200
H  20.06900 -9.66100 46.24100
H  22.81100 -13.14100 48.57700
H  21.18700 -13.11300 49.23100
H  22.19600 -11.94800 49.83300
H  26.79600 -12.88100 49.51100
H  28.69700 -11.12200 50.89100
H  25.12000 -11.73200 51.33600
H  26.67900 -11.34300 52.07800
H  26.28300 -13.07700 51.79100
H  29.59900 -11.82500 48.15000
H  28.98100 -13.25000 49.02100
H  30.93700 -11.66200 50.57500
H  31.44000 -12.14900 48.90900
H  30.78300 -13.41500 49.95200
H  31.48200 -7.38600 50.11000
H  32.07800 -5.91200 49.11200
H  32.13500 -7.68800 48.55400
H  29.01800 -3.71200 45.29300
H  28.60900 0.23100 47.00000
H  26.99000 -0.46400 46.76800
H  27.96900 0.23400 45.48200
Mg 5.83900 54.62000 40.64400
C  5.73800 51.03600 40.43900
C  9.19500 54.29800 39.62800
C  5.85700 57.86500 40.10400
C  2.50600 54.69000 41.29400
N  7.26600 52.81800 40.00500
C  6.99200 51.50100 39.97600
C  8.22500 50.67400 39.51900
C  9.38200 51.72400 39.60900
C  8.57500 53.04700 39.70100
C  10.32000 51.62700 40.92900
C  8.16700 49.88700 38.15800
C  7.99400 50.72800 36.83200
H  6.72300 50.58200 36.02000
N  7.30200 55.90800 40.05400
C  8.63600 55.61900 39.82100
C  9.42800 56.83700 39.64100
C  8.52600 57.84700 39.84500
C  7.15300 57.27800 39.96000
C  10.83800 56.93100 39.14100
C  8.86800 59.29400 39.97500
O  10.06400 59.56200 39.94200
C  7.82900 60.31600 40.22300
N  4.24000 56.06500 40.32800
C  4.58500 57.34800 40.36300
C  3.35900 58.25000 40.69400
C  2.24900 57.16200 40.79100
C  3.02700 55.89200 40.89500
C  3.67800 59.00400 42.11000
C  1.26300 57.11900 39.56900
C  -0.16300 57.61600 39.87000
N  4.33400 53.17100 40.88900
C  3.03500 53.38500 41.26100
C  2.44800 52.04900 41.50600
C  3.49600 51.14700 41.25100
C  4.61800 51.83800 40.83700
C  1.19000 51.58400 42.09300
C  3.90300 49.70200 41.26200
O  3.23800 48.71200 41.64500
C  5.34300 49.57700 40.64700
C  5.00100 48.88500 39.34200
O  4.58100 49.39000 38.28300
O  5.29000 47.54500 39.50400
C  4.81700 46.64300 38.37400
H  10.18700 54.34900 39.17400
H  5.83000 58.95200 40.00000
H  1.49000 54.72000 41.69400
H  8.37800 49.93100 40.30200
H  10.02000 51.73500 38.72600
H  11.33100 51.51100 40.53800
H  10.06700 50.79400 41.58500
H  10.31700 52.51400 41.56200
H  7.39600 49.12200 38.24200
H  9.09600 49.33100 38.02700
H  8.90300 50.53000 36.26300
H  7.95800 51.79200 37.06400
H  10.97500 57.70300 38.38300
H  11.35000 56.00100 38.89200
H  11.49300 57.23500 39.95800
H  8.29900 61.26800 40.47000
H  7.22200 60.01400 41.07700
H  7.19800 60.39800 39.33800
H  3.18300 58.89600 39.83400
H  1.62800 57.36300 41.66500
H  2.92900 59.79500 42.13400
H  4.69600 59.38500 42.19500
H  3.42500 58.44600 43.01100
H  1.10900 56.07600 39.29400
H  1.80000 57.69000 38.81100
H  -0.85400 56.83700 39.54700
H  -0.37500 58.55300 39.35500
H  -0.23900 57.82300 40.93800
H  0.62400 52.50400 42.24400
H  1.36700 51.06600 43.03600
H  0.84700 50.92500 41.29600
H  6.06200 48.98100 41.20900
H  3.73900 46.64300 38.21600
H  5.04500 45.60400 38.61100
H  5.27000 47.06100 37.47400

