158

Mg 10.12400 48.12100 26.07100
C  8.21600 48.16100 29.01900
C  12.57500 49.59400 27.63300
C  11.74900 48.32400 23.10100
C  7.27900 47.10300 24.30800
N  10.29000 48.84400 28.06600
C  9.53000 48.61900 29.15700
C  10.17200 49.08700 30.43100
C  11.32800 49.97500 29.82100
C  11.42600 49.46200 28.43500
C  11.06700 51.52200 29.82200
C  10.76000 47.92800 31.37900
C  10.85400 48.24300 32.90000
H  10.32200 47.25400 33.90500
N  11.97300 48.83900 25.44500
C  12.86500 49.42400 26.25300
C  14.14900 49.66800 25.59900
C  13.88900 49.20800 24.23000
C  12.48800 48.81200 24.17300
C  15.35800 50.10700 26.23500
C  14.90400 49.13400 23.08000
O  14.59600 48.58700 22.04000
C  16.29100 49.59800 23.24000
N  9.57700 47.86100 23.92800
C  10.46000 47.87700 22.91800
C  9.86400 47.28100 21.57700
C  8.43100 46.88400 22.07800
C  8.43700 47.26700 23.52100
C  9.96200 48.12000 20.27300
C  8.36900 45.34000 21.88300
C  9.18000 44.41600 22.80200
N  8.19300 47.73200 26.47300
C  7.13200 47.28000 25.69600
C  5.92600 47.10300 26.50200
C  6.34500 47.40300 27.80900
C  7.65900 47.73300 27.79700
C  4.56900 46.87300 26.07500
C  5.92700 47.37600 29.14000
O  4.83000 47.09400 29.68300
C  7.12800 47.73500 30.03600
C  7.39700 46.48900 30.88900
O  8.41900 45.79400 30.77800
O  6.45800 46.30200 31.82400
C  6.65900 45.12900 32.73800
H  13.32100 50.07600 28.26900
H  12.19200 48.44600 22.11100
H  6.39500 46.81900 23.73300
H  9.50100 49.59300 31.12500
H  12.21000 49.67700 30.38800
H  11.06900 51.85700 28.78500
H  11.86700 52.08300 30.30600
H  10.13500 51.91300 30.23200
H  11.81200 47.83800 31.10600
H  10.31700 46.96300 31.13200
H  10.38700 49.22500 32.96400
H  11.89000 48.38800 33.20800
H  15.18500 49.98300 27.30400
H  15.55000 51.16400 26.05400
H  16.19000 49.49100 25.89300
H  16.94800 49.61100 22.37100
H  16.68500 48.77800 23.84000
H  16.24100 50.61000 23.64200
H  10.44200 46.37700 21.38700
H  7.68000 47.42200 21.49900
H  8.97600 48.34700 19.86800
H  10.54300 47.51700 19.57500
H  10.43800 49.08600 20.44100
H  8.75800 45.18600 20.87600
H  7.33800 45.01800 22.03200
H  8.42600 43.76200 23.24000
H  9.83800 44.77300 23.59500
H  9.80700 43.76900 22.18800
H  4.03200 47.80900 25.91900
H  3.99800 46.19800 26.71200
H  4.65700 46.30600 25.14800
H  7.05900 48.61200 30.67900
H  5.92400 44.36900 32.47000
H  6.34400 45.49100 33.71600
H  7.68400 44.76000 32.72200
Mg 1.81200 42.42100 25.48600
C  3.25000 42.63200 28.69100
C  -1.16600 41.22200 26.96200
C  0.57600 41.66900 22.50500
C  4.99300 43.05500 24.17900
N  1.13100 42.01000 27.56200
C  1.87300 42.18300 28.71400
C  1.03500 41.80300 29.88800
C  -0.25700 41.14100 29.30600
C  -0.06800 41.45700 27.80000
C  -0.42100 39.61900 29.64400
C  0.82300 43.18100 30.68400
C  0.69100 43.12100 32.23500
H  0.26300 41.71800 32.68500
N  -0.06200 41.75400 24.79200
C  -1.19400 41.33600 25.56000
C  -2.32600 41.07400 24.65000
C  -1.90800 41.22900 23.31000
C  -0.41900 41.54500 23.45200
C  -3.86600 40.81900 25.17300
C  -2.58800 41.08800 21.95200
O  -2.05800 41.43000 20.87100
C  -3.94900 40.54500 21.93600
N  2.65100 42.35000 23.68000
C  1.99400 41.93500 22.59700
C  2.88500 42.01200 21.36100
C  4.05900 42.88000 21.83300
C  3.94000 42.78900 23.30700
C  3.30300 40.56000 20.94500
C  4.04700 44.35000 21.38500
C  3.29000 45.44700 22.20700
N  3.73800 42.89000 26.28400
C  4.92500 43.17700 25.61700
C  5.95100 43.40000 26.54700
C  5.34100 43.22600 27.77000
C  4.02300 42.93000 27.56100
C  7.42500 43.75900 26.36200
C  5.61600 43.10300 29.18600
O  6.61400 43.38300 29.80700
C  4.24300 42.69100 29.83100
C  4.40100 41.37700 30.52300
O  4.40900 40.28100 30.02100
O  4.66600 41.63700 31.82700
C  5.37800 40.60100 32.55900
H  -2.04400 40.90000 27.52500
H  0.27900 41.41500 21.48500
H  5.98800 43.19400 23.75000
H  1.56000 41.12600 30.56200
H  -1.12900 41.67500 29.68600
H  -1.45900 39.42800 29.91500
H  0.23900 39.38300 30.47900
H  -0.31500 38.98400 28.76400
H  -0.08900 43.60300 30.26100
H  1.60700 43.91500 30.49200
H  -0.11800 43.77200 32.56900
H  1.57500 43.47300 32.76600
H  -3.81400 40.90500 26.25800
H  -4.21700 39.86500 24.78100
H  -4.51800 41.59000 24.76300
H  -4.52200 41.39200 22.31300
H  -3.91800 39.64900 22.55700
H  -4.26000 40.25200 20.93300
H  2.33100 42.46600 20.54000
H  5.04100 42.47700 21.58300
H  2.71000 39.81700 21.47900
H  4.38900 40.46700 20.93200
H  3.00900 40.35100 19.91700
H  3.74300 44.34700 20.33900
H  5.11800 44.53600 21.45200
H  2.59000 45.03200 22.93200
H  2.64600 46.05300 21.57000
H  3.94400 46.11500 22.76700
H  7.91300 43.77400 27.33600
H  7.41500 44.69300 25.80000
H  7.74200 42.96200 25.69000
H  3.91800 43.46100 30.53000
H  5.90000 39.87600 31.93500
H  4.55800 40.08300 33.05600
H  6.04000 41.04600 33.30300

