158

Mg 48.65900 13.60600 27.44600
C  46.49500 14.37000 30.30600
C  51.03500 15.55700 28.97700
C  50.42300 13.05200 24.72500
C  45.76100 12.17400 26.02300
N  48.72700 14.74600 29.52400
C  47.83800 14.81900 30.54100
C  48.46400 15.57800 31.71000
C  49.86600 16.00600 31.19600
C  49.87400 15.40900 29.79000
C  50.00300 17.53400 31.12400
C  48.51700 14.53600 32.97500
C  48.03400 15.11300 34.27300
H  49.07100 14.90100 35.43700
N  50.46200 14.13800 26.97900
C  51.28100 14.98000 27.71800
C  52.44100 15.25200 26.92800
C  52.31900 14.60700 25.63500
C  51.05200 13.84100 25.69900
C  53.58300 16.18000 27.46000
C  53.32200 14.67000 24.47100
O  53.01800 14.13200 23.42400
C  54.71500 15.24800 24.51700
N  48.20300 12.67800 25.71200
C  49.08700 12.56700 24.71400
C  48.50000 11.77600 23.47900
C  47.12200 11.30200 24.07300
C  47.00400 12.09800 25.35800
C  48.28800 12.65600 22.20600
C  47.05400 9.77300 24.24000
C  47.98500 9.15600 25.29800
N  46.53900 13.40900 27.98300
C  45.54900 12.76200 27.27400
C  44.36800 12.73100 28.04900
C  44.72600 13.33700 29.27800
C  46.04200 13.68000 29.13100
C  43.17600 12.01100 27.68300
C  44.20500 13.64600 30.57900
O  43.11900 13.45100 31.10500
C  45.33100 14.40600 31.32700
C  44.90000 15.75700 31.77500
O  44.74600 16.67200 31.04900
O  44.81400 15.81000 33.14400
C  44.45500 17.08400 33.72800
H  51.74800 16.17000 29.53300
H  50.90800 12.89100 23.76000
H  44.93900 11.71900 25.46600
H  47.80500 16.39700 31.99600
H  50.63100 15.56400 31.83500
H  50.77200 17.83400 31.83500
H  49.15400 18.15800 31.40400
H  50.41300 17.82300 30.15600
H  49.55600 14.21000 33.02300
H  47.94200 13.64600 32.71900
H  47.16900 14.47200 34.44200
H  47.62200 16.12300 34.26000
H  53.25900 16.86400 28.24400
H  54.05600 16.77100 26.67600
H  54.32700 15.54300 27.93800
H  55.47300 14.82300 25.17500
H  54.52300 16.28000 24.81000
H  55.19800 15.21900 23.54000
H  49.03900 10.86800 23.20900
H  46.30100 11.50600 23.38500
H  49.18400 12.63400 21.58600
H  48.04900 13.67300 22.51700
H  47.43200 12.27600 21.64700
H  47.36000 9.34800 23.28400
H  46.02000 9.54000 24.49400
H  48.35900 9.83200 26.06800
H  48.84800 8.71600 24.79800
H  47.56000 8.35700 25.90500
H  43.35100 10.93700 27.74600
H  42.79600 12.35800 26.72200
H  42.48700 12.20700 28.50400
H  45.56100 13.76700 32.18000
H  43.38900 17.10700 33.95200
H  44.63300 18.02100 33.20000
H  44.96400 17.20300 34.68500
Mg -0.22900 43.07400 26.02800
C  2.07900 42.64700 28.66500
C  -2.68800 41.79300 27.96500
C  -2.21100 43.25400 23.33500
C  2.50100 43.98500 23.92800
N  -0.26500 42.28600 27.94800
C  0.72100 42.37800 28.92500
C  0.27300 42.14400 30.36600
C  -1.16900 41.36100 30.09000
C  -1.40300 41.81700 28.56900
C  -1.22200 39.86200 30.30600
C  0.23800 43.37300 31.29900
C  0.60100 43.15200 32.79900
H  0.29800 41.69600 33.46300
N  -2.21400 42.60200 25.71500
C  -3.07700 42.09500 26.56900
C  -4.39500 41.97600 25.95900
C  -4.33600 42.63400 24.67300
C  -2.84400 42.75600 24.45400
C  -5.55900 41.37700 26.63200
C  -5.41400 42.84000 23.59400
O  -5.15800 43.13300 22.41300
C  -6.84600 42.70400 23.96300
N  0.10500 43.47700 23.96900
C  -0.90500 43.57900 23.04300
C  -0.40000 44.20700 21.69400
C  1.04000 44.57600 22.04400
C  1.28600 43.89600 23.35500
C  -0.66500 43.23900 20.57800
C  1.28400 46.14000 22.13100
C  0.76600 46.93100 23.30400
N  1.90100 43.23900 26.18900
C  2.83700 43.64800 25.25300
C  4.12400 43.58700 25.92800
C  3.88900 43.31600 27.24000
C  2.52000 43.08500 27.34600
C  5.43800 43.80000 25.21200
C  4.51300 43.03400 28.54200
O  5.68000 42.99400 28.84800
C  3.27200 42.84800 29.53000
C  3.72500 41.63300 30.39400
O  3.88800 40.47700 30.03000
O  4.11500 41.98100 31.66000
C  4.68300 40.91500 32.52400
H  -3.45900 41.43300 28.64900
H  -2.86400 43.58800 22.52600
H  3.33700 44.21300 23.26400
H  1.00800 41.51300 30.86600
H  -1.97700 41.83400 30.64700
H  -2.19800 39.68100 30.75500
H  -0.34500 39.55300 30.87400
H  -1.34000 39.24800 29.41300
H  -0.78800 43.73800 31.34500
H  0.72000 44.27500 30.92300
H  0.06300 43.85000 33.44200
H  1.67400 43.33400 32.85900
H  -6.24800 42.20700 26.79300
H  -5.14200 40.87000 27.50100
H  -6.01400 40.55100 26.08500
H  -6.98500 43.14200 24.95200
H  -7.07100 41.63700 23.96100
H  -7.49300 43.17200 23.22100
H  -0.99300 45.10100 21.50100
H  1.81800 44.19400 21.38300
H  -1.00500 42.26100 20.91800
H  0.25000 43.00700 20.03300
H  -1.55700 43.50200 20.01000
H  0.98200 46.57100 21.17600
H  2.36300 46.21800 22.26400
H  0.07000 47.62900 22.83800
H  1.49500 47.59100 23.77300
H  0.35100 46.33200 24.11400
H  5.44100 43.32000 24.23300
H  6.20300 43.32200 25.82300
H  5.64700 44.85900 25.06300
H  3.17800 43.65500 30.25600
H  5.70100 40.68500 32.21100
H  4.03700 40.04200 32.61200
H  4.82000 41.22100 33.56100

