158

Mg 54.24600 22.97900 44.69600
C  52.09100 25.53000 43.64800
C  52.02600 20.66200 44.01800
C  56.76000 20.67700 44.90700
C  56.68800 25.56700 45.53300
N  52.34300 23.11300 43.82700
C  51.54600 24.24300 43.52000
C  50.13200 23.85600 43.11600
C  50.00500 22.38200 43.65400
C  51.53400 21.98600 43.80700
C  49.21400 22.18000 45.03400
C  49.86100 24.05300 41.70300
C  48.56700 24.71800 41.39800
H  47.80300 24.24400 40.19600
N  54.40400 20.82000 44.36800
C  53.30900 20.07800 44.11000
C  53.69100 18.74500 44.08300
C  55.17600 18.71000 44.25900
C  55.54800 20.10400 44.49000
C  52.75500 17.62700 43.73300
C  56.00600 17.45900 44.42600
O  55.49700 16.42500 44.17900
C  57.48500 17.30300 44.99000
N  56.53300 23.20900 44.85500
C  57.27100 22.03200 45.01900
C  58.73400 22.40200 45.59700
C  58.68600 23.95400 45.82400
C  57.20400 24.28900 45.35700
C  59.33300 21.51900 46.78500
C  59.73000 24.73500 44.87700
C  60.80700 25.61400 45.46900
N  54.42700 25.06700 44.68200
C  55.41200 25.95900 44.97600
C  54.97100 27.33900 44.79700
C  53.71000 27.17000 44.19700
C  53.41200 25.80600 44.15700
C  55.67700 28.64300 45.05000
C  52.54800 27.90700 43.65400
O  52.48200 29.13400 43.69300
C  51.50700 26.86200 43.08900
C  51.53500 27.02200 41.58700
O  52.52600 26.86000 40.89200
O  50.36700 27.57500 41.17800
C  50.27700 28.22800 39.85400
H  51.08900 20.10500 43.94600
H  57.48600 19.86700 45.00000
H  57.39900 26.30500 45.91100
H  49.42700 24.45600 43.69100
H  49.41200 21.89600 42.87800
H  49.73200 21.64900 45.83400
H  48.37600 21.54200 44.75100
H  48.83600 23.12600 45.42200
H  49.84500 23.10300 41.16900
H  50.65100 24.67500 41.28200
H  48.73900 25.78600 41.26500
H  47.88000 24.84200 42.23500
H  52.80600 17.38300 42.67200
H  51.71200 17.91800 43.86400
H  52.92300 16.74400 44.34900
H  57.42600 17.70800 46.00000
H  58.03100 18.03000 44.38800
H  57.89300 16.31100 44.79500
H  59.33800 22.25100 44.70300
H  58.90100 24.17700 46.86900
H  58.77200 20.59000 46.88600
H  59.40400 22.04500 47.73600
H  60.35400 21.20600 46.56500
H  59.15400 25.35900 44.19300
H  60.20500 24.08000 44.14700
H  60.62900 25.56900 46.54400
H  60.75100 26.65300 45.14500
H  61.79700 25.23200 45.22400
H  56.72200 28.56700 45.34800
H  55.09200 29.04500 45.87800
H  55.62200 29.34700 44.21900
H  50.53900 27.03300 43.56100
H  49.67800 27.58300 39.21100
H  51.19600 28.39700 39.29300
H  49.68300 29.13300 39.97300
Mg 16.19400 51.64400 24.99000
C  18.06000 50.67300 27.81100
C  13.75500 52.78400 27.13500
C  14.49900 52.46000 22.39300
C  18.77600 50.25400 22.88500
N  15.97100 51.66500 27.24500
C  16.87500 51.34700 28.18000
C  16.46300 51.62400 29.63300
C  14.95400 52.14300 29.36900
C  14.81200 52.13900 27.78400
C  13.72500 51.38000 30.12600
C  17.30400 52.52100 30.51300
C  17.25000 52.39700 32.05500
H  16.23100 51.41300 32.61200
N  14.38400 52.53300 24.80700
C  13.57000 53.00100 25.80200
C  12.46300 53.67900 25.20900
C  12.69900 53.72000 23.82100
C  13.91200 52.87700 23.64200
C  11.14600 54.00900 25.91700
C  11.83200 54.24900 22.75000
O  12.10700 54.00200 21.58400
C  10.45400 55.01500 23.03600
N  16.62600 51.34700 22.97300
C  15.61200 51.75800 22.11400
C  16.02000 51.52600 20.63300
C  17.50300 51.12900 20.67000
C  17.65700 50.89100 22.24200
C  15.11800 50.56900 19.84000
C  18.57100 52.09500 20.23500
C  19.22300 51.67800 18.91100
N  18.04900 50.57200 25.23800
C  19.00300 50.09500 24.28300
C  19.96900 49.36600 25.05900
C  19.74600 49.63700 26.42400
C  18.53000 50.33800 26.49600
C  21.06900 48.62500 24.40500
C  20.28900 49.52000 27.75800
O  21.31800 49.04500 28.18700
C  19.22900 50.15800 28.73100
C  18.70500 49.08200 29.65900
O  17.78900 48.28500 29.40600
O  19.40500 49.19600 30.85200
C  19.05000 48.12300 31.76500
H  12.98500 53.19500 27.79100
H  14.16900 52.89400 21.44600
H  19.54700 49.87000 22.21300
H  16.40900 50.60100 30.00600
H  14.93100 53.21200 29.57700
H  13.39300 51.97700 30.97600
H  13.96400 50.44000 30.62300
H  12.93700 51.20700 29.39400
H  16.92200 53.50800 30.24900
H  18.34900 52.42000 30.21700
H  16.97700 53.40400 32.37000
H  18.26500 52.20900 32.40500
H  11.07000 55.09700 25.92700
H  11.18800 53.49100 26.87500
H  10.26700 53.61100 25.41000
H  9.64900 54.31800 23.27000
H  10.27700 55.60900 22.13900
H  10.72900 55.68800 23.84800
H  15.91100 52.47700 20.11300
H  17.77500 50.21700 20.13700
H  14.67000 51.17100 19.04900
H  14.36200 50.23600 20.55100
H  15.54300 49.72000 19.30500
H  19.31800 52.06500 21.02800
H  18.33000 53.15600 20.29700
H  19.36700 52.48600 18.19400
H  18.50500 51.06700 18.36400
H  20.17600 51.20100 19.13800
H  20.62600 48.26600 23.47600
H  21.37200 47.79600 25.04600
H  21.86400 49.28100 24.05100
H  19.66800 50.99700 29.27200
H  18.78000 47.18900 31.27300
H  18.27400 48.46000 32.45200
H  19.93400 47.73700 32.27400

