158

Mg 24.08400 -5.47500 46.23400
C  26.37400 -3.15700 45.11500
C  21.69200 -4.29800 44.07300
C  22.08700 -8.22200 47.04400
C  26.64500 -6.86600 48.27800
N  24.06600 -3.99400 44.79000
C  25.07700 -3.08600 44.57100
C  24.68000 -2.02700 43.60700
C  23.07700 -2.26100 43.48500
C  22.90700 -3.63500 44.11100
C  22.04500 -1.14900 44.14900
C  25.44700 -2.16200 42.25800
C  25.81700 -0.88000 41.57200
H  25.24500 -0.79000 40.17400
N  22.12300 -6.10300 45.69400
C  21.32800 -5.45700 44.81500
C  20.02400 -6.07200 44.88400
C  20.08700 -7.27400 45.57500
C  21.47500 -7.24400 46.16700
C  18.80400 -5.61500 44.09700
C  19.00300 -8.34600 45.69400
O  17.92700 -8.11500 45.15700
C  19.22000 -9.68900 46.26500
N  24.23300 -7.22500 47.52500
C  23.30900 -8.20800 47.67200
C  23.89500 -9.43400 48.45600
C  25.19300 -8.81200 49.11600
C  25.41100 -7.54800 48.25300
C  22.98700 -10.18300 49.34600
C  26.41000 -9.69700 49.03900
C  27.02800 -9.98000 47.63200
N  26.17500 -5.17300 46.64700
C  27.04600 -5.67600 47.53000
C  28.31000 -4.90100 47.49900
C  28.07000 -3.95600 46.51900
C  26.79500 -4.11100 46.03000
C  29.51100 -5.13800 48.37400
C  28.70300 -2.90900 45.77100
O  29.86400 -2.47500 45.74300
C  27.58400 -2.27600 44.81600
C  27.53600 -0.83100 45.06100
O  26.84100 -0.27600 45.93800
O  28.27000 -0.08600 44.09200
C  28.11200 1.41100 44.09000
H  20.89700 -3.96100 43.40500
H  21.57600 -9.17500 47.20000
H  27.41800 -7.28300 48.92700
H  24.88200 -1.04600 44.03900
H  22.71200 -2.28700 42.45900
H  22.69200 -0.38100 44.57400
H  21.37100 -1.75500 44.75400
H  21.45200 -0.68100 43.36300
H  24.80100 -2.73300 41.59000
H  26.38600 -2.70200 42.38000
H  26.88100 -0.64500 41.61300
H  25.38900 -0.10000 42.20200
H  18.69800 -5.94000 43.06200
H  18.80600 -4.52500 44.10000
H  17.93500 -5.93300 44.67300
H  19.48200 -9.39800 47.28200
H  20.10500 -10.17900 45.86000
H  18.32300 -10.29600 46.14500
H  24.24800 -10.17500 47.73900
H  24.99300 -8.43700 50.12000
H  21.99700 -9.72900 49.37500
H  23.31600 -10.14600 50.38400
H  22.96700 -11.16600 48.87500
H  26.31200 -10.67000 49.52100
H  27.07700 -9.22400 49.76000
H  27.14200 -11.05100 47.46700
H  28.05700 -9.62900 47.71300
H  26.48000 -9.45500 46.84900
H  30.46700 -4.96400 47.87800
H  29.59800 -6.12900 48.81800
H  29.46200 -4.45200 49.21900
H  27.91300 -2.43600 43.78900
H  27.25000 1.73100 43.50500
H  28.97500 1.86300 43.60000
H  27.94800 1.79700 45.09600
Mg 44.50800 5.34100 47.37300
C  42.77200 8.20100 47.05800
C  41.76400 3.43300 46.86900
C  46.55200 2.72900 47.11100
C  47.51100 7.46300 47.85700
N  42.58300 5.72800 46.94900
C  42.02400 6.99900 46.90000
C  40.55800 6.81400 46.41300
C  40.18900 5.39000 46.85700
C  41.60400 4.80500 46.90700
C  39.47300 5.34900 48.28400
C  40.38200 7.13100 44.82900
C  39.39400 8.19700 44.42600
H  39.23500 8.69000 42.95700
N  44.23100 3.35100 46.96900
C  42.99300 2.77700 46.80200
C  43.17500 1.38000 46.45700
C  44.61800 1.11400 46.53300
C  45.21400 2.40400 46.94500
C  42.06500 0.48900 46.06700
C  45.31800 -0.20700 46.33400
O  44.64400 -1.28300 46.24400
C  46.77600 -0.35600 46.42900
N  46.70800 5.12800 47.39800
C  47.23900 3.88900 47.39700
C  48.78100 3.98300 47.54600
C  49.02000 5.47000 47.97200
C  47.67000 6.04600 47.75500
C  49.36400 2.93600 48.50000
C  50.09800 6.17600 47.08900
C  51.27900 6.66800 47.93400
N  45.08300 7.46000 47.44000
C  46.22700 8.11300 47.74900
C  45.99400 9.60800 47.65200
C  44.59000 9.67600 47.36900
C  44.10900 8.34000 47.31100
C  47.05800 10.74000 47.70800
C  43.50400 10.57300 47.04700
O  43.50500 11.81100 46.97700
C  42.16600 9.63700 46.91500
C  41.32800 9.94700 48.00000
O  41.52800 9.60800 49.13500
O  40.07900 10.31600 47.50400
C  38.95200 10.27400 48.39600
H  40.82300 2.89200 46.75000
H  47.37900 2.01700 47.07100
H  48.44500 7.98900 48.06500
H  39.95600 7.56700 46.92200
H  39.55400 4.90100 46.11900
H  40.17000 5.19100 49.10700
H  38.70700 4.57600 48.33800
H  38.92900 6.26000 48.53400
H  39.92500 6.29700 44.29500
H  41.28800 7.33500 44.25900
H  39.55900 9.10800 45.00200
H  38.38600 7.88200 44.69700
H  41.24100 0.95200 45.52300
H  41.64900 -0.00600 46.94500
H  42.37500 -0.34900 45.44300
H  47.20100 0.30200 45.67100
H  47.14400 -1.38000 46.35900
H  47.09200 -0.12400 47.44600
H  49.31600 3.76700 46.62100
H  49.17400 5.57700 49.04600
H  50.25200 2.65000 47.93600
H  48.65100 2.14100 48.71600
H  49.79900 3.43200 49.36800
H  49.79900 7.08000 46.55800
H  50.50900 5.40600 46.43700
H  51.28500 6.13300 48.88400
H  51.14300 7.70800 48.23100
H  52.24600 6.54600 47.44600
H  47.11300 11.34100 48.61500
H  46.84600 11.42700 46.88800
H  48.00000 10.25300 47.45600
H  41.55100 9.81300 46.03300
H  39.28800 10.74600 49.32000
H  38.77100 9.20600 48.51400
H  38.11500 10.79200 47.92900

