158

Mg 46.76200 24.81500 28.53000
C  47.60600 27.04400 31.11300
C  46.07300 22.52200 30.95800
C  46.41100 22.63400 26.00900
C  47.86600 27.25800 26.24700
N  46.80800 24.87200 30.77300
C  47.06500 25.85200 31.58900
C  46.92500 25.47100 33.10500
C  46.72200 23.96500 32.98600
C  46.40400 23.76500 31.47600
C  47.76000 22.89000 33.47600
C  45.64000 26.21700 33.74000
C  45.86100 26.48000 35.24100
H  44.71400 26.27500 36.22300
N  46.18100 22.82600 28.48600
C  45.97800 22.11200 29.63200
C  45.68900 20.80800 29.18500
C  45.66800 20.80300 27.69400
C  46.07800 22.15100 27.31500
C  45.39300 19.66600 30.23400
C  45.36500 19.63800 26.69600
O  45.49400 19.72700 25.45700
C  44.91600 18.36600 27.25900
N  47.24400 24.91100 26.47100
C  47.03100 23.89000 25.63400
C  47.43600 24.27100 24.18200
C  47.40800 25.81300 24.22300
C  47.42000 26.05800 25.72200
C  48.85100 23.73900 23.56500
C  46.22700 26.43100 23.49300
C  44.85200 26.17000 24.23500
N  47.61300 26.76800 28.59300
C  47.94000 27.64700 27.58800
C  48.40500 28.88400 28.21400
C  48.31700 28.65600 29.57100
C  47.91600 27.36300 29.75800
C  49.11500 30.01700 27.42100
C  48.51500 29.28700 30.82500
O  48.88500 30.40500 31.11200
C  48.06100 28.28000 31.89800
C  49.04800 28.05900 32.96900
O  50.21200 27.67600 32.77200
O  48.40200 28.39800 34.18300
C  49.32800 28.48100 35.33800
H  45.84500 21.78500 31.73100
H  46.43200 21.99100 25.12700
H  48.19500 27.96500 25.48300
H  47.86700 25.73800 33.58500
H  45.78500 23.63200 33.43200
H  48.24100 22.28300 32.70800
H  47.33700 22.16800 34.17400
H  48.53200 23.46300 33.98900
H  44.78200 25.57900 33.52500
H  45.48100 27.17900 33.25300
H  46.13700 27.51200 35.45800
H  46.70300 25.87800 35.58500
H  45.47200 19.89400 31.29700
H  46.05400 18.79900 30.22200
H  44.39600 19.24600 30.10200
H  44.81300 17.58200 26.50900
H  44.04400 18.42200 27.91200
H  45.71700 18.01300 27.90900
H  46.61400 24.07700 23.49200
H  48.33300 26.19300 23.79000
H  49.55300 24.54700 23.35900
H  48.64600 23.25800 22.60800
H  49.12700 22.90500 24.21000
H  46.12300 26.10600 22.45800
H  46.30800 27.51700 23.45200
H  43.95900 26.09300 23.61400
H  44.66900 27.01100 24.90300
H  44.85600 25.16600 24.65900
H  49.41500 29.76900 26.40300
H  49.99600 30.29800 27.99900
H  48.49300 30.91300 27.41100
H  47.11800 28.73900 32.19600
H  48.83400 27.99400 36.17900
H  49.45100 29.55100 35.50600
H  50.24600 27.92200 35.15600
Mg 42.14000 41.87200 26.66500
C  41.36300 44.27500 29.07000
C  43.18600 39.79500 29.18100
C  42.59300 39.44800 24.37400
C  40.93500 44.05300 24.22700
N  42.39400 42.10100 28.87600
C  41.87200 43.11000 29.65100
C  41.64900 42.70700 31.04500
C  42.39700 41.35600 31.19200
C  42.72800 41.04700 29.70100
C  43.64000 41.47500 32.16200
C  40.14500 42.50500 31.41300
C  39.53800 43.48400 32.46400
H  39.17000 43.00100 33.88800
N  42.84900 39.87200 26.81200
C  43.18900 39.21800 27.90700
C  43.68900 37.88600 27.59800
C  43.42400 37.68900 26.21200
C  42.93700 39.04700 25.69600
C  44.28800 36.96700 28.64100
C  43.57900 36.49800 25.46800
O  43.34400 36.50000 24.28200
C  43.93600 35.13200 26.05400
N  41.89300 41.85800 24.64500
C  42.11300 40.74800 23.86700
C  41.83800 40.98800 22.39500
C  41.17800 42.37900 22.37100
C  41.31400 42.81700 23.89200
C  43.13700 40.90100 21.51900
C  39.65500 42.28500 22.02200
C  38.71900 41.73200 23.00600
N  41.57100 43.89100 26.55000
C  41.00400 44.56800 25.51200
C  40.59900 45.86400 25.96600
C  40.67000 45.81400 27.38500
C  41.26300 44.57000 27.68900
C  40.22500 46.97300 25.13300
C  40.48000 46.52500 28.60500
O  40.19700 47.70600 28.79100
C  40.81600 45.55900 29.77300
C  41.73700 46.22500 30.69200
O  42.93400 46.24500 30.55100
O  41.02000 46.81300 31.75200
C  41.71400 47.22800 32.87900
H  43.38700 39.16400 30.04900
H  42.85700 38.70600 23.61800
H  40.48000 44.68700 23.46400
H  42.03900 43.31000 31.86500
H  41.78300 40.56500 31.62300
H  43.60200 42.32900 32.83700
H  44.54500 41.53500 31.55800
H  43.79800 40.53000 32.68200
H  39.84600 41.55000 31.84400
H  39.62300 42.45200 30.45700
H  38.62300 43.84200 31.99100
H  40.16700 44.33800 32.71400
H  45.28400 36.60000 28.39600
H  43.64000 36.12400 28.88200
H  44.41900 37.50300 29.58100
H  43.99700 34.46200 25.19700
H  43.28100 34.68100 26.79900
H  44.91800 35.29100 26.49800
H  41.19800 40.13100 22.18600
H  41.73900 43.03000 21.70000
H  43.75600 41.52000 22.16900
H  42.95100 41.33300 20.53600
H  43.35700 39.83300 21.50500
H  39.52000 41.70200 21.11100
H  39.31000 43.27800 21.73000
H  38.22500 42.42300 23.68900
H  39.19300 40.99500 23.65500
H  37.90100 41.15300 22.57700
H  39.23500 47.42300 25.21200
H  40.37200 46.82100 24.06400
H  41.03500 47.69600 25.22900
H  39.86500 45.26500 30.21700
H  42.79900 47.21100 32.78700
H  41.49400 46.59900 33.74200
H  41.33000 48.23600 33.03900

