158

Mg 1.19700 8.58100 27.50100
C  2.16600 10.84700 30.01400
C  1.62200 6.12800 29.64400
C  0.76500 6.65300 24.92500
C  1.54400 11.32500 25.27100
N  1.81300 8.50300 29.63500
C  1.96500 9.51400 30.50100
C  1.88100 9.09100 31.93300
C  2.14400 7.55000 31.69800
C  1.80000 7.32300 30.23300
C  3.64000 7.09700 32.06500
C  0.50700 9.49200 32.48300
C  0.29200 9.58000 33.99800
H  1.49600 9.17500 34.87500
N  1.15500 6.55800 27.32400
C  1.42400 5.70100 28.31400
C  1.33000 4.30700 27.82700
C  1.02200 4.39000 26.43400
C  0.98600 5.91700 26.13500
C  1.61200 3.09800 28.68900
C  0.86100 3.34100 25.36400
O  0.33900 3.55700 24.23400
C  1.12800 1.89200 25.71700
N  1.33200 8.92600 25.43900
C  0.94500 7.94200 24.63400
C  0.99500 8.35400 23.13500
C  0.97000 9.92600 23.22800
C  1.32800 10.08100 24.71000
C  2.22200 7.77400 22.42400
C  -0.37300 10.58500 22.99400
C  -0.39300 11.85300 22.10500
N  1.71400 10.69100 27.57500
C  1.80700 11.65200 26.62200
C  2.18200 12.94900 27.15300
C  2.36200 12.64700 28.49400
C  2.03100 11.29400 28.73700
C  2.20500 14.19300 26.38400
C  2.78000 13.16300 29.78600
O  3.25000 14.22900 30.17300
C  2.56700 12.08600 30.84200
C  3.74700 11.87300 31.76200
O  4.77800 11.20500 31.58800
O  3.42900 12.46700 32.95000
C  4.62500 12.61800 33.84900
H  1.68300 5.22000 30.24700
H  0.61200 5.98000 24.07800
H  1.48800 12.22800 24.66000
H  2.63400 9.51800 32.59500
H  1.48900 6.93300 32.31300
H  3.65700 6.71700 33.08700
H  4.20000 8.03200 32.03200
H  4.08400 6.34400 31.41400
H  -0.24800 8.80800 32.09200
H  0.20200 10.48000 32.13900
H  -0.57200 9.01100 34.34300
H  0.14000 10.61700 34.29800
H  1.04700 2.24300 28.31700
H  1.21500 3.26000 29.69100
H  2.68300 2.90200 28.73300
H  2.06200 1.73600 26.25700
H  1.22300 1.36800 24.76600
H  0.24600 1.59300 26.28300
H  0.08100 7.98700 22.66700
H  1.66400 10.34400 22.49900
H  2.57000 8.38000 21.58700
H  1.74600 6.90800 21.96300
H  2.99000 7.54000 23.16100
H  -0.83700 10.82400 23.95100
H  -1.14300 9.95900 22.54400
H  -0.25400 11.40300 21.12200
H  0.51500 12.44800 22.21100
H  -1.30600 12.36400 22.40900
H  1.24600 14.70900 26.42300
H  2.46300 14.08400 25.33100
H  2.89600 14.91000 26.82800
H  1.76200 12.38400 31.51300
H  5.31500 13.33400 33.40200
H  5.15500 11.73600 34.20900
H  4.29400 13.08800 34.77500
Mg 35.62100 2.84100 30.32100
C  33.10600 3.64500 32.60700
C  37.83200 2.78600 32.91700
C  38.03600 1.84100 28.13200
C  33.29100 2.88800 27.81500
N  35.48700 3.08800 32.46700
C  34.34000 3.30000 33.22600
C  34.57100 3.22600 34.67700
C  36.09000 2.96900 34.81000
C  36.52700 3.02300 33.28500
C  36.80400 4.02900 35.75500
C  33.69200 2.08800 35.32600
C  33.21000 2.46100 36.80100
H  33.91500 3.46100 37.73700
N  37.69900 2.45700 30.47400
C  38.36300 2.47500 31.64800
C  39.72900 2.01400 31.35600
C  39.79800 1.69400 29.95900
C  38.52200 2.01800 29.43200
C  40.78800 1.69600 32.46900
C  40.97200 1.04500 29.15400
O  40.86900 0.88100 27.92600
C  42.19500 0.47000 29.96200
N  35.74300 2.56900 28.30500
C  36.74000 2.08000 27.65400
C  36.46700 1.72700 26.17000
C  34.96000 1.98100 26.06900
C  34.60200 2.48400 27.49000
C  37.27000 2.55700 25.06800
C  34.04400 0.77700 25.61900
C  33.06400 1.10800 24.37200
N  33.68700 3.33300 30.13700
C  32.82100 3.36200 29.05700
C  31.52600 3.91300 29.49200
C  31.58400 4.10200 30.85000
C  32.91500 3.58100 31.18400
C  30.34400 4.17300 28.72200
C  30.92400 4.55200 32.08100
O  29.85700 5.08400 32.39600
C  31.86800 4.18700 33.29600
C  32.06900 5.37900 34.12900
O  32.52900 6.43700 33.70800
O  31.58600 5.14200 35.43200
C  31.78500 6.20100 36.38600
H  38.53000 2.91100 33.74800
H  38.66200 1.44000 27.33300
H  32.58600 2.86800 26.98100
H  34.35100 4.19100 35.13300
H  36.34100 1.96500 35.15000
H  37.44800 4.56100 35.05500
H  37.37900 3.61800 36.58500
H  36.13000 4.82900 36.06100
H  34.36000 1.22700 35.32600
H  32.88400 1.77300 34.66500
H  33.07400 1.54800 37.38100
H  32.19300 2.81500 36.63500
H  40.37800 2.15900 33.36700
H  41.78200 2.10800 32.29300
H  40.89800 0.63000 32.66800
H  41.88200 -0.13800 30.81100
H  42.77700 1.34400 30.25400
H  42.72100 -0.13500 29.22300
H  36.58700 0.65100 26.04300
H  34.67300 2.81400 25.42700
H  36.66300 3.20700 24.43800
H  37.74000 1.79500 24.44700
H  37.99400 3.11400 25.66300
H  33.50600 0.52800 26.53400
H  34.66800 -0.07600 25.35400
H  33.25500 0.31200 23.65200
H  33.25600 2.06300 23.88200
H  32.02800 1.16300 24.70700
H  30.48900 4.71200 27.78600
H  29.83700 4.76100 29.48700
H  29.78300 3.24800 28.59100
H  31.32900 3.39400 33.81300
H  31.06900 6.91600 35.98100
H  32.76500 6.56800 36.69000
H  31.37900 5.74400 37.28900

