158

Mg 16.82900 -1.22100 28.54200
C  15.82600 0.53400 31.30900
C  18.96200 -2.96600 30.57200
C  18.18300 -2.59600 25.77100
C  14.95600 0.86500 26.48200
N  17.32000 -1.14000 30.72700
C  16.82400 -0.43000 31.65000
C  17.31500 -0.81500 33.04700
C  18.63900 -1.60000 32.75100
C  18.36400 -1.88900 31.30600
C  20.06200 -1.10100 33.13600
C  16.28900 -1.39800 34.02000
C  16.31800 -0.77300 35.44600
H  17.61600 -0.22100 35.93000
N  18.28600 -2.68500 28.28700
C  19.06300 -3.34800 29.21900
C  19.99500 -4.25700 28.47000
C  19.68400 -4.21500 27.10800
C  18.69100 -3.14000 26.97800
C  21.06300 -5.13800 29.22900
C  20.26800 -5.07600 25.90400
O  19.89600 -5.07800 24.72700
C  21.39800 -6.02400 26.13800
N  16.55600 -0.98400 26.37900
C  17.25100 -1.61000 25.48100
C  16.86200 -1.18400 24.06800
C  15.69600 -0.25700 24.27800
C  15.75000 -0.04200 25.80200
C  18.09500 -0.60600 23.16800
C  14.26700 -0.70600 23.85000
C  14.02300 -0.66800 22.34200
N  15.67300 0.37500 28.74100
C  14.93200 1.09500 27.85000
C  14.07200 2.10400 28.55200
C  14.38600 1.83600 29.90300
C  15.37400 0.81100 29.98500
C  13.12400 3.17300 27.93000
C  14.07700 2.20100 31.29700
O  13.20800 2.98900 31.70700
C  14.98600 1.44000 32.20000
C  15.88200 2.41200 32.82100
O  16.93200 2.76400 32.39300
O  15.25800 2.90000 33.94600
C  16.11800 3.80500 34.75600
H  19.69000 -3.56400 31.12500
H  18.55500 -3.05900 24.85500
H  14.48300 1.62200 25.85300
H  17.72600 0.09500 33.48700
H  18.44900 -2.52100 33.30200
H  20.57500 -0.78800 32.22600
H  20.61700 -1.88400 33.65400
H  19.93300 -0.24100 33.79300
H  16.33500 -2.48300 34.11100
H  15.30800 -1.29700 33.55500
H  16.02400 -1.50600 36.19700
H  15.58800 0.03200 35.36800
H  21.21600 -4.86700 30.27400
H  21.99300 -4.81300 28.76400
H  20.86600 -6.20800 29.17200
H  22.34200 -5.50900 26.31700
H  21.51600 -6.59100 25.21400
H  21.11700 -6.71200 26.93500
H  16.46200 -2.11700 23.67100
H  15.96600 0.68700 23.80600
H  18.59100 -1.44900 22.68700
H  18.85900 -0.22700 23.84800
H  17.61200 0.09800 22.49000
H  13.54900 0.00600 24.25600
H  14.07600 -1.76000 24.05100
H  13.37100 0.13800 22.00500
H  13.67900 -1.64700 22.00700
H  14.95700 -0.45300 21.82500
H  13.61600 3.56600 27.04000
H  12.96600 4.06800 28.53200
H  12.20400 2.66800 27.63500
H  14.39400 0.92200 32.95500
H  16.02100 3.52000 35.80300
H  15.81200 4.83400 34.57100
H  17.16600 3.67600 34.48600
Mg 35.23100 2.86900 29.93900
C  32.90400 3.78000 32.55800
C  37.69200 2.97800 32.28100
C  37.37300 2.12600 27.51700
C  32.62600 3.02300 27.67400
N  35.31200 3.45000 32.14900
C  34.26200 3.72600 32.99500
C  34.76900 3.83200 34.47800
C  36.32000 3.98700 34.27800
C  36.49100 3.48600 32.82100
C  36.83300 5.51500 34.38200
C  34.39800 2.69500 35.44300
C  34.04400 3.17500 36.91200
H  35.01900 4.03100 37.65400
N  37.22500 2.63300 29.92200
C  38.07600 2.57100 30.99700
C  39.38500 2.14700 30.57900
C  39.35400 2.09200 29.17700
C  37.92100 2.34700 28.80300
C  40.53900 1.90900 31.57000
C  40.50300 1.77000 28.18100
O  40.35500 1.77300 26.97900
C  41.87300 1.50400 28.79800
N  34.98100 2.44900 27.96700
C  36.04500 2.17700 27.14500
C  35.62200 1.98000 25.63400
C  34.09100 2.21700 25.79600
C  33.85600 2.60400 27.26400
C  36.37400 2.98800 24.63300
C  33.25900 1.01400 25.42700
C  32.62800 1.01200 23.98400
N  33.15300 3.41900 30.04500
C  32.20600 3.48600 28.99500
C  30.93000 3.92500 29.56500
C  31.19900 4.09700 30.91600
C  32.55200 3.72500 31.16800
C  29.59500 3.95600 28.78600
C  30.55400 4.29400 32.20400
O  29.36700 4.41000 32.36500
C  31.65200 4.08500 33.31400
C  31.83000 5.41000 34.01700
O  32.31300 6.38700 33.42100
O  31.45700 5.30700 35.31700
C  31.64900 6.52700 36.16900
H  38.46500 3.05100 33.04900
H  38.00000 1.84900 26.66700
H  31.68100 2.93200 27.13400
H  34.42600 4.75300 34.95100
H  36.84500 3.31200 34.95500
H  37.54300 5.53600 35.20900
H  36.12800 6.32200 34.58100
H  37.40300 5.79400 33.49600
H  35.29100 2.09500 35.61900
H  33.59300 2.21000 34.89100
H  34.03500 2.26900 37.51800
H  33.08100 3.67700 36.82000
H  41.36600 2.59400 31.38300
H  40.95500 0.91100 31.43900
H  40.31600 1.89200 32.63700
H  42.13900 2.36100 29.41700
H  42.59900 1.42000 27.98900
H  41.92200 0.56400 29.34800
H  36.00700 0.98200 25.42300
H  33.74100 3.05900 25.19900
H  36.40000 3.95600 25.13400
H  35.73600 2.94400 23.75000
H  37.34300 2.53500 24.42100
H  32.47000 0.70400 26.11300
H  33.94100 0.16500 25.38900
H  31.58300 0.70700 24.03600
H  33.24600 0.32000 23.41200
H  32.55000 1.97800 23.48400
H  29.17800 2.94900 28.80500
H  29.72800 4.33300 27.77200
H  28.97300 4.64500 29.35700
H  31.39400 3.29800 34.02300
H  32.27600 7.30100 35.72600
H  32.15700 6.22500 37.08600
H  30.74000 7.01200 36.52400

