158

Mg -2.16200 17.14500 26.18900
C  -2.50300 14.60700 28.72000
C  -3.19900 19.44300 28.60100
C  -1.88300 19.65700 24.02700
C  -1.87800 14.61200 23.86100
N  -2.62700 17.03600 28.30000
C  -2.55900 15.91000 29.18900
C  -2.80800 16.25300 30.64300
C  -3.46700 17.66900 30.44400
C  -3.15700 18.07600 28.96100
C  -4.94700 17.74200 30.73500
C  -1.41700 16.37500 31.43200
C  -1.47400 17.24100 32.75800
H  -1.01600 16.63200 34.03600
N  -2.52000 19.31000 26.25600
C  -2.97300 20.04600 27.37500
C  -3.13400 21.46600 26.96900
C  -2.79200 21.47200 25.59800
C  -2.32500 20.13100 25.25400
C  -3.44400 22.66700 27.95600
C  -2.79100 22.57900 24.55500
O  -2.57500 22.38400 23.39300
C  -3.12300 23.96400 25.05000
N  -2.00600 17.16600 24.23700
C  -1.86500 18.30200 23.47400
C  -1.57400 17.93400 22.06100
C  -1.39300 16.35400 22.12700
C  -1.73100 16.00200 23.52300
C  -2.70600 18.45900 21.10900
C  0.12300 15.97400 21.83700
C  0.27600 15.00500 20.62800
N  -2.06100 15.01500 26.21900
C  -1.99400 14.12100 25.15000
C  -2.00700 12.77000 25.62000
C  -2.23200 12.91300 27.01100
C  -2.28200 14.32100 27.32500
C  -1.80800 11.54600 24.78800
C  -2.31400 12.18700 28.24700
O  -2.07000 10.99000 28.39400
C  -2.76300 13.25900 29.38600
C  -1.82500 12.99500 30.56200
O  -0.66500 12.85800 30.49600
O  -2.57700 12.96800 31.72500
C  -1.96100 12.44800 32.89200
H  -3.59700 19.95100 29.48200
H  -1.56000 20.39000 23.28500
H  -1.74700 13.90100 23.04300
H  -3.54200 15.64500 31.17200
H  -3.16200 18.46800 31.12000
H  -5.28900 18.73100 30.43100
H  -4.93800 17.71900 31.82500
H  -5.52700 16.94200 30.27600
H  -0.56200 16.67600 30.82500
H  -1.22000 15.33700 31.69700
H  -2.51400 17.53500 32.90500
H  -0.98700 18.21600 32.78400
H  -3.20900 22.42600 28.99300
H  -4.48900 22.97600 27.94400
H  -2.90900 23.57400 27.67400
H  -4.06600 23.81300 25.57700
H  -3.20700 24.59200 24.16300
H  -2.31600 24.24100 25.72800
H  -0.63800 18.37700 21.72100
H  -2.06300 15.85000 21.43200
H  -3.55700 18.51600 21.78700
H  -3.00800 17.74800 20.34000
H  -2.37600 19.43700 20.75700
H  0.62500 15.56000 22.71200
H  0.73800 16.85200 21.63700
H  -0.68500 14.55200 20.38600
H  1.08400 14.27500 20.68100
H  0.43300 15.74800 19.84600
H  -1.10800 11.74000 23.97600
H  -2.76400 11.25000 24.35500
H  -1.35700 10.87400 25.51900
H  -3.80700 13.10400 29.66000
H  -0.87400 12.48500 32.82400
H  -2.28600 11.42500 33.08100
H  -2.45600 12.97000 33.71100
Mg 26.54400 49.82100 26.85400
C  24.47300 51.04900 29.36100
C  28.84400 49.01600 29.20700
C  28.53100 48.86300 24.29800
C  24.04500 50.91600 24.57300
N  26.62500 50.08700 29.04400
C  25.68000 50.53500 29.94500
C  26.06700 50.17800 31.39100
C  27.59500 49.82200 31.27300
C  27.71700 49.66300 29.72700
C  28.57100 50.83900 31.93500
C  25.19800 49.09600 32.01200
C  24.56500 49.14600 33.46800
H  25.25600 49.95600 34.50900
N  28.42100 48.95500 26.78800
C  29.20900 48.71700 27.86500
C  30.47900 48.26600 27.41800
C  30.44300 48.21800 25.99600
C  29.10000 48.73500 25.60700
C  31.57800 47.98200 28.40500
C  31.48100 47.80000 24.97400
O  31.31100 47.85000 23.79500
C  32.80900 47.39000 25.48500
N  26.31200 49.92900 24.74900
C  27.23800 49.37700 23.94800
C  26.76700 49.43300 22.51600
C  25.32800 50.01000 22.53400
C  25.17300 50.26800 24.03200
C  27.75900 50.17000 21.65900
C  24.21600 49.12900 21.97400
C  24.17800 47.74000 22.62100
N  24.75300 50.94400 26.88000
C  23.79600 51.18600 25.88900
C  22.65900 51.94800 26.39700
C  22.83200 51.91400 27.77200
C  24.11800 51.24600 28.02100
C  21.53700 52.53100 25.56400
C  22.24400 52.12800 29.08300
O  21.13500 52.69600 29.38300
C  23.23600 51.53000 30.21700
C  23.40500 52.51600 31.30300
O  24.40800 53.07100 31.63600
O  22.23200 52.53200 32.04700
C  22.28800 53.41500 33.28800
H  29.57900 48.75500 29.97100
H  29.09400 48.43900 23.46400
H  23.29500 51.14900 23.81400
H  26.13000 51.07500 32.00800
H  27.69700 48.82900 31.71000
H  28.11100 51.80900 32.12000
H  29.54400 50.95600 31.45800
H  28.95500 50.34100 32.82500
H  25.73100 48.14600 32.05700
H  24.28900 49.13800 31.41100
H  24.49900 48.10700 33.79200
H  23.62900 49.68800 33.33400
H  31.67600 46.90500 28.53900
H  31.51900 48.54800 29.33400
H  32.42700 48.39600 27.86100
H  33.46800 46.93500 24.74500
H  32.59700 46.74500 26.33900
H  33.25300 48.32800 25.81600
H  26.87900 48.36600 22.32200
H  25.28800 50.89500 21.90000
H  28.36900 49.47900 21.07700
H  28.48800 50.70200 22.27000
H  27.26300 50.83600 20.95200
H  24.52300 49.20400 20.93100
H  23.28300 49.69200 21.95300
H  24.58600 47.77000 23.63100
H  24.81200 47.10400 22.00400
H  23.17700 47.31500 22.69500
H  20.64500 52.53600 26.18900
H  21.34100 51.75600 24.82200
H  21.70200 53.42300 24.95900
H  22.83700 50.61100 30.64600
H  21.35900 53.41800 33.85700
H  22.57200 54.45800 33.14400
H  22.89700 52.92900 34.05000

