158

Mg 50.12600 47.24700 43.40900
C  46.60600 47.19600 42.60200
C  50.24200 43.98500 42.53000
C  53.51200 47.37300 43.44800
C  49.82400 50.69700 43.56800
N  48.55900 45.86400 42.56600
C  47.26300 45.98400 42.38300
C  46.53700 44.70800 41.99700
C  47.64600 43.65700 42.32700
C  48.92200 44.58000 42.44700
C  47.44200 42.77200 43.58900
C  45.87500 44.57900 40.58000
C  46.68300 45.32600 39.47000
H  46.76200 44.58500 38.09600
N  51.72700 45.79200 43.15400
C  51.50300 44.48000 42.86500
C  52.73600 43.79200 42.79000
C  53.77400 44.72300 42.90900
C  53.05100 46.04000 43.27000
C  52.78800 42.34300 42.53600
C  55.29900 44.34500 42.85600
O  55.69400 43.21300 42.73100
C  56.26900 45.35000 43.32000
N  51.51400 48.79400 43.53900
C  52.83900 48.58800 43.60900
C  53.50700 49.97200 43.75400
C  52.36200 50.98800 43.91900
C  51.12600 50.09700 43.72500
C  54.71500 50.10700 44.80700
C  52.40600 52.16900 42.87700
C  52.03700 53.58500 43.39700
N  48.58300 48.75000 43.10600
C  48.58300 50.10800 43.30500
C  47.28000 50.64400 43.30000
C  46.44100 49.54900 42.98200
C  47.33000 48.41900 42.85900
C  46.84300 52.10600 43.51200
C  45.04000 49.13700 42.72600
O  43.97100 49.69300 42.73300
C  45.13600 47.58300 42.40400
C  44.19600 46.96600 43.34200
O  44.41700 46.65700 44.53600
O  42.99900 46.81200 42.68700
C  41.99100 45.91600 43.31100
H  50.08600 42.92800 42.30400
H  54.59500 47.39800 43.31300
H  49.76500 51.78200 43.68200
H  45.76500 44.57500 42.75500
H  47.66100 42.94200 41.50400
H  48.40700 42.72800 44.09300
H  47.20800 41.73600 43.34300
H  46.73700 43.15900 44.32600
H  44.81500 44.79800 40.71000
H  45.84800 43.52900 40.28900
H  47.67700 45.64200 39.78800
H  46.10200 46.22700 39.27300
H  52.04900 41.73800 43.06200
H  53.67100 41.84200 42.93400
H  52.70700 42.30100 41.45000
H  55.75400 45.60000 44.24800
H  56.38200 46.25900 42.73000
H  57.19400 44.84200 43.59300
H  54.10200 50.14600 42.85700
H  52.30900 51.44000 44.90900
H  55.09100 49.10700 45.02200
H  54.57600 50.57100 45.78400
H  55.54500 50.63400 44.33600
H  51.73100 52.03700 42.03100
H  53.39600 52.16300 42.42200
H  51.13100 53.90300 42.88100
H  52.81600 54.31900 43.19100
H  51.83000 53.60000 44.46700
H  47.34300 52.48200 44.40500
H  45.75600 52.09000 43.58800
H  47.20500 52.77800 42.73400
H  44.81400 47.35200 41.38800
H  42.21800 44.86400 43.13800
H  40.98200 46.07800 42.93000
H  41.90300 46.12200 44.37800
Mg -6.23100 25.40800 25.98300
C  -4.50800 26.68400 28.76900
C  -8.04200 23.52600 28.03200
C  -7.48900 24.03400 23.24100
C  -3.74500 26.94500 23.91200
N  -6.42000 25.34000 28.15300
C  -5.61700 25.85900 29.13000
C  -6.05200 25.37300 30.55000
C  -6.92100 24.13300 30.19200
C  -7.12300 24.34500 28.68200
C  -6.15800 22.73200 30.43000
C  -6.84800 26.52300 31.33600
C  -7.14200 26.24500 32.88700
H  -6.30100 25.13200 33.55000
N  -7.71700 24.08900 25.69100
C  -8.40800 23.43200 26.67400
C  -9.37900 22.56000 26.05400
C  -9.15700 22.66400 24.69500
C  -8.10900 23.65800 24.47800
C  -10.38900 21.67300 26.92100
C  -9.95500 21.97500 23.60500
O  -9.60700 22.04000 22.41200
C  -11.02000 20.95800 23.87300
N  -5.68300 25.53700 23.85800
C  -6.32200 24.68200 22.96500
C  -5.74000 24.84800 21.53500
C  -4.67300 25.95500 21.66700
C  -4.70300 26.21500 23.21500
C  -5.30600 23.49600 20.89400
C  -5.08100 27.28100 20.95000
C  -4.37300 27.54000 19.57300
N  -4.56800 26.61600 26.23400
C  -3.67100 27.10200 25.32100
C  -2.53700 27.77700 26.00900
C  -2.85000 27.66000 27.31600
C  -4.03900 26.91500 27.44400
C  -1.38100 28.49100 25.37100
C  -2.38700 28.01200 28.64500
O  -1.34400 28.54500 28.97300
C  -3.48600 27.47100 29.70100
C  -2.87700 26.59100 30.71400
O  -2.30900 25.56400 30.40900
O  -3.05200 27.05000 32.01600
C  -2.54100 26.19000 33.10400
H  -8.68100 22.88000 28.63700
H  -7.88800 23.65100 22.29900
H  -2.89000 27.40200 23.40800
H  -5.12700 25.07300 31.04200
H  -7.79800 24.15300 30.83900
H  -5.91900 22.12000 29.56000
H  -6.81600 22.10600 31.03200
H  -5.23300 22.90000 30.98200
H  -7.77900 26.60400 30.77600
H  -6.34100 27.48700 31.30800
H  -8.20300 26.06500 33.05600
H  -6.69100 27.10300 33.38600
H  -9.97800 20.66400 26.92200
H  -11.33700 21.50200 26.41100
H  -10.53500 22.08300 27.92000
H  -11.30900 20.51600 22.92000
H  -11.90800 21.45000 24.26900
H  -10.71700 20.24800 24.64300
H  -6.63700 25.21700 21.03800
H  -3.72300 25.54300 21.32700
H  -5.20900 22.79700 21.72500
H  -4.31200 23.56900 20.45200
H  -6.05600 23.14000 20.18800
H  -4.71100 28.15300 21.49000
H  -6.16800 27.32100 20.88000
H  -4.95100 27.53200 18.65000
H  -3.64500 26.74200 19.42500
H  -3.78000 28.45400 19.60600
H  -1.69300 28.86200 24.39500
H  -0.49600 27.88000 25.19400
H  -1.05300 29.35500 25.94900
H  -3.85700 28.35700 30.21700
H  -1.49900 26.50900 33.12200
H  -2.77900 25.16900 32.80600
H  -3.02500 26.40500 34.05600

