158

Mg 16.40800 52.25500 25.31800
C  18.04100 51.21500 28.19700
C  13.59000 52.94200 27.08600
C  15.00200 53.15700 22.36000
C  19.02300 50.73700 23.43800
N  15.99300 52.16900 27.43600
C  16.83400 51.86300 28.45000
C  16.22300 52.14000 29.86700
C  14.78900 52.61700 29.46500
C  14.74200 52.51600 27.86200
C  13.59900 51.81900 30.20300
C  17.07900 53.20800 30.69900
C  17.73000 52.80200 32.05100
H  16.88300 52.01800 33.02400
N  14.57300 52.95600 24.80900
C  13.51000 53.20500 25.66600
C  12.36800 53.72900 24.92400
C  12.76700 53.87700 23.53100
C  14.20700 53.35900 23.49100
C  11.01500 54.01900 25.62900
C  12.03000 54.36700 22.28800
O  12.52300 54.62200 21.16000
C  10.65200 54.77900 22.40900
N  16.98000 52.07400 23.26500
C  16.23800 52.57600 22.20700
C  16.86300 52.20800 20.81500
C  18.28300 51.73100 21.26700
C  18.08700 51.42700 22.75400
C  16.02800 51.11300 20.10200
C  19.37700 52.79800 20.95200
C  20.06700 52.57900 19.62600
N  18.19100 51.14800 25.67100
C  19.11500 50.57300 24.83700
C  20.08000 49.86200 25.58100
C  19.65900 50.10200 26.94000
C  18.54600 50.92100 26.93000
C  21.37600 49.16200 25.21500
C  20.05400 49.73400 28.28200
O  20.96800 49.05000 28.71600
C  18.90300 50.45100 29.25800
C  18.20500 49.31600 29.88300
O  17.17600 48.83400 29.51000
O  18.83200 48.96500 31.05900
C  18.12100 48.00300 31.88500
H  12.73000 53.21000 27.70300
H  14.58500 53.46100 21.39800
H  19.91700 50.53600 22.84200
H  16.07700 51.19600 30.39100
H  14.59800 53.65500 29.73600
H  14.01900 51.15400 30.95800
H  13.03600 51.26500 29.45100
H  12.91700 52.52400 30.67600
H  16.52600 54.14700 30.71700
H  17.87900 53.52500 30.03000
H  18.17600 53.59900 32.64500
H  18.65600 52.26800 31.84000
H  10.34400 53.16400 25.54100
H  10.55000 54.91300 25.21300
H  11.09000 54.20800 26.70000
H  10.16000 55.10200 21.49200
H  10.59800 55.68100 23.01900
H  10.23300 54.00500 23.05300
H  17.06300 53.00400 20.09900
H  18.68900 50.84200 20.78500
H  15.70200 51.41900 19.10900
H  15.22900 50.71900 20.73000
H  16.68300 50.25200 19.97100
H  20.03700 52.94600 21.80600
H  18.91400 53.77600 20.82100
H  21.13500 52.41500 19.77000
H  19.99800 53.44000 18.96200
H  19.51200 51.80000 19.10300
H  21.74600 49.53600 24.26100
H  21.37100 48.07200 25.20400
H  22.15800 49.44600 25.92000
H  19.45100 51.00900 30.01700
H  17.89900 48.48100 32.83900
H  18.84700 47.22500 32.12200
H  17.16600 47.58400 31.56900
Mg -10.41300 15.96800 42.80400
C  -7.01200 16.91800 43.02900
C  -11.14800 19.30500 42.32500
C  -13.59900 15.06100 42.16100
C  -9.30900 12.60900 42.47300
N  -9.17700 17.86600 42.61100
C  -7.85900 18.01500 42.78900
C  -7.47100 19.53400 42.56400
C  -8.79100 20.27400 42.42900
C  -9.79800 19.10500 42.49600
C  -9.11800 21.45100 43.49300
C  -6.53200 19.55600 41.28600
C  -5.46100 20.62500 41.26400
H  -5.31200 21.34000 39.96200
N  -12.14100 17.03300 42.27600
C  -12.20600 18.40400 42.12400
C  -13.55500 18.72000 41.77000
C  -14.30200 17.48000 41.58800
C  -13.37300 16.44600 42.01400
C  -13.99500 20.14500 41.37200
C  -15.65800 17.35200 41.09000
O  -16.29900 18.36500 40.89000
C  -16.35000 16.01200 40.84000
N  -11.33400 14.09700 42.31100
C  -12.67000 14.02300 42.37000
C  -13.16900 12.55500 42.43800
C  -11.73800 11.79300 42.30400
C  -10.65600 12.86100 42.37300
C  -13.89300 12.20800 43.78600
C  -11.65500 10.69700 41.23300
C  -11.07800 11.16800 39.81900
N  -8.60200 14.90800 42.93300
C  -8.32900 13.57100 42.73900
C  -6.91200 13.36700 42.83000
C  -6.38900 14.64700 43.00700
C  -7.43300 15.58200 43.01900
C  -6.19300 12.06300 42.70200
C  -5.11600 15.32900 43.18800
O  -3.97300 14.85300 43.22100
C  -5.50000 16.89500 43.19200
C  -5.19100 17.39300 44.54700
O  -5.53800 16.86800 45.62800
O  -4.56300 18.61600 44.48300
C  -4.30600 19.47400 45.67200
H  -11.39900 20.36800 42.32500
H  -14.57700 14.59800 42.01300
H  -8.91500 11.59100 42.52000
H  -6.94800 19.99500 43.40200
H  -8.83100 20.72000 41.43500
H  -8.25400 22.07700 43.71700
H  -9.38200 20.95700 44.42800
H  -9.92200 22.03900 43.05300
H  -7.18000 19.65600 40.41500
H  -6.07500 18.58200 41.11200
H  -4.50900 20.12200 41.44000
H  -5.78200 21.42200 41.93500
H  -14.08800 20.14700 40.28600
H  -13.31600 20.89400 41.77900
H  -14.93600 20.20900 41.91900
H  -15.74700 15.30500 40.26900
H  -17.28000 16.11300 40.28000
H  -16.70100 15.61900 41.79400
H  -13.86400 12.41900 41.61000
H  -11.44500 11.17900 43.15600
H  -14.86500 11.89400 43.40500
H  -14.09500 13.06900 44.42300
H  -13.51900 11.31300 44.28500
H  -12.68700 10.39200 41.06200
H  -11.12300 9.80400 41.56000
H  -10.30600 11.93700 39.83600
H  -11.90600 11.43900 39.16400
H  -10.61800 10.27300 39.40100
H  -6.11700 11.56000 43.66600
H  -5.15300 12.21500 42.41400
H  -6.68700 11.25900 42.15700
H  -4.88800 17.51200 42.53400
H  -4.38600 20.54900 45.51300
H  -3.41000 19.12600 46.18600
H  -5.13500 19.29700 46.35700

