158

Mg 15.92300 -1.26800 27.85600
C  14.69800 0.92300 30.39500
C  18.19600 -2.38200 30.17600
C  17.51600 -2.95300 25.36100
C  14.51500 0.88300 25.55100
N  16.41500 -0.68800 29.99700
C  15.73500 0.15300 30.84400
C  16.22900 0.00200 32.31800
C  17.50700 -0.90900 32.15400
C  17.39900 -1.33900 30.73800
C  18.84400 -0.24200 32.48000
C  15.16800 -0.51000 33.33600
C  15.09000 0.41500 34.57400
H  16.39400 1.05100 35.17100
N  17.29100 -2.75800 27.80400
C  18.13400 -3.09600 28.89900
C  18.91900 -4.25800 28.55900
C  18.70600 -4.48700 27.16500
C  17.75500 -3.34800 26.73300
C  19.85500 -4.97700 29.51100
C  19.31400 -5.41000 26.17300
O  18.99300 -5.43300 24.95800
C  20.40400 -6.37600 26.64900
N  16.09000 -1.04200 25.73000
C  16.70200 -1.93100 24.87600
C  16.45400 -1.64100 23.40700
C  15.40100 -0.43300 23.46500
C  15.27800 -0.19800 25.00400
C  17.78900 -1.31700 22.56000
C  14.06600 -0.79000 22.94900
C  13.27900 0.38200 22.32400
N  14.69700 0.49200 27.90800
C  14.19200 1.16800 26.90300
C  13.35200 2.28200 27.40900
C  13.43300 2.14400 28.82000
C  14.36000 1.10400 29.02600
C  12.59200 3.27700 26.52800
C  13.02900 2.84100 29.97100
O  12.36000 3.83400 30.19900
C  13.75500 1.95300 31.14000
C  14.48000 2.91500 31.92500
O  15.50400 3.47900 31.57700
O  13.81200 3.23300 33.08100
C  14.29400 4.50400 33.66400
H  18.84700 -2.76900 30.96200
H  17.86600 -3.60400 24.55700
H  14.09600 1.49300 24.74800
H  16.57300 0.99100 32.62000
H  17.41000 -1.85200 32.69100
H  18.65400 0.68500 33.02200
H  19.37500 0.00400 31.56100
H  19.36200 -0.89500 33.18200
H  15.38000 -1.55200 33.57700
H  14.23000 -0.53000 32.78000
H  14.60100 -0.08200 35.41200
H  14.43200 1.22700 34.26300
H  19.47100 -5.98000 29.69500
H  19.90600 -4.40900 30.43900
H  20.87700 -4.95500 29.13200
H  21.12300 -6.01500 27.38400
H  20.96800 -6.59700 25.74300
H  19.83200 -7.19300 27.08900
H  15.99900 -2.51200 22.93500
H  15.83500 0.51400 23.14600
H  17.89400 -0.24500 22.39500
H  17.86100 -1.74800 21.56200
H  18.65700 -1.43800 23.20800
H  13.50900 -1.35800 23.69300
H  14.29500 -1.45700 22.11700
H  12.81100 0.10100 21.38100
H  13.92700 1.24400 22.16400
H  12.45600 0.68500 22.97100
H  13.34300 3.98200 26.17300
H  11.84400 3.84200 27.08500
H  12.11100 2.85100 25.64800
H  13.05000 1.42000 31.77800
H  13.51500 4.81800 34.35800
H  14.48900 5.34300 32.99500
H  15.16600 4.16900 34.22500
Mg -6.52900 24.48200 25.88700
C  -4.91800 26.02300 28.53700
C  -8.59900 22.77400 28.16500
C  -7.82800 22.52100 23.45400
C  -4.40000 26.00500 23.72900
N  -6.71300 24.33300 28.02300
C  -5.97100 25.13000 28.91000
C  -6.38400 24.85800 30.38400
C  -7.24300 23.57800 30.22200
C  -7.59500 23.57100 28.72900
C  -6.52200 22.28000 30.70600
C  -7.21500 26.12900 30.80900
C  -7.03600 26.47400 32.33100
H  -6.39600 25.41200 33.21000
N  -8.13900 23.03900 25.84400
C  -8.89100 22.54400 26.86300
C  -9.84500 21.60400 26.32100
C  -9.58300 21.45900 24.93300
C  -8.49200 22.39600 24.66100
C  -10.87900 20.97100 27.20800
C  -10.31000 20.63700 23.94100
O  -10.02600 20.57100 22.79600
C  -11.53400 19.81700 24.39800
N  -5.94300 24.07900 23.99200
C  -6.72800 23.29700 23.11200
C  -6.43800 23.55200 21.64500
C  -5.36500 24.70400 21.68500
C  -5.21100 24.95400 23.23900
C  -5.88900 22.20400 21.05700
C  -5.79300 25.95100 20.89800
C  -4.91400 26.64800 19.94200
N  -4.96800 25.73800 26.02300
C  -4.20400 26.34500 25.04600
C  -3.24700 27.21300 25.68300
C  -3.38100 26.99000 27.05900
C  -4.52200 26.18300 27.20200
C  -2.29400 28.19400 25.02300
C  -2.89700 27.33900 28.41200
O  -1.97800 28.04200 28.75400
C  -3.89700 26.70800 29.43600
C  -3.02400 25.70400 30.08100
O  -2.81100 24.56500 29.67600
O  -2.42000 26.31700 31.13300
C  -1.41500 25.48100 31.78700
H  -9.22000 22.40100 28.98200
H  -8.31900 22.10000 22.57500
H  -3.71500 26.50800 23.04300
H  -5.48000 24.74800 30.98200
H  -8.17400 23.66900 30.78200
H  -6.86100 22.01800 31.70900
H  -5.44500 22.41900 30.61100
H  -6.81700 21.49900 30.00500
H  -8.25600 25.92300 30.55900
H  -6.95200 27.00800 30.22000
H  -8.02000 26.65100 32.76600
H  -6.31700 27.28900 32.41800
H  -11.80500 21.54700 27.21400
H  -10.53500 20.93500 28.24200
H  -10.99900 19.91900 26.94700
H  -11.22400 18.92500 24.94200
H  -12.14800 19.37700 23.61200
H  -12.22100 20.40300 25.00800
H  -7.35300 23.86800 21.14400
H  -4.32800 24.43300 21.49100
H  -5.02000 22.53300 20.48700
H  -6.59100 21.96100 20.26000
H  -5.65300 21.38300 21.73400
H  -6.09500 26.73400 21.59400
H  -6.70800 25.67500 20.37300
H  -3.92800 26.19300 20.03600
H  -4.95900 27.73200 20.04800
H  -5.42700 26.48700 18.99400
H  -2.11100 27.97000 23.97200
H  -1.28100 28.08000 25.41000
H  -2.64100 29.22700 24.99900
H  -4.33900 27.46500 30.08400
H  -1.63400 25.25000 32.83000
H  -0.62100 26.22300 31.86500
H  -1.18900 24.48700 31.40200

