158

Mg 30.11900 58.19200 40.33200
C  27.09600 56.44000 39.74200
C  31.81900 55.64500 38.71500
C  32.98600 60.13600 40.32600
C  28.15300 60.97500 41.43400
N  29.52700 56.27600 39.42300
C  28.21600 55.71300 39.33100
C  28.25400 54.43200 38.47500
C  29.77300 54.22200 38.15200
C  30.43800 55.42800 38.79800
C  30.41600 52.82000 38.59400
C  27.31500 54.42700 37.17400
C  27.65800 55.36900 36.02300
H  26.64800 56.29600 35.39900
N  32.11600 57.93300 39.66200
C  32.60300 56.85500 38.94600
C  34.04700 57.04000 38.74800
C  34.42900 58.31200 39.32600
C  33.13000 58.83900 39.81800
C  34.96900 55.95600 38.13700
C  35.86000 58.85600 39.48200
O  36.74900 58.30000 38.84600
C  36.26700 59.96100 40.34900
N  30.48300 60.23600 40.82500
C  31.74000 60.71500 40.81600
C  31.78800 62.16200 41.35700
C  30.33400 62.36300 41.71100
C  29.52000 61.17800 41.18200
C  32.73800 62.25900 42.59900
C  29.74200 63.74500 41.14000
C  29.56500 64.88300 42.10500
N  28.08600 58.60900 40.62700
C  27.44000 59.81100 41.09200
C  26.01300 59.47900 41.15400
C  25.92400 58.23400 40.60300
C  27.16500 57.70300 40.29600
C  24.94000 60.48500 41.61100
C  24.87500 57.28300 40.21300
O  23.67300 57.36200 40.28800
C  25.62100 56.06400 39.54600
C  25.18600 54.85200 40.27600
O  25.39900 54.65100 41.45300
O  24.45300 54.08400 39.44000
C  24.00900 52.77800 39.94100
H  32.23500 54.88800 38.04600
H  33.87200 60.76500 40.21800
H  27.46800 61.74500 41.79500
H  27.91800 53.66700 39.17500
H  29.89100 54.30500 37.07100
H  30.87200 52.23000 37.79800
H  29.61600 52.17700 38.95900
H  31.16200 52.94200 39.37900
H  26.24900 54.59600 37.32100
H  27.31700 53.37500 36.88900
H  27.87300 54.65900 35.22400
H  28.58300 55.91700 36.20200
H  35.67000 55.59400 38.88900
H  35.58300 56.36700 37.33500
H  34.46100 55.06900 37.76000
H  36.22700 60.97700 39.95800
H  37.29300 59.71400 40.62200
H  35.66900 59.81400 41.24900
H  32.18300 62.87200 40.63000
H  30.18600 62.29200 42.78800
H  32.19100 62.29600 43.54100
H  33.34100 63.15400 42.44400
H  33.58200 61.57200 42.66700
H  28.78700 63.53600 40.65800
H  30.38700 64.10800 40.34000
H  30.12300 65.79800 41.90700
H  29.84000 64.52000 43.09600
H  28.51700 65.14700 42.24400
H  25.26800 61.07700 42.46500
H  24.00700 59.93200 41.71700
H  24.77900 61.14500 40.75800
H  25.27900 56.16900 38.51700
H  23.46200 52.93200 40.87200
H  24.88000 52.15000 40.12800
H  23.46000 52.32800 39.11400
Mg 5.11100 53.93300 41.02500
C  4.98600 50.37000 40.90500
C  8.42500 53.72700 39.71900
C  4.88100 57.19100 40.25200
C  1.79500 53.85700 42.04700
N  6.42900 52.21200 40.15700
C  6.24900 50.87600 40.39900
C  7.50600 50.01700 40.10900
C  8.53000 51.11200 39.87400
C  7.76200 52.47600 39.92900
C  9.72200 51.10600 40.92300
C  7.54200 49.01400 38.87800
C  6.80400 49.42100 37.65000
H  7.42100 50.23100 36.48000
N  6.54500 55.22900 40.21900
C  7.82000 55.01700 39.74900
C  8.39600 56.21600 39.27400
C  7.39300 57.26800 39.34200
C  6.16800 56.58300 39.99600
C  9.79300 56.34200 38.86100
C  7.61400 58.65900 38.84700
O  8.55500 58.99000 38.15400
C  6.69200 59.83400 39.20600
N  3.43500 55.36000 41.03700
C  3.64600 56.70100 40.82500
C  2.39800 57.56500 41.03100
C  1.36300 56.46600 41.52100
C  2.26000 55.11500 41.56600
C  2.48900 58.87000 41.98800
C  0.03000 56.35300 40.80100
C  -1.19000 56.70900 41.50800
N  3.62500 52.39800 41.44500
C  2.36400 52.56000 41.95200
C  1.79700 51.25000 42.36000
C  2.86400 50.35600 41.98600
C  3.87800 51.10000 41.37400
C  0.37800 50.94400 42.83200
C  3.29300 48.95600 42.04300
O  2.81600 47.97400 42.56700
C  4.67900 48.92900 41.25700
C  4.36200 48.13300 40.10700
O  3.91900 48.58100 39.02100
O  4.65700 46.81400 40.44900
C  4.35400 45.78400 39.53400
H  9.44600 53.67900 39.33400
H  4.75500 58.24700 40.00500
H  0.76100 53.82900 42.39600
H  7.76900 49.46000 41.00800
H  9.07600 51.10600 38.93000
H  10.05400 52.07600 41.29400
H  10.56800 50.50100 40.59700
H  9.33000 50.66700 41.84000
H  7.20700 48.03500 39.22300
H  8.56900 48.98600 38.51600
H  5.92800 49.97500 37.98700
H  6.34400 48.53800 37.20600
H  10.19000 57.33800 38.66900
H  9.87500 55.60300 38.06400
H  10.35700 55.75300 39.58400
H  5.97000 59.92200 38.39400
H  7.42400 60.64200 39.21400
H  6.21900 59.73500 40.18300
H  2.00800 58.03800 40.12900
H  1.17200 56.78000 42.54700
H  2.05300 58.55400 42.93500
H  1.87800 59.67300 41.57600
H  3.49100 59.28800 42.09000
H  -0.18200 55.38200 40.35400
H  0.22700 56.99300 39.94100
H  -1.88300 55.87200 41.42100
H  -1.69800 57.56200 41.05800
H  -1.04700 56.84300 42.58000
H  -0.09200 50.23800 42.14800
H  -0.15600 51.89100 42.76200
H  0.47200 50.59800 43.86200
H  5.45900 48.44300 41.84500
H  4.99200 44.92600 39.74800
H  4.33400 46.15700 38.51000
H  3.32500 45.47000 39.70900

