158

Mg -2.66200 16.88400 26.46700
C  -2.93000 14.86700 29.28800
C  -2.96600 19.65600 28.63200
C  -2.74600 19.00000 23.71900
C  -2.90500 14.20000 24.33300
N  -2.63200 17.21800 28.73900
C  -2.95700 16.22000 29.69300
C  -3.12000 16.81700 31.10000
C  -2.97900 18.37300 30.85200
C  -2.89300 18.44000 29.29700
C  -4.13700 19.27200 31.52700
C  -2.01200 16.17200 32.13600
C  -1.33600 17.09700 33.18200
H  -0.96400 16.46600 34.49900
N  -2.74500 19.04500 26.20000
C  -2.95500 20.02000 27.21400
C  -3.00200 21.31900 26.60900
C  -2.73500 21.11100 25.19000
C  -2.73400 19.66800 24.94000
C  -3.17900 22.62500 27.37800
C  -2.55400 22.15800 24.14400
O  -2.00300 22.05900 23.07700
C  -3.05900 23.49300 24.44100
N  -2.93000 16.61500 24.36800
C  -2.86900 17.62600 23.45700
C  -2.84500 17.13200 21.96300
C  -2.86300 15.55500 22.15100
C  -2.94200 15.38800 23.71600
C  -4.03200 17.73800 21.08100
C  -1.81800 14.74800 21.24300
C  -2.44600 13.90300 20.18700
N  -2.93300 14.93500 26.75100
C  -2.96800 13.97300 25.70600
C  -3.15500 12.71800 26.34300
C  -3.04600 13.00000 27.72700
C  -2.95400 14.38300 27.93000
C  -3.27600 11.41800 25.66600
C  -3.10400 12.37500 29.02200
O  -3.06900 11.21100 29.31800
C  -3.09700 13.59300 30.08700
C  -2.00100 13.36100 31.02900
O  -0.80500 13.58500 30.83100
O  -2.46500 12.77200 32.14700
C  -1.45500 12.19500 33.10300
H  -2.99500 20.53000 29.28700
H  -2.71700 19.60500 22.81000
H  -2.96900 13.40800 23.58400
H  -4.03100 16.47900 31.59300
H  -2.05000 18.79300 31.23800
H  -4.88400 18.69100 32.06900
H  -4.63400 19.73100 30.67100
H  -3.79600 20.05500 32.20300
H  -1.26100 15.86900 31.40600
H  -2.35700 15.28200 32.66300
H  -2.02000 17.93500 33.31500
H  -0.43500 17.50900 32.72700
H  -4.17900 23.02100 27.20000
H  -2.38700 23.35300 27.19700
H  -3.16300 22.49000 28.45900
H  -4.08700 23.55600 24.79700
H  -2.91000 24.01500 23.49500
H  -2.34600 23.96100 25.12000
H  -1.87600 17.29600 21.49200
H  -3.81800 15.24000 21.73000
H  -3.83800 17.93000 20.02500
H  -4.30600 18.66000 21.59200
H  -4.99300 17.22700 21.13800
H  -1.24400 14.13600 21.93900
H  -1.17300 15.44900 20.71200
H  -2.22200 12.93300 20.63000
H  -1.95600 14.14900 19.24400
H  -3.52100 14.05500 20.08900
H  -4.27600 11.21600 25.28400
H  -3.06500 10.60800 26.36400
H  -2.52000 11.34000 24.88400
H  -4.04300 13.59700 30.62900
H  -0.65800 12.87500 33.40300
H  -0.96400 11.31200 32.69200
H  -1.97400 11.75900 33.95600
Mg 47.00600 17.30800 28.95800
C  45.02800 16.99700 31.78500
C  49.34200 19.18300 30.90800
C  48.72900 18.21200 26.14200
C  44.51700 15.88000 27.02000
N  47.09600 18.10900 31.05300
C  46.26700 17.66600 32.03100
C  46.75300 18.19500 33.44300
C  47.98500 19.11300 33.08100
C  48.19100 18.80600 31.57900
C  47.92900 20.68900 33.38900
C  46.97800 16.98800 34.37900
C  46.78500 17.25200 35.88700
H  46.42300 18.67600 36.37900
N  48.85000 18.56900 28.58200
C  49.62000 19.17100 29.49700
C  50.63600 19.94900 28.78600
C  50.46300 19.68800 27.35900
C  49.33600 18.77800 27.29900
C  51.59400 20.84100 29.49800
C  51.24700 20.18100 26.13500
O  50.99100 19.87900 25.00500
C  52.22900 21.36000 26.33900
N  46.74500 17.05900 26.93900
C  47.62300 17.31800 25.98000
C  47.25300 16.75900 24.60200
C  46.02000 15.85200 24.96600
C  45.72800 16.26700 26.44300
C  46.98300 17.88600 23.57200
C  46.30300 14.25100 24.81300
C  45.64000 13.56900 23.64800
N  45.19300 16.39200 29.32900
C  44.24900 15.88400 28.47300
C  43.10500 15.47000 29.22900
C  43.38600 15.85500 30.53900
C  44.63000 16.45900 30.55900
C  41.90300 14.87500 28.71800
C  42.97300 15.84200 31.96000
O  41.93200 15.43500 32.49400
C  43.90400 16.79400 32.78200
C  43.09100 18.04800 33.05400
O  42.95400 18.96200 32.28500
O  42.65500 17.97600 34.33400
C  41.97500 19.22700 34.80000
H  50.14300 19.54600 31.55600
H  49.28200 18.48300 25.23900
H  43.78000 15.31300 26.44900
H  45.96800 18.80800 33.88500
H  48.82000 18.76700 33.69100
H  47.78700 21.20100 32.43800
H  48.87300 20.98200 33.85000
H  47.06900 21.00100 33.98100
H  47.96700 16.56200 34.20700
H  46.20300 16.24200 34.20200
H  47.76000 17.00000 36.30400
H  46.07100 16.61200 36.40600
H  51.26600 21.84300 29.22300
H  52.61300 20.76800 29.11800
H  51.59200 20.77900 30.58600
H  52.86700 21.02000 27.15600
H  51.69200 22.24600 26.67800
H  52.80100 21.50600 25.42300
H  48.11300 16.22100 24.20200
H  45.10000 16.02300 24.40800
H  47.00200 18.86300 24.05600
H  45.92600 17.88200 23.30700
H  47.70500 17.74300 22.76700
H  45.95600 13.68900 25.68000
H  47.36100 14.08800 24.60900
H  46.32200 13.36500 22.82200
H  44.71900 14.11600 23.44700
H  45.26800 12.60200 23.98800
H  41.57600 15.42600 27.83600
H  41.17600 14.93500 29.52800
H  41.96900 13.82400 28.43700
H  44.09700 16.04900 33.55500
H  41.19800 19.69900 34.19900
H  42.71800 20.00000 34.99400
H  41.52300 19.04200 35.77500

