158

Mg 16.59700 -1.35400 27.70800
C  15.90400 0.58400 30.58800
C  19.08900 -2.95800 29.43900
C  17.70900 -2.79600 24.75200
C  14.65000 0.89300 25.82100
N  17.40700 -1.28700 29.91700
C  16.95200 -0.41400 30.89500
C  17.69100 -0.77600 32.21400
C  18.83000 -1.86400 31.72800
C  18.39000 -2.10300 30.30000
C  20.26300 -1.34100 31.93400
C  16.78000 -1.17100 33.49900
C  16.82000 -0.23700 34.69800
H  18.15900 -0.14300 35.37400
N  17.99700 -2.88200 27.24700
C  18.87000 -3.38300 28.12400
C  19.59800 -4.54600 27.47400
C  19.20200 -4.52100 26.08500
C  18.25800 -3.37200 25.97100
C  20.39400 -5.57400 28.15900
C  19.46800 -5.47700 24.93900
O  18.93600 -5.40600 23.84700
C  20.34400 -6.68500 25.18700
N  16.29700 -0.93300 25.63600
C  16.83000 -1.68900 24.65900
C  16.21300 -1.36300 23.32300
C  15.01600 -0.42600 23.72000
C  15.26600 -0.15400 25.19100
C  17.29600 -0.71900 22.36500
C  13.57100 -0.98600 23.42700
C  12.75600 -0.34500 22.30700
N  15.45800 0.38400 28.05500
C  14.66700 1.12700 27.15800
C  13.93000 2.07200 27.94900
C  14.32700 1.84100 29.24800
C  15.27400 0.85600 29.28400
C  12.82800 3.07900 27.52200
C  14.07500 2.29200 30.56700
O  13.26300 3.08300 30.98800
C  15.10300 1.55100 31.58300
C  15.99400 2.60600 32.19900
O  17.07300 2.95100 31.74000
O  15.39600 3.07300 33.32500
C  16.15400 4.01000 34.17800
H  19.93500 -3.45200 29.92100
H  17.95500 -3.33800 23.83600
H  13.98100 1.55600 25.26900
H  18.14500 0.16100 32.53800
H  18.79500 -2.82300 32.24500
H  20.21800 -0.41100 32.50000
H  20.55900 -1.09500 30.91400
H  20.96100 -2.10900 32.27000
H  17.09100 -2.18700 33.74200
H  15.72000 -1.06600 33.26400
H  15.98100 -0.50500 35.34200
H  16.63600 0.77700 34.34300
H  21.37800 -5.68800 27.70400
H  20.02500 -6.57200 27.92400
H  20.42200 -5.60100 29.24800
H  20.44600 -7.37500 24.34900
H  19.86200 -7.23800 25.99300
H  21.36700 -6.47600 25.49800
H  15.91600 -2.30300 22.85800
H  15.06300 0.46400 23.09200
H  18.27900 -0.94100 22.78100
H  17.17800 0.35800 22.47700
H  17.23200 -1.15600 21.36800
H  12.96000 -0.93500 24.32800
H  13.50900 -2.05900 23.24500
H  11.97500 -0.96600 21.86800
H  13.49300 -0.05600 21.55800
H  12.37600 0.61700 22.65100
H  13.03800 3.59900 26.58800
H  12.61200 3.76400 28.34200
H  11.89900 2.53400 27.35500
H  14.54000 1.05600 32.37400
H  15.70900 3.91700 35.16900
H  16.08600 5.03700 33.82100
H  17.21300 3.78000 34.29300
Mg 9.30600 47.56800 26.50900
C  7.36600 47.49400 29.48400
C  11.91500 48.77800 28.24000
C  10.92200 47.29800 23.68500
C  6.27100 46.72300 24.82900
N  9.45900 48.35000 28.54800
C  8.66400 47.99100 29.65700
C  9.28200 48.47500 30.97200
C  10.62600 49.05800 30.55400
C  10.67600 48.74200 29.02100
C  10.79000 50.61200 30.77800
C  9.42500 47.40200 32.13100
C  10.17600 47.86400 33.41000
H  9.61300 47.53900 34.84300
N  11.17600 48.05700 26.00600
C  12.22300 48.44000 26.86800
C  13.42100 48.37300 26.19300
C  13.15500 47.89900 24.80900
C  11.64500 47.79000 24.79700
C  14.74100 48.70900 26.93200
C  14.13600 47.63500 23.73100
O  13.82400 47.53500 22.55700
C  15.57500 47.69900 24.00900
N  8.72600 47.13100 24.47500
C  9.63900 46.86800 23.57600
C  8.98900 46.49200 22.22000
C  7.54800 46.08300 22.67400
C  7.51000 46.68100 24.07500
C  9.03800 47.63700 21.17700
C  7.25400 44.54400 22.61800
C  7.83500 43.52300 23.62800
N  7.24400 47.25300 27.03500
C  6.12900 46.90600 26.20400
C  4.97300 46.76800 26.98400
C  5.41200 46.89100 28.29200
C  6.76100 47.29600 28.27600
C  3.59000 46.36600 26.50900
C  5.03000 46.72800 29.66700
O  3.91800 46.39100 30.11900
C  6.26700 47.19300 30.51500
C  6.55000 46.07500 31.40100
O  7.36800 45.17800 31.17600
O  5.80900 46.17400 32.56500
C  6.24800 45.24400 33.62500
H  12.77800 49.16800 28.78400
H  11.61300 47.10700 22.86100
H  5.44900 46.33300 24.22500
H  8.59800 49.23900 31.34200
H  11.44000 48.50800 31.02500
H  11.62500 50.94100 31.39600
H  9.90400 50.89300 31.34800
H  10.78900 51.13800 29.82300
H  9.89300 46.52600 31.68200
H  8.42800 47.15200 32.49600
H  10.38200 48.93200 33.33800
H  11.16200 47.40800 33.49400
H  14.68700 48.98600 27.98500
H  15.35400 49.49600 26.49300
H  15.37700 47.82500 26.88200
H  15.79600 46.93800 24.75800
H  15.90100 48.60000 24.52800
H  16.22300 47.53700 23.14800
H  9.58200 45.64200 21.88300
H  6.79300 46.56300 22.05200
H  9.54500 48.56300 21.45000
H  8.04000 47.92700 20.85100
H  9.48000 47.25800 20.25500
H  7.47200 44.07400 21.65900
H  6.16800 44.45500 22.62100
H  8.33300 44.08700 24.41600
H  8.34300 42.61900 23.29200
H  6.95100 43.13200 24.13000
H  3.59900 45.76300 25.60000
H  2.96600 47.25900 26.48700
H  3.25000 45.64700 27.25400
H  5.83400 48.06500 31.00400
H  7.17700 45.58000 34.08600
H  6.42200 44.20000 33.36800
H  5.47000 45.25500 34.38900

