158

Mg -1.85300 17.12300 26.01800
C  -2.67500 14.85500 28.54800
C  -2.89200 19.73900 27.90600
C  -1.90900 19.25300 23.21700
C  -1.81300 14.39200 23.70600
N  -2.70100 17.19300 27.92900
C  -2.90100 16.19600 28.81300
C  -3.32900 16.84200 30.11100
C  -3.60700 18.30600 29.86000
C  -2.96300 18.43800 28.47900
C  -5.05400 18.84300 29.91100
C  -2.30200 16.52200 31.21200
C  -2.60600 17.06700 32.56900
H  -2.60200 16.13900 33.74200
N  -2.00200 19.26900 25.70200
C  -2.41500 20.13300 26.61600
C  -2.10000 21.47800 26.17900
C  -1.71300 21.31600 24.78800
C  -1.93400 19.93900 24.43500
C  -2.37500 22.69000 26.99500
C  -1.16200 22.37300 23.87800
O  -0.92800 22.14700 22.72100
C  -0.78000 23.67300 24.51700
N  -1.71900 16.87000 23.81800
C  -1.91000 17.89600 22.91100
C  -1.80300 17.43500 21.47200
C  -1.46400 15.91300 21.67800
C  -1.71200 15.67000 23.16300
C  -3.16700 17.66500 20.68400
C  -0.03400 15.46400 21.36500
C  1.06200 16.23100 22.15500
N  -2.07900 14.92500 26.06700
C  -2.00000 13.99900 25.11000
C  -2.22500 12.74000 25.78900
C  -2.41400 12.96800 27.12300
C  -2.31300 14.38200 27.25900
C  -2.34700 11.40000 25.08500
C  -2.56000 12.33700 28.42800
O  -2.49100 11.14900 28.76500
C  -2.68400 13.54400 29.42400
C  -1.49000 13.40100 30.31100
O  -0.41600 13.80500 30.06400
O  -1.77700 12.54700 31.31600
C  -0.71800 12.07900 32.21400
H  -3.19500 20.50800 28.62000
H  -1.88500 20.00000 22.42100
H  -1.69700 13.57100 22.99500
H  -4.23500 16.31600 30.41300
H  -3.04300 18.98500 30.49900
H  -5.22600 19.09000 30.95900
H  -5.63500 17.93300 29.76200
H  -5.24600 19.57100 29.12300
H  -1.38800 16.83900 30.71000
H  -2.41000 15.45600 31.41500
H  -3.61100 17.48200 32.63400
H  -1.92800 17.90600 32.72800
H  -2.76900 22.34700 27.95100
H  -3.05300 23.37800 26.48800
H  -1.46700 23.25900 27.19400
H  -1.58400 24.33100 24.84600
H  -0.36700 24.23900 23.68200
H  0.03500 23.53100 25.22700
H  -1.12800 18.07100 20.89900
H  -2.10000 15.28400 21.05700
H  -3.90900 18.12100 21.34000
H  -3.61000 16.73600 20.32300
H  -3.04400 18.23000 19.76000
H  0.23200 15.59200 20.31500
H  0.01500 14.40100 21.59900
H  1.75700 16.68800 21.45200
H  1.46100 15.55800 22.91400
H  0.55100 17.00800 22.72400
H  -1.86400 11.52100 24.11500
H  -3.36500 11.09600 24.84100
H  -1.79700 10.74600 25.76200
H  -3.55800 13.42100 30.06300
H  -0.98200 12.56800 33.15200
H  0.23400 12.53800 31.94700
H  -0.69800 11.01800 32.46300
Mg 46.80900 15.00300 27.46900
C  44.87600 15.27900 30.39400
C  49.04600 17.30900 28.89500
C  48.39500 15.28300 24.56400
C  44.34200 13.37300 25.98100
N  46.94100 16.20800 29.41000
C  46.11400 16.00800 30.47000
C  46.71200 16.70700 31.65000
C  47.74900 17.66400 31.07000
C  47.86200 17.19100 29.64900
C  47.58400 19.22700 31.18200
C  47.25900 15.74200 32.74300
C  47.01600 16.06600 34.24400
H  48.14400 15.89000 35.23600
N  48.57000 15.95700 26.86100
C  49.40000 16.76600 27.65500
C  50.61800 17.05900 26.95900
C  50.45500 16.52100 25.67100
C  49.12100 15.84500 25.64100
C  51.82300 17.70500 27.58500
C  51.43900 16.50000 24.48100
O  51.06100 16.09900 23.38500
C  52.89300 16.88000 24.72000
N  46.33200 14.55000 25.55900
C  47.22900 14.66700 24.52000
C  46.70300 13.97100 23.22800
C  45.47800 13.19200 23.75800
C  45.37200 13.74500 25.21200
C  46.34800 15.00200 22.13700
C  45.48000 11.62500 23.58000
C  46.18600 10.70000 24.57200
N  44.95500 14.53600 28.06700
C  44.02400 13.79600 27.28300
C  42.91200 13.49800 28.12600
C  43.18100 14.12200 29.32900
C  44.47300 14.65200 29.28000
C  41.70400 12.69200 27.66800
C  42.63400 14.33400 30.71300
O  41.61500 14.06200 31.31900
C  43.78900 15.11200 31.45000
C  43.27600 16.36700 32.16400
O  42.67200 17.24500 31.58500
O  43.65200 16.23800 33.44400
C  43.32200 17.37900 34.34200
H  49.78500 17.98000 29.33700
H  48.84500 15.24100 23.57000
H  43.59200 12.75100 25.48900
H  45.99300 17.32200 32.19100
H  48.72300 17.46200 31.51600
H  47.33400 19.66900 30.21700
H  48.47000 19.55400 31.72700
H  46.69600 19.36000 31.80000
H  48.32700 15.60000 32.57800
H  46.83400 14.75700 32.54900
H  46.19700 15.45400 34.62300
H  46.60300 17.07200 34.32100
H  51.64000 17.88000 28.64500
H  51.95400 18.66700 27.08800
H  52.79900 17.22000 27.60400
H  53.34300 16.84400 23.72700
H  53.44300 16.21600 25.38700
H  53.00300 17.89400 25.10300
H  47.49500 13.27900 22.94400
H  44.53100 13.57500 23.37800
H  45.68800 14.55200 21.39600
H  47.28700 15.24200 21.63700
H  45.98800 15.84300 22.72900
H  45.87800 11.39000 22.59300
H  44.42800 11.34600 23.51900
H  46.81800 9.99300 24.03500
H  45.35100 10.19000 25.05300
H  46.68800 11.32500 25.31100
H  42.16800 11.87000 27.12300
H  41.00900 13.20900 27.00700
H  41.24100 12.25200 28.55100
H  44.05400 14.34000 32.17100
H  44.29500 17.64400 34.75700
H  42.62400 17.06000 35.11600
H  42.85300 18.26900 33.92400

