158

Mg 2.10200 -2.21700 43.89000
C  5.43800 -1.24900 43.34900
C  1.17300 0.66100 41.97200
C  -1.13600 -3.31300 43.66400
C  3.11300 -5.27300 44.91000
N  3.20500 -0.53900 42.63200
C  4.56300 -0.31700 42.74000
C  4.94100 0.96500 41.99900
C  3.57600 1.60300 42.00400
C  2.55600 0.50900 42.12700
C  3.38300 2.78600 42.94800
C  5.54500 0.58800 40.57200
C  6.37500 1.63800 39.84600
H  5.82200 2.23700 38.52800
N  0.32600 -1.37700 43.01600
C  0.12800 -0.17800 42.31900
C  -1.23800 -0.01400 41.94700
C  -1.94500 -1.03400 42.69900
C  -0.89300 -1.97200 43.18000
C  -1.87500 1.20000 41.23600
C  -3.49900 -1.22100 42.89600
O  -4.26700 -0.50400 42.25800
C  -4.07400 -2.14700 43.90300
N  1.20100 -4.11000 44.16600
C  -0.19000 -4.30300 44.10300
C  -0.55600 -5.74800 44.49100
C  0.78100 -6.26000 45.07300
C  1.80200 -5.17100 44.70000
C  -1.60500 -5.91300 45.60900
C  1.17400 -7.73700 44.71200
C  1.75500 -8.61900 45.85300
N  3.91100 -3.10800 44.23500
C  4.20700 -4.37500 44.66100
C  5.58800 -4.58700 44.80100
C  6.14900 -3.33600 44.29300
C  5.05200 -2.49700 44.00200
C  6.26400 -5.74700 45.45300
C  7.36300 -2.58400 43.95600
O  8.51400 -2.93600 43.94100
C  6.89300 -1.16400 43.50400
C  7.17200 -0.23200 44.62700
O  6.84200 -0.41300 45.81300
O  7.84900 0.87900 44.14700
C  8.16500 1.89500 45.17700
H  0.93800 1.64300 41.55600
H  -2.17300 -3.61000 43.49100
H  3.51200 -6.16800 45.39100
H  5.72000 1.52500 42.51600
H  3.39300 2.04000 41.02200
H  2.36200 2.64400 43.30300
H  3.58400 3.72200 42.42800
H  4.09200 2.90400 43.76700
H  4.64200 0.35900 40.00600
H  6.03800 -0.37600 40.69800
H  7.36600 1.20400 39.71300
H  6.51500 2.48200 40.52000
H  -1.15700 1.48600 40.46700
H  -1.96400 2.09000 41.86000
H  -2.80300 0.91700 40.74000
H  -4.30400 -3.14800 43.53900
H  -5.04400 -1.77300 44.23300
H  -3.39700 -2.22100 44.75300
H  -0.82500 -6.34400 43.61900
H  0.82800 -6.16300 46.15700
H  -2.31800 -5.12600 45.36500
H  -1.15100 -5.70300 46.57800
H  -2.07000 -6.89900 45.60100
H  1.89200 -7.63800 43.89800
H  0.25300 -8.28800 44.52300
H  1.01500 -9.37800 46.10600
H  1.98500 -7.98900 46.71200
H  2.67300 -9.08600 45.49600
H  6.37300 -6.50800 44.68000
H  5.72400 -6.14400 46.31300
H  7.26300 -5.39200 45.70900
H  7.42500 -0.73800 42.65400
H  7.56500 1.83700 46.08500
H  7.74000 2.79100 44.72500
H  9.24800 1.91800 45.29900
Mg 36.37900 49.39000 24.92200
C  36.31200 47.50700 27.86900
C  35.01500 51.98100 26.51800
C  36.14000 50.92200 21.88400
C  37.56600 46.48600 23.24200
N  35.64400 49.64500 26.92100
C  35.89700 48.84200 28.03000
C  35.64100 49.59900 29.31600
C  35.01900 50.96900 28.78700
C  35.22600 50.89700 27.32100
C  33.52400 51.17000 29.20600
C  36.88400 49.77200 30.13200
C  36.76600 49.66600 31.60800
H  35.39400 49.79100 32.40500
N  35.69400 51.27700 24.31300
C  35.18500 52.19700 25.13700
C  34.93900 53.38300 24.41500
C  35.37600 53.12000 23.05700
C  35.77700 51.73500 23.04000
C  34.13900 54.57600 24.87500
C  35.50300 54.02500 21.85300
O  36.01000 53.72400 20.75800
C  35.16800 55.48200 22.09400
N  36.62700 48.76200 22.90000
C  36.44600 49.57200 21.85300
C  36.64800 48.85400 20.51600
C  37.40400 47.57500 20.95900
C  37.17400 47.56100 22.42600
C  35.26800 48.54500 19.83200
C  38.92400 47.67900 20.62000
C  39.60600 46.51400 19.83600
N  36.90400 47.39900 25.47300
C  37.35600 46.34300 24.66000
C  37.69300 45.26400 25.50400
C  37.35500 45.67500 26.77800
C  36.77800 46.91500 26.69700
C  38.47000 44.03200 25.02000
C  37.30100 45.25600 28.14100
O  37.56200 44.17500 28.64800
C  36.68500 46.50300 28.93900
C  35.50400 46.06100 29.66600
O  34.53300 45.56600 29.18500
O  35.72100 46.17500 31.08600
C  34.83300 45.43400 32.00900
H  34.67800 52.86100 27.07000
H  36.02000 51.40000 20.91000
H  38.02800 45.58500 22.83200
H  34.94100 49.03000 29.92700
H  35.53400 51.82600 29.22000
H  33.13100 50.29100 29.71600
H  32.85500 51.37700 28.37100
H  33.42600 52.06100 29.82600
H  37.33100 50.71900 29.83000
H  37.61000 49.02600 29.80700
H  37.51300 50.28900 32.09900
H  37.05400 48.62300 31.74500
H  33.48900 54.94200 24.08100
H  34.87400 55.36400 25.04100
H  33.57000 54.48300 25.80000
H  35.59300 56.02500 22.93800
H  34.10500 55.69300 21.97900
H  35.50300 55.88500 21.13800
H  37.19500 49.52500 19.85300
H  37.04100 46.61200 20.59900
H  35.02000 49.25700 19.04500
H  34.49600 48.57700 20.60100
H  35.22400 47.57100 19.34500
H  39.46200 47.77800 21.56300
H  39.14900 48.58200 20.05200
H  38.88600 45.70900 19.68500
H  40.31100 46.04500 20.52200
H  40.14700 46.81900 18.94000
H  39.06000 44.20500 24.12000
H  37.66200 43.36200 24.72500
H  39.09700 43.57000 25.78300
H  37.41000 46.83000 29.68400
H  34.56300 44.47200 31.57500
H  33.93200 46.01600 32.20200
H  35.38200 45.34800 32.94700

