158

Mg -1.58800 18.21200 27.76100
C  -2.03500 15.94300 30.35100
C  -2.39900 20.75200 29.74400
C  -1.32500 20.20700 24.91200
C  -1.32600 15.41400 25.63500
N  -2.03000 18.27100 29.81000
C  -2.13800 17.28400 30.76500
C  -2.56200 17.88500 32.17800
C  -2.89300 19.34800 31.86700
C  -2.49100 19.47600 30.38800
C  -4.42300 19.68500 31.99800
C  -1.42900 17.75200 33.25700
C  -1.83300 17.31900 34.61500
H  -0.69000 17.09100 35.67000
N  -1.85000 20.25900 27.39200
C  -2.13500 21.10400 28.36600
C  -2.04500 22.49100 27.83700
C  -1.74500 22.37400 26.45700
C  -1.63600 20.86800 26.19000
C  -2.36100 23.79600 28.58600
C  -1.53000 23.42100 25.42200
O  -1.33800 23.08800 24.25300
C  -1.40900 24.87100 25.78300
N  -1.20400 17.89300 25.64400
C  -1.10200 18.87600 24.68100
C  -0.69000 18.25800 23.28800
C  -0.61700 16.70900 23.58000
C  -1.11300 16.65900 25.05400
C  -1.73100 18.59300 22.18300
C  0.72900 16.09100 23.38700
C  1.96600 16.78100 24.12000
N  -1.65800 16.10800 27.92400
C  -1.58500 15.10000 26.96000
C  -1.84500 13.83400 27.61200
C  -1.97200 14.12300 28.89600
C  -1.85800 15.44800 29.02900
C  -1.86000 12.49800 26.85300
C  -2.17500 13.56100 30.26200
O  -2.21400 12.40800 30.65400
C  -2.18400 14.68100 31.23300
C  -1.04300 14.42700 32.10900
O  0.13400 14.72500 31.89800
O  -1.53100 13.66000 33.09500
C  -0.45300 13.18000 33.95800
H  -2.61400 21.62100 30.36900
H  -1.16600 20.74300 23.97400
H  -1.34400 14.60200 24.90600
H  -3.44700 17.36400 32.54300
H  -2.35400 20.03900 32.51600
H  -4.57600 20.42200 32.78600
H  -4.98600 18.79300 32.27400
H  -4.87700 20.14300 31.11900
H  -0.88000 18.68500 33.38800
H  -0.70000 17.03500 32.87900
H  -2.57700 16.52700 34.53000
H  -2.31000 18.20700 35.02900
H  -1.51600 24.46800 28.73300
H  -2.58200 23.46200 29.59900
H  -3.29500 24.24900 28.25200
H  -0.43900 24.95800 26.27200
H  -2.23800 25.23900 26.38900
H  -1.44100 25.34100 24.80000
H  0.32200 18.48400 22.95200
H  -1.29100 16.23600 22.86500
H  -2.53500 19.14300 22.67300
H  -2.03700 17.62500 21.78700
H  -1.40600 19.30100 21.42000
H  0.85600 16.18800 22.30900
H  0.59700 15.01500 23.49400
H  1.62100 17.19900 25.06600
H  2.29300 17.62400 23.51100
H  2.78600 16.08200 24.28600
H  -0.99200 12.39800 26.20100
H  -2.79200 12.46300 26.28900
H  -1.79500 11.65800 27.54400
H  -3.17200 14.54900 31.67300
H  0.31700 12.74200 33.32400
H  -0.86800 12.39600 34.59300
H  0.05200 13.84500 34.65900
Mg -5.50000 25.68100 26.03200
C  -4.26500 27.22900 29.05600
C  -7.35300 23.53600 28.10700
C  -6.38800 23.91100 23.40100
C  -3.23400 27.60700 24.21700
N  -5.82700 25.51100 28.31400
C  -5.23200 26.23000 29.27700
C  -5.80400 25.88600 30.67700
C  -6.46900 24.56400 30.36800
C  -6.52700 24.47800 28.80400
C  -5.54000 23.29200 30.83200
C  -6.67800 26.99100 31.35100
C  -6.79200 26.96700 32.86900
H  -6.07500 25.79900 33.63400
N  -6.74300 23.94300 25.74000
C  -7.42400 23.19800 26.75000
C  -8.33600 22.28100 26.05300
C  -8.06000 22.40900 24.65400
C  -7.02200 23.44500 24.56200
C  -9.29900 21.37800 26.78200
C  -8.70100 21.70500 23.48500
O  -8.37200 21.96300 22.31400
C  -9.63500 20.53100 23.74200
N  -4.81100 25.71500 24.10100
C  -5.38300 24.84700 23.14900
C  -4.55500 24.98700 21.90000
C  -3.65500 26.28600 21.98500
C  -3.91100 26.58800 23.53600
C  -3.76500 23.70900 21.59100
C  -4.16400 27.54400 21.10700
C  -3.28700 28.21900 20.04100
N  -4.02600 27.21300 26.53100
C  -3.23900 27.94500 25.67700
C  -2.54000 28.96400 26.45800
C  -2.88300 28.70700 27.78700
C  -3.77400 27.62400 27.82900
C  -1.58100 29.95500 25.95800
C  -2.64700 29.07500 29.14200
O  -1.86800 29.92600 29.57700
C  -3.62200 28.23000 30.04300
C  -2.79400 27.53300 31.06000
O  -1.99400 26.62300 30.79400
O  -3.08000 28.13500 32.31600
C  -2.23600 27.54900 33.36700
H  -7.94300 22.83900 28.70600
H  -6.66100 23.41900 22.46500
H  -2.54100 28.18600 23.60400
H  -4.89200 25.78800 31.26700
H  -7.49200 24.61500 30.74000
H  -4.46900 23.42800 30.98300
H  -5.68400 22.50600 30.09100
H  -5.91800 23.02100 31.81800
H  -7.71800 26.83300 31.06400
H  -6.35900 27.97000 30.99200
H  -7.83500 27.05100 33.17400
H  -6.32400 27.91700 33.12600
H  -10.28400 21.84400 26.80200
H  -8.86500 21.20200 27.76600
H  -9.34100 20.33600 26.46500
H  -9.11800 19.72800 24.26700
H  -10.14200 20.21400 22.83100
H  -10.46100 20.85000 24.37900
H  -5.26900 25.17400 21.09900
H  -2.59100 26.11700 21.82100
H  -4.00400 23.49500 20.54900
H  -4.13600 22.90400 22.22500
H  -2.68900 23.88400 21.57700
H  -4.40000 28.37900 21.76700
H  -5.10700 27.26100 20.63800
H  -3.89200 28.37400 19.14700
H  -2.48700 27.54000 19.74700
H  -2.82600 29.17700 20.28000
H  -0.97600 29.50100 25.17300
H  -1.03200 30.39900 26.78900
H  -2.26800 30.70300 25.56300
H  -4.44500 28.85700 30.38400
H  -2.79100 27.60800 34.30300
H  -1.33300 28.13900 33.52800
H  -1.97600 26.50800 33.17300

