158

Mg 50.62500 45.46500 41.43400
C  47.61600 46.46700 40.18200
C  49.80700 42.24500 40.78000
C  53.94600 44.77900 41.88700
C  51.44900 48.98700 41.58900
N  48.88400 44.51100 40.55700
C  47.74300 45.08500 40.08500
C  46.68500 44.01100 39.58700
C  47.36100 42.72600 40.18800
C  48.79800 43.16400 40.50800
C  46.72900 41.95100 41.38600
C  46.49000 44.09800 38.10800
C  45.05100 44.11200 37.62700
H  44.77400 42.90500 36.66900
N  51.73500 43.75100 41.33500
C  51.17200 42.48600 41.14900
C  52.19800 41.51500 41.07000
C  53.39600 42.19200 41.35900
C  53.06300 43.67800 41.62900
C  51.91000 40.03100 40.78400
C  54.72000 41.61900 41.29400
O  54.95400 40.46600 41.04100
C  56.07500 42.42000 41.52300
N  52.44900 46.66200 41.53200
C  53.66100 46.11900 41.79900
C  54.70100 47.19600 42.06000
C  53.90800 48.51000 42.08900
C  52.46400 48.03900 41.72600
C  55.66500 47.05800 43.30400
C  54.48500 49.58400 41.13700
C  54.64700 50.96400 41.76900
N  49.69700 47.39700 41.10700
C  50.09700 48.64700 41.26500
C  49.03500 49.57700 40.93700
C  48.04400 48.77400 40.40100
C  48.50000 47.41000 40.58100
C  48.96600 51.05000 41.07200
C  46.68800 48.81200 39.85300
O  45.93800 49.76500 39.66100
C  46.41200 47.30900 39.68400
C  45.18800 47.13400 40.53200
O  45.18900 46.66100 41.68800
O  43.98100 47.41000 39.88800
C  42.75300 47.18000 40.61100
H  49.48600 41.24200 40.49100
H  55.00400 44.54700 42.03000
H  51.55300 50.06300 41.74000
H  45.73900 44.16100 40.10800
H  47.44700 41.92800 39.45000
H  47.41100 41.99800 42.23600
H  46.77100 40.88100 41.18400
H  45.72200 42.23900 41.68700
H  46.84400 43.17200 37.65500
H  46.98800 44.97100 37.68700
H  44.85600 45.07500 37.15500
H  44.40200 44.03600 38.49900
H  51.31000 39.71800 41.63900
H  52.82900 39.44500 40.78100
H  51.34500 39.91600 39.85900
H  56.27400 42.77700 42.53300
H  56.12700 43.24400 40.81100
H  56.83900 41.67000 41.32300
H  55.26800 47.18600 41.13000
H  53.79300 48.90400 43.09900
H  56.21700 47.99000 43.42500
H  56.36500 46.28200 42.99600
H  55.07000 46.68800 44.13900
H  53.90000 49.70900 40.22600
H  55.50600 49.40100 40.80200
H  55.58200 51.48900 41.57200
H  54.50100 51.02500 42.84700
H  53.94900 51.71300 41.39400
H  48.00100 51.29500 40.62800
H  49.80400 51.57600 40.61400
H  48.90400 51.34400 42.11900
H  46.08100 47.13400 38.66000
H  42.31900 48.17900 40.56900
H  42.78500 46.84200 41.64700
H  42.07600 46.52400 40.06300
Mg 41.24000 40.53300 26.64700
C  40.54900 42.99300 29.06100
C  42.46100 38.47400 29.14000
C  42.23300 38.47200 24.15400
C  40.44600 42.86900 24.20000
N  41.37100 40.70000 28.86800
C  40.99800 41.75900 29.60700
C  41.09200 41.44300 31.09200
C  41.90700 40.07400 31.10600
C  41.92200 39.70700 29.58700
C  43.32100 40.22000 31.77400
C  39.67100 41.45200 31.76700
C  39.49300 42.37400 32.98500
H  38.85000 41.68700 34.19700
N  42.13200 38.72000 26.66800
C  42.62500 38.03400 27.78200
C  43.19000 36.74700 27.27800
C  43.29100 36.74700 25.84400
C  42.53000 38.02500 25.47700
C  43.82300 35.79700 28.27400
C  43.94200 35.86900 24.91700
O  44.21200 36.16600 23.71400
C  44.46600 34.54700 25.44800
N  41.43100 40.72300 24.45800
C  41.71100 39.68400 23.68200
C  41.36300 39.90200 22.18100
C  40.81200 41.39400 22.20800
C  40.87700 41.70400 23.69400
C  42.67200 39.81800 21.32000
C  39.47400 41.66700 21.54400
C  39.36100 43.02600 20.79900
N  40.62600 42.52900 26.55500
C  40.25700 43.32200 25.51300
C  39.90900 44.62600 26.00900
C  39.97300 44.53500 27.37900
C  40.41300 43.18700 27.66200
C  39.58500 45.80600 25.13200
C  39.78700 45.25300 28.59000
O  39.38200 46.38200 28.79500
C  40.10500 44.18700 29.78100
C  41.24600 44.81300 30.54100
O  42.37100 44.93500 30.03500
O  40.79100 45.23400 31.78000
C  41.92900 45.36500 32.68800
H  42.89300 37.81900 29.89900
H  42.51300 37.84600 23.30500
H  40.23600 43.60900 23.42400
H  41.70700 42.21300 31.55700
H  41.25700 39.37200 31.62900
H  43.42800 41.22200 32.18800
H  44.16700 40.19300 31.08700
H  43.44800 39.54900 32.62300
H  39.56300 40.42700 32.12300
H  38.84900 41.56300 31.06000
H  38.76500 43.09500 32.61400
H  40.46000 42.86800 33.09000
H  44.88800 36.00800 28.18300
H  43.72900 34.76000 27.95100
H  43.40200 35.81500 29.27900
H  43.63800 34.07900 25.98200
H  45.34300 34.68700 26.08100
H  44.67800 33.89100 24.60500
H  40.65500 39.17500 21.78300
H  41.54700 42.04600 21.73600
H  43.60000 39.62100 21.85600
H  42.88400 40.61500 20.60800
H  42.64200 38.85300 20.81600
H  38.75500 41.69000 22.36300
H  39.23700 40.86200 20.84800
H  38.69600 42.91400 19.94300
H  40.38700 43.37700 20.69000
H  38.99400 43.79700 21.47700
H  38.96300 45.56700 24.27000
H  40.54900 46.22600 24.84500
H  39.02400 46.49700 25.76200
H  39.20500 43.92600 30.33900
H  41.56800 45.91900 33.55400
H  42.66400 45.98800 32.17900
H  42.32200 44.45500 33.14200

