158

Mg 47.22500 16.14400 28.97700
C  44.90900 15.83500 31.53900
C  49.43800 17.83300 31.23700
C  49.25900 16.92500 26.45300
C  44.83000 15.09800 26.72300
N  47.07300 16.90300 31.08100
C  46.07600 16.46600 31.98000
C  46.53000 16.93400 33.37900
C  47.73500 17.84500 33.17900
C  48.11600 17.58600 31.69800
C  47.38600 19.38300 33.48200
C  46.59400 15.68200 34.27500
C  46.61300 15.77000 35.78800
H  46.51200 17.15600 36.37200
N  49.12300 17.14000 28.86600
C  49.87100 17.67600 29.93800
C  51.16400 18.17300 29.40000
C  51.14000 17.87300 28.03900
C  49.78200 17.22700 27.72600
C  52.05100 18.99400 30.20400
C  52.16100 18.27900 26.90700
O  52.01800 17.97500 25.69500
C  53.37000 19.00000 27.39700
N  47.03400 16.17600 26.85400
C  48.04600 16.39700 25.99200
C  47.70100 16.09700 24.51700
C  46.29200 15.46200 24.68200
C  46.01000 15.57300 26.16100
C  47.88600 17.23700 23.46100
C  45.98400 14.03600 24.09100
C  46.50200 12.84800 24.90300
N  45.26200 15.49900 29.07000
C  44.43700 15.03200 28.03500
C  43.14300 14.66600 28.58000
C  43.28100 14.95300 29.99100
C  44.59900 15.52300 30.22400
C  41.91500 14.07000 27.83400
C  42.61600 14.79300 31.30800
O  41.53000 14.39100 31.57500
C  43.68100 15.34500 32.33800
C  43.07200 16.49400 33.03900
O  43.10000 17.65700 32.67000
O  42.48900 16.15900 34.25100
C  41.99400 17.16000 35.12000
H  50.01000 18.28600 32.04800
H  50.08800 16.92200 25.74300
H  44.03800 14.68000 26.09800
H  45.70900 17.50500 33.81100
H  48.53700 17.55700 33.85900
H  47.13100 19.76400 32.49300
H  48.33300 19.86600 33.72800
H  46.70100 19.54600 34.31500
H  47.53600 15.27600 33.90700
H  45.76800 15.01900 34.01500
H  47.31200 15.11900 36.31400
H  45.67100 15.26700 36.00900
H  51.58300 19.18500 31.16900
H  52.07300 19.99300 29.76800
H  53.00800 18.49100 30.34700
H  53.93300 19.24900 26.49700
H  53.88100 18.40000 28.15000
H  53.06300 19.93500 27.86600
H  48.34500 15.32100 24.10400
H  45.49700 16.10000 24.29700
H  47.66900 18.13300 24.04300
H  47.00400 17.32000 22.82500
H  48.85700 17.43000 23.00500
H  46.52300 13.88200 23.15600
H  44.93300 13.85300 23.87100
H  47.20900 13.19600 25.65600
H  46.89300 12.09300 24.22100
H  45.73200 12.25600 25.39800
H  41.30200 13.42600 28.46500
H  42.15500 13.51100 26.92900
H  41.30600 14.93700 27.58000
H  43.81100 14.58700 33.11100
H  40.99400 17.49900 34.85200
H  42.69500 17.99500 35.12600
H  42.00500 16.67200 36.09500
Mg 34.92100 49.12700 25.92400
C  35.90300 47.14300 28.59600
C  34.05000 51.60200 28.19500
C  33.92700 50.88900 23.35900
C  35.92200 46.59100 23.84000
N  35.13100 49.37400 28.12600
C  35.50200 48.42600 29.02000
C  35.41900 48.95000 30.44100
C  34.38500 50.14800 30.29400
C  34.63700 50.49100 28.77400
C  32.84000 49.82300 30.60100
C  36.85400 49.50500 30.83300
C  37.24400 49.27900 32.30800
H  36.12200 49.11500 33.45900
N  33.97900 50.92800 25.78000
C  33.71300 51.84700 26.83000
C  33.26100 53.09800 26.23500
C  33.31700 53.01000 24.79100
C  33.74600 51.57200 24.59400
C  33.02500 54.32200 27.09700
C  32.96500 54.01900 23.72300
O  33.16500 53.75200 22.54900
C  32.49200 55.33000 24.12400
N  34.83800 48.76500 23.81300
C  34.34000 49.59000 22.94300
C  34.42600 49.10600 21.44900
C  35.32300 47.79400 21.69100
C  35.39700 47.74800 23.20300
C  33.08400 48.66800 20.75300
C  36.66200 47.74600 20.91300
C  37.85100 48.25700 21.69300
N  35.77100 47.24700 26.13100
C  36.08900 46.34600 25.17000
C  36.69400 45.16800 25.73700
C  36.56100 45.36000 27.12700
C  36.03300 46.65300 27.29200
C  37.11800 43.92600 24.93200
C  36.81900 44.80100 28.46500
O  37.30600 43.74100 28.75600
C  36.37700 45.95600 29.48100
C  35.39700 45.46200 30.47600
O  34.16100 45.37900 30.32800
O  36.05800 45.17100 31.67800
C  35.30100 44.71100 32.80800
H  33.79200 52.34700 28.95100
H  33.70400 51.48500 22.47100
H  36.28300 45.82600 23.15000
H  34.96000 48.21000 31.09700
H  34.71300 50.97100 30.92900
H  32.65800 48.75600 30.73400
H  32.22800 50.20200 29.78300
H  32.56800 50.33800 31.52200
H  37.04200 50.54400 30.56500
H  37.49600 48.82200 30.27600
H  37.91000 50.08300 32.62100
H  37.83700 48.36400 32.33900
H  32.25900 54.95000 26.64300
H  33.92000 54.93600 27.20000
H  32.62100 53.97000 28.04600
H  32.32400 55.94200 23.23800
H  33.17900 55.81300 24.81900
H  31.45900 55.29400 24.46900
H  34.98000 49.88300 20.92200
H  34.77500 46.86900 21.51300
H  32.84700 47.60500 20.72600
H  33.08800 49.06400 19.73800
H  32.23800 49.09500 21.29100
H  36.46700 48.35200 20.02800
H  36.94500 46.74300 20.59400
H  37.69200 48.61400 22.71000
H  38.29200 49.12000 21.19400
H  38.51100 47.39000 21.73900
H  37.37300 44.19900 23.90800
H  36.34400 43.16000 24.87400
H  37.91000 43.49200 25.54300
H  37.22700 46.42900 29.97100
H  35.37700 43.63500 32.96300
H  34.27900 45.09000 32.81300
H  35.73200 45.17600 33.69500

