158

Mg 1.43200 -1.71900 43.38000
C  4.73500 -0.91800 42.75600
C  0.40200 0.78600 41.41700
C  -1.77100 -3.02900 43.61000
C  2.60000 -4.72900 44.90900
N  2.44700 -0.29100 42.12900
C  3.85800 -0.08800 42.12200
C  4.22300 1.32900 41.56500
C  2.81100 1.96100 41.47500
C  1.80000 0.76900 41.65500
C  2.50100 3.34400 42.20500
C  5.01400 1.20900 40.15600
C  6.22200 2.14100 39.84700
H  6.19800 2.98700 38.59300
N  -0.43800 -1.11400 42.66600
C  -0.60600 -0.02600 41.95300
C  -2.02200 0.19400 41.80300
C  -2.74800 -0.96500 42.32800
C  -1.66800 -1.78700 42.88100
C  -2.56600 1.47600 41.20400
C  -4.22400 -1.19100 42.30500
O  -4.97000 -0.40400 41.75800
C  -4.81600 -2.34600 42.96200
N  0.54700 -3.66100 44.12100
C  -0.81500 -3.86500 44.10800
C  -1.12500 -5.17400 44.80800
C  0.26700 -5.62000 45.35000
C  1.24400 -4.61100 44.72800
C  -2.21900 -5.16300 45.92000
C  0.66300 -7.12500 45.02700
C  0.70600 -8.00100 46.29500
N  3.27800 -2.63400 43.78700
C  3.61000 -3.81300 44.48300
C  5.01600 -3.94400 44.55100
C  5.53000 -2.82000 43.93000
C  4.41300 -2.08000 43.45200
C  5.77500 -5.00100 45.28600
C  6.67700 -2.10100 43.58300
O  7.90300 -2.32900 43.86400
C  6.26900 -0.88900 42.80800
C  6.82100 0.36900 43.46400
O  6.86500 0.62000 44.72300
O  7.42200 1.18100 42.48700
C  8.32300 2.30500 42.97000
H  0.07600 1.65900 40.84800
H  -2.76000 -3.48900 43.64400
H  2.81100 -5.60800 45.52200
H  4.79200 1.81700 42.35600
H  2.68300 2.37000 40.47200
H  1.49400 3.35600 42.62300
H  2.57200 4.21400 41.55200
H  3.28700 3.42500 42.95600
H  4.36600 1.38900 39.29700
H  5.33800 0.17400 40.04200
H  7.14300 1.57800 39.69500
H  6.34600 2.82000 40.69000
H  -2.91800 1.14900 40.22500
H  -1.83700 2.28600 41.17200
H  -3.28600 1.89400 41.90800
H  -5.85800 -2.06300 42.81000
H  -4.64300 -2.32800 44.03800
H  -4.54800 -3.31900 42.55000
H  -1.51200 -5.81100 44.01300
H  0.30300 -5.46400 46.42800
H  -2.71200 -4.19100 45.90900
H  -1.76500 -5.52000 46.84400
H  -2.94400 -5.96600 45.79000
H  1.61200 -7.19600 44.49600
H  -0.13900 -7.48700 44.38400
H  -0.26800 -8.44600 46.50300
H  1.10900 -7.42300 47.12600
H  1.47500 -8.74300 46.08200
H  5.54100 -5.81900 44.60500
H  5.30600 -5.33900 46.21000
H  6.82200 -4.70500 45.35300
H  6.58800 -0.98000 41.77000
H  9.24700 2.14200 42.41500
H  8.58900 2.22100 44.02300
H  8.01200 3.29900 42.64900
Mg 1.04100 8.52200 27.44000
C  1.47500 11.09600 29.83400
C  1.43500 6.23300 29.80000
C  0.45800 6.16900 25.09500
C  0.86700 11.11700 25.03800
N  1.43000 8.68100 29.47900
C  1.34900 9.76100 30.27000
C  1.03600 9.40800 31.76700
C  1.46400 7.92000 31.76800
C  1.38600 7.57000 30.22300
C  2.79800 7.59400 32.42100
C  -0.47200 9.54200 32.13200
C  -0.72300 9.43200 33.74700
H  0.34400 8.85600 34.70600
N  0.89100 6.49400 27.45500
C  1.14100 5.66600 28.51500
C  0.90600 4.32800 28.25400
C  0.67100 4.25100 26.87400
C  0.61800 5.67700 26.40000
C  1.04900 3.21100 29.30000
C  0.49700 2.99500 25.94100
O  0.43900 3.09400 24.75100
C  0.78700 1.65500 26.50200
N  0.57100 8.64200 25.31200
C  0.52100 7.45800 24.57000
C  0.37800 7.86400 23.10600
C  0.05300 9.42100 23.14700
C  0.49600 9.81600 24.58000
C  1.75900 7.58200 22.42000
C  -1.54300 9.67900 22.92800
C  -2.01900 10.19400 21.57500
N  1.23500 10.61100 27.35100
C  1.22800 11.52300 26.36200
C  1.53900 12.85000 26.79100
C  1.67100 12.74600 28.15600
C  1.43500 11.36200 28.47500
C  1.51600 14.14800 26.00100
C  1.87800 13.46400 29.46000
O  2.15400 14.63100 29.74400
C  1.73400 12.36200 30.54800
C  2.77600 12.53900 31.59600
O  3.98200 12.29800 31.51100
O  2.19800 12.74700 32.80300
C  2.93100 12.64600 34.05000
H  1.47700 5.45300 30.56300
H  0.37300 5.42100 24.30400
H  0.72100 11.76800 24.17300
H  1.78800 9.93900 32.35000
H  0.76700 7.27100 32.30000
H  3.26100 6.98500 31.64500
H  2.69300 6.90900 33.26300
H  3.33500 8.53400 32.54800
H  -1.01000 8.75400 31.60500
H  -0.75700 10.53400 31.78200
H  -1.56500 8.74200 33.79900
H  -1.08400 10.41700 34.04100
H  2.03500 2.74700 29.29300
H  0.30300 2.44400 29.09300
H  0.74000 3.54500 30.29000
H  -0.14200 1.10300 26.64500
H  1.46000 1.61600 27.35800
H  1.36800 1.25100 25.67300
H  -0.26100 7.19800 22.52600
H  0.73100 9.87100 22.42200
H  1.62800 7.18800 21.41200
H  2.18400 6.74200 22.97000
H  2.44500 8.42100 22.30800
H  -1.72300 10.46000 23.66700
H  -2.04100 8.76700 23.25800
H  -1.28000 9.81000 20.87100
H  -2.22100 11.26000 21.47200
H  -2.87900 9.63400 21.20800
H  0.61400 14.22300 25.39400
H  2.30100 14.33800 25.26900
H  1.50100 15.03400 26.63600
H  0.85000 12.54100 31.16000
H  3.97600 12.90900 33.89000
H  2.99000 11.60500 34.36700
H  2.51200 13.23800 34.86300

