158

Mg 49.66600 47.78900 43.32300
C  46.35200 48.36200 42.27200
C  49.81100 44.80900 41.38400
C  53.09600 47.65300 43.79700
C  49.81900 51.01400 44.44400
N  48.24500 46.79100 41.88100
C  46.96500 47.22300 41.73800
C  46.38900 46.16200 40.78800
C  47.31000 44.83200 40.82400
C  48.55700 45.50600 41.40500
C  46.79600 43.67800 41.72200
C  46.20700 46.64100 39.33800
C  44.78900 46.46700 38.73300
H  44.56000 45.46300 37.60800
N  51.23400 46.46100 42.66100
C  51.06100 45.23200 41.98000
C  52.29600 44.54100 41.93200
C  53.23600 45.27600 42.73800
C  52.55300 46.51800 43.12700
C  52.29300 43.09700 41.34900
C  54.63800 44.80800 43.16800
O  54.99300 43.71900 42.79900
C  55.58200 45.67300 43.95800
N  51.38000 49.17600 43.89200
C  52.54900 48.80000 44.28900
C  53.31100 49.85100 45.07600
C  52.21700 50.91600 45.40600
C  51.03600 50.39200 44.52000
C  54.15100 49.33500 46.29300
C  52.66100 52.39100 45.03000
C  52.26800 53.54600 45.99600
N  48.40300 49.30600 43.54000
C  48.53600 50.58000 44.05500
C  47.29900 51.35300 44.04700
C  46.35200 50.45900 43.38800
C  47.10200 49.28100 43.05000
C  46.89500 52.67200 44.74600
C  44.95600 50.22700 43.04500
O  44.00600 50.97600 43.20500
C  44.99900 48.95500 42.17300
C  43.84700 48.04500 42.70700
O  43.50300 47.94700 43.87300
O  43.31700 47.30500 41.69100
C  42.26800 46.37300 41.99000
H  49.79400 43.79500 40.97800
H  54.16600 47.59800 44.00700
H  49.87600 51.99200 44.92600
H  45.38400 45.98500 41.17100
H  47.42800 44.38600 39.83600
H  47.14800 42.76600 41.24000
H  45.71100 43.59000 41.76700
H  47.24000 43.69700 42.71700
H  46.96000 46.13500 38.73400
H  46.51500 47.68600 39.32300
H  44.51900 47.45100 38.35200
H  44.01300 46.15400 39.43200
H  51.65100 42.53400 42.02600
H  53.31800 42.74500 41.22800
H  51.87700 43.21400 40.34800
H  55.82800 46.55700 43.36900
H  56.41300 45.00400 44.18300
H  55.01800 45.83800 44.87600
H  54.11300 50.19600 44.42200
H  51.98800 50.88700 46.47100
H  53.97000 48.26000 46.26100
H  53.60200 49.74100 47.14200
H  55.20000 49.59000 46.14200
H  52.54500 52.65400 43.97900
H  53.74400 52.29400 45.10400
H  53.13300 53.92700 46.53800
H  51.54400 53.13300 46.69800
H  51.77700 54.38000 45.49400
H  46.16800 52.60300 45.55500
H  46.37400 53.27100 43.99800
H  47.74500 53.23400 45.13200
H  44.75600 49.26300 41.15600
H  41.30400 46.82800 42.21800
H  42.60800 45.65400 42.73400
H  42.18300 45.82600 41.05100
Mg -2.01300 34.50500 27.16200
C  -3.65900 32.36400 29.51600
C  -0.81700 36.26200 29.88500
C  -0.66200 36.55100 24.92600
C  -3.53900 32.59600 24.60900
N  -2.28900 34.39700 29.46200
C  -3.00000 33.44900 30.16800
C  -2.85600 33.65200 31.68100
C  -2.11600 35.05600 31.73500
C  -1.74300 35.22200 30.30800
C  -2.84500 36.31300 32.33800
C  -2.04300 32.46600 32.34800
C  -2.62300 31.82600 33.63000
H  -1.85900 31.85200 34.98200
N  -0.86000 36.02800 27.40900
C  -0.40800 36.59500 28.57400
C  0.64000 37.57100 28.27800
C  0.57800 37.72900 26.85400
C  -0.37800 36.76200 26.32000
C  1.62800 38.07600 29.32400
C  1.44300 38.72100 25.94600
O  1.32800 38.89000 24.72700
C  2.52400 39.59300 26.63400
N  -2.19400 34.65500 25.01100
C  -1.55700 35.62100 24.33400
C  -1.81100 35.49200 22.76200
C  -2.42100 34.03300 22.68700
C  -2.77000 33.71000 24.20100
C  -2.83300 36.52200 22.25900
C  -1.60500 32.93600 22.01700
C  -2.36700 31.67200 21.55600
N  -3.44200 32.92900 27.04600
C  -3.93200 32.20100 25.93100
C  -4.74500 31.07500 26.37300
C  -4.67900 31.08100 27.79600
C  -3.86600 32.21600 28.15600
C  -5.50400 30.05300 25.49900
C  -5.16900 30.43900 29.05600
O  -5.87000 29.51200 29.17400
C  -4.43200 31.24200 30.15200
C  -5.39300 31.66300 31.10200
O  -6.18700 32.56200 30.99700
O  -5.48600 30.78400 32.14600
C  -6.45500 31.04300 33.25300
H  -0.52200 36.92900 30.69700
H  -0.25600 37.32200 24.26700
H  -3.98200 31.85000 23.94600
H  -3.84600 33.70900 32.13400
H  -1.22800 34.87200 32.33900
H  -2.46100 36.66500 33.29500
H  -3.81900 35.88800 32.58100
H  -2.96700 37.08600 31.57900
H  -1.02100 32.72500 32.62500
H  -1.91400 31.66900 31.61500
H  -2.74700 30.79600 33.29500
H  -3.63600 32.15200 33.86400
H  2.58400 37.55200 29.33700
H  1.34900 37.93600 30.36800
H  1.86900 39.12700 29.16700
H  2.09500 40.39000 27.24100
H  3.20600 40.05600 25.92100
H  2.97500 38.80600 27.23800
H  -0.88500 35.48800 22.18700
H  -3.35900 34.06200 22.13400
H  -3.59600 36.52400 23.03700
H  -3.32000 36.30500 21.30800
H  -2.52500 37.56800 22.23000
H  -0.81600 32.63600 22.70700
H  -1.03500 33.44700 21.24000
H  -3.44800 31.73600 21.43800
H  -2.06300 30.95600 22.32000
H  -1.86000 31.29100 20.67000
H  -5.02800 29.73500 24.57100
H  -6.47700 30.53000 25.38000
H  -5.72100 29.18200 26.11700
H  -3.73000 30.57900 30.65700
H  -5.99600 31.76200 33.93300
H  -6.72400 30.09900 33.72600
H  -7.31000 31.48400 32.74000

