158

Mg 34.74900 2.78400 29.11300
C  33.04200 3.87700 32.04100
C  37.61300 2.34200 31.02500
C  36.50200 2.03200 26.25900
C  31.95500 3.40200 27.24500
N  35.32000 3.22300 31.30400
C  34.40300 3.49500 32.36000
C  35.00700 3.42500 33.70000
C  36.49200 3.04500 33.36100
C  36.49100 2.84000 31.79100
C  37.57900 4.05100 33.77500
C  34.23600 2.48000 34.64600
C  34.30400 2.86600 36.13700
H  35.43800 3.67400 36.79700
N  36.71900 2.13400 28.72800
C  37.76100 2.06200 29.62600
C  39.02300 1.67000 28.95500
C  38.69600 1.47400 27.51400
C  37.23400 1.91000 27.47700
C  40.25700 1.43100 29.66000
C  39.56500 1.01300 26.30200
O  39.13000 0.84500 25.14200
C  41.04800 0.66300 26.51000
N  34.34300 2.86200 27.03400
C  35.17700 2.40100 26.00000
C  34.41100 2.26200 24.68700
C  32.92100 2.49400 25.14200
C  33.11400 2.93900 26.56600
C  34.92300 3.29500 23.58000
C  31.92100 1.37400 24.85800
C  30.94900 1.48700 23.65200
N  32.94500 3.60200 29.46700
C  31.87200 3.69800 28.64400
C  30.68200 4.08400 29.34500
C  31.11100 4.25800 30.70800
C  32.51200 3.93100 30.73300
C  29.36900 4.24600 28.71500
C  30.67800 4.59200 32.06800
O  29.63200 4.85600 32.53500
C  31.92100 4.36300 32.93400
C  32.24500 5.63700 33.66400
O  32.87100 6.56400 33.22400
O  31.59200 5.50000 34.91800
C  31.79500 6.59600 35.84200
H  38.54200 2.24300 31.59100
H  37.06900 1.65400 25.40600
H  31.01700 3.45700 26.68900
H  34.77900 4.44600 34.00800
H  36.75000 2.08500 33.80800
H  38.32900 3.48700 34.32900
H  37.21900 4.87900 34.38600
H  38.04000 4.60400 32.95700
H  34.82500 1.56600 34.57900
H  33.21100 2.34000 34.30300
H  34.14100 1.88400 36.58100
H  33.40400 3.43500 36.36800
H  41.13800 1.44900 29.01800
H  40.30100 0.51400 30.24800
H  40.36800 2.24000 30.38200
H  41.51100 1.58900 26.85100
H  41.53100 0.23400 25.63200
H  41.03300 -0.07100 27.31600
H  34.60500 1.27600 24.26400
H  32.55000 3.41100 24.68400
H  35.54900 2.72200 22.89600
H  35.71000 3.91900 24.00200
H  34.04100 3.78000 23.16100
H  31.31000 1.15900 25.73500
H  32.51800 0.50900 24.56900
H  31.01100 0.52600 23.14200
H  31.37500 2.24600 22.99600
H  29.89600 1.76200 23.70700
H  29.53000 4.47600 27.66200
H  28.88500 5.15500 29.07200
H  28.70100 3.38900 28.80300
H  31.68400 3.49900 33.55500
H  32.50300 6.34800 36.63300
H  30.83300 6.82900 36.29700
H  31.97700 7.55000 35.34700
Mg 55.28700 24.43200 44.49300
C  52.62700 26.62600 43.67200
C  53.48300 21.78200 43.21000
C  58.09900 22.64100 44.77400
C  57.04700 27.40400 45.54400
N  53.30000 24.30400 43.70200
C  52.40400 25.27100 43.44600
C  51.02900 24.60000 43.03200
C  51.28400 23.06800 43.28100
C  52.85100 23.02400 43.25500
C  50.71900 22.50400 44.60400
C  50.65600 24.82200 41.51900
C  51.76100 25.10800 40.51900
H  52.37200 23.81200 40.02200
N  55.73100 22.44700 44.08800
C  54.84700 21.52900 43.57500
C  55.50500 20.27000 43.62300
C  56.85400 20.49300 44.00700
C  56.96800 21.90500 44.33300
C  54.82900 18.97100 43.31500
C  57.88000 19.35000 44.07900
O  57.59100 18.19600 43.69100
C  59.27700 19.67700 44.48400
N  57.31500 25.03200 44.87600
C  58.28100 24.05000 44.99000
C  59.63700 24.73700 45.16900
C  59.21400 26.15500 45.69000
C  57.74500 26.24500 45.27800
C  60.65300 24.11700 46.09800
C  60.05400 27.32400 45.01000
C  60.80100 28.10700 46.09600
N  54.98800 26.66500 44.66800
C  55.79800 27.65900 45.12800
C  54.96300 28.85300 45.16700
C  53.71500 28.52100 44.57600
C  53.80800 27.17900 44.28400
C  55.39200 30.14800 45.91100
C  52.39500 29.04700 44.28300
O  51.84000 30.11100 44.42100
C  51.66200 27.88400 43.51000
C  51.46800 28.37700 42.15500
O  52.41300 28.77500 41.49000
O  50.12800 28.38900 41.80200
C  49.69500 28.81000 40.49000
H  52.83200 20.93800 42.97000
H  58.99400 22.06900 45.02900
H  57.60200 28.25700 45.94000
H  50.20800 25.01300 43.61800
H  50.87700 22.39000 42.53000
H  51.52300 21.96200 45.10200
H  50.07700 21.64100 44.42900
H  50.24700 23.23000 45.26700
H  50.01300 25.70200 41.51700
H  49.96600 24.04600 41.18900
H  52.48300 25.76900 40.99900
H  51.31600 25.65800 39.68900
H  55.24400 18.49800 42.42500
H  53.78200 19.19600 43.11400
H  54.94800 18.32800 44.18800
H  59.63200 20.45200 43.80400
H  59.89600 18.78500 44.39000
H  59.24200 20.03600 45.51200
H  59.93200 24.84500 44.12500
H  59.21600 26.13900 46.78000
H  60.24300 23.43200 46.84000
H  61.20000 24.93100 46.57300
H  61.46100 23.62700 45.55400
H  59.47600 28.00900 44.39100
H  60.82300 26.94300 44.33700
H  61.76000 28.46300 45.72000
H  61.03600 27.48600 46.96000
H  60.27700 29.01200 46.40500
H  56.46200 30.33900 45.99200
H  54.87500 30.34700 46.84900
H  55.07100 30.98100 45.28500
H  50.69100 27.85600 44.00400
H  49.09800 29.72200 40.50400
H  49.07200 28.00600 40.10000
H  50.50100 28.90200 39.76100

