158

Mg -2.28600 17.03300 26.11900
C  -2.73800 15.03000 28.89400
C  -2.19300 19.86100 28.19000
C  -2.30600 18.91600 23.24500
C  -2.72000 14.19300 24.04800
N  -2.50800 17.39200 28.28400
C  -2.56700 16.42600 29.26200
C  -2.78600 17.00900 30.69400
C  -2.89500 18.53500 30.38100
C  -2.53500 18.61700 28.83200
C  -4.22500 19.20800 30.68100
C  -1.59700 16.78300 31.69800
C  -2.21800 16.15100 33.00700
H  -1.27200 15.91900 34.18700
N  -2.08400 19.07000 25.73400
C  -2.06200 20.06500 26.76100
C  -1.89900 21.37600 26.09900
C  -2.11700 21.11200 24.63900
C  -2.17600 19.66200 24.45400
C  -1.72700 22.61000 26.84100
C  -2.06300 22.09300 23.47400
O  -2.18000 21.80500 22.26000
C  -1.84100 23.46900 23.86300
N  -2.43800 16.60600 23.97000
C  -2.38100 17.53800 22.94100
C  -2.70500 17.02200 21.54800
C  -2.55300 15.47800 21.85100
C  -2.55900 15.40300 23.36600
C  -4.12700 17.53900 21.13000
C  -1.27200 14.95300 21.19800
C  0.08800 15.33900 21.84000
N  -2.58900 15.01700 26.38600
C  -2.72500 13.95300 25.45800
C  -2.87000 12.70700 26.21000
C  -2.87100 13.04100 27.53600
C  -2.74400 14.47200 27.58400
C  -3.13400 11.39400 25.54600
C  -2.96000 12.56200 28.90600
O  -3.12800 11.40400 29.28100
C  -2.86900 13.79000 29.84400
C  -1.78100 13.45600 30.83300
O  -0.61200 13.73100 30.67400
O  -2.25700 12.76700 31.94100
C  -1.27600 12.51500 32.98600
H  -1.97600 20.70300 28.85000
H  -2.49300 19.49200 22.33600
H  -2.81900 13.34600 23.36600
H  -3.71200 16.58700 31.08500
H  -2.13400 19.07500 30.94500
H  -3.93600 19.96500 31.41000
H  -4.89600 18.54000 31.22000
H  -4.82700 19.60100 29.86200
H  -1.13700 17.72900 31.98300
H  -0.92000 16.15900 31.11400
H  -2.81000 15.25600 32.81600
H  -2.96300 16.91100 33.24300
H  -2.51600 23.29700 26.53600
H  -0.73600 23.05700 26.75600
H  -1.77200 22.48600 27.92300
H  -1.94600 24.09700 22.97900
H  -0.90300 23.54300 24.41300
H  -2.70600 23.75900 24.46000
H  -1.96800 17.29400 20.79200
H  -3.42900 14.95200 21.47200
H  -4.51400 18.39600 21.68000
H  -4.90000 16.77100 21.15700
H  -4.12600 17.75900 20.06200
H  -1.28500 15.13500 20.12300
H  -1.29500 13.87000 21.32000
H  -0.12300 16.07600 22.61500
H  0.71600 15.78000 21.06700
H  0.43200 14.35600 22.16300
H  -3.57500 11.56900 24.56500
H  -3.79700 10.79300 26.16700
H  -2.17000 10.89100 25.47300
H  -3.86800 13.81300 30.28100
H  -1.64800 12.95400 33.91200
H  -0.27100 12.90400 32.82000
H  -1.16200 11.43700 33.09400
Mg 24.18200 -6.87400 46.62800
C  25.85800 -4.20100 45.33700
C  21.50000 -5.98800 44.32600
C  22.68100 -9.85000 47.14900
C  26.85800 -7.84800 48.34700
N  23.75300 -5.27500 44.98800
C  24.63800 -4.25400 44.70600
C  24.03700 -3.35600 43.62400
C  22.51700 -3.80600 43.52600
C  22.58100 -5.08900 44.31900
C  21.45000 -2.73600 43.91800
C  24.86800 -3.48800 42.31100
C  25.14300 -2.20500 41.47900
H  24.65100 -2.17600 40.02200
N  22.25100 -7.82100 45.99300
C  21.32200 -7.30400 45.00200
C  20.16800 -8.15600 45.05000
C  20.46300 -9.21300 45.96600
C  21.81100 -8.99800 46.42000
C  18.93500 -7.91900 44.18200
C  19.49100 -10.33200 46.37200
O  18.40400 -10.45200 45.77300
C  19.84000 -11.32800 47.49600
N  24.66600 -8.59800 47.62200
C  23.83900 -9.62000 47.77300
C  24.42500 -10.63900 48.79000
C  25.82700 -10.05000 49.12600
C  25.77300 -8.72600 48.36000
C  23.53900 -11.01800 49.96200
C  27.13700 -10.92800 48.85700
C  28.03000 -11.16700 50.14500
N  25.99100 -6.26200 46.76300
C  27.05900 -6.70400 47.55300
C  28.10700 -5.71100 47.56800
C  27.68000 -4.74600 46.68500
C  26.37200 -5.11800 46.24000
C  29.31400 -5.76700 48.49200
C  28.02100 -3.43600 46.18500
O  28.90100 -2.62700 46.41800
C  26.85300 -3.06100 45.23500
C  26.35600 -1.79300 45.68400
O  26.87400 -0.71900 45.26900
O  25.17100 -1.90900 46.37300
C  24.73400 -0.68500 47.11300
H  20.61900 -5.77800 43.71500
H  22.28300 -10.84000 47.38200
H  27.68500 -8.09600 49.01500
H  24.01900 -2.29200 43.85700
H  22.27800 -4.07300 42.49700
H  20.88500 -3.11200 44.77000
H  20.73100 -2.58600 43.11300
H  21.84500 -1.80300 44.32100
H  24.37600 -4.18500 41.63300
H  25.80100 -3.99800 42.55200
H  26.22400 -2.27500 41.36400
H  24.99100 -1.29500 42.06100
H  18.83700 -8.78700 43.52900
H  19.02400 -7.11600 43.45100
H  17.98800 -7.82100 44.71300
H  20.40600 -12.07000 46.93200
H  18.94200 -11.79100 47.90600
H  20.40900 -10.78700 48.25300
H  24.55000 -11.59100 48.27600
H  25.75500 -9.81700 50.18900
H  22.73900 -10.28000 50.03200
H  23.99200 -11.05200 50.95200
H  23.13100 -12.00600 49.74900
H  27.82300 -10.52400 48.11300
H  26.70300 -11.86400 48.50500
H  28.00400 -12.23700 50.35300
H  27.66300 -10.66200 51.03800
H  29.05500 -10.82500 50.00100
H  29.35200 -4.83400 49.05500
H  30.21000 -5.87400 47.88100
H  29.12200 -6.56000 49.21400
H  27.18100 -3.02500 44.19600
H  24.07500 -0.07600 46.49400
H  25.59700 -0.06600 47.36000
H  24.28800 -1.00400 48.05500

