158

Mg 48.18300 15.89700 28.48400
C  46.17700 15.61900 31.38800
C  50.25000 18.00000 30.21800
C  50.07200 16.06100 25.81000
C  45.83200 14.00900 26.75700
N  48.09500 16.77700 30.55800
C  47.23200 16.36400 31.57100
C  47.75800 16.94700 32.94600
C  48.94300 17.86600 32.47300
C  49.05700 17.57200 30.96000
C  48.74200 19.44500 32.68500
C  48.19900 15.90200 33.92300
C  48.03200 16.33700 35.45200
H  49.10900 15.89200 36.41400
N  49.86800 16.96100 28.16500
C  50.59500 17.77600 28.95600
C  51.82200 18.21300 28.31200
C  51.79700 17.64900 26.96900
C  50.56900 16.80300 26.91600
C  52.89800 19.02100 29.02000
C  52.86100 17.74700 25.86800
O  52.81200 17.09800 24.82800
C  54.09800 18.54900 26.03800
N  47.88400 15.29300 26.53300
C  48.91500 15.37100 25.60500
C  48.58300 14.68200 24.27700
C  47.14500 14.23100 24.53100
C  46.92900 14.51200 25.99900
C  48.57900 15.70400 23.00500
C  46.97600 12.72800 24.14500
C  47.80100 11.64500 24.93800
N  46.38100 15.05700 28.94100
C  45.54500 14.25200 28.11500
C  44.37000 13.97900 28.83300
C  44.57000 14.45200 30.14300
C  45.82500 15.09200 30.16300
C  43.18600 13.19800 28.26700
C  43.95800 14.47300 31.43400
O  42.89600 14.00600 31.85900
C  44.98700 15.16800 32.34300
C  44.43100 16.48400 32.88500
O  44.11800 17.50400 32.23800
O  44.29500 16.38000 34.28100
C  44.08500 17.70200 34.93600
H  50.88200 18.68800 30.78300
H  50.74700 16.17000 24.95900
H  45.08100 13.41000 26.23700
H  46.98300 17.57200 33.39000
H  49.86300 17.56200 32.97100
H  48.58700 20.05700 31.79600
H  49.56900 19.82500 33.28400
H  47.86000 19.73400 33.25600
H  49.25600 15.73000 33.72200
H  47.67100 14.97800 33.68800
H  47.12000 15.80700 35.72400
H  47.86400 17.41000 35.53300
H  52.81600 19.10200 30.10400
H  53.06800 19.98700 28.54500
H  53.76900 18.39400 28.83100
H  53.85000 19.38000 26.69900
H  54.30600 18.86500 25.01600
H  54.99300 18.05800 26.42200
H  49.26000 13.85100 24.08000
H  46.35800 14.85000 24.10100
H  47.58100 15.84500 22.58800
H  49.22300 15.34100 22.20400
H  48.85000 16.72300 23.27900
H  47.42800 12.64500 23.15700
H  45.90200 12.58200 24.03200
H  47.08100 10.87400 25.21200
H  48.34200 12.02800 25.80200
H  48.57700 11.19300 24.32100
H  42.80900 13.40500 27.26500
H  42.36900 13.46700 28.93600
H  43.38000 12.12600 28.30200
H  45.34300 14.42300 33.05500
H  44.50600 18.49600 34.31900
H  44.60800 17.67300 35.89200
H  43.00100 17.81600 34.92600
Mg 47.00400 34.64300 28.35400
C  45.35600 32.62200 30.57300
C  46.75900 37.24100 30.56900
C  48.08100 36.63900 25.93900
C  46.56200 32.17200 25.94100
N  46.15300 34.86900 30.30700
C  45.54600 33.94800 31.05200
C  45.29700 34.45300 32.55100
C  45.40900 36.02400 32.31200
C  46.18700 36.07400 30.98500
C  44.04500 36.78500 32.22000
C  46.32700 33.76700 33.57500
C  47.46300 34.57700 34.35800
H  47.19600 34.81800 35.86000
N  47.55600 36.62400 28.29200
C  47.45000 37.53100 29.33500
C  48.10200 38.77600 28.93800
C  48.43100 38.62600 27.58100
C  48.01200 37.26600 27.22100
C  48.30500 39.94600 29.88000
C  49.06900 39.61100 26.63000
O  49.40600 39.42300 25.48100
C  49.34400 41.01400 27.18000
N  47.18300 34.47000 26.21000
C  47.64200 35.41000 25.45400
C  47.90200 35.01900 23.98200
C  47.38300 33.55200 23.93600
C  46.87200 33.38000 25.44200
C  47.17700 35.90500 22.96100
C  48.35200 32.42800 23.37900
C  47.77600 31.51300 22.24500
N  46.26600 32.71900 28.27000
C  46.27300 31.77500 27.30900
C  45.77000 30.50800 27.83400
C  45.37600 30.78700 29.10600
C  45.67000 32.16200 29.28400
C  45.82000 29.23800 27.07400
C  44.65500 30.26000 30.29100
O  44.14600 29.20700 30.53600
C  44.60300 31.45000 31.25100
C  45.21000 31.03000 32.53900
O  46.33400 30.46100 32.53000
O  44.43100 31.21500 33.61600
C  45.14300 30.75800 34.82200
H  46.76400 38.11000 31.23000
H  48.40300 37.23100 25.07900
H  46.51700 31.39000 25.18100
H  44.29400 34.17800 32.87700
H  45.97200 36.58700 33.05600
H  44.19300 37.77200 31.78300
H  43.61200 36.90200 33.21300
H  43.45600 36.18600 31.52500
H  46.88400 32.94100 33.13300
H  45.63600 33.53600 34.38700
H  47.85400 35.48600 33.90000
H  48.33600 33.92500 34.32400
H  49.38900 39.95900 29.99000
H  47.83400 39.80800 30.85300
H  48.00900 40.94900 29.57200
H  50.13600 41.01500 27.92900
H  48.41700 41.43400 27.56900
H  49.59800 41.68700 26.36100
H  48.97700 35.08200 23.81400
H  46.44100 33.56000 23.38700
H  46.49500 36.48000 23.58800
H  46.58700 35.40800 22.19000
H  47.75700 36.64200 22.40600
H  48.66800 31.81200 24.22100
H  49.19000 32.94000 22.90500
H  46.85900 31.92600 21.82500
H  47.69800 30.48400 22.59800
H  48.41700 31.44100 21.36700
H  46.73600 29.27900 26.48500
H  44.96000 29.17000 26.40800
H  45.79600 28.31200 27.64700
H  43.62300 31.79900 31.57700
H  44.77200 31.40100 35.62000
H  46.21000 30.97700 34.85900
H  44.97200 29.69700 35.00500

