158

Mg -3.35900 16.96400 26.79100
C  -3.38800 14.96800 29.59000
C  -3.72000 19.83400 28.62500
C  -3.30900 18.73500 23.91000
C  -3.57400 13.94900 24.86300
N  -3.46900 17.26800 28.84300
C  -3.51300 16.34300 29.90200
C  -3.48300 16.99100 31.29600
C  -3.63200 18.49600 30.87100
C  -3.66300 18.56500 29.34700
C  -4.59100 19.37000 31.69700
C  -2.28300 16.59000 32.22600
C  -1.67700 17.45100 33.32700
H  -1.41400 16.87600 34.72000
N  -3.35200 19.02000 26.35900
C  -3.48300 20.05900 27.29600
C  -3.35400 21.37000 26.63400
C  -3.12300 21.05200 25.22200
C  -3.26200 19.57300 25.12100
C  -3.52500 22.75600 27.32300
C  -2.93400 22.02800 24.06500
O  -3.07000 21.61600 22.89200
C  -2.68300 23.43100 24.35700
N  -3.54300 16.35500 24.65000
C  -3.41900 17.36600 23.72600
C  -3.43200 16.78000 22.30400
C  -3.33300 15.21800 22.59700
C  -3.50600 15.10400 24.09500
C  -4.76400 17.30600 21.73300
C  -1.90400 14.84100 21.99400
C  -0.77000 15.33000 22.93000
N  -3.53100 14.93800 27.05200
C  -3.54700 13.83000 26.20800
C  -3.46600 12.52700 26.95800
C  -3.47400 12.97700 28.29200
C  -3.46500 14.39600 28.29000
C  -3.49000 11.14500 26.43400
C  -3.38300 12.56100 29.69100
O  -3.32000 11.45600 30.14000
C  -3.30900 13.75600 30.48400
C  -2.02500 13.60300 31.21400
O  -0.89300 14.05700 30.87500
O  -2.30700 13.11400 32.45200
C  -1.15000 12.96900 33.34500
H  -3.79300 20.67600 29.31700
H  -3.30000 19.22900 22.93600
H  -3.53000 13.06400 24.22300
H  -4.41700 16.71400 31.78500
H  -2.66700 18.94300 31.11100
H  -5.36200 19.90900 31.14600
H  -4.06600 20.21700 32.13700
H  -5.05900 18.84900 32.53300
H  -1.49100 16.44300 31.49100
H  -2.64700 15.68800 32.71800
H  -2.09500 18.45700 33.37200
H  -0.68100 17.69300 32.95900
H  -2.63900 23.36800 27.15100
H  -3.56800 22.56900 28.39600
H  -4.36700 23.31900 26.91800
H  -3.58100 23.86900 24.79000
H  -2.43800 23.95200 23.43100
H  -1.84500 23.57800 25.03800
H  -2.65800 17.20200 21.66300
H  -4.15200 14.66300 22.14000
H  -5.41400 16.49000 21.41600
H  -4.42100 17.83700 20.84400
H  -5.19700 18.07500 22.37200
H  -1.73000 15.37700 21.06100
H  -1.86600 13.77700 21.76000
H  -0.06000 14.51900 23.09300
H  -1.01200 15.60000 23.95800
H  -0.25500 16.17100 22.46700
H  -3.56800 11.08200 25.34800
H  -4.29500 10.55300 26.86900
H  -2.56000 10.59500 26.57900
H  -4.09300 13.67600 31.23600
H  -0.99400 13.81600 34.01300
H  -0.22800 12.73700 32.81200
H  -1.54100 12.15800 33.96000
Mg -12.06300 16.27400 41.14700
C  -9.14500 14.58000 40.33000
C  -10.85400 19.03500 39.62100
C  -15.12400 17.68800 41.29700
C  -13.46500 13.13900 42.11600
N  -10.17600 16.70900 39.98100
C  -9.09500 15.92400 39.94100
C  -7.95000 16.63800 39.29700
C  -8.42200 18.13900 39.15800
C  -9.92400 17.98900 39.53500
C  -7.66000 19.14900 40.13900
C  -7.40700 16.02000 37.93800
C  -6.10700 16.62100 37.55800
H  -5.61100 16.43900 36.12100
N  -12.80900 18.15600 40.70300
C  -12.14400 19.14000 40.09300
C  -13.03100 20.33500 39.97600
C  -14.26800 19.95900 40.58500
C  -14.11300 18.56400 40.94900
C  -12.54100 21.67500 39.43100
C  -15.45100 20.86600 40.80400
O  -15.45200 21.95700 40.29300
C  -16.50300 20.48900 41.72200
N  -14.00700 15.45300 41.55600
C  -15.14100 16.28800 41.54700
C  -16.41400 15.52200 41.88200
C  -15.87400 14.08900 42.22900
C  -14.36700 14.21000 41.92900
C  -17.34900 16.10100 43.01800
C  -16.46700 12.93900 41.30000
C  -16.79600 11.61900 41.93700
N  -11.47100 14.29800 41.40700
C  -12.08800 13.15600 41.80200
C  -11.05800 12.05200 41.85200
C  -9.97400 12.56300 41.28400
C  -10.23000 13.90800 40.98800
C  -11.21400 10.67100 42.49300
C  -8.57400 12.26800 41.00700
O  -7.96800 11.21900 41.26200
C  -7.95500 13.56000 40.48500
C  -6.87300 14.03200 41.39200
O  -7.06900 14.31400 42.58500
O  -5.65300 14.07600 40.77100
C  -4.52400 13.97000 41.70000
H  -10.42800 19.96900 39.24800
H  -16.16100 18.02200 41.21300
H  -13.88400 12.23900 42.57100
H  -7.12100 16.66300 40.00400
H  -8.53400 18.47400 38.12700
H  -7.35700 18.64400 41.05600
H  -8.22700 20.05800 40.34200
H  -6.77600 19.52900 39.62800
H  -8.03200 16.43200 37.14600
H  -7.42500 14.93100 37.89300
H  -5.36900 16.32900 38.30600
H  -6.22400 17.70000 37.66000
H  -13.38300 22.28700 39.10900
H  -11.97200 21.40600 38.54200
H  -11.89300 22.26400 40.08100
H  -17.37900 20.15000 41.17000
H  -16.73600 21.38400 42.29900
H  -16.25100 19.65900 42.38100
H  -16.94300 15.45300 40.93100
H  -15.98400 13.89800 43.29600
H  -17.66300 15.25200 43.62600
H  -18.33700 16.42000 42.68600
H  -16.90000 16.79700 43.72600
H  -15.82200 12.84100 40.42700
H  -17.38200 13.31300 40.84100
H  -16.49300 10.77500 41.31700
H  -17.86000 11.50000 42.14200
H  -16.29200 11.45300 42.88900
H  -11.49400 10.03000 41.65700
H  -11.93300 10.62800 43.31100
H  -10.23400 10.35300 42.84900
H  -7.48900 13.42000 39.51000
H  -4.49800 14.86100 42.32800
H  -3.73600 14.02100 40.95000
H  -4.42700 13.00000 42.18800

