158

Mg 8.69000 2.29400 27.70900
C  10.09900 0.60700 30.53900
C  7.27500 4.49300 29.83700
C  6.95100 3.42300 25.15200
C  9.93300 -0.40400 25.68800
N  8.64500 2.44800 29.85000
C  9.32900 1.74500 30.79300
C  9.27100 2.35000 32.15300
C  8.19700 3.37400 31.94800
C  8.07800 3.51100 30.43600
C  6.86000 3.24100 32.78800
C  10.60300 2.93500 32.62600
C  10.92900 2.82700 34.10100
H  9.85300 2.80000 35.23600
N  7.33200 3.76700 27.51200
C  6.93000 4.63300 28.47100
C  6.12000 5.63200 27.95300
C  6.06900 5.44700 26.54300
C  6.74300 4.10200 26.35700
C  5.30200 6.66700 28.78300
C  5.38600 6.32800 25.40200
O  5.27600 5.98900 24.20700
C  4.79300 7.68700 25.83000
N  8.39700 1.53200 25.63600
C  7.68600 2.24600 24.81800
C  7.84300 1.70200 23.35700
C  8.82200 0.54600 23.59000
C  9.18700 0.61800 24.99600
C  6.49800 1.38300 22.67200
C  10.12900 0.69400 22.72000
C  10.50700 -0.44700 21.78200
N  9.75000 0.46500 27.97800
C  10.11400 -0.51500 27.09500
C  10.82100 -1.53700 27.84100
C  10.88800 -1.08200 29.20400
C  10.16900 0.07700 29.23100
C  11.48900 -2.76300 27.24700
C  11.43400 -1.40000 30.51200
O  12.21600 -2.26900 30.82200
C  10.96400 -0.24700 31.41600
C  10.02400 -0.80300 32.45100
O  8.86200 -1.11200 32.17700
O  10.57100 -0.82400 33.74700
C  9.61700 -1.19600 34.79300
H  7.00500 5.29700 30.52500
H  6.41600 3.89300 24.32300
H  10.30000 -1.21800 25.05900
H  8.93700 1.60800 32.87800
H  8.53200 4.33000 32.35300
H  5.97500 2.99200 32.20200
H  6.70900 4.22400 33.23500
H  7.00400 2.41500 33.48400
H  10.66500 4.00900 32.45500
H  11.40200 2.36100 32.15600
H  11.70500 3.54000 34.37800
H  11.34100 1.81800 34.13000
H  5.79000 7.57800 28.43600
H  5.41300 6.50500 29.85500
H  4.26400 6.65200 28.45100
H  5.57100 8.42400 26.02800
H  4.01900 7.50500 26.57600
H  4.24400 8.12200 24.99400
H  8.21200 2.52100 22.73900
H  8.40900 -0.45500 23.46600
H  6.54400 0.39900 22.20500
H  6.24900 2.10400 21.89300
H  5.69200 1.34900 23.40400
H  11.00600 0.75600 23.36500
H  10.21300 1.61200 22.13800
H  9.65600 -1.10700 21.61200
H  11.35100 -1.08900 22.03600
H  10.83000 -0.00700 20.83900
H  12.46700 -2.44400 26.88700
H  10.82300 -3.28500 26.56000
H  11.69100 -3.54100 27.98300
H  11.82500 0.29800 31.80400
H  9.16500 -2.18200 34.69000
H  9.00600 -0.29400 34.83600
H  10.24500 -1.18900 35.68300
Mg -8.19600 39.52200 42.69900
C  -7.02600 36.38800 41.78400
C  -5.52100 41.00000 41.22100
C  -9.63300 42.40400 43.32500
C  -11.25900 37.98200 43.59700
N  -6.54400 38.81000 41.54000
C  -6.19500 37.48100 41.39300
C  -4.98800 37.37800 40.54600
C  -4.37500 38.84200 40.72800
C  -5.53700 39.64800 41.24700
C  -3.09600 38.96200 41.58900
C  -5.32300 37.01800 39.01300
C  -4.59000 35.72100 38.55800
H  -3.76100 35.75600 37.33000
N  -7.58600 41.52200 42.38900
C  -6.50400 41.92500 41.72800
C  -6.38400 43.35500 41.79200
C  -7.58500 43.82200 42.41000
C  -8.37800 42.64000 42.83300
C  -5.16000 44.12600 41.15800
C  -7.88400 45.28200 42.57500
O  -7.13500 46.12500 42.18600
C  -9.03300 45.72700 43.44700
N  -10.36900 40.17300 43.08500
C  -10.54000 41.41900 43.45800
C  -11.94900 41.66500 43.94100
C  -12.47100 40.18000 43.96200
C  -11.27200 39.33900 43.54900
C  -12.19000 42.42400 45.26500
C  -13.72300 39.97600 43.10500
C  -15.07500 40.43000 43.47400
N  -9.02500 37.54900 42.68000
C  -10.27100 37.11000 43.12800
C  -10.31400 35.64000 43.10100
C  -9.01900 35.33400 42.57000
C  -8.31800 36.54700 42.30900
C  -11.52500 34.78200 43.50100
C  -8.02900 34.27300 42.26000
O  -8.17300 33.10200 42.37300
C  -6.73800 34.90200 41.74700
C  -5.70800 34.57200 42.72300
O  -5.28100 35.33600 43.63000
O  -5.16300 33.29500 42.50100
C  -4.09600 32.84100 43.33900
H  -4.64000 41.45000 40.75800
H  -10.10800 43.37200 43.49700
H  -12.14700 37.54800 44.06300
H  -4.35100 36.61700 40.99600
H  -4.07400 39.27900 39.77600
H  -2.93500 38.00200 42.08100
H  -3.28600 39.69800 42.37000
H  -2.28000 39.28100 40.94100
H  -4.94300 37.82900 38.39100
H  -6.40600 37.08700 38.91000
H  -5.34900 34.98500 38.29400
H  -3.98000 35.32300 39.36900
H  -5.21100 45.21300 41.09900
H  -5.04200 43.79900 40.12500
H  -4.23400 43.88500 41.68000
H  -9.14400 46.81100 43.42900
H  -9.05600 45.35100 44.47000
H  -9.87200 45.36800 42.85100
H  -12.48800 42.26000 43.20400
H  -12.79400 39.88300 44.95900
H  -12.87200 43.26500 45.14600
H  -11.29100 42.80800 45.74800
H  -12.64100 41.69200 45.93400
H  -13.76900 38.89200 43.00400
H  -13.58000 40.38800 42.10600
H  -15.46800 41.06600 42.68200
H  -15.03500 41.03600 44.38000
H  -15.70100 39.54500 43.59000
H  -11.18500 33.75600 43.64400
H  -12.35300 34.90900 42.80300
H  -11.81100 35.21500 44.45900
H  -6.43600 34.50700 40.77700
H  -4.43100 32.99900 44.36500
H  -3.29000 33.56000 43.19300
H  -3.74500 31.83100 43.12900

