158

Mg 47.71500 25.16900 28.31800
C  48.89300 27.14800 30.98500
C  46.85100 22.70100 30.57900
C  47.42500 23.04900 25.74000
C  49.07500 27.46700 26.07800
N  47.78100 25.05400 30.52700
C  48.33600 25.92000 31.43000
C  48.16300 25.39900 32.88700
C  47.42700 24.03800 32.68900
C  47.33400 23.92800 31.16600
C  48.12200 22.85000 33.40400
C  47.50400 26.33900 33.93400
C  46.47200 25.96700 34.94500
H  46.57000 26.55300 36.39500
N  47.13300 23.22100 28.18600
C  46.77100 22.35200 29.20500
C  46.24400 21.12300 28.69300
C  46.51400 21.15000 27.29800
C  46.98900 22.53700 26.99800
C  45.67000 20.06800 29.55400
C  46.31000 20.10500 26.23700
O  46.66700 20.26800 25.08700
C  45.82800 18.75800 26.72700
N  48.38000 25.18600 26.19000
C  47.91700 24.24300 25.30500
C  48.09500 24.60200 23.82600
C  48.42100 26.10200 23.96200
C  48.62100 26.29500 25.48900
C  49.24300 23.70800 23.27400
C  47.31800 27.04000 23.37300
C  46.04100 27.00800 24.13000
N  48.71100 26.96800 28.40100
C  49.15700 27.83800 27.38700
C  49.66100 28.98100 28.03000
C  49.45400 28.81300 29.34200
C  49.05700 27.47800 29.59600
C  50.22500 30.18900 27.49700
C  49.59500 29.52200 30.64000
O  49.96800 30.66900 30.89100
C  49.28000 28.40500 31.72100
C  50.53000 28.14700 32.46700
O  51.51200 27.61700 32.03600
O  50.37600 28.55700 33.74200
C  51.42400 28.16200 34.74200
H  46.36500 22.04800 31.30800
H  47.26500 22.37700 24.89400
H  49.31600 28.20700 25.31200
H  49.15800 25.18900 33.27800
H  46.43200 24.12400 33.12600
H  48.33000 23.17300 34.42400
H  48.98700 22.48000 32.85400
H  47.40000 22.03400 33.43800
H  47.21500 27.20600 33.34100
H  48.35400 26.55200 34.58300
H  46.44000 24.88500 35.08000
H  45.46000 26.23800 34.64500
H  44.59300 20.05600 29.38900
H  45.90200 20.17600 30.61400
H  46.09400 19.12500 29.20800
H  46.47300 18.10300 27.31400
H  45.50500 18.18000 25.86100
H  44.85600 18.94900 27.18000
H  47.13900 24.46800 23.31900
H  49.37600 26.36400 23.50700
H  49.73100 24.16100 22.41100
H  48.79700 22.76000 22.97300
H  50.02900 23.54400 24.01100
H  47.07200 26.89200 22.32100
H  47.82300 27.98300 23.58300
H  46.08400 26.45700 25.07000
H  45.33400 26.39800 23.56600
H  45.65900 28.01000 24.32400
H  51.10600 30.35900 28.11600
H  49.48500 30.98000 27.61600
H  50.60100 30.01900 26.48800
H  48.49600 28.66600 32.43100
H  52.32300 27.99200 34.15000
H  51.10600 27.21800 35.18600
H  51.58000 29.03400 35.37800
Mg -2.40000 33.92100 27.68900
C  -4.09400 31.86200 29.95800
C  -1.31500 35.81000 30.26300
C  -1.28000 36.17700 25.43500
C  -3.96800 32.22800 25.08500
N  -2.72000 33.80700 29.83200
C  -3.36900 32.86800 30.57600
C  -3.17400 33.00600 32.09200
C  -2.29600 34.35500 32.15500
C  -2.07500 34.69700 30.66000
C  -2.97000 35.56200 33.00600
C  -2.55400 31.79700 32.83100
C  -3.15500 31.30400 34.17400
H  -2.14100 31.25300 35.33600
N  -1.33900 35.68700 27.85600
C  -0.86000 36.22000 28.98400
C  -0.00500 37.31600 28.63500
C  0.04400 37.41400 27.19600
C  -0.90800 36.46000 26.72100
C  0.69300 38.04100 29.68700
C  0.90900 38.30300 26.35000
O  0.83600 38.40900 25.12000
C  1.99800 39.09700 27.03300
N  -2.55700 34.07200 25.57800
C  -2.01700 35.13800 24.86500
C  -2.19500 34.93300 23.35800
C  -2.92800 33.56100 23.26800
C  -3.21900 33.28800 24.73700
C  -3.01900 36.10200 22.63400
C  -1.99200 32.40800 22.73900
C  -0.68200 31.92400 23.47900
N  -3.65100 32.27800 27.49900
C  -4.21800 31.68600 26.38300
C  -5.15800 30.70000 26.82500
C  -5.04900 30.65100 28.23100
C  -4.14600 31.66100 28.59000
C  -6.00600 29.89200 25.97100
C  -5.61200 30.02400 29.43500
O  -6.54100 29.18800 29.57700
C  -4.88000 30.69300 30.62800
C  -5.90600 31.06900 31.65900
O  -6.43400 32.17800 31.81300
O  -5.92600 29.97600 32.54300
C  -6.94700 30.05700 33.55100
H  -0.96700 36.42500 31.09600
H  -0.94800 36.92200 24.70800
H  -4.54600 31.69700 24.32500
H  -4.11600 33.15400 32.61900
H  -1.36000 34.17100 32.68300
H  -3.69500 35.93100 32.28100
H  -2.23000 36.29700 33.32200
H  -3.49600 35.12500 33.85500
H  -1.50800 32.00100 33.05900
H  -2.56100 31.06500 32.02300
H  -3.53000 30.29300 34.01500
H  -4.01500 31.87100 34.53000
H  0.47200 37.90000 30.74500
H  0.40000 39.08400 29.56300
H  1.73900 37.78200 29.52100
H  1.53900 39.72700 27.79400
H  2.46200 39.75000 26.29400
H  2.76600 38.47900 27.49900
H  -1.17500 34.85800 22.98200
H  -3.74700 33.68100 22.55800
H  -2.23900 36.83000 22.40700
H  -3.74900 36.59900 23.27300
H  -3.44800 35.79600 21.68000
H  -1.79200 32.72000 21.71400
H  -2.68200 31.56900 22.64500
H  -0.80900 30.84300 23.53500
H  -0.64900 32.29400 24.50400
H  0.29600 32.15000 23.05400
H  -5.72900 28.89100 26.30000
H  -5.79800 29.82000 24.90300
H  -7.04600 30.11800 26.20800
H  -4.04800 30.01800 30.82700
H  -7.56400 30.94500 33.40800
H  -6.45300 30.18000 34.51500
H  -7.53700 29.14100 33.55000

