158

Mg 40.49200 9.01300 28.83900
C  42.61300 10.37500 31.26000
C  38.90300 7.18600 31.28500
C  38.71600 7.43000 26.38600
C  42.91300 9.91000 26.42900
N  40.79400 8.65000 31.09800
C  41.54300 9.57000 31.80400
C  41.04500 9.55000 33.29200
C  40.02500 8.31800 33.32800
C  39.89700 7.96800 31.84300
C  40.33500 7.06400 34.21200
C  40.49600 10.92400 33.68400
C  40.02300 11.10100 35.12800
H  40.81500 11.91500 36.18900
N  39.02300 7.61700 28.75400
C  38.51200 6.93500 29.88300
C  37.34800 6.13600 29.46700
C  37.19000 6.34300 28.06900
C  38.35900 7.14600 27.68100
C  36.40000 5.39700 30.36100
C  36.04500 5.95400 27.14700
O  36.07700 6.29500 25.94900
C  34.86400 5.02500 27.53100
N  40.83500 8.68200 26.67700
C  39.92200 7.97100 25.92200
C  40.27100 8.11000 24.40900
C  41.65600 8.93000 24.46000
C  41.83600 9.19600 25.96200
C  40.37100 6.73100 23.60900
C  41.74400 10.16700 23.53200
C  41.04200 11.53100 23.91800
N  42.32700 10.00600 28.77100
C  43.14600 10.36100 27.73500
C  44.20900 11.08200 28.16100
C  44.04000 11.23500 29.54000
C  42.88900 10.47400 29.88500
C  45.37600 11.47400 27.32200
C  44.54700 11.76400 30.79500
O  45.46900 12.51200 31.07600
C  43.61400 11.34000 31.91200
C  44.31200 10.78300 33.12400
O  44.46500 9.61100 33.32500
O  44.59900 11.74100 34.03300
C  45.08100 11.29100 35.32800
H  38.33700 6.65200 32.05100
H  38.10800 7.07200 25.55200
H  43.72200 10.16700 25.74200
H  41.93300 9.28000 33.86400
H  39.04600 8.75900 33.51900
H  41.28900 7.11800 34.73700
H  40.17600 6.19300 33.57600
H  39.53600 7.00400 34.95100
H  39.62600 11.00800 33.03200
H  41.20300 11.71700 33.43900
H  40.07600 10.10000 35.55600
H  39.01900 11.52300 35.17000
H  36.81000 5.44600 31.36900
H  36.14000 4.36700 30.11800
H  35.55800 6.08800 30.31800
H  35.31400 4.12800 27.95500
H  34.32300 4.59700 26.68800
H  34.24000 5.45100 28.31700
H  39.49700 8.69700 23.91500
H  42.44500 8.28500 24.07400
H  39.84400 6.83000 22.66000
H  39.88600 5.89700 24.11700
H  41.42300 6.58900 23.36000
H  41.38600 9.84000 22.55600
H  42.79000 10.41600 23.35200
H  40.41100 11.48000 24.80500
H  40.36100 11.84800 23.12800
H  41.82800 12.26800 24.08000
H  45.13400 12.02700 26.41500
H  45.97000 10.61100 27.02100
H  46.01000 12.08500 27.96500
H  43.04100 12.19900 32.26200
H  44.19400 10.95600 35.86600
H  45.62900 12.02000 35.92500
H  45.80000 10.48400 35.19200
Mg 46.66700 16.19100 27.56500
C  44.92900 15.80800 30.50600
C  48.97600 18.29900 29.13700
C  48.01800 17.14600 24.49400
C  44.15400 14.55700 25.88400
N  46.92900 16.95500 29.65400
C  46.16100 16.50900 30.72100
C  46.77800 17.01300 32.03500
C  47.99300 17.91900 31.55300
C  47.96400 17.75800 30.02000
C  47.92700 19.38600 31.96800
C  47.10300 15.83500 33.00000
C  46.39600 16.00100 34.38700
H  46.05100 17.40700 34.87900
N  48.32100 17.39500 26.92800
C  49.21700 18.00700 27.76600
C  50.27500 18.57600 27.01500
C  49.95500 18.45100 25.62300
C  48.69100 17.65600 25.64300
C  51.38800 19.42600 27.66000
C  50.72800 18.89900 24.36200
O  50.33900 18.57100 23.25300
C  51.93500 19.79800 24.56800
N  46.14200 15.88300 25.49700
C  46.89300 16.32100 24.44500
C  46.38900 15.77500 23.15600
C  45.15900 14.86700 23.53300
C  45.14900 15.00700 25.07300
C  46.12200 16.85800 22.06000
C  45.16000 13.44500 22.94600
C  45.22900 13.31100 21.38100
N  44.98100 15.15800 28.11500
C  44.02700 14.60800 27.29300
C  42.89000 14.10600 28.07500
C  43.30100 14.44700 29.37900
C  44.45300 15.24800 29.30400
C  41.60700 13.51300 27.53600
C  42.86100 14.53200 30.75600
O  41.81800 14.15000 31.29600
C  43.93800 15.35700 31.55500
C  43.12000 16.35600 32.34100
O  42.92400 17.49500 31.92200
O  42.80100 15.90500 33.58300
C  41.97400 16.70800 34.44400
H  49.77600 18.83600 29.64900
H  48.38800 17.37500 23.49200
H  43.32400 13.99900 25.44500
H  45.95200 17.61900 32.40500
H  48.92800 17.50000 31.92300
H  48.82200 19.51700 32.57500
H  46.99900 19.51500 32.52600
H  47.99400 20.07300 31.12400
H  48.17500 15.89700 33.18800
H  46.94300 14.89800 32.46600
H  47.08400 15.53500 35.09300
H  45.51200 15.36900 34.30900
H  51.45800 19.43800 28.74800
H  51.19700 20.48800 27.50400
H  52.32500 19.11500 27.19900
H  52.66900 19.25600 25.16400
H  51.54700 20.64800 25.12900
H  52.33500 20.09900 23.60000
H  47.25000 15.17600 22.85900
H  44.27800 15.33600 23.09400
H  45.19500 16.73600 21.50100
H  46.85200 16.71800 21.26300
H  46.22700 17.92200 22.27500
H  44.33100 12.79000 23.21300
H  45.98400 12.97200 23.48100
H  46.15100 12.75900 21.19500
H  45.21600 14.28000 20.88200
H  44.36000 12.77800 20.99600
H  41.97100 12.83400 26.76500
H  40.87000 14.26200 27.24500
H  41.22500 12.83300 28.29700
H  44.38500 14.79400 32.37400
H  42.45900 16.57800 35.41100
H  41.05100 16.16800 34.65500
H  41.63100 17.69000 34.11700

