158

Mg 42.09500 40.32400 26.83400
C  41.37700 42.88600 29.24800
C  43.74900 38.65600 29.37700
C  43.16100 38.32200 24.52400
C  40.79500 42.57200 24.46200
N  42.53300 40.73400 29.08800
C  42.04500 41.76100 29.81100
C  42.07300 41.41400 31.28700
C  42.96400 40.15500 31.37800
C  43.14000 39.79400 29.83100
C  44.38900 40.38900 31.94100
C  40.63300 41.20400 31.95700
C  40.50500 42.16600 33.21000
H  39.73500 41.62600 34.44500
N  43.09500 38.64100 26.93300
C  43.65300 38.10000 28.08300
C  44.20800 36.78800 27.71600
C  44.08100 36.69300 26.28300
C  43.42700 37.90400 25.82600
C  44.79900 35.85100 28.69600
C  44.57200 35.59500 25.39700
O  44.47900 35.64100 24.14600
C  45.26900 34.44500 26.06700
N  41.95100 40.43500 24.77400
C  42.44600 39.44800 24.00800
C  42.13100 39.77800 22.45700
C  41.49100 41.16000 22.42200
C  41.39700 41.41700 23.95500
C  43.36600 39.59800 21.45100
C  40.10000 41.14000 21.69700
C  39.62300 42.44900 20.99400
N  41.18600 42.29500 26.80300
C  40.61800 43.01800 25.77100
C  40.11800 44.25000 26.23500
C  40.40200 44.21700 27.61000
C  41.07900 43.01200 27.87400
C  39.65300 45.44400 25.39100
C  40.26100 45.03600 28.81600
O  39.80900 46.17500 28.92500
C  40.79900 44.04800 29.92200
C  41.73000 44.87900 30.76500
O  42.97600 44.92100 30.75100
O  40.91800 45.42200 31.75200
C  41.59400 45.93200 32.98400
H  44.14200 38.13700 30.25300
H  43.41900 37.70300 23.66300
H  40.40900 43.16100 23.62700
H  42.58300 42.14000 31.92000
H  42.47500 39.30500 31.85400
H  44.88400 39.42000 32.00200
H  44.45300 40.86400 32.92000
H  44.98400 40.96000 31.22900
H  40.45500 40.15800 32.20700
H  39.95100 41.50600 31.16200
H  40.05800 43.08100 32.82400
H  41.41900 42.57500 33.64200
H  45.88500 35.90300 28.62300
H  44.46800 34.82800 28.52000
H  44.45300 36.11800 29.69500
H  46.21800 34.76600 26.49600
H  45.30700 33.70700 25.26600
H  44.62500 33.85900 26.72200
H  41.38600 39.03800 22.16500
H  42.17600 41.87600 21.96800
H  44.22400 39.75100 22.10700
H  43.53000 40.30100 20.63500
H  43.41500 38.54600 21.16800
H  39.32300 40.78400 22.37300
H  40.16900 40.38400 20.91500
H  38.67900 42.70300 21.47700
H  39.52100 42.14700 19.95200
H  40.35000 43.23600 21.19100
H  39.06300 46.05900 26.07000
H  39.09200 45.15800 24.50100
H  40.52100 45.98400 25.01100
H  40.06100 43.59800 30.58600
H  42.68400 45.94800 33.00100
H  41.24500 45.35400 33.84000
H  41.29100 46.95500 33.20400
Mg 28.67700 57.02100 40.44400
C  25.69700 55.27900 39.89400
C  30.30100 54.28600 39.11000
C  31.51200 58.82000 40.20900
C  26.91600 59.74100 41.49500
N  27.98700 55.08900 39.51900
C  26.73700 54.55700 39.39900
C  26.75200 53.13100 38.82800
C  28.28800 52.81500 38.63500
C  28.89300 54.13400 39.06200
C  28.86900 51.54000 39.25000
C  25.94900 52.84600 37.58400
C  25.82600 53.91700 36.50400
H  26.15600 53.58300 35.04300
N  30.61100 56.60600 39.76900
C  31.11600 55.43300 39.30700
C  32.52400 55.53400 39.12900
C  32.84500 56.84100 39.19100
C  31.66600 57.52500 39.67400
C  33.38300 54.35400 38.84600
C  34.20700 57.42000 38.84500
O  35.25600 56.78800 38.56000
C  34.48700 58.83400 38.93900
N  29.15600 59.01800 40.85300
C  30.37200 59.49100 40.77200
C  30.44000 61.00100 41.19300
C  29.01900 61.21600 41.83100
C  28.31000 59.89900 41.44500
C  31.63200 61.43800 42.01500
C  28.39800 62.53900 41.40100
C  28.25100 63.59200 42.57500
N  26.73900 57.47200 40.72300
C  26.12500 58.66600 41.16100
C  24.64200 58.51300 41.11400
C  24.48300 57.12200 40.75000
C  25.73100 56.59300 40.44900
C  23.54700 59.57300 41.35100
C  23.42000 56.12800 40.52100
O  22.20600 56.16300 40.75500
C  24.20000 54.90500 39.90400
C  23.84300 53.63700 40.57500
O  23.16400 52.72900 40.04600
O  24.49500 53.54400 41.75800
C  24.64500 52.28900 42.40200
H  30.85400 53.44800 38.68000
H  32.44000 59.39500 40.18900
H  26.34800 60.53100 41.99000
H  26.39900 52.52000 39.65900
H  28.50000 52.77900 37.56600
H  28.61200 50.79200 38.50100
H  28.40400 51.29500 40.20500
H  29.94300 51.43700 39.40800
H  24.91100 52.59800 37.80800
H  26.46000 52.10200 36.97300
H  26.48100 54.76400 36.70700
H  24.83700 54.37200 36.56200
H  34.39000 54.54300 38.47600
H  32.85000 53.82100 38.05800
H  33.40300 53.69900 39.71800
H  34.62000 59.05400 39.99800
H  33.65300 59.40500 38.53100
H  35.46100 59.11100 38.53500
H  30.52700 61.62900 40.30600
H  29.06200 61.26700 42.91900
H  32.08500 62.29000 41.50800
H  32.35900 60.64300 42.17600
H  31.27800 61.82100 42.97300
H  27.34800 62.40500 41.14200
H  28.97500 63.05600 40.63400
H  28.84500 63.32500 43.45000
H  27.22400 63.73800 42.90900
H  28.38300 64.59100 42.16000
H  22.68200 59.12500 41.84000
H  23.32500 60.22800 40.50800
H  23.86500 60.21000 42.17600
H  23.94200 54.79600 38.85100
H  25.55300 52.21100 43.00000
H  24.62200 51.50800 41.64200
H  23.77700 52.10700 43.03600

