158

Mg 16.88100 -1.24900 28.24800
C  15.60100 0.71300 30.86500
C  18.86800 -2.93300 30.50700
C  18.11600 -3.16400 25.67800
C  15.18500 0.75600 26.01700
N  17.23500 -1.11600 30.40500
C  16.55200 -0.25800 31.25800
C  17.03300 -0.54600 32.69300
C  18.21400 -1.48800 32.58100
C  18.15600 -1.84900 31.07100
C  19.68700 -0.97100 32.82400
C  15.87200 -0.99500 33.65300
C  16.06200 -0.60200 35.13800
H  17.34400 0.23300 35.56000
N  18.14600 -2.85000 28.11100
C  18.76600 -3.42500 29.20300
C  19.53200 -4.59400 28.73900
C  19.31600 -4.78500 27.32200
C  18.53600 -3.55300 26.98200
C  20.33400 -5.35900 29.84800
C  19.73200 -5.89900 26.36900
O  19.55200 -5.89200 25.15100
C  20.44300 -7.03100 26.85700
N  16.77400 -1.12300 26.13700
C  17.31100 -2.11200 25.33900
C  16.91300 -1.78500 23.92400
C  15.86200 -0.65600 24.02800
C  15.90800 -0.27900 25.47900
C  18.15700 -1.54500 23.04900
C  14.44800 -1.11100 23.64000
C  13.83400 -0.32600 22.44300
N  15.59500 0.37600 28.37600
C  15.05300 1.07600 27.41600
C  14.27600 2.15000 27.96600
C  14.45000 1.99200 29.33500
C  15.31500 0.94400 29.54800
C  13.47900 3.03100 27.23900
C  14.05000 2.58200 30.54100
O  13.22800 3.49300 30.72200
C  14.89600 1.79100 31.72800
C  15.80500 2.87500 32.49900
O  16.67500 3.55700 31.94900
O  15.51000 2.98100 33.82800
C  16.25900 4.11700 34.39100
H  19.45400 -3.42600 31.28600
H  18.52500 -3.70900 24.82500
H  14.62800 1.39400 25.32900
H  17.51500 0.38200 33.00000
H  18.20300 -2.32900 33.27400
H  20.21000 -1.79700 33.30700
H  19.74900 -0.09900 33.47400
H  20.17900 -0.72600 31.88200
H  15.90100 -2.08100 33.56400
H  14.92400 -0.66000 33.23200
H  16.06000 -1.49300 35.76600
H  15.11900 -0.08900 35.33000
H  19.67600 -5.35000 30.71700
H  21.16800 -4.79100 30.26000
H  20.60100 -6.38800 29.60900
H  20.90600 -7.56400 26.02600
H  19.73700 -7.73400 27.29800
H  21.20300 -6.72200 27.57500
H  16.34300 -2.63300 23.54300
H  16.15800 0.22200 23.45400
H  18.28000 -0.46900 22.93000
H  18.03300 -2.10200 22.12000
H  19.09700 -1.91300 23.46100
H  13.87700 -1.02500 24.56500
H  14.40200 -2.19200 23.50500
H  14.40800 0.59100 22.31200
H  12.79500 -0.17000 22.73000
H  13.82400 -0.94800 21.54700
H  12.45500 2.65800 27.22400
H  13.84100 3.27100 26.23900
H  13.57800 3.91400 27.87100
H  14.18400 1.24300 32.34600
H  16.10600 4.16000 35.46900
H  15.86200 4.96600 33.83400
H  17.33300 4.04000 34.22300
Mg -11.74700 38.50900 41.97300
C  -9.92700 35.79400 40.84000
C  -9.55800 40.64400 40.42300
C  -14.03700 40.96100 42.23600
C  -13.94400 36.17900 43.22200
N  -9.97900 38.24600 40.73200
C  -9.33400 37.06200 40.44600
C  -7.99500 37.28700 39.69400
C  -7.82100 38.83200 39.79900
C  -9.17400 39.28200 40.35000
C  -6.66200 39.24600 40.68100
C  -8.11100 36.72900 38.21100
C  -7.07900 35.70600 37.75200
H  -6.16200 36.22300 36.61600
N  -11.84900 40.55200 41.26300
C  -10.80500 41.24100 40.75900
C  -11.16900 42.57700 40.70500
C  -12.51700 42.71400 41.15100
C  -12.87900 41.40300 41.63200
C  -10.35000 43.67100 40.03700
C  -13.38200 44.04000 41.19100
O  -12.87700 45.08000 40.87700
C  -14.82100 44.12800 41.55100
N  -13.62600 38.60900 42.65300
C  -14.40000 39.68700 42.66600
C  -15.86600 39.36600 42.97500
C  -15.85400 37.87000 43.40400
C  -14.36900 37.48800 43.08700
C  -16.52500 40.37700 44.09200
C  -16.84400 36.98300 42.71000
C  -17.84400 36.20300 43.65800
N  -11.84000 36.41000 42.20400
C  -12.75700 35.61700 42.85700
C  -12.41600 34.24900 42.82400
C  -11.27100 34.18800 42.04900
C  -10.97200 35.58900 41.69600
C  -13.20200 33.11600 43.36900
C  -10.27400 33.42200 41.40900
O  -10.03400 32.24900 41.46400
C  -9.39000 34.39700 40.52900
C  -7.98500 34.13500 40.86300
O  -7.23000 33.50600 40.13800
O  -7.71700 34.72500 42.09100
C  -6.25100 34.77500 42.37900
H  -8.70200 41.28900 40.21800
H  -14.78700 41.74400 42.36200
H  -14.74800 35.55900 43.62200
H  -7.19300 36.76600 40.21500
H  -7.62200 39.30300 38.83600
H  -5.95000 38.48800 41.00700
H  -7.06500 39.74500 41.56200
H  -6.10200 39.97700 40.09900
H  -8.00000 37.58700 37.54700
H  -9.13300 36.40000 38.02600
H  -7.63700 34.83500 37.40900
H  -6.50600 35.32000 38.59500
H  -10.90100 43.95200 39.14000
H  -9.37300 43.33800 39.68600
H  -10.44100 44.53400 40.69700
H  -15.41900 43.45500 40.93700
H  -15.24300 45.10700 41.32200
H  -14.81800 43.91900 42.62100
H  -16.36400 39.47100 42.01100
H  -15.89200 37.80700 44.49100
H  -15.85500 41.09000 44.57200
H  -16.90400 39.96400 45.02600
H  -17.33600 40.92800 43.61500
H  -16.32800 36.20700 42.14300
H  -17.49900 37.56200 42.05900
H  -17.69000 36.34500 44.72800
H  -17.82600 35.14900 43.38400
H  -18.86000 36.56600 43.50500
H  -13.32600 33.25700 44.44300
H  -12.72600 32.19600 43.02900
H  -14.18600 33.22800 42.91200
H  -9.51000 34.12100 39.48100
H  -5.74200 35.47800 41.72000
H  -5.88800 33.75900 42.22600
H  -6.12500 34.98700 43.44100

