158

Mg 40.75300 7.14300 28.90800
C  42.37900 8.43100 31.69900
C  38.43000 5.78100 31.15600
C  39.42900 5.74700 26.25000
C  43.24600 8.47400 26.99800
N  40.45900 7.12200 31.24900
C  41.21200 7.79500 32.10600
C  40.53800 7.91400 33.44700
C  39.37100 6.83100 33.30500
C  39.42300 6.47600 31.81300
C  39.57400 5.58100 34.17000
C  40.01200 9.33400 33.69200
C  39.94600 9.75400 35.16300
H  40.99500 10.69100 35.80800
N  39.17800 5.79300 28.70200
C  38.32800 5.43500 29.74800
C  37.22900 4.65400 29.13700
C  37.52300 4.59400 27.70500
C  38.70500 5.40100 27.47400
C  36.09600 4.10000 29.94300
C  36.71100 4.02100 26.54300
O  37.08000 3.95500 25.37900
C  35.49000 3.34900 26.93000
N  41.48600 6.75300 26.93200
C  40.61400 6.40700 25.98700
C  41.11200 6.57400 24.54600
C  42.11100 7.70600 24.84300
C  42.34100 7.67400 26.33700
C  41.69800 5.30500 23.89200
C  41.87500 9.09900 24.27200
C  40.64900 9.81300 24.79000
N  42.47800 8.15800 29.18300
C  43.42800 8.65000 28.34300
C  44.50300 9.34300 29.07000
C  44.11200 9.27600 30.42000
C  42.84900 8.60000 30.41400
C  45.72200 9.93000 28.48100
C  44.47200 9.68600 31.77100
O  45.35900 10.40400 32.19100
C  43.37000 9.15500 32.61700
C  43.94700 8.17000 33.57300
O  44.37500 7.07800 33.29500
O  43.78700 8.52800 34.90800
C  44.15600 7.58300 35.97100
H  37.65800 5.32800 31.78100
H  39.05500 5.34600 25.30600
H  43.92900 9.01700 26.34100
H  41.25600 7.51100 34.16200
H  38.36500 7.25000 33.29100
H  39.26700 4.71600 33.58300
H  39.05100 5.61700 35.12600
H  40.64300 5.56800 34.38500
H  38.95700 9.40600 33.42800
H  40.59000 10.10300 33.18000
H  39.90800 8.82100 35.72400
H  38.98500 10.25800 35.27500
H  35.23400 4.71300 29.68300
H  36.23200 3.96500 31.01600
H  35.86100 3.05200 29.75400
H  35.76400 2.72700 27.78200
H  35.03800 2.79300 26.10800
H  34.78000 4.12000 27.22800
H  40.19800 6.78800 23.99100
H  43.09600 7.40300 24.48800
H  42.73300 5.31100 23.55100
H  41.15100 5.14600 22.96300
H  41.55800 4.46200 24.56800
H  41.57800 8.84600 23.25400
H  42.79700 9.67200 24.37000
H  40.29600 9.37400 25.72300
H  39.85000 9.83400 24.05000
H  40.97700 10.84500 24.91900
H  46.05900 10.70400 29.17000
H  45.44900 10.48600 27.58400
H  46.54800 9.27000 28.21800
H  42.79600 9.96300 33.07200
H  44.59000 6.70400 35.49400
H  43.40800 7.19800 36.66400
H  44.98500 8.06200 36.49100
Mg 46.28300 24.27300 28.58400
C  46.68200 26.89200 30.93200
C  45.46600 22.11800 31.10300
C  46.19000 21.91600 26.39300
C  47.95700 26.42100 26.19000
N  46.23100 24.53400 30.68300
C  46.32700 25.69200 31.45600
C  46.03600 25.41700 32.91500
C  46.00400 23.82900 33.01200
C  45.84000 23.44000 31.52100
C  47.09700 23.15200 33.87300
C  44.74000 26.10800 33.41400
C  44.92400 26.86200 34.85700
H  44.09300 26.60000 36.07700
N  45.75100 22.29600 28.69500
C  45.43500 21.57500 29.82600
C  45.09000 20.23200 29.43800
C  45.26400 20.20300 28.07700
C  45.74900 21.48800 27.62100
C  44.68200 19.11000 30.39900
C  44.95100 19.09400 27.15100
O  45.23400 19.10000 25.92400
C  44.12200 17.88900 27.62900
N  47.10700 24.19900 26.61300
C  46.83900 23.05800 25.90300
C  47.39800 23.10700 24.50300
C  47.80600 24.54500 24.33700
C  47.67700 25.11600 25.80900
C  48.45800 22.01700 24.14000
C  47.00200 25.34300 23.28100
C  45.60700 25.94600 23.54500
N  47.00400 26.34300 28.43400
C  47.69800 27.03300 27.42900
C  47.80200 28.41700 27.90600
C  47.59200 28.40300 29.30500
C  47.12000 27.11000 29.59500
C  48.27300 29.61300 27.07100
C  47.68700 29.10700 30.59700
O  47.94900 30.25800 30.69200
C  47.22400 28.08700 31.72100
C  48.43900 27.81600 32.49000
O  49.52400 27.40400 32.00200
O  48.25400 28.02700 33.84600
C  49.39800 27.79300 34.71000
H  45.32600 21.48100 31.97900
H  46.29200 21.10300 25.67100
H  48.48200 27.11800 25.53300
H  46.97500 25.72200 33.37800
H  45.09800 23.51700 33.53200
H  47.37700 22.21200 33.39700
H  46.57800 22.90900 34.80100
H  47.90700 23.85200 34.07600
H  43.92800 25.41900 33.64700
H  44.32600 26.83900 32.71900
H  44.80300 27.90700 34.57200
H  45.89900 26.60300 35.26800
H  43.66900 18.80400 30.13700
H  44.82500 19.34800 31.45400
H  45.24900 18.22800 30.10100
H  44.57300 17.41900 28.50300
H  44.04900 17.19100 26.79500
H  43.06300 18.12600 27.73400
H  46.52200 22.91800 23.88200
H  48.86300 24.58800 24.07400
H  48.69900 21.39700 25.00300
H  49.45500 22.39800 23.92300
H  48.06000 21.41700 23.32200
H  46.82400 24.61000 22.49400
H  47.62400 26.14200 22.87800
H  45.02600 25.33100 24.23200
H  44.98200 25.90200 22.65300
H  45.55000 26.99600 23.83400
H  48.03000 30.59500 27.47700
H  48.00600 29.54600 26.01600
H  49.35200 29.53400 27.20500
H  46.47300 28.59200 32.32800
H  50.25400 27.32000 34.23000
H  49.04100 27.25100 35.58600
H  49.70200 28.76800 35.09300

