158

Mg 1.78900 -2.87200 44.84300
C  5.09500 -2.21700 44.45500
C  1.00300 -0.33800 42.81000
C  -1.41500 -3.99200 44.75300
C  2.74500 -5.87100 46.46400
N  2.90000 -1.52800 43.52600
C  4.21900 -1.46200 43.56900
C  4.74100 -0.42500 42.47300
C  3.38600 0.29900 42.13500
C  2.35800 -0.54700 42.89000
C  3.25300 1.79800 42.42100
C  5.42200 -1.02500 41.18900
C  6.95000 -0.65700 41.10400
H  7.55100 -0.31900 39.74400
N  0.04700 -2.16500 44.01000
C  -0.08200 -1.01100 43.26500
C  -1.50000 -0.75500 43.04900
C  -2.23600 -1.75200 43.71700
C  -1.26500 -2.64400 44.19900
C  -2.00800 0.43200 42.26500
C  -3.74200 -1.83700 43.89100
O  -4.48800 -0.95600 43.47500
C  -4.34700 -2.88400 44.76200
N  0.79500 -4.83000 45.31900
C  -0.51900 -4.94800 45.37900
C  -0.94000 -6.38200 45.77200
C  0.38700 -6.94200 46.37700
C  1.40000 -5.78600 46.03500
C  -2.15200 -6.53800 46.74600
C  0.77600 -8.37300 45.86000
C  -0.22600 -9.47900 46.07700
N  3.56700 -3.80300 45.53500
C  3.79700 -4.92600 46.24000
C  5.27800 -5.00600 46.48800
C  5.81900 -3.91800 45.87000
C  4.76800 -3.28500 45.21900
C  6.03500 -6.25200 46.94200
C  7.04100 -3.19400 45.59800
O  8.18000 -3.48800 45.86700
C  6.56700 -2.12700 44.53600
C  7.13000 -0.82000 44.87400
O  8.11600 -0.39400 44.37600
O  6.26900 -0.08100 45.67400
C  6.59300 1.31100 45.81500
H  0.78600 0.53700 42.19300
H  -2.44200 -4.35700 44.81900
H  3.19800 -6.71600 46.98700
H  5.37400 0.16200 43.13800
H  3.15500 0.15700 41.07900
H  4.25000 2.23500 42.37000
H  2.80600 1.92100 43.40800
H  2.61300 2.26100 41.66900
H  4.91800 -0.75500 40.26100
H  5.29900 -2.10000 41.32700
H  7.53800 -1.46600 41.53800
H  7.14300 0.20300 41.74500
H  -2.90200 0.19500 41.68800
H  -1.23000 0.77000 41.58100
H  -2.35200 1.18300 42.97700
H  -4.58100 -3.75500 44.15000
H  -5.29900 -2.40600 44.99600
H  -3.80900 -3.08200 45.68900
H  -1.20000 -6.94600 44.87600
H  0.30500 -7.00800 47.46200
H  -1.83300 -6.64100 47.78300
H  -2.70500 -7.42800 46.44600
H  -2.80000 -5.66300 46.80800
H  1.75800 -8.58700 46.28200
H  1.02200 -8.21600 44.81000
H  -0.48600 -9.91500 45.11200
H  -1.14700 -9.15800 46.56400
H  0.16000 -10.31600 46.65900
H  6.75300 -5.83600 47.64800
H  6.50000 -6.71300 46.07000
H  5.35300 -6.90700 47.48400
H  6.95400 -2.44500 43.56800
H  7.50000 1.42500 46.40800
H  5.75300 1.83800 46.26800
H  6.75200 1.87100 44.89300
Mg 54.69100 24.17500 45.69400
C  52.42500 26.78300 44.98600
C  52.58000 21.94100 44.28300
C  57.34400 22.02400 45.69300
C  56.98300 26.76500 46.78700
N  52.74100 24.39800 44.74600
C  51.96700 25.51800 44.52000
C  50.72900 25.17200 43.64200
C  50.69600 23.60500 43.87500
C  52.06600 23.25800 44.39500
C  49.44100 23.12000 44.68100
C  50.81900 25.66000 42.14100
C  52.22300 25.99700 41.57000
H  53.17600 24.79500 41.57400
N  54.97800 22.25500 45.03900
C  53.91300 21.48800 44.53800
C  54.36400 20.11600 44.45200
C  55.78600 20.18900 44.59900
C  56.14100 21.51000 45.21000
C  53.42200 19.05000 44.09200
C  56.64900 19.06700 44.32900
O  56.19500 17.96600 43.95200
C  58.20800 19.22800 44.30200
N  56.93500 24.39800 46.08900
C  57.74100 23.30100 46.19600
C  59.17300 23.76100 46.70300
C  59.02300 25.23400 46.98900
C  57.55300 25.52500 46.52800
C  59.72600 22.92100 47.92200
C  60.13300 26.05600 46.23600
C  59.87600 26.11100 44.68700
N  54.69900 26.32000 45.99400
C  55.69300 27.17700 46.56100
C  55.16100 28.49600 46.47900
C  53.80800 28.39300 46.03500
C  53.63900 27.05000 45.62100
C  55.88800 29.69500 46.88700
C  52.65100 29.11800 45.68300
O  52.38800 30.28600 45.83300
C  51.64800 28.06800 45.03100
C  51.16100 28.62900 43.68800
O  51.85600 29.17100 42.85500
O  49.79800 28.56500 43.75700
C  49.13700 28.94400 42.54900
H  51.92800 21.21300 43.79500
H  58.19700 21.34200 45.71000
H  57.72800 27.52000 47.04900
H  49.86400 25.68900 44.05600
H  50.53900 23.03400 42.96000
H  49.06000 23.95700 45.26700
H  49.67900 22.26600 45.31500
H  48.69000 22.80400 43.95600
H  50.15100 26.52100 42.13000
H  50.23200 24.90300 41.62300
H  52.71800 26.74000 42.19500
H  52.11500 26.37700 40.55400
H  53.92700 18.09400 43.95500
H  52.91700 19.39500 43.19000
H  52.72100 19.00400 44.92600
H  58.71600 18.36800 43.86500
H  58.69300 19.41300 45.26100
H  58.57900 19.90800 43.53500
H  59.88700 23.72900 45.87900
H  59.17300 25.37800 48.05900
H  59.19900 21.97700 48.05900
H  59.73900 23.44500 48.87800
H  60.74500 22.67300 47.62700
H  61.04800 25.49200 46.41800
H  60.19900 27.05900 46.65800
H  60.73000 25.65200 44.19000
H  59.92900 27.15300 44.37100
H  58.95900 25.61800 44.36100
H  56.86700 29.72000 46.40900
H  55.97200 29.85500 47.96200
H  55.29600 30.53500 46.52400
H  50.91200 28.07800 45.83500
H  49.33200 29.88200 42.03000
H  48.07200 28.97800 42.78200
H  49.14400 28.20100 41.75100

