158

Mg 16.41800 -2.27300 27.54200
C  15.45500 -0.26600 30.21900
C  18.39400 -4.06900 29.66400
C  17.44900 -4.20700 24.89500
C  14.47800 -0.29300 25.40800
N  16.96500 -2.05400 29.73400
C  16.27300 -1.28700 30.67800
C  16.93000 -1.47900 32.04400
C  17.90600 -2.72400 31.84900
C  17.83400 -2.93400 30.28900
C  19.29200 -2.66100 32.51100
C  15.76600 -1.84600 33.06200
C  15.81700 -1.02500 34.43400
H  17.08800 -0.29000 34.86200
N  17.73100 -3.87800 27.36300
C  18.45700 -4.46000 28.33800
C  19.14200 -5.62300 27.87500
C  18.85000 -5.73900 26.49500
C  17.93900 -4.61900 26.18400
C  19.70400 -6.54000 28.78800
C  19.38900 -6.69500 25.47500
O  19.03300 -6.74500 24.31200
C  20.33000 -7.83200 25.96800
N  16.17700 -2.19800 25.43800
C  16.64200 -3.16400 24.58000
C  16.03900 -2.95100 23.09400
C  14.88800 -1.95400 23.41600
C  15.18800 -1.41100 24.81900
C  17.13700 -2.26500 22.21500
C  13.44500 -2.55200 23.35100
C  13.00300 -3.14100 21.98700
N  15.23800 -0.69600 27.67800
C  14.56900 0.02200 26.72600
C  13.84200 1.08400 27.27700
C  14.13600 1.02400 28.65300
C  15.02300 -0.05300 28.86400
C  12.85000 1.93500 26.67400
C  13.78800 1.52600 29.94700
O  12.91100 2.40100 30.21000
C  14.56700 0.66500 31.00800
C  15.35200 1.68700 31.79900
O  16.50300 1.97800 31.60800
O  14.64200 2.02500 32.91100
C  15.28000 3.12800 33.67900
H  19.03300 -4.60100 30.37200
H  17.73600 -4.80100 24.02500
H  13.75800 0.18800 24.74300
H  17.39300 -0.51400 32.25100
H  17.54300 -3.70300 32.16000
H  19.34400 -1.83200 33.21700
H  20.15200 -2.63500 31.84100
H  19.50700 -3.58000 33.05500
H  15.72500 -2.91300 33.28100
H  14.80000 -1.68300 32.58400
H  15.61700 -1.72900 35.24200
H  14.99200 -0.31300 34.45500
H  20.03900 -7.52100 28.45000
H  19.05400 -6.71100 29.64700
H  20.59700 -6.09900 29.23000
H  21.22500 -7.42400 26.43700
H  20.69900 -8.40800 25.11900
H  19.93000 -8.53500 26.69900
H  15.70200 -3.93600 22.77000
H  15.04700 -1.03700 22.84800
H  17.96000 -2.20900 22.92700
H  16.85500 -1.32900 21.73300
H  17.30100 -2.89500 21.34100
H  12.75100 -1.82700 23.77700
H  13.48900 -3.36000 24.08100
H  12.91500 -4.22200 22.09500
H  13.76800 -3.00300 21.22300
H  12.02600 -2.75100 21.69900
H  12.92300 2.20300 25.62000
H  13.00800 2.89400 27.16800
H  11.83500 1.63200 26.93000
H  13.73500 0.19000 31.52800
H  14.65300 4.01600 33.60200
H  16.30800 3.38900 33.42500
H  15.33000 2.82900 34.72600
Mg 27.35100 50.81500 26.41800
C  25.48100 51.72100 29.29400
C  29.94700 49.82200 28.52100
C  29.03700 50.06900 23.73200
C  24.65300 52.08900 24.44400
N  27.67800 50.93800 28.66900
C  26.78000 51.27800 29.64100
C  27.33000 51.07900 31.09400
C  28.81900 50.63200 30.75600
C  28.80200 50.40500 29.19600
C  29.86600 51.75900 31.16500
C  26.51500 50.13600 32.04600
C  25.86200 50.84000 33.27100
H  26.53600 50.62100 34.53400
N  29.23200 50.11100 26.10500
C  30.13400 49.63500 27.12900
C  31.33000 49.21000 26.43300
C  31.13100 49.35500 25.03600
C  29.72100 49.89300 24.88700
C  32.46400 48.57700 27.20100
C  32.13600 48.95000 23.91300
O  31.89400 49.00700 22.68700
C  33.51700 48.47600 24.26900
N  26.95400 51.21300 24.37400
C  27.68900 50.53200 23.46100
C  27.11400 50.61500 21.98400
C  25.69700 51.13800 22.33600
C  25.80600 51.62900 23.76900
C  28.11600 51.46500 21.10600
C  24.61000 50.03600 22.29100
C  23.51400 50.16900 21.22400
N  25.55100 51.80300 26.74300
C  24.48600 52.20700 25.86000
C  23.45200 52.73800 26.62300
C  23.78600 52.50200 27.97500
C  25.04100 51.86100 27.98000
C  22.19000 53.42200 26.02600
C  23.24300 52.60500 29.31600
O  22.17600 53.12900 29.67700
C  24.33900 52.14500 30.20900
C  24.74600 53.26600 31.12600
O  25.52200 54.14900 30.84200
O  23.97600 53.14200 32.33200
C  24.25100 54.11600 33.33600
H  30.75700 49.49000 29.17300
H  29.57100 49.70800 22.85000
H  23.70900 52.22500 23.91200
H  27.19900 52.10700 31.43100
H  29.22300 49.78600 31.31100
H  30.16600 52.30100 30.26900
H  30.80700 51.38000 31.56300
H  29.40500 52.40600 31.91200
H  27.25300 49.46600 32.48700
H  25.73400 49.70000 31.42300
H  24.80000 50.59900 33.21400
H  25.97100 51.92000 33.16800
H  32.37900 47.50200 27.03800
H  32.38000 48.77200 28.27000
H  33.42500 48.93900 26.83600
H  34.00800 48.12200 23.36200
H  33.42500 47.61700 24.93400
H  33.94100 49.27300 24.88000
H  27.02700 49.61400 21.56200
H  25.46200 51.90900 21.60300
H  29.04700 51.69900 21.62200
H  27.69200 52.39000 20.71500
H  28.41500 50.84000 20.26400
H  24.08000 49.92600 23.23700
H  25.12700 49.09400 22.10900
H  23.65000 51.14800 20.76300
H  22.52000 50.31200 21.64800
H  23.56200 49.40700 20.44700
H  22.53700 54.35300 25.57700
H  21.39800 53.60300 26.75300
H  21.62100 52.83200 25.30900
H  24.03800 51.26400 30.77600
H  25.30700 54.38700 33.34200
H  23.99700 53.86900 34.36700
H  23.80400 55.09200 33.14800

