158

Mg 53.19300 24.58200 45.13300
C  50.68600 26.87100 44.13500
C  51.50300 22.07100 43.50100
C  55.86600 22.62500 45.59500
C  55.11600 27.36000 46.01700
N  51.30300 24.57000 43.82700
C  50.38200 25.56500 43.67000
C  49.14900 25.03200 42.87000
C  49.28800 23.48200 43.03000
C  50.81100 23.35400 43.49700
C  48.45100 22.60500 44.04200
C  49.12700 25.55500 41.37000
C  50.48200 25.81000 40.70400
H  50.40600 26.23000 39.28500
N  53.51800 22.66200 44.78200
C  52.73000 21.73900 44.13100
C  53.27900 20.43000 44.29200
C  54.48600 20.51800 45.02800
C  54.64800 21.98100 45.21100
C  52.55100 19.21400 43.85200
C  55.39500 19.37200 45.50200
O  55.15800 18.17100 45.31000
C  56.68300 19.51200 46.33700
N  55.24800 24.98300 45.49700
C  56.15700 24.00800 45.64100
C  57.52900 24.59900 45.85800
C  57.34200 26.13300 45.77700
C  55.84300 26.21000 45.70400
C  58.23200 24.07100 47.17100
C  58.15400 26.71900 44.58000
C  57.38600 27.09300 43.27700
N  52.91900 26.64900 45.22700
C  53.73500 27.62400 45.73800
C  53.00300 28.90300 45.78700
C  51.79100 28.61300 45.21400
C  51.79300 27.25400 44.85100
C  53.48600 30.13300 46.46700
C  50.56100 29.17900 44.78400
O  50.17700 30.32100 44.86400
C  49.72700 28.04500 44.05800
C  49.50600 28.56400 42.68700
O  50.39600 28.91100 41.91700
O  48.14500 28.76700 42.46700
C  47.80300 29.10300 41.09200
H  50.97900 21.18900 43.12500
H  56.75700 22.03700 45.82700
H  55.75500 28.23500 46.15000
H  48.30300 25.43100 43.43100
H  49.10400 22.91400 42.11800
H  48.22100 21.71800 43.45200
H  47.55200 23.19100 44.23200
H  48.86100 22.32500 45.01200
H  48.55700 26.48100 41.44000
H  48.61100 24.84900 40.71900
H  51.12200 24.92900 40.76100
H  51.10200 26.44000 41.34100
H  51.59400 19.11300 44.36200
H  53.07200 18.26100 43.93800
H  52.29100 19.43900 42.81700
H  56.98300 18.58500 46.82500
H  56.52200 20.26800 47.10600
H  57.55300 19.79800 45.74600
H  58.17800 24.24000 45.05900
H  57.58300 26.66200 46.69900
H  58.68800 24.80700 47.83400
H  59.14700 23.52000 46.95400
H  57.59300 23.40400 47.75000
H  58.93100 26.07800 44.16400
H  58.40500 27.73400 44.88900
H  56.69000 26.36600 42.86000
H  58.08600 27.18500 42.44600
H  56.94600 28.08800 43.35200
H  53.60200 30.98100 45.79200
H  54.47100 30.08700 46.93300
H  52.75800 30.37300 47.24100
H  48.85000 27.86700 44.68000
H  47.88100 30.19000 41.11300
H  46.78600 28.85700 40.78700
H  48.39600 28.58900 40.33500
Mg -11.24100 16.41000 41.98000
C  -7.89800 15.01900 41.96900
C  -9.88200 19.29900 40.68800
C  -14.38300 17.46600 41.53500
C  -12.34100 13.28400 42.89200
N  -9.13400 16.97700 41.44200
C  -7.92300 16.36100 41.51700
C  -6.76700 17.17900 41.03700
C  -7.43200 18.53700 40.89400
C  -8.91000 18.25000 40.99500
C  -6.88400 19.61600 41.81600
C  -6.25600 16.56600 39.64300
C  -4.83400 16.77000 39.35000
H  -4.19700 15.80400 38.32100
N  -12.00400 18.11500 41.20500
C  -11.31700 19.23800 40.75700
C  -12.32500 20.20700 40.33700
C  -13.67400 19.71400 40.61600
C  -13.39000 18.31600 41.10100
C  -11.87400 21.58200 39.72900
C  -14.95800 20.54800 40.38300
O  -14.91700 21.69900 39.96100
C  -16.36300 19.93800 40.62000
N  -13.11800 15.40100 41.93400
C  -14.27500 16.10800 41.85500
C  -15.48700 15.20000 42.13600
C  -14.85800 13.94300 42.81600
C  -13.39500 14.17900 42.52300
C  -16.72400 15.81300 42.92000
C  -15.45800 12.58000 42.25100
C  -16.10200 11.68300 43.40800
N  -10.35400 14.59700 42.49100
C  -10.91800 13.40700 42.83000
C  -9.92000 12.38300 43.12900
C  -8.66600 12.98400 42.79800
C  -9.03100 14.29200 42.35400
C  -10.18500 11.00000 43.47600
C  -7.24300 12.80600 42.79700
O  -6.55700 11.79100 43.03900
C  -6.66400 14.07000 42.22400
C  -5.92800 14.55300 43.40400
O  -6.43500 14.78200 44.44300
O  -4.57300 14.57700 43.14400
C  -3.81500 15.29500 44.27500
H  -9.55500 20.24200 40.24700
H  -15.36500 17.93300 41.44100
H  -12.58800 12.29000 43.27200
H  -6.04100 17.17100 41.85000
H  -7.22400 18.93200 39.90000
H  -7.66700 20.23600 42.25200
H  -6.12800 20.26700 41.37700
H  -6.23200 19.23200 42.60100
H  -6.84200 16.95500 38.81000
H  -6.40400 15.49100 39.75000
H  -4.23100 16.68900 40.25400
H  -4.62000 17.78300 39.01100
H  -12.57500 21.85900 38.94200
H  -10.92600 21.44200 39.20900
H  -11.83800 22.34400 40.50800
H  -17.11300 20.69300 40.38600
H  -16.48000 19.62500 41.65800
H  -16.37200 19.19600 39.82200
H  -15.78500 14.89100 41.13400
H  -14.83300 13.98700 43.90500
H  -16.96500 15.44000 43.91600
H  -17.60700 15.91600 42.29000
H  -16.54300 16.87700 43.07300
H  -14.68100 12.03400 41.71700
H  -16.10700 12.79300 41.40200
H  -17.14200 11.56500 43.10400
H  -16.02100 12.13000 44.39900
H  -15.50400 10.77500 43.48100
H  -9.28100 10.39100 43.48500
H  -10.88800 10.58400 42.75300
H  -10.56700 10.93100 44.49400
H  -6.03000 14.01700 41.33900
H  -3.21300 14.51100 44.73400
H  -4.36100 15.77000 45.09100
H  -3.22200 16.06500 43.78000

