158

Mg 17.07500 -1.92000 28.12000
C  16.13600 0.50000 30.51500
C  18.89700 -3.56700 30.49800
C  18.68500 -3.60800 25.55900
C  15.88900 0.43500 25.69800
N  17.49800 -1.51000 30.22900
C  16.95500 -0.56500 31.07000
C  17.50600 -0.71500 32.54600
C  18.47600 -1.90200 32.42100
C  18.25000 -2.40000 30.96500
C  19.88400 -1.62100 32.86200
C  16.32400 -1.01800 33.60900
C  16.63900 -0.27700 34.99400
H  18.03600 -0.22000 35.52300
N  18.37900 -3.60400 28.06200
C  19.01600 -4.17200 29.19300
C  19.71200 -5.32600 28.69700
C  19.72700 -5.33100 27.27200
C  18.93000 -4.13600 26.87700
C  20.30900 -6.43000 29.58800
C  20.51900 -6.17000 26.34100
O  20.42100 -6.03200 25.13400
C  21.40500 -7.28400 26.70000
N  17.37300 -1.56100 25.94800
C  17.97900 -2.47400 25.11300
C  17.82800 -2.09600 23.65800
C  16.90000 -0.77100 23.70200
C  16.68700 -0.64300 25.21900
C  19.09800 -2.01000 22.82600
C  15.41900 -0.94000 23.02600
C  14.29500 -1.75500 23.79100
N  15.90800 -0.10500 28.09600
C  15.52700 0.73700 27.02100
C  14.64500 1.72000 27.52200
C  14.87800 1.66700 28.91700
C  15.76200 0.59400 29.17700
C  13.91500 2.71700 26.63200
C  14.64900 2.38700 30.09200
O  14.09900 3.51500 30.26600
C  15.35300 1.58300 31.27200
C  16.22000 2.51800 32.19300
O  17.41500 2.62700 31.99300
O  15.51800 3.07000 33.27700
C  16.29500 4.00400 34.12700
H  19.36400 -4.02600 31.37200
H  19.08200 -4.26100 24.77900
H  15.48900 1.07700 24.91100
H  17.97100 0.25700 32.71300
H  18.05600 -2.74300 32.97300
H  20.16100 -0.63500 33.23600
H  20.38400 -1.65200 31.89400
H  20.24300 -2.37200 33.56400
H  16.21300 -2.07800 33.84000
H  15.33200 -0.77600 33.22800
H  15.98200 -0.74900 35.72400
H  16.36700 0.75100 34.75300
H  21.34500 -6.63100 29.31500
H  19.81800 -7.37900 29.37100
H  20.19200 -6.27200 30.66000
H  21.87100 -7.81000 25.86700
H  20.95100 -8.11000 27.24800
H  22.17100 -6.94300 27.39700
H  17.36800 -2.92900 23.12800
H  17.35900 0.11200 23.25600
H  19.93800 -2.53300 23.28400
H  19.37900 -0.97200 22.65100
H  18.88200 -2.41700 21.83800
H  15.50500 -1.40000 22.04200
H  14.90800 0.00100 22.82300
H  13.57800 -1.09300 24.27500
H  14.65800 -2.47700 24.52200
H  13.65000 -2.32500 23.12100
H  13.24300 3.22400 27.32600
H  13.32800 2.18600 25.88200
H  14.58500 3.45400 26.19100
H  14.47400 1.14000 31.74200
H  16.94200 4.60800 33.49100
H  16.86600 3.36400 34.79900
H  15.58500 4.62800 34.67100
Mg 29.74900 58.17300 38.51200
C  26.75500 56.46200 37.95900
C  31.50300 55.40000 37.40000
C  32.48100 60.15800 38.25800
C  27.77300 61.08900 39.09800
N  29.17400 56.19400 37.56800
C  27.87500 55.65800 37.62900
C  27.98600 54.15700 37.11000
C  29.48200 53.82000 37.35600
C  30.10000 55.21100 37.42000
C  29.93300 52.90000 38.48600
C  27.60200 54.24700 35.59300
C  26.12300 53.74600 35.28400
H  25.47000 54.37200 34.08300
N  31.73900 57.78100 38.00600
C  32.27800 56.59900 37.63800
C  33.76100 56.75400 37.47100
C  34.10500 58.09400 37.59800
C  32.75700 58.77500 37.96800
C  34.54400 55.52700 37.22400
C  35.51800 58.66700 37.46400
O  36.55000 58.04800 37.09500
C  35.81000 60.04200 37.91800
N  30.06900 60.40300 38.47400
C  31.30100 60.86800 38.65700
C  31.33100 62.40500 38.89700
C  29.86000 62.65900 39.31800
C  29.16900 61.30200 38.95100
C  32.48700 62.91000 39.80800
C  29.16100 63.96600 38.72100
C  28.40900 64.81700 39.77400
N  27.70400 58.73300 38.47300
C  27.04000 59.91800 38.74900
C  25.61600 59.74400 38.64000
C  25.44000 58.38300 38.39100
C  26.75700 57.79400 38.26900
C  24.54200 60.86400 38.68400
C  24.45800 57.36100 38.19500
O  23.22600 57.38900 38.21500
C  25.27500 56.05200 37.95200
C  24.93800 54.96800 38.91200
O  25.63900 54.55700 39.87500
O  23.76800 54.33000 38.45000
C  23.50500 53.09400 39.21900
H  32.06900 54.52100 37.08500
H  33.33000 60.84200 38.19600
H  27.10200 61.86700 39.46800
H  27.33100 53.37900 37.50200
H  29.98800 53.36100 36.50700
H  29.31700 53.11300 39.36000
H  31.01300 52.90600 38.63100
H  29.62800 51.86500 38.33300
H  28.35000 53.65900 35.06000
H  27.64000 55.28700 35.26700
H  25.51400 53.95900 36.16200
H  26.25900 52.67600 35.12000
H  34.38000 55.17900 36.20500
H  34.13500 54.69800 37.80300
H  35.61200 55.56900 37.44100
H  36.89200 60.14600 37.99600
H  35.35100 60.24500 38.88500
H  35.50400 60.82100 37.21900
H  31.46900 62.94000 37.95700
H  29.81300 62.75600 40.40300
H  32.15400 63.23100 40.79500
H  32.91200 63.80100 39.34500
H  33.25200 62.15600 39.99700
H  28.43400 63.55600 38.02000
H  29.82500 64.68100 38.23600
H  28.81100 64.60300 40.76500
H  27.33000 64.67000 39.81100
H  28.63900 65.84100 39.48000
H  24.34300 61.21500 39.69600
H  23.59800 60.45300 38.32600
H  24.85200 61.67900 38.03000
H  24.87600 55.72400 36.99200
H  22.73000 52.49500 38.74200
H  23.22400 53.41400 40.22300
H  24.43400 52.52800 39.28800

