158

Mg 3.54600 -0.05600 44.43100
C  6.91900 0.12800 43.96700
C  3.21400 2.72800 42.25300
C  0.16700 -0.62700 43.96200
C  3.81500 -2.97100 46.17000
N  4.95000 1.20000 43.18200
C  6.31900 1.09300 43.14200
C  6.98600 2.09200 42.25300
C  5.76300 3.07600 42.03400
C  4.54200 2.29900 42.54800
C  5.87600 4.47100 42.80000
C  7.64500 1.44400 40.96900
C  8.29700 2.45100 39.99500
H  7.62200 2.72700 38.73800
N  1.93300 1.03900 43.44600
C  2.01200 2.13200 42.62800
C  0.69300 2.48800 42.03800
C  -0.18800 1.53100 42.50200
C  0.63300 0.61800 43.38700
C  0.47800 3.71500 41.20400
C  -1.65700 1.45000 42.18600
O  -2.18900 2.23600 41.41000
C  -2.57800 0.33800 42.74000
N  2.17200 -1.59500 44.98900
C  0.81800 -1.52200 44.71700
C  0.16900 -2.86600 45.18300
C  1.25900 -3.55500 45.96200
C  2.51600 -2.68000 45.70900
C  -1.14200 -2.61000 46.10400
C  1.58500 -5.07000 45.66700
C  0.37400 -5.91500 45.22300
N  5.00400 -1.18100 45.05800
C  4.98900 -2.34800 45.81700
C  6.37200 -2.70200 46.06000
C  7.14700 -1.71300 45.41600
C  6.27000 -0.83600 44.76100
C  6.76700 -3.89700 46.83100
C  8.50300 -1.23900 45.07500
O  9.59400 -1.66600 45.43600
C  8.43400 -0.07400 44.11800
C  9.02300 1.13500 44.84200
O  8.73400 1.56300 45.91600
O  9.86200 1.66500 43.91600
C  10.31000 3.00000 44.29500
H  3.29200 3.67300 41.71100
H  -0.88400 -0.91100 43.87500
H  3.86300 -3.83600 46.83500
H  7.81000 2.55700 42.79500
H  5.64800 3.31800 40.97800
H  6.69600 4.51200 43.51700
H  4.96300 4.65600 43.36500
H  6.05000 5.24900 42.05600
H  6.84400 0.86200 40.51200
H  8.51000 0.83200 41.22300
H  9.34000 2.20400 39.79700
H  8.32700 3.44500 40.44100
H  1.03800 3.59400 40.27700
H  0.97400 4.62700 41.53600
H  -0.53500 3.94500 40.87500
H  -3.60500 0.36800 42.37600
H  -2.63200 0.38600 43.82800
H  -2.24300 -0.67100 42.50000
H  -0.07100 -3.36100 44.24200
H  1.08000 -3.51200 47.03600
H  -1.84500 -3.35000 45.72100
H  -1.49000 -1.58100 46.18600
H  -0.95800 -2.92800 47.13100
H  2.04200 -5.54100 46.53700
H  2.35300 -5.05700 44.89400
H  0.61000 -6.53800 44.36100
H  -0.57400 -5.39300 45.09600
H  0.22300 -6.66300 46.00200
H  7.69200 -3.78900 47.39700
H  6.99300 -4.78300 46.23700
H  5.99100 -4.25600 47.50700
H  8.94800 -0.44600 43.23100
H  10.57400 3.47600 43.35100
H  11.16100 3.11400 44.96700
H  9.58600 3.68500 44.73800
Mg -10.92700 16.88600 42.82000
C  -7.38300 16.73900 42.18000
C  -10.78300 20.14700 41.71200
C  -14.22000 16.90500 42.75500
C  -10.84800 13.39800 43.09300
N  -9.22600 18.33200 42.21700
C  -7.91300 18.00600 42.02000
C  -7.18500 19.28400 41.45700
C  -8.24400 20.39900 41.52100
C  -9.50000 19.56300 41.82400
C  -7.88200 21.43700 42.58600
C  -6.68000 18.94700 39.99700
C  -5.15900 19.23600 39.81300
H  -4.60200 19.63200 38.49500
N  -12.39300 18.39000 42.54600
C  -12.10800 19.61600 41.95100
C  -13.40300 20.22500 41.63000
C  -14.44300 19.35900 42.16100
C  -13.71600 18.19400 42.59000
C  -13.49400 21.57000 41.01600
C  -15.97300 19.63400 42.11300
O  -16.40900 20.75000 41.73000
C  -17.03600 18.74100 42.67100
N  -12.33400 15.32400 42.67900
C  -13.63400 15.64600 42.89600
C  -14.39200 14.47200 43.29200
C  -13.41000 13.33300 43.37800
C  -12.10900 14.06700 43.02300
C  -15.24900 14.59200 44.59200
C  -13.78200 12.07600 42.41500
C  -14.73800 11.10900 43.13200
N  -9.47100 15.36900 42.76300
C  -9.59700 13.99800 43.00400
C  -8.25400 13.40500 43.17400
C  -7.37800 14.45900 42.85400
C  -8.17800 15.61000 42.61500
C  -7.83100 12.05300 43.44300
C  -6.00400 14.75400 42.62300
O  -5.04600 13.93000 42.67900
C  -5.95700 16.23200 42.23300
C  -5.16100 17.00400 43.14700
O  -4.08400 17.55800 42.92000
O  -5.79700 17.05500 44.41500
C  -4.99400 17.52800 45.57200
H  -10.76600 21.18900 41.38500
H  -15.28200 16.90000 43.00900
H  -10.79700 12.33100 43.31900
H  -6.32900 19.40100 42.12100
H  -8.33000 20.98600 40.60600
H  -6.87800 21.81300 42.39000
H  -7.67400 20.84800 43.47900
H  -8.63000 22.22400 42.68900
H  -7.30800 19.44500 39.25800
H  -6.76800 17.86700 39.87600
H  -4.58400 18.41600 40.24300
H  -5.01100 20.10600 40.45300
H  -12.51900 21.92600 40.68100
H  -13.96300 22.26700 41.71000
H  -14.19900 21.59100 40.18500
H  -16.91600 17.80800 42.11900
H  -18.02100 19.12500 42.40100
H  -16.87200 18.61300 43.74100
H  -15.19100 14.34300 42.56100
H  -13.24700 12.92100 44.37400
H  -15.05600 15.49800 45.16700
H  -15.00200 13.68000 45.13500
H  -16.32400 14.57800 44.40900
H  -12.80000 11.65500 42.19900
H  -14.20900 12.53000 41.52100
H  -15.65800 10.96400 42.56600
H  -14.99600 11.41700 44.14500
H  -14.24400 10.15000 43.28800
H  -7.15300 11.68400 42.67400
H  -8.62000 11.30100 43.47400
H  -7.21700 12.07900 44.34200
H  -5.46700 16.18800 41.26000
H  -4.03100 17.01900 45.61800
H  -5.44300 17.28800 46.53500
H  -4.79200 18.59000 45.43500

