158

Mg 43.97400 5.76000 46.38000
C  41.98200 8.81900 46.08500
C  41.12000 4.05700 45.53300
C  45.93100 3.25800 46.00700
C  46.79000 7.98400 46.53700
N  41.78000 6.39900 46.01300
C  41.17200 7.68400 45.86400
C  39.69100 7.59000 45.54200
C  39.40100 6.05300 45.55200
C  40.86100 5.42300 45.75500
C  38.34400 5.62000 46.62800
C  39.39200 8.29300 44.18800
C  40.46300 8.03700 43.05800
H  40.09800 8.17000 41.57300
N  43.61700 3.87200 46.00900
C  42.35600 3.30300 45.64000
C  42.49100 1.87800 45.53100
C  43.88800 1.57300 45.73800
C  44.60900 2.91700 45.95700
C  41.38700 0.95100 45.02000
C  44.56800 0.18100 45.58900
O  43.95200 -0.78300 45.21500
C  45.90000 -0.08800 46.03100
N  46.14300 5.67800 46.32200
C  46.64000 4.45700 46.24100
C  48.14900 4.50800 46.35300
C  48.43600 6.07300 46.55300
C  47.04600 6.65600 46.53300
C  48.82800 3.70900 47.45500
C  49.56400 6.57400 45.61500
C  50.92300 6.91300 46.26200
N  44.35500 7.85500 46.24100
C  45.56400 8.60000 46.45900
C  45.36600 10.02200 46.47100
C  43.91400 10.16700 46.33200
C  43.37000 8.79900 46.24300
C  46.40100 11.13000 46.73800
C  42.82100 11.12300 46.36500
O  42.89400 12.34100 46.48900
C  41.51000 10.25100 46.11200
C  40.58400 10.46100 47.28400
O  40.82000 10.04000 48.39900
O  39.38300 11.10700 46.95900
C  38.34500 11.24600 47.95500
H  40.23800 3.52700 45.16800
H  46.67200 2.46300 45.90100
H  47.71200 8.56900 46.49400
H  39.06500 8.04400 46.31000
H  38.94300 5.65800 44.64500
H  38.02500 6.47400 47.22600
H  38.72800 4.82700 47.27000
H  37.43400 5.18100 46.21900
H  39.38400 9.35600 44.43200
H  38.55600 7.92200 43.59500
H  40.97100 7.09100 43.24100
H  41.12400 8.88400 43.24600
H  41.61800 0.69500 43.98600
H  40.39600 1.37300 45.18800
H  41.51600 0.03400 45.59400
H  45.98600 -1.17100 46.12100
H  46.21700 0.29800 47.00000
H  46.56100 0.24600 45.23100
H  48.47100 4.14800 45.37500
H  48.84600 6.22200 47.55200
H  48.14300 3.67600 48.30200
H  49.70900 4.26700 47.77400
H  49.13500 2.74900 47.03900
H  49.16800 7.46400 45.12700
H  49.72500 5.75100 44.91900
H  51.20800 7.96000 46.15400
H  51.73300 6.29200 45.88100
H  50.90000 6.66200 47.32200
H  46.06500 12.06800 46.29800
H  47.29100 10.84200 46.17800
H  46.63700 11.24000 47.79600
H  40.97200 10.56600 45.21800
H  38.06200 12.23700 48.31200
H  38.64800 10.75300 48.87800
H  37.36900 10.87700 47.63900
Mg -6.15300 24.73600 27.09600
C  -5.13900 26.35500 30.17700
C  -8.14700 22.75300 29.20100
C  -7.13700 23.08800 24.38400
C  -4.02400 26.82800 25.36800
N  -6.57300 24.53900 29.43400
C  -5.99400 25.27700 30.43500
C  -6.44000 24.83000 31.88000
C  -7.14100 23.49600 31.46300
C  -7.37700 23.61500 29.95500
C  -6.44900 22.12200 31.66700
C  -7.33800 26.00900 32.54700
C  -7.16400 26.12100 34.07600
H  -6.60400 24.92300 34.82200
N  -7.49400 23.22300 26.76700
C  -8.19100 22.60200 27.78000
C  -9.10400 21.60600 27.19800
C  -8.78700 21.57200 25.83100
C  -7.75500 22.67500 25.59900
C  -10.00500 20.70800 27.94700
C  -9.39000 20.73700 24.72800
O  -8.96300 20.78300 23.58000
C  -10.37800 19.64600 25.03600
N  -5.57200 24.91000 25.17900
C  -6.16700 24.11900 24.21400
C  -5.64000 24.51100 22.83300
C  -4.75000 25.80500 23.15000
C  -4.71600 25.83900 24.66400
C  -4.94100 23.38400 22.00200
C  -5.37500 27.06700 22.45800
C  -4.53700 28.18600 21.74900
N  -4.91300 26.22600 27.61900
C  -4.07800 26.93600 26.77600
C  -3.23800 27.80900 27.60400
C  -3.61200 27.62800 28.89900
C  -4.68700 26.67500 28.83800
C  -2.10900 28.72000 27.18700
C  -3.28300 27.99600 30.27500
O  -2.40100 28.72200 30.70600
C  -4.31500 27.23000 31.15100
C  -3.45400 26.44600 32.07000
O  -2.50700 25.81500 31.78600
O  -3.88500 26.64700 33.33100
C  -3.01700 26.30700 34.44500
H  -8.82500 22.15200 29.81000
H  -7.29300 22.51200 23.46900
H  -3.48000 27.55900 24.76600
H  -5.51200 24.64800 32.42400
H  -8.07500 23.56200 32.02100
H  -5.51100 22.30200 32.19200
H  -6.28900 21.50600 30.78300
H  -7.10800 21.59900 32.36100
H  -8.38500 25.92400 32.25500
H  -6.90400 26.95500 32.22600
H  -8.07300 26.33500 34.63700
H  -6.41000 26.89700 34.20600
H  -10.93900 20.83000 27.39900
H  -10.25400 21.13700 28.91800
H  -9.63200 19.68400 27.95500
H  -9.90300 18.90500 25.68000
H  -10.62400 19.12800 24.10900
H  -11.27200 20.21200 25.29500
H  -6.57300 24.80600 22.35400
H  -3.72800 25.73000 22.78000
H  -3.87700 23.54800 22.17700
H  -5.14500 23.39400 20.93200
H  -5.27400 22.40800 22.35500
H  -5.98900 27.63500 23.15600
H  -6.00800 26.75800 21.62500
H  -5.28600 28.77300 21.21800
H  -3.92000 27.67400 21.01000
H  -3.95800 28.73800 22.48900
H  -1.57300 28.27000 26.35200
H  -1.40400 28.75000 28.01900
H  -2.42200 29.69500 26.81600
H  -4.91100 27.98600 31.66400
H  -2.52100 25.33800 34.40700
H  -3.61800 26.38400 35.35200
H  -2.19900 27.02300 34.53400

