158

Mg -1.43000 17.81700 27.40900
C  -1.99800 15.85000 30.04700
C  -2.41800 20.48000 29.28700
C  -1.01000 19.74600 24.66700
C  -1.23700 14.99200 25.38800
N  -2.20100 18.14200 29.42300
C  -2.33100 17.17800 30.37900
C  -2.69700 17.75100 31.80900
C  -3.11600 19.22800 31.39600
C  -2.54100 19.29100 29.95300
C  -4.68300 19.47200 31.37400
C  -1.51300 17.63500 32.79500
C  -1.87800 16.88100 34.11000
H  -0.79600 16.73600 35.23800
N  -1.47900 19.88500 27.07400
C  -1.94700 20.84300 28.00800
C  -1.88700 22.17900 27.36300
C  -1.52800 21.91400 25.99300
C  -1.28800 20.48800 25.85500
C  -2.25200 23.50200 28.09200
C  -1.47000 22.98100 24.88700
O  -1.09100 22.73900 23.74800
C  -1.97100 24.34100 25.17200
N  -1.16100 17.47100 25.38300
C  -1.00700 18.42000 24.36400
C  -0.93600 17.84700 22.97800
C  -0.68800 16.34600 23.33900
C  -1.12800 16.23000 24.79700
C  -2.32800 18.08500 22.22400
C  0.80800 15.97900 23.19200
C  1.80900 16.52100 24.26000
N  -1.61000 15.82400 27.59000
C  -1.40200 14.75900 26.74800
C  -1.62900 13.54200 27.47100
C  -1.77100 13.91500 28.78500
C  -1.73700 15.31400 28.77900
C  -1.69500 12.18000 26.83400
C  -1.91500 13.33600 30.11400
O  -1.97900 12.14700 30.43700
C  -2.01900 14.57500 31.01300
C  -0.79800 14.50900 31.76400
O  0.25100 14.86800 31.30500
O  -0.97100 13.87100 32.97500
C  0.37300 13.75500 33.67600
H  -2.74300 21.38700 29.80100
H  -0.97300 20.48900 23.86700
H  -1.24200 14.12900 24.71800
H  -3.56800 17.21300 32.18400
H  -2.60200 20.01500 31.94800
H  -4.95500 19.74800 32.39300
H  -5.13700 18.50500 31.15700
H  -5.00400 20.17600 30.60600
H  -1.20400 18.63700 33.09200
H  -0.62300 17.26200 32.28700
H  -2.16100 15.91900 33.68400
H  -2.77900 17.28800 34.57000
H  -2.46100 23.23900 29.12800
H  -3.17700 23.95600 27.73400
H  -1.47400 24.24600 27.91700
H  -3.04100 24.28600 25.37100
H  -1.84800 24.84900 24.21600
H  -1.44100 24.91400 25.93300
H  -0.05300 18.10500 22.39200
H  -1.27200 15.59900 22.80100
H  -2.95000 18.64100 22.92500
H  -2.93800 17.19000 22.10500
H  -2.29200 18.65100 21.29300
H  1.16600 16.36100 22.23600
H  0.84700 14.89200 23.12700
H  1.31700 16.97700 25.11900
H  2.42200 17.27900 23.77200
H  2.38700 15.74300 24.75700
H  -2.71200 11.98600 26.49500
H  -1.36300 11.53200 27.64500
H  -1.00100 11.98500 26.01600
H  -2.92600 14.59200 31.61800
H  0.68600 14.72000 34.07400
H  1.09400 13.38500 32.94800
H  0.30200 12.99900 34.45800
Mg -5.62500 25.69700 25.94500
C  -4.36300 27.26400 28.90800
C  -7.38900 23.50100 27.88500
C  -6.29500 23.93900 23.26200
C  -3.30400 27.63300 24.26300
N  -5.75200 25.33700 28.09900
C  -5.22800 26.18300 29.18000
C  -5.81900 25.70000 30.48600
C  -6.44700 24.31000 30.10100
C  -6.60300 24.37700 28.61700
C  -5.48800 23.09000 30.45500
C  -6.77600 26.73900 31.03000
C  -6.86100 27.02800 32.55300
H  -6.27200 26.02900 33.57900
N  -6.78300 24.08700 25.55600
C  -7.48500 23.28200 26.48300
C  -8.12700 22.23200 25.80200
C  -7.85400 22.35800 24.39300
C  -6.96200 23.52800 24.32600
C  -8.86300 21.06200 26.46300
C  -8.21600 21.50300 23.13800
O  -7.80600 21.63300 22.02200
C  -9.29200 20.47000 23.29800
N  -4.87400 25.70700 24.11100
C  -5.24600 24.84600 23.11800
C  -4.54100 25.12800 21.80300
C  -3.57900 26.31100 22.09400
C  -3.94600 26.62400 23.57100
C  -3.84800 23.78500 21.21200
C  -3.58600 27.44000 20.97500
C  -4.64800 28.55400 21.08400
N  -4.19100 27.27200 26.43200
C  -3.40300 27.98500 25.57500
C  -2.77300 29.05100 26.29900
C  -3.07200 28.77900 27.66300
C  -3.93300 27.66800 27.66000
C  -1.96200 30.16500 25.78400
C  -2.84400 29.11000 29.04400
O  -2.19100 30.02200 29.47500
C  -3.63500 28.14200 29.94000
C  -2.66800 27.44200 30.79600
O  -1.50200 27.25000 30.47600
O  -3.16000 27.36600 32.11700
C  -2.11900 27.31000 33.18500
H  -7.78800 22.72500 28.54100
H  -6.62100 23.58400 22.28200
H  -2.50800 28.12900 23.70400
H  -5.07000 25.60400 31.27200
H  -7.41300 24.06600 30.54300
H  -4.65600 23.46900 31.04800
H  -5.05100 22.72700 29.52500
H  -5.96800 22.30700 31.04200
H  -7.77400 26.34900 30.83000
H  -6.71300 27.69300 30.50600
H  -7.89600 27.10700 32.88300
H  -6.31500 27.95800 32.70900
H  -9.84600 21.53100 26.46500
H  -8.57600 20.89500 27.50200
H  -9.01800 20.08500 26.00400
H  -9.92700 20.43400 22.41200
H  -9.99900 20.77600 24.06900
H  -8.84800 19.48300 23.42200
H  -5.31900 25.50100 21.13700
H  -2.56500 25.92600 22.19700
H  -4.21600 23.70100 20.18900
H  -4.25700 22.90200 21.70400
H  -2.77000 23.92800 21.27900
H  -3.75300 27.01500 19.98500
H  -2.57500 27.84600 20.95700
H  -4.93600 28.86100 22.09000
H  -5.46700 28.22400 20.44500
H  -4.19100 29.40100 20.57300
H  -1.63100 30.88300 26.53400
H  -2.72800 30.68200 25.20500
H  -1.13900 29.96600 25.09700
H  -4.36800 28.73500 30.48800
H  -2.10400 26.36500 33.72800
H  -2.36700 28.11200 33.88000
H  -1.18900 27.59000 32.69100

