158

Mg 26.02900 0.89100 28.80800
C  27.77100 0.85600 31.85400
C  23.03900 1.11300 30.68000
C  24.32200 0.80900 25.90100
C  28.96300 0.00100 27.19900
N  25.50400 1.15600 31.03900
C  26.38700 1.09500 32.06400
C  25.61000 1.19000 33.40900
C  24.09000 1.26600 33.02900
C  24.21500 1.27700 31.48600
C  23.27600 0.02400 33.61000
C  26.06200 2.55000 34.25100
C  26.86500 2.25700 35.55800
H  26.72900 3.21300 36.73400
N  24.02200 0.99000 28.33800
C  22.96900 1.08000 29.25300
C  21.75300 0.98000 28.54100
C  22.05000 0.94800 27.18800
C  23.51600 0.89700 27.07300
C  20.40900 1.00300 29.25400
C  21.01300 0.72900 26.06100
O  21.36900 0.67900 24.92000
C  19.54300 0.61600 26.28900
N  26.61700 0.50700 26.84900
C  25.73200 0.74000 25.82000
C  26.51800 0.77500 24.50100
C  28.01600 0.69800 24.96800
C  27.85500 0.35900 26.43200
C  26.11200 -0.42700 23.62600
C  28.75300 2.06300 24.68800
C  30.21400 1.86200 24.33600
N  28.00800 0.46000 29.33700
C  29.03700 -0.00700 28.60900
C  30.20100 -0.20400 29.45100
C  29.73500 0.02400 30.73000
C  28.36800 0.50900 30.60300
C  31.58900 -0.72100 28.94700
C  30.14700 0.17200 32.11100
O  31.23600 -0.08800 32.57600
C  28.93300 0.63400 32.90000
C  28.58300 -0.22900 34.06900
O  27.84100 -1.20000 34.06300
O  29.34400 0.07900 35.15900
C  29.11800 -0.83200 36.29900
H  22.12800 1.08700 31.28200
H  23.77800 0.91100 24.96000
H  29.90000 -0.25500 26.70100
H  25.78300 0.29000 33.99900
H  23.74900 2.23300 33.39900
H  23.83200 -0.59900 34.31100
H  22.90700 -0.65300 32.83900
H  22.43300 0.41600 34.17800
H  25.26400 3.26000 34.46700
H  26.66300 2.96100 33.43900
H  27.93600 2.38100 35.39900
H  26.69300 1.23800 35.90300
H  19.84200 1.84600 28.85800
H  20.36700 1.12600 30.33600
H  19.86700 0.07600 29.06600
H  19.26200 -0.28300 26.83800
H  19.11100 0.33300 25.32900
H  19.19400 1.61800 26.53900
H  26.34600 1.73300 24.01200
H  28.56000 -0.11900 24.49400
H  25.56900 -0.01500 22.77500
H  25.57000 -1.25600 24.08000
H  26.99200 -0.96000 23.26700
H  28.64400 2.75100 25.52600
H  28.35400 2.56700 23.80700
H  30.83300 2.29900 25.12000
H  30.42100 2.28800 23.35400
H  30.42100 0.80100 24.19600
H  32.16900 0.12600 28.58300
H  31.42600 -1.36300 28.08100
H  32.06800 -1.29000 29.74400
H  29.34900 1.56700 33.28000
H  28.22100 -0.67000 36.89700
H  29.87800 -0.68900 37.06700
H  29.19400 -1.87700 35.99800
Mg 47.66100 34.42400 27.00600
C  46.05800 33.33800 30.00400
C  48.54900 37.19900 28.57500
C  49.03800 35.22800 24.12700
C  46.43800 31.43100 25.50600
N  47.34800 35.07300 29.09600
C  46.75100 34.55500 30.17200
C  46.96800 35.45500 31.44200
C  47.35500 36.82000 30.74300
C  47.81600 36.34100 29.39300
C  46.19000 37.88300 30.51800
C  48.12900 34.86600 32.37200
C  47.72700 34.56600 33.88900
H  48.52800 35.40500 34.90700
N  48.58200 36.08200 26.40000
C  48.92200 37.15600 27.19900
C  49.58800 38.15900 26.32600
C  49.65900 37.61400 25.05500
C  49.05500 36.26200 25.12900
C  50.00600 39.46500 26.82800
C  50.12600 38.24300 23.85900
O  50.07000 37.73000 22.75400
C  50.63000 39.63200 23.90100
N  47.67100 33.41300 25.02000
C  48.43400 33.99200 24.04200
C  48.50800 33.01700 22.85500
C  47.64800 31.83200 23.24200
C  47.26700 32.18400 24.68200
C  48.09800 33.72000 21.49600
C  48.36300 30.48900 22.97500
C  49.46300 29.99800 24.02700
N  46.48700 32.75900 27.53700
C  46.15800 31.63700 26.85400
C  45.34200 30.77000 27.75500
C  45.24400 31.46700 28.91700
C  46.07700 32.58600 28.78100
C  44.73000 29.46000 27.50500
C  44.65200 31.34200 30.25300
O  43.98600 30.44400 30.74300
C  45.00400 32.68200 30.88900
C  45.18200 32.55800 32.33600
O  46.19400 32.20800 32.85300
O  43.91600 32.78500 32.92000
C  43.64300 32.34500 34.25000
H  48.89400 38.11300 29.06300
H  49.69500 35.40000 23.27200
H  46.14900 30.49300 25.02700
H  45.98900 35.44400 31.91900
H  48.14800 37.33600 31.28500
H  45.89700 38.02300 29.47700
H  46.60100 38.83900 30.84100
H  45.29000 37.81100 31.12900
H  48.93900 35.59000 32.46100
H  48.53400 33.96200 31.91900
H  47.98000 33.56300 34.23100
H  46.65400 34.71500 34.00700
H  50.95900 39.81100 26.42700
H  50.08400 39.30800 27.90400
H  49.20600 40.19000 26.67500
H  51.65500 39.61500 24.27100
H  49.87000 40.22400 24.41100
H  50.60200 40.01500 22.88100
H  49.54600 32.70000 22.75400
H  46.74400 31.82400 22.63300
H  47.31100 33.09700 21.07200
H  48.96600 33.67500 20.83800
H  47.81100 34.74000 21.75100
H  48.87400 30.55000 22.01400
H  47.62800 29.68400 22.98000
H  49.72000 30.72200 24.79900
H  50.32200 29.53100 23.54300
H  48.99300 29.20600 24.61000
H  43.68100 29.45000 27.80300
H  45.32000 28.61500 27.86100
H  44.69300 29.32500 26.42400
H  44.12000 33.31600 30.83200
H  43.02200 31.45100 34.29500
H  43.18400 33.15000 34.82400
H  44.58800 32.04000 34.70100

