158

Mg 24.13300 -5.01400 45.33800
C  26.17300 -2.64600 43.71300
C  21.70700 -4.22600 43.19000
C  22.38800 -7.73500 46.53300
C  26.96000 -6.19000 47.12100
N  24.07100 -3.58900 43.62000
C  24.97400 -2.73500 43.16300
C  24.49900 -1.99800 41.90300
C  23.00100 -2.26200 42.04800
C  22.85100 -3.42000 42.96000
C  22.18100 -1.06200 42.62600
C  25.14200 -2.65600 40.59500
C  25.88600 -1.70800 39.68500
H  25.81400 -1.93000 38.19800
N  22.15900 -5.87700 45.02900
C  21.35000 -5.35100 44.04600
C  20.17800 -6.15000 44.10700
C  20.32700 -7.22900 45.00800
C  21.65900 -7.02300 45.59700
C  19.05700 -5.82900 43.16600
C  19.29700 -8.25600 45.42900
O  18.15600 -8.18100 44.91600
C  19.60700 -9.34200 46.46600
N  24.67400 -6.75600 46.54800
C  23.71500 -7.63800 46.99300
C  24.23400 -8.74100 47.92800
C  25.57900 -8.12400 48.26500
C  25.77600 -6.92900 47.28300
C  23.36600 -9.05200 49.17800
C  26.78100 -9.01900 48.42200
C  27.54300 -8.88800 49.82300
N  26.15400 -4.56200 45.49200
C  27.16300 -5.07500 46.25300
C  28.34100 -4.18900 46.19900
C  27.97000 -3.27200 45.13900
C  26.66000 -3.46700 44.76400
C  29.56200 -4.30700 47.06100
C  28.44900 -2.09600 44.41300
O  29.47400 -1.47700 44.64000
C  27.37100 -1.84300 43.32900
C  27.13500 -0.40400 43.44300
O  26.35300 0.09100 44.18700
O  27.92900 0.36200 42.66600
C  27.84700 1.90400 42.74400
H  20.90700 -3.96000 42.49600
H  21.84800 -8.53500 47.04400
H  27.81600 -6.51100 47.71900
H  24.81300 -0.95900 42.00100
H  22.62000 -2.64700 41.10200
H  22.81700 -0.18500 42.50300
H  21.91600 -1.07600 43.68300
H  21.21700 -0.83600 42.16900
H  24.35200 -3.09000 39.98200
H  25.93200 -3.40300 40.66700
H  26.91300 -1.69500 40.05000
H  25.63700 -0.65400 39.80700
H  18.68700 -6.76600 42.74800
H  19.19900 -5.09700 42.37100
H  18.21700 -5.41100 43.72000
H  18.85900 -10.13000 46.37800
H  19.51100 -9.05900 47.51400
H  20.57500 -9.82000 46.31700
H  24.27600 -9.71200 47.43500
H  25.37500 -7.63900 49.21900
H  23.85600 -9.56100 50.00800
H  22.56700 -9.69700 48.81200
H  22.92400 -8.08900 49.43400
H  27.45500 -8.85800 47.58100
H  26.45200 -10.05800 48.38500
H  28.56900 -8.77900 49.47100
H  27.46500 -9.73900 50.49900
H  27.36800 -7.89000 50.22400
H  29.91800 -5.33600 47.02200
H  29.42000 -3.87000 48.04900
H  30.35000 -3.69400 46.62200
H  27.78900 -2.15300 42.37200
H  28.77600 2.34000 43.11000
H  27.10700 2.28300 43.44800
H  27.66100 2.33200 41.75900
Mg 53.77000 24.18300 44.65400
C  51.22000 26.38400 43.75900
C  51.97500 21.61900 43.36600
C  56.57200 22.26600 44.73800
C  55.59100 26.90400 45.77800
N  51.75100 23.98700 43.91900
C  50.97500 25.01500 43.46600
C  49.76600 24.37400 42.62300
C  49.77000 22.87700 43.06800
C  51.23300 22.78200 43.44800
C  48.83600 22.52800 44.18600
C  50.05700 24.63000 41.12000
C  51.43000 24.73800 40.56400
H  52.31600 23.45900 40.42300
N  54.19200 22.12400 44.20300
C  53.29200 21.28400 43.69400
C  53.92500 20.01100 43.38800
C  55.26500 20.10000 43.78100
C  55.38700 21.51900 44.33600
C  53.24400 18.83000 42.84500
C  56.32400 19.06100 43.76400
O  56.08400 18.00700 43.24500
C  57.66400 19.28300 44.45600
N  55.94800 24.59100 44.92800
C  56.78200 23.54700 45.13100
C  58.08300 24.04700 45.76600
C  57.74300 25.53300 46.00100
C  56.31800 25.74400 45.52600
C  58.62200 23.34400 47.06100
C  58.71600 26.54000 45.31300
C  58.55700 26.83700 43.77700
N  53.46900 26.17100 44.94200
C  54.25700 27.13500 45.47000
C  53.57300 28.46700 45.45700
C  52.38200 28.25200 44.76800
C  52.37400 26.80800 44.43800
C  54.19700 29.76700 45.83200
C  51.21400 28.89200 44.20900
O  50.76500 30.01000 44.29800
C  50.45400 27.70500 43.54100
C  50.30600 28.10600 42.09800
O  51.31600 28.40500 41.39300
O  49.01200 27.99600 41.68500
C  48.83200 28.50500 40.36800
H  51.54500 20.77300 42.82700
H  57.51900 21.72300 44.73900
H  56.26300 27.63500 46.23200
H  48.84900 24.95200 42.74100
H  49.64000 22.20800 42.21700
H  48.24200 23.39300 44.48000
H  49.42400 22.23100 45.05400
H  48.20000 21.69600 43.88200
H  49.31100 25.36000 40.80500
H  49.71700 23.77100 40.54200
H  51.94900 25.48700 41.16100
H  51.23700 25.28600 39.64200
H  53.82100 18.37600 42.04000
H  52.21300 19.01400 42.54200
H  53.20800 18.15100 43.69700
H  58.33100 19.87200 43.82600
H  58.12800 18.35300 44.78600
H  57.52500 19.73500 45.43800
H  58.81400 23.99900 44.95900
H  57.72700 25.75300 47.06800
H  59.61700 23.02500 46.75100
H  58.08000 22.41300 47.22600
H  58.79000 23.93700 47.96000
H  59.75900 26.26400 45.47200
H  58.61500 27.51800 45.78300
H  57.88300 26.07000 43.39700
H  59.52200 26.65800 43.30400
H  58.15200 27.84400 43.67500
H  53.87100 30.56800 45.16900
H  55.26200 29.60700 45.66400
H  54.05100 30.07400 46.86800
H  49.42700 27.68700 43.90500
H  49.64500 28.27900 39.67800
H  48.94700 29.58300 40.48000
H  47.81700 28.38900 39.98800

