158

Mg 2.61200 -1.52900 43.81600
C  6.12700 -0.72800 43.32100
C  1.85300 1.16600 41.87700
C  -0.55200 -2.56600 43.80600
C  3.78700 -4.57500 45.15000
N  3.87900 -0.04800 42.71600
C  5.25700 0.16200 42.67200
C  5.63800 1.47100 42.01200
C  4.26300 2.12700 41.74100
C  3.22700 1.01000 42.08100
C  4.15600 3.61500 42.46500
C  6.43300 1.22400 40.69900
C  7.76500 1.94300 40.51500
H  8.32200 2.23100 39.16100
N  0.87600 -0.72400 43.07300
C  0.79600 0.33600 42.30100
C  -0.63000 0.68000 42.07400
C  -1.38200 -0.39500 42.70300
C  -0.34200 -1.31000 43.20500
C  -1.08100 1.87500 41.27300
C  -2.92800 -0.47900 42.68500
O  -3.69700 0.43600 42.45200
C  -3.63900 -1.74500 43.02500
N  1.76200 -3.42300 44.15800
C  0.43000 -3.45000 44.27500
C  0.08800 -4.91200 44.95100
C  1.48000 -5.48600 45.43300
C  2.36400 -4.36600 44.93200
C  -1.10100 -5.13100 45.94200
C  1.77000 -6.85400 44.73800
C  2.41400 -7.96000 45.69600
N  4.56700 -2.49800 44.27900
C  4.82700 -3.71300 44.89100
C  6.25600 -3.88100 45.04100
C  6.81100 -2.72500 44.44800
C  5.72100 -1.94600 43.95700
C  6.99900 -5.02300 45.61400
C  8.07800 -2.00700 44.11000
O  9.22400 -2.37000 44.30600
C  7.67200 -0.65400 43.45000
C  7.99500 0.42200 44.33900
O  8.04500 0.36600 45.57000
O  8.36100 1.54700 43.58500
C  8.79700 2.78100 44.40900
H  1.59000 2.02000 41.24900
H  -1.53300 -3.00100 44.01100
H  3.92800 -5.52900 45.66300
H  6.23300 2.00000 42.75600
H  4.13200 2.26000 40.66700
H  4.15900 4.39800 41.70700
H  4.97500 3.90200 43.12500
H  3.23200 3.61100 43.04400
H  5.89400 1.32300 39.75700
H  6.68300 0.16500 40.64500
H  8.46700 1.23700 40.96000
H  7.72100 2.86600 41.09400
H  -0.74100 1.78100 40.24200
H  -0.59800 2.78200 41.63700
H  -2.15400 2.05300 41.34200
H  -4.70600 -1.72700 42.80500
H  -3.44000 -1.99600 44.06700
H  -3.29900 -2.54000 42.36100
H  -0.18900 -5.43900 44.03800
H  1.43500 -5.39500 46.51800
H  -0.64700 -5.74500 46.72000
H  -1.98500 -5.56100 45.47200
H  -1.38400 -4.19500 46.42600
H  2.47700 -6.66000 43.93200
H  0.86500 -7.30500 44.33200
H  2.76600 -7.35400 46.53100
H  3.36200 -8.32400 45.30000
H  1.71900 -8.77500 45.89800
H  7.97100 -4.91700 45.13200
H  6.50100 -5.95500 45.34600
H  7.00600 -4.78100 46.67700
H  8.17700 -0.58300 42.48700
H  7.93800 3.42200 44.60800
H  9.55100 3.31900 43.83500
H  9.30200 2.44600 45.31500
Mg 44.67800 4.34500 47.20600
C  42.82400 7.33600 47.30300
C  41.63500 2.67400 47.36300
C  46.33400 1.50700 46.55300
C  47.56400 6.25000 46.45400
N  42.48800 4.97300 47.12800
C  41.95600 6.25000 47.24300
C  40.47400 6.21500 47.15700
C  40.08900 4.70500 47.39700
C  41.47600 4.02800 47.27400
C  39.34700 4.37300 48.79200
C  39.79600 6.83700 45.86600
C  40.44400 6.89400 44.52400
H  39.80100 6.09800 43.37600
N  44.09000 2.36700 47.08200
C  42.77500 1.89200 47.23100
C  42.83500 0.49700 47.05100
C  44.10300 0.13800 46.53700
C  44.91300 1.35200 46.69600
C  41.58300 -0.45800 47.31600
C  44.47800 -1.19300 45.98100
O  43.70900 -2.14000 46.11800
C  45.82200 -1.54400 45.34300
N  46.69900 3.91200 46.53600
C  47.16100 2.64500 46.48000
C  48.67800 2.65900 46.32800
C  49.14500 4.18400 46.35400
C  47.67500 4.84700 46.46000
C  49.50900 1.82300 47.33500
C  50.04700 4.61500 45.16900
C  51.44700 3.94100 45.07000
N  45.19200 6.37400 47.01800
C  46.38200 7.00800 46.76000
C  46.14100 8.49200 46.59300
C  44.78500 8.60700 46.81500
C  44.26200 7.27300 47.08000
C  47.20300 9.55900 46.31200
C  43.74700 9.53800 46.92100
O  43.77400 10.77100 46.86500
C  42.43200 8.80200 47.24600
C  41.78400 9.20800 48.53400
O  41.88800 8.66500 49.60200
O  40.85400 10.20300 48.34300
C  40.11400 10.67100 49.49500
H  40.68400 2.13800 47.33300
H  46.79100 0.51500 46.56300
H  48.37600 6.97700 46.39000
H  40.13700 6.70100 48.07300
H  39.42800 4.34800 46.60800
H  39.04400 5.29100 49.29600
H  39.97600 3.86000 49.51900
H  38.43500 3.84500 48.51500
H  39.61600 7.89500 46.05500
H  38.85200 6.29800 45.78800
H  41.41200 6.46700 44.78600
H  40.71500 7.88600 44.16200
H  41.15200 -0.89400 46.41500
H  40.88700 0.12700 47.91600
H  41.88800 -1.34600 47.86900
H  46.51800 -1.77000 46.15100
H  46.05300 -0.73600 44.64900
H  45.83500 -2.44800 44.73500
H  48.98400 2.25000 45.36500
H  49.66900 4.45100 47.27100
H  48.97200 1.46900 48.21500
H  50.38700 2.30000 47.77100
H  49.95000 0.99900 46.77400
H  50.11400 5.70300 45.15700
H  49.44600 4.57500 44.26000
H  51.56200 3.32400 45.96100
H  52.33500 4.57000 45.11500
H  51.49100 3.31600 44.17800
H  46.79300 10.56800 46.26900
H  47.49400 9.32900 45.28700
H  47.94900 9.58900 47.10700
H  41.72900 9.02600 46.44300
H  40.14700 11.76100 49.49700
H  40.58700 10.50800 50.46300
H  39.05500 10.41800 49.44300

