158

Mg 45.43300 5.00500 48.35500
C  43.48100 7.76800 47.78500
C  42.69900 3.09300 47.55500
C  47.45900 2.29800 48.35800
C  48.22500 7.04800 48.66000
N  43.31600 5.38800 47.64400
C  42.75900 6.59700 47.56000
C  41.31300 6.48100 47.19800
C  41.07800 4.92600 47.39000
C  42.46900 4.43700 47.58900
C  39.91500 4.42500 48.24000
C  40.94900 6.95900 45.66700
C  39.76900 7.92400 45.40100
H  38.98500 7.49300 44.08600
N  45.15000 2.97200 47.98600
C  43.93700 2.41000 47.70000
C  44.12700 0.98900 47.47300
C  45.50400 0.70600 47.64800
C  46.13600 1.96100 48.01600
C  43.04100 0.06900 47.24900
C  46.13300 -0.72500 47.53800
O  45.50500 -1.67900 47.26500
C  47.61500 -0.91700 47.74600
N  47.51700 4.70800 48.51900
C  48.03600 3.48800 48.59400
C  49.51300 3.54300 48.91500
C  49.81800 5.07200 48.92400
C  48.44300 5.65500 48.68800
C  49.80400 2.83700 50.26600
C  50.80800 5.53100 47.79900
C  52.19700 6.12100 48.29000
N  45.80100 7.00800 48.36300
C  46.96200 7.69600 48.54700
C  46.77800 9.14700 48.32900
C  45.35400 9.22300 48.10600
C  44.88700 7.87000 48.07900
C  47.85400 10.27900 48.43600
C  44.17000 10.11100 47.98900
O  44.05100 11.33600 48.01300
C  42.93300 9.16800 47.62300
C  41.83800 9.50500 48.57100
O  41.56000 8.87300 49.56800
O  41.09400 10.59400 48.08600
C  40.21900 11.05600 49.19000
H  41.77400 2.53100 47.41300
H  48.17200 1.47500 48.43100
H  49.07500 7.67600 48.93600
H  40.79000 7.12700 47.90300
H  40.85700 4.54700 46.39300
H  39.41400 5.32400 48.59900
H  40.07500 3.67200 49.01100
H  39.09700 3.97500 47.67700
H  40.76300 6.09500 45.03100
H  41.86600 7.42200 45.30300
H  40.10900 8.95900 45.38200
H  39.02900 7.75400 46.18300
H  42.77300 -0.19400 48.27200
H  43.39300 -0.82800 46.74000
H  42.14800 0.45500 46.75500
H  47.85500 -0.96600 48.80800
H  48.14300 -0.24100 47.07400
H  47.68600 -1.90300 47.28900
H  50.10100 3.05000 48.14100
H  50.15600 5.56000 49.83800
H  49.73500 1.74900 50.24500
H  49.07300 3.25700 50.95700
H  50.76500 3.15000 50.67400
H  50.30300 6.11800 47.03200
H  51.08300 4.68800 47.16500
H  52.95000 5.33300 48.27300
H  52.09300 6.42800 49.33100
H  52.40300 6.93000 47.59000
H  48.85600 10.05100 48.07300
H  47.84600 10.35200 49.52300
H  47.56100 11.21000 47.95000
H  42.70600 9.42200 46.58800
H  39.46100 10.28300 49.31400
H  39.78400 12.00400 48.87600
H  40.86600 11.26400 50.04300
Mg 51.55400 45.77200 42.02300
C  48.64900 47.42100 40.98800
C  50.13600 42.89000 41.07900
C  54.64900 44.53200 42.13000
C  52.90300 48.91200 42.94200
N  49.58800 45.25600 41.12900
C  48.49200 46.04700 40.91500
C  47.29800 45.27400 40.45100
C  47.73100 43.83400 40.86100
C  49.25000 43.97500 40.89200
C  47.29000 43.27700 42.22700
C  46.83600 45.39600 38.98900
C  45.25300 45.24600 38.73800
H  44.77900 44.07500 37.89800
N  52.34000 43.94700 41.56100
C  51.58800 42.84600 41.29000
C  52.39500 41.69000 41.37200
C  53.75300 42.18300 41.36700
C  53.67000 43.64500 41.67200
C  51.84300 40.34600 41.06600
C  54.92100 41.32800 41.07100
O  54.85900 40.08900 40.79400
C  56.41200 41.95700 41.07200
N  53.56900 46.71400 42.45100
C  54.67000 45.85300 42.52700
C  55.98800 46.66600 42.93200
C  55.41800 47.99400 43.23900
C  53.86800 47.89100 42.99100
C  56.79500 45.91900 44.05400
C  55.95500 49.15800 42.22300
C  56.37500 50.41200 42.93800
N  50.96300 47.77500 42.10500
C  51.63200 48.94900 42.40600
C  50.78300 50.05200 42.34600
C  49.67400 49.48000 41.65800
C  49.81600 48.12100 41.56200
C  50.92000 51.48900 42.76400
C  48.33500 49.84300 41.15300
O  47.77800 50.94400 41.23600
C  47.69200 48.54300 40.59300
C  46.31000 48.32100 41.01000
O  45.42400 48.52300 40.26100
O  46.20800 48.02700 42.36000
C  44.84200 47.99000 42.84600
H  49.61900 41.93000 41.02100
H  55.66300 44.12800 42.16300
H  53.29200 49.90000 43.19600
H  46.47200 45.51500 41.12000
H  47.34400 43.09600 40.15800
H  46.71900 43.97800 42.83600
H  48.15300 43.13300 42.87700
H  46.76100 42.32400 42.23800
H  47.36600 44.72700 38.31100
H  47.06600 46.38900 38.60300
H  44.83400 46.09200 38.19300
H  44.73500 45.13600 39.69000
H  50.88300 40.16200 41.54900
H  52.55900 39.63300 41.47400
H  51.74800 40.23600 39.98500
H  56.68100 42.27800 42.07900
H  56.40300 42.85900 40.45900
H  57.11400 41.28000 40.58500
H  56.68900 46.62300 42.09900
H  55.67500 48.27500 44.26000
H  56.56300 46.34700 45.02900
H  57.87800 46.02400 43.98900
H  56.58900 44.85500 44.16700
H  55.21900 49.46600 41.48000
H  56.70200 48.74700 41.54400
H  56.25600 50.38400 44.02100
H  55.76300 51.28200 42.69900
H  57.39800 50.62700 42.62900
H  49.99600 51.74400 43.28300
H  51.11700 52.06600 41.86000
H  51.82100 51.58100 43.37100
H  47.71100 48.65300 39.50800
H  44.16000 47.28500 42.37000
H  44.37300 48.96800 42.74700
H  44.85700 47.67100 43.88800

