158

Mg -0.40800 7.33500 25.65100
C  0.62900 9.03600 28.62000
C  -0.43200 4.31600 27.50700
C  -0.57800 5.56100 22.83900
C  0.79900 10.08100 23.83100
N  0.07200 6.77700 27.81900
C  0.25700 7.68900 28.84100
C  0.14600 6.96300 30.30300
C  0.14100 5.44200 29.78400
C  -0.08300 5.43300 28.30500
C  1.41700 4.73200 30.34900
C  -1.20300 7.29000 30.95000
C  -1.13600 7.62400 32.46400
H  0.14800 7.20600 33.25900
N  -0.65300 5.21900 25.26600
C  -0.68200 4.21100 26.15800
C  -1.12100 2.99900 25.42700
C  -1.22900 3.35400 24.05200
C  -0.71900 4.74000 24.03700
C  -1.38300 1.65500 26.13200
C  -1.68100 2.49600 22.82300
O  -1.88700 3.01700 21.73500
C  -1.91900 1.01300 22.93800
N  -0.02300 7.75300 23.72300
C  -0.24700 6.92600 22.69700
C  -0.06100 7.48100 21.27800
C  0.42400 8.86300 21.62800
C  0.44900 8.89000 23.13300
C  0.72500 6.66000 20.28100
C  -0.36800 9.98800 20.93200
C  -1.64700 10.35700 21.67000
N  0.48700 9.16800 26.04500
C  0.89600 10.22400 25.22000
C  1.40000 11.32000 25.99200
C  1.24600 10.86100 27.29200
C  0.80400 9.55200 27.30200
C  1.75700 12.66400 25.51500
C  1.40500 11.37900 28.61700
O  1.83500 12.49200 29.01600
C  0.85400 10.22900 29.58700
C  1.80100 9.91800 30.64300
O  2.89300 9.34300 30.50900
O  1.41500 10.63400 31.70000
C  2.27900 10.62700 32.87000
H  -0.36700 3.42100 28.12800
H  -0.86300 5.05900 21.91200
H  1.15300 10.92400 23.23400
H  1.02800 7.18200 30.90600
H  -0.68400 4.82900 30.14700
H  1.83600 4.13700 29.53800
H  1.02400 4.14400 31.17800
H  2.13700 5.41300 30.80300
H  -1.79900 6.38300 30.84700
H  -1.64300 8.16700 30.47400
H  -1.93400 6.93600 32.74700
H  -1.31800 8.69400 32.56500
H  -2.44600 1.48500 25.95800
H  -1.07000 1.47400 27.16000
H  -0.82700 0.89700 25.57900
H  -1.00100 0.60500 23.36100
H  -1.94900 0.51900 21.96600
H  -2.77500 0.90700 23.60400
H  -1.01300 7.60500 20.76100
H  1.42400 9.03100 21.23000
H  -0.13000 6.15300 19.83400
H  1.53900 6.03800 20.65200
H  1.16200 7.24300 19.47100
H  -0.68400 9.84700 19.89900
H  0.31900 10.81600 20.75800
H  -2.46700 10.53000 20.97300
H  -1.57300 11.31200 22.19000
H  -1.96900 9.50300 22.26700
H  1.19600 12.89200 24.60800
H  2.80100 12.89400 25.30300
H  1.41000 13.33200 26.30300
H  -0.12600 10.51300 29.96900
H  1.74200 11.14000 33.66800
H  3.17800 11.19100 32.62300
H  2.66300 9.64200 33.13800
Mg 24.86100 -5.45300 46.22000
C  27.28900 -3.53500 44.48400
C  22.57700 -4.30000 43.88500
C  23.01800 -8.14000 46.90100
C  27.43500 -6.62000 48.25500
N  24.87000 -3.95300 44.48400
C  26.02400 -3.36800 43.95100
C  25.59700 -2.53500 42.73600
C  24.06700 -2.39400 42.86600
C  23.84100 -3.58300 43.77400
C  23.60900 -1.03800 43.45000
C  26.16700 -3.14700 41.51500
C  26.51900 -2.03100 40.39900
H  26.06800 -2.34100 38.96100
N  23.01900 -6.04300 45.53600
C  22.19300 -5.46500 44.65900
C  20.99400 -6.24900 44.44600
C  21.01600 -7.25400 45.38600
C  22.38100 -7.20300 46.00700
C  19.90900 -5.90000 43.39600
C  19.94500 -8.35400 45.56200
O  18.83000 -8.23800 45.01900
C  20.12300 -9.50600 46.54400
N  25.12400 -7.08000 47.39900
C  24.25900 -8.14300 47.48300
C  24.58400 -9.06000 48.71700
C  26.09000 -8.73800 48.87400
C  26.17600 -7.35700 48.22700
C  23.83900 -8.59600 49.90400
C  26.98400 -9.74700 48.08500
C  27.70800 -10.80100 48.91300
N  27.03500 -5.06500 46.43800
C  27.89400 -5.64800 47.31200
C  29.24600 -5.10000 47.08900
C  29.04000 -4.26400 46.00200
C  27.71000 -4.36100 45.60500
C  30.45900 -5.22800 47.91200
C  29.77100 -3.30700 45.09500
O  30.96400 -3.13600 45.02400
C  28.64400 -2.84400 44.08900
C  28.53200 -1.38500 44.14000
O  28.37000 -0.77600 45.17700
O  28.71300 -0.75100 42.91700
C  28.66900 0.77300 42.95200
H  21.88800 -3.84800 43.16800
H  22.37700 -8.97200 47.19800
H  28.13200 -7.14200 48.91500
H  26.02500 -1.56300 42.98100
H  23.51100 -2.63600 41.96000
H  24.35600 -0.27000 43.65000
H  23.01400 -1.31600 44.32000
H  22.91400 -0.46500 42.83600
H  25.40100 -3.88600 41.27800
H  27.05300 -3.72100 41.78600
H  27.60300 -2.13200 40.44200
H  26.16000 -1.04900 40.70700
H  19.97900 -4.94500 42.87600
H  18.92100 -5.87600 43.85600
H  20.01900 -6.68400 42.64700
H  19.24600 -10.09800 46.80400
H  20.38800 -8.96300 47.45100
H  20.93300 -10.15300 46.20700
H  24.39900 -10.11300 48.50300
H  26.47000 -8.72000 49.89500
H  22.76900 -8.55400 49.70100
H  24.17100 -7.59300 50.17400
H  23.94200 -9.30200 50.72800
H  27.73400 -9.21500 47.50000
H  26.41800 -10.37800 47.40000
H  27.74400 -10.45300 49.94600
H  28.71800 -10.96500 48.53800
H  27.13900 -11.72900 48.86600
H  30.78100 -4.21600 48.15700
H  31.17800 -5.82400 47.35000
H  30.30400 -5.80800 48.82200
H  28.92300 -3.07500 43.06100
H  27.81600 1.03700 43.57700
H  28.51200 1.06300 41.91300
H  29.55400 1.26300 43.35800

