158

Mg 30.28800 57.98200 40.62500
C  27.61000 55.79200 39.43900
C  32.50200 55.76900 39.12100
C  32.60300 60.33800 40.92900
C  27.68600 60.29200 41.36600
N  30.03400 55.96200 39.61400
C  28.86300 55.37900 39.10100
C  29.20100 54.01800 38.43900
C  30.73800 53.94800 38.58100
C  31.17000 55.33200 39.07800
C  31.20600 52.91100 39.64500
C  28.81600 53.94200 36.91300
C  29.12700 55.20600 35.98600
H  28.07900 55.62800 34.90800
N  32.30000 58.06200 40.11800
C  32.96300 57.05500 39.48400
C  34.39700 57.42100 39.36300
C  34.51100 58.71900 39.98500
C  33.12000 59.09300 40.39600
C  35.57000 56.60100 38.81300
C  35.78800 59.64000 40.15100
O  36.93300 59.19600 39.85500
C  35.61000 61.01400 40.86000
N  30.16300 59.96000 41.29800
C  31.27100 60.75300 41.25900
C  30.89200 62.22200 41.62000
C  29.32800 62.16800 41.72900
C  29.00600 60.72900 41.38200
C  31.54300 62.74900 42.93600
C  28.54300 63.24400 40.97600
C  28.23600 62.98400 39.52100
N  28.12200 58.01400 40.58900
C  27.25500 59.05900 40.85300
C  25.90600 58.63900 40.67600
C  26.01600 57.44000 40.11100
C  27.35900 57.09300 40.04600
C  24.73700 59.51100 41.14200
C  25.21700 56.32900 39.63400
O  24.01700 56.20300 39.49200
C  26.19200 55.23100 39.13400
C  25.95800 54.06000 40.10400
O  25.75700 54.18200 41.32700
O  25.76400 52.82000 39.50400
C  25.08800 51.84100 40.38400
H  33.18500 55.08500 38.61300
H  33.29400 61.18300 40.94800
H  26.89300 61.04100 41.32900
H  28.77600 53.12900 38.90400
H  31.25300 53.83900 37.62600
H  30.32100 52.75100 40.26100
H  32.05600 53.34800 40.16800
H  31.56500 51.95000 39.27600
H  27.75200 53.81000 36.71900
H  29.35700 53.06100 36.56600
H  29.96800 54.96100 35.33800
H  29.50700 56.06500 36.53900
H  36.16200 57.11500 38.05600
H  35.20300 55.77900 38.19900
H  36.06100 56.14400 39.67200
H  35.36900 61.83400 40.18400
H  36.61300 61.21300 41.23700
H  34.94700 60.96000 41.72400
H  31.22000 62.84700 40.78900
H  28.98000 62.22300 42.76000
H  32.38600 62.13000 43.24300
H  30.81900 62.84100 43.74500
H  31.99300 63.72000 42.72800
H  29.19100 64.11900 41.02100
H  27.66900 63.50400 41.57200
H  27.17500 62.78200 39.37800
H  28.72400 62.08200 39.15100
H  28.54000 63.88300 38.98500
H  24.32300 60.02800 40.27700
H  25.01400 60.22200 41.92100
H  23.95500 58.87300 41.55500
H  25.95000 54.92300 38.11700
H  24.38900 51.34400 39.71200
H  24.54800 52.12600 41.28600
H  25.83700 51.07500 40.58700
Mg -12.32600 37.43400 42.46000
C  -10.16800 35.00800 41.41800
C  -10.21300 39.92500 40.93600
C  -14.71500 39.83800 43.11400
C  -14.65700 34.87500 43.31400
N  -10.46800 37.45000 41.23200
C  -9.72100 36.28700 40.99200
C  -8.46400 36.57600 40.22200
C  -8.44300 38.16600 40.16100
C  -9.80900 38.58800 40.77800
C  -7.25400 38.87300 40.90000
C  -8.54200 35.86200 38.76200
C  -7.45900 34.88300 38.39700
H  -6.54500 35.30000 37.18100
N  -12.45200 39.58500 42.08300
C  -11.43800 40.40700 41.49600
C  -11.87700 41.82100 41.58800
C  -13.26400 41.84400 42.07800
C  -13.52700 40.40400 42.47700
C  -11.00600 43.01600 41.21100
C  -14.33800 42.97400 42.02000
O  -13.92700 44.04800 41.55600
C  -15.72700 42.91400 42.64900
N  -14.40600 37.33800 43.13400
C  -15.11800 38.50400 43.34600
C  -16.52000 38.19000 43.84700
C  -16.50900 36.62800 43.73200
C  -15.11400 36.20900 43.36500
C  -16.96700 38.80300 45.17700
C  -17.56500 36.17000 42.54900
C  -18.66800 35.29500 43.00800
N  -12.40500 35.41400 42.43700
C  -13.40900 34.46000 42.91700
C  -12.84200 33.06800 42.73100
C  -11.54700 33.30900 42.24700
C  -11.36000 34.69400 42.10100
C  -13.52400 31.71200 43.13400
C  -10.41000 32.58300 41.81100
O  -10.26600 31.35900 41.75600
C  -9.34100 33.70800 41.33000
C  -8.09000 33.63700 42.16900
O  -7.00400 33.82000 41.64500
O  -8.19300 33.54200 43.49600
C  -7.08100 33.98700 44.34300
H  -9.52700 40.72000 40.63600
H  -15.50200 40.50800 43.46600
H  -15.36400 34.04800 43.22700
H  -7.61700 36.17300 40.77800
H  -8.63600 38.47600 39.13400
H  -7.44100 38.99000 41.96800
H  -6.94700 39.85400 40.53900
H  -6.36500 38.25900 40.75200
H  -8.40400 36.65500 38.02600
H  -9.50100 35.40100 38.52400
H  -7.86900 33.89100 38.20800
H  -6.81100 34.84800 39.27300
H  -10.01800 42.74400 41.58200
H  -11.30100 43.85100 41.84600
H  -10.81500 43.16800 40.14800
H  -16.24900 43.87200 42.64800
H  -15.51200 42.47600 43.62400
H  -16.33500 42.22900 42.05900
H  -17.25100 38.64000 43.17600
H  -16.68100 36.12000 44.68100
H  -16.16600 39.06700 45.86800
H  -17.72900 38.17500 45.63800
H  -17.55500 39.69900 44.97700
H  -17.02600 35.58500 41.80300
H  -18.08000 36.99500 42.05900
H  -18.50400 34.96000 44.03300
H  -18.69100 34.32600 42.50800
H  -19.62800 35.77500 42.82100
H  -13.25100 30.89500 42.46600
H  -14.60700 31.75800 43.24900
H  -13.04700 31.45600 44.08000
H  -9.21900 33.47700 40.27200
H  -7.34100 34.49600 45.27100
H  -6.27200 34.42800 43.76000
H  -6.67400 33.01800 44.63200

