158

Mg 36.44200 49.06600 24.18800
C  36.57200 47.41800 27.26900
C  34.92500 51.83100 25.85400
C  35.81600 50.40300 21.27400
C  37.20900 45.94100 22.62500
N  35.87600 49.51700 26.29700
C  36.08200 48.74000 27.39900
C  35.77800 49.48200 28.64800
C  35.00400 50.77900 28.05400
C  35.28200 50.73400 26.60300
C  33.50200 50.62800 28.38400
C  37.14200 49.81100 29.37000
C  37.20300 49.74200 30.88400
H  35.87100 49.55200 31.65600
N  35.69600 50.95700 23.61100
C  35.07200 51.93400 24.43100
C  34.60500 53.03700 23.52600
C  34.96500 52.68400 22.20400
C  35.50100 51.31500 22.28900
C  33.97800 54.34100 24.02700
C  34.70400 53.49000 20.87300
O  34.90900 53.07400 19.70600
C  34.32000 54.90800 20.87200
N  36.28400 48.15100 22.24600
C  36.08600 49.00900 21.19300
C  36.38900 48.22400 19.91800
C  37.15200 46.95000 20.35900
C  36.85300 47.00800 21.83900
C  35.24600 47.98600 18.94400
C  38.64000 46.57700 20.00500
C  39.69300 47.43400 20.76700
N  36.92600 47.06100 24.73800
C  37.25800 45.89000 24.00400
C  37.67900 44.87700 24.91200
C  37.43900 45.35800 26.19500
C  36.97400 46.74200 26.01600
C  38.04100 43.47700 24.54800
C  37.41600 45.11600 27.62800
O  37.66400 44.03000 28.17600
C  36.80400 46.44800 28.36400
C  35.61100 45.97300 29.12000
O  34.51700 45.71300 28.60600
O  35.83300 45.94100 30.49400
C  34.76400 45.42200 31.33200
H  34.45300 52.65900 26.38700
H  35.73000 50.84600 20.28000
H  37.63800 45.10300 22.07200
H  35.16900 48.79600 29.23700
H  35.37600 51.66800 28.56500
H  33.32900 50.10500 29.32400
H  32.88000 50.22100 27.58700
H  33.24700 51.65800 28.63500
H  37.55100 50.71100 28.91100
H  37.88000 49.07200 29.05900
H  37.74300 50.60800 31.26900
H  37.84400 48.88400 31.08700
H  34.58300 55.21800 23.80100
H  33.77100 54.25800 25.09400
H  33.00300 54.34000 23.54100
H  34.51100 55.52600 21.74900
H  33.23900 54.86500 20.73900
H  34.78000 55.44900 20.04500
H  37.05200 48.89500 19.37200
H  36.69000 46.00400 20.07900
H  34.25900 48.27900 19.30200
H  35.00400 46.97000 18.63100
H  35.40800 48.56000 18.03100
H  38.73500 46.60900 18.92000
H  38.76100 45.55700 20.37100
H  40.15900 48.09500 20.03600
H  40.49300 46.79700 21.14700
H  39.21800 47.97400 21.58500
H  38.26600 43.33900 23.49000
H  37.25600 42.79200 24.86800
H  38.97500 43.24500 25.05900
H  37.47500 46.81500 29.14100
H  34.43100 44.46600 30.92800
H  33.87800 46.05700 31.35300
H  35.15500 45.27200 32.33900
Mg 9.58200 47.19100 25.33600
C  7.48700 47.57900 28.24800
C  12.03500 48.57500 27.15000
C  11.27900 47.08700 22.45900
C  6.55800 46.60000 23.53100
N  9.70700 47.86600 27.41500
C  8.76900 48.03400 28.40400
C  9.41200 48.65800 29.67300
C  10.77700 49.27600 29.13900
C  10.81200 48.50200 27.81200
C  10.76600 50.86700 29.04400
C  9.66000 47.54800 30.75600
C  9.05200 47.70400 32.17300
H  9.16800 46.51800 33.13100
N  11.42900 47.54400 24.86200
C  12.32600 48.10200 25.84100
C  13.61200 47.90600 25.28200
C  13.47600 47.55700 23.86600
C  12.02200 47.41000 23.62300
C  14.88500 48.29300 26.11300
C  14.54400 47.43600 22.85700
O  14.31800 47.18900 21.68900
C  15.99500 47.50900 23.31200
N  9.01400 46.91100 23.30000
C  9.92900 46.85400 22.26500
C  9.29400 46.57300 20.94400
C  7.79300 46.29200 21.34700
C  7.77600 46.56200 22.80100
C  9.40400 47.57000 19.78200
C  7.26800 44.91500 20.96100
C  7.66600 43.76300 21.87400
N  7.39500 47.17200 25.71900
C  6.35900 46.88800 24.91500
C  5.08900 46.83700 25.72200
C  5.51400 47.01900 27.05900
C  6.93700 47.34700 26.98700
C  3.80000 46.51600 25.19400
C  5.12700 47.12500 28.48000
O  4.05700 46.92700 29.04200
C  6.44500 47.46100 29.31900
C  6.73700 46.19200 30.14600
O  7.47900 45.26800 29.90600
O  5.96500 46.31200 31.24500
C  5.95400 45.12900 32.14600
H  12.83500 49.13200 27.64200
H  11.88000 47.05700 21.54700
H  5.62800 46.39300 22.99600
H  8.73100 49.44300 30.00000
H  11.63100 49.03300 29.77100
H  11.69200 51.25700 29.46800
H  9.82000 51.15900 29.50000
H  10.63400 51.26800 28.03900
H  10.73700 47.42700 30.86800
H  9.46000 46.61200 30.23300
H  8.00100 47.94500 32.01300
H  9.45500 48.59800 32.64800
H  14.70000 48.30000 27.18800
H  15.44800 49.16400 25.78000
H  15.60500 47.47600 26.06800
H  16.12000 48.50000 23.74800
H  16.74300 47.38300 22.53000
H  16.08600 46.71700 24.05500
H  9.76300 45.65700 20.58600
H  7.17500 47.03200 20.83800
H  9.88100 48.49500 20.10700
H  8.45200 47.89400 19.36200
H  10.03700 47.01000 19.09400
H  7.62700 44.70000 19.95400
H  6.18400 45.02800 20.94000
H  8.34400 43.10100 21.33500
H  6.72900 43.22300 22.00900
H  8.15000 44.10300 22.78900
H  3.37700 47.44200 24.80400
H  3.19700 46.19600 26.04400
H  3.87300 45.77800 24.39600
H  6.31600 48.27300 30.03400
H  6.82100 45.20400 32.80300
H  5.83000 44.18100 31.62400
H  5.00900 45.11400 32.68900

