158

Mg 53.19300 24.58200 45.13300
C  50.68600 26.87100 44.13500
C  51.50300 22.07100 43.50100
C  55.86600 22.62500 45.59500
C  55.11600 27.36000 46.01700
N  51.30300 24.57000 43.82700
C  50.38200 25.56500 43.67000
C  49.14900 25.03200 42.87000
C  49.28800 23.48200 43.03000
C  50.81100 23.35400 43.49700
C  48.45100 22.60500 44.04200
C  49.12700 25.55500 41.37000
C  50.48200 25.81000 40.70400
H  50.40600 26.23000 39.28500
N  53.51800 22.66200 44.78200
C  52.73000 21.73900 44.13100
C  53.27900 20.43000 44.29200
C  54.48600 20.51800 45.02800
C  54.64800 21.98100 45.21100
C  52.55100 19.21400 43.85200
C  55.39500 19.37200 45.50200
O  55.15800 18.17100 45.31000
C  56.68300 19.51200 46.33700
N  55.24800 24.98300 45.49700
C  56.15700 24.00800 45.64100
C  57.52900 24.59900 45.85800
C  57.34200 26.13300 45.77700
C  55.84300 26.21000 45.70400
C  58.23200 24.07100 47.17100
C  58.15400 26.71900 44.58000
C  57.38600 27.09300 43.27700
N  52.91900 26.64900 45.22700
C  53.73500 27.62400 45.73800
C  53.00300 28.90300 45.78700
C  51.79100 28.61300 45.21400
C  51.79300 27.25400 44.85100
C  53.48600 30.13300 46.46700
C  50.56100 29.17900 44.78400
O  50.17700 30.32100 44.86400
C  49.72700 28.04500 44.05800
C  49.50600 28.56400 42.68700
O  50.39600 28.91100 41.91700
O  48.14500 28.76700 42.46700
C  47.80300 29.10300 41.09200
H  50.97900 21.18900 43.12500
H  56.75700 22.03700 45.82700
H  55.75500 28.23500 46.15000
H  48.30300 25.43100 43.43100
H  49.10400 22.91400 42.11800
H  48.22100 21.71800 43.45200
H  47.55200 23.19100 44.23200
H  48.86100 22.32500 45.01200
H  48.55700 26.48100 41.44000
H  48.61100 24.84900 40.71900
H  51.12200 24.92900 40.76100
H  51.10200 26.44000 41.34100
H  51.59400 19.11300 44.36200
H  53.07200 18.26100 43.93800
H  52.29100 19.43900 42.81700
H  56.98300 18.58500 46.82500
H  56.52200 20.26800 47.10600
H  57.55300 19.79800 45.74600
H  58.17800 24.24000 45.05900
H  57.58300 26.66200 46.69900
H  58.68800 24.80700 47.83400
H  59.14700 23.52000 46.95400
H  57.59300 23.40400 47.75000
H  58.93100 26.07800 44.16400
H  58.40500 27.73400 44.88900
H  56.69000 26.36600 42.86000
H  58.08600 27.18500 42.44600
H  56.94600 28.08800 43.35200
H  53.60200 30.98100 45.79200
H  54.47100 30.08700 46.93300
H  52.75800 30.37300 47.24100
H  48.85000 27.86700 44.68000
H  47.88100 30.19000 41.11300
H  46.78600 28.85700 40.78700
H  48.39600 28.58900 40.33500
Mg 1.49800 42.58200 26.57100
C  3.12300 42.75900 29.65000
C  -1.37900 41.61500 28.24500
C  0.12500 41.87600 23.66800
C  4.56700 43.10600 25.06600
N  0.95000 42.31400 28.61500
C  1.73400 42.51900 29.73300
C  0.86600 42.29700 31.03100
C  -0.38700 41.73500 30.52700
C  -0.32400 41.89500 29.02800
C  -0.77300 40.34700 31.11500
C  0.82300 43.69300 31.73100
C  1.12700 43.65300 33.25900
H  0.83800 42.35400 34.00600
N  -0.45700 41.92500 26.01700
C  -1.46200 41.54500 26.83100
C  -2.50600 40.95300 26.00500
C  -2.12600 41.07600 24.63800
C  -0.78000 41.64400 24.73600
C  -3.60500 40.21500 26.61800
C  -2.81200 40.68200 23.37100
O  -2.27500 40.78800 22.23400
C  -4.28900 40.18900 23.48600
N  2.38300 42.35400 24.65700
C  1.50100 42.14300 23.61400
C  2.25400 42.09000 22.26500
C  3.62900 42.68500 22.64100
C  3.56500 42.74400 24.20900
C  2.47700 40.63800 21.67300
C  3.85800 44.15500 22.01700
C  2.84200 45.24700 22.45700
N  3.51100 43.07900 27.16700
C  4.60300 43.19300 26.46800
C  5.67000 43.55300 27.34600
C  5.14800 43.40300 28.59300
C  3.77300 43.13500 28.47300
C  7.09400 43.83100 26.96200
C  5.46400 43.30800 30.05400
O  6.56300 43.44600 30.60300
C  4.11400 43.04500 30.72400
C  4.33500 42.09200 31.74500
O  4.04800 40.95100 31.57100
O  4.68700 42.66300 32.96400
C  4.93300 41.61500 33.97300
H  -2.27100 41.36400 28.82300
H  -0.21900 41.77800 22.63600
H  5.56100 43.27600 24.64700
H  1.29400 41.66700 31.81100
H  -1.20700 42.42000 30.74400
H  -0.97600 39.75700 30.22100
H  -1.73100 40.42800 31.62700
H  -0.05800 39.88700 31.79700
H  -0.16100 44.12200 31.53700
H  1.56500 44.33200 31.25200
H  0.69800 44.56800 33.66800
H  2.17700 43.94800 33.25900
H  -4.50300 40.37600 26.02100
H  -3.84400 40.45600 27.65400
H  -3.35900 39.15600 26.68700
H  -4.98700 40.89300 23.93800
H  -4.42000 39.18400 23.88600
H  -4.69200 40.10600 22.47600
H  1.90400 42.77300 21.49100
H  4.56200 42.12200 22.60500
H  3.50700 40.28400 21.72200
H  2.08400 40.67000 20.65700
H  1.86900 39.87000 22.15200
H  3.81500 43.98400 20.94100
H  4.87200 44.43600 22.30200
H  2.40000 45.05400 23.43400
H  2.07900 45.31100 21.68000
H  3.42200 46.16800 22.51800
H  7.15500 44.91500 26.86600
H  7.29000 43.37800 25.99000
H  7.76100 43.36600 27.68700
H  3.81700 44.01900 31.11200
H  5.96100 41.29700 33.79600
H  4.26100 40.78200 33.76700
H  4.68200 42.03800 34.94600

