158

Mg 28.33300 58.21700 43.07800
C  25.84000 56.40200 41.36300
C  30.70400 56.42600 41.19900
C  30.55700 60.71900 43.65700
C  25.82600 60.19300 44.51200
N  28.26300 56.68000 41.51000
C  27.16200 56.01300 41.04400
C  27.59400 54.91400 39.96100
C  29.07700 54.72400 40.22800
C  29.34300 56.05000 40.98700
C  29.50200 53.45500 41.03300
C  27.31100 55.39900 38.54000
C  26.83400 54.26600 37.53900
H  27.59300 54.15100 36.13800
N  30.40900 58.46800 42.54200
C  31.18900 57.58600 41.93300
C  32.52600 58.11000 41.93600
C  32.54400 59.30400 42.66100
C  31.11900 59.57200 42.96700
C  33.65200 57.41700 41.15700
C  33.78800 60.22700 42.83000
O  34.96200 59.95300 42.77600
C  33.59200 61.70000 43.19900
N  28.28300 60.25000 43.76000
C  29.26400 61.03200 44.09000
C  28.86800 62.26200 44.97300
C  27.36900 62.00600 45.15800
C  27.11300 60.72000 44.41100
C  29.68600 62.38600 46.33900
C  26.43100 63.22900 44.83600
C  25.80000 63.21200 43.51700
N  26.24800 58.14800 43.12200
C  25.38900 59.08800 43.69400
C  24.02000 58.65500 43.47200
C  24.22200 57.54900 42.55600
C  25.55700 57.33200 42.30500
C  22.78300 59.24000 44.02800
C  23.38900 56.57600 41.78300
O  22.18700 56.42900 41.75200
C  24.47500 55.79800 40.88800
C  24.33000 54.31300 41.05200
O  24.85600 53.68500 41.95500
O  23.55200 53.71800 39.99500
C  23.60000 52.25100 39.94900
H  31.44100 55.80200 40.68800
H  31.30600 61.36900 44.11600
H  25.09800 60.78300 45.07300
H  26.98700 54.05300 40.24200
H  29.60200 54.58600 39.28300
H  30.06700 53.70900 41.93000
H  30.02500 52.73800 40.40000
H  28.73800 52.79300 41.44100
H  28.18700 55.84800 38.07300
H  26.65100 56.26700 38.53500
H  25.85900 54.66500 37.26100
H  26.70100 53.28900 38.00300
H  33.55000 56.33500 41.24800
H  34.58400 57.73200 41.62400
H  33.67900 57.77900 40.12900
H  32.69300 62.11700 42.74600
H  34.44500 62.32100 42.92500
H  33.41400 61.67600 44.27400
H  29.06700 63.12100 44.33200
H  27.16500 61.83100 46.21400
H  30.50700 63.08800 46.19100
H  30.12400 61.40600 46.52600
H  28.96100 62.63600 47.11300
H  27.04800 64.12800 44.84700
H  25.63800 63.42600 45.55800
H  25.82000 64.20600 43.06900
H  24.72100 63.08400 43.60100
H  26.23200 62.40800 42.92100
H  22.26200 59.80600 43.25600
H  22.89200 59.81600 44.94700
H  22.19900 58.34000 44.22300
H  24.28500 56.07100 39.84900
H  24.67100 52.09800 39.81800
H  23.04800 51.78100 39.13500
H  23.29400 51.80000 40.89200
Mg -2.61800 34.14900 26.24200
C  -4.16100 32.75500 29.10000
C  -1.48400 36.66900 28.29200
C  -1.38100 35.67500 23.49800
C  -4.30700 31.83200 24.23700
N  -2.86900 34.69500 28.36300
C  -3.37900 33.89800 29.31800
C  -3.21600 34.41200 30.71600
C  -2.51700 35.75700 30.51400
C  -2.19900 35.68900 28.98100
C  -3.33200 37.02400 30.89700
C  -2.47000 33.24800 31.53300
C  -2.99900 32.81700 32.92700
H  -2.04200 32.66700 34.13900
N  -1.50900 35.86200 25.93200
C  -1.04300 36.71100 26.92500
C  -0.22300 37.70200 26.29500
C  -0.13200 37.31100 24.94700
C  -0.99200 36.20100 24.74800
C  0.27600 38.97500 26.93600
C  0.59100 38.11200 23.81800
O  0.57200 37.88300 22.63600
C  1.45800 39.36000 24.15800
N  -2.84300 33.78700 24.15200
C  -2.31300 34.65400 23.22100
C  -2.63100 34.10800 21.80300
C  -3.52900 32.89400 22.05800
C  -3.55400 32.78600 23.52900
C  -3.29900 35.04400 20.79700
C  -3.09100 31.65600 21.17100
C  -2.08800 30.67400 21.75300
N  -3.86500 32.54000 26.52900
C  -4.46200 31.69500 25.62700
C  -5.22600 30.72800 26.33300
C  -5.21100 31.15300 27.66200
C  -4.34500 32.25400 27.77500
C  -5.92600 29.60300 25.71800
C  -5.78700 30.92500 29.04400
O  -6.60700 30.13300 29.42200
C  -5.01000 31.83300 30.05400
C  -6.04500 32.60800 30.81100
O  -6.89500 33.33000 30.31000
O  -6.17900 32.14900 32.10800
C  -7.30500 32.63300 32.87800
H  -0.97700 37.41200 28.91200
H  -1.06900 36.23600 22.61400
H  -4.86800 31.16000 23.58400
H  -4.20000 34.48300 31.18000
H  -1.57400 35.93800 31.03000
H  -3.50600 37.66400 30.03200
H  -2.87400 37.64200 31.67000
H  -4.29900 36.66500 31.24900
H  -1.42700 33.54500 31.64500
H  -2.51200 32.33400 30.94100
H  -3.59100 31.90700 32.82300
H  -3.71300 33.59800 33.18800
H  -0.12300 39.85200 26.42700
H  1.35600 39.03600 26.80400
H  0.06800 39.22600 27.97600
H  2.00500 39.62100 23.25200
H  2.25400 39.17200 24.87900
H  0.84100 40.21200 24.44600
H  -1.64000 33.81400 21.45600
H  -4.58600 33.08600 21.87500
H  -3.70800 35.96000 21.22400
H  -3.94400 34.51300 20.09700
H  -2.44400 35.39900 20.22200
H  -2.57100 32.03600 20.29200
H  -3.98300 31.14200 20.81000
H  -2.51000 29.69800 21.99200
H  -1.69600 31.06600 22.69100
H  -1.18500 30.64100 21.14400
H  -5.42200 29.35300 24.78500
H  -6.95700 29.89100 25.50900
H  -6.02300 28.72300 26.35400
H  -4.56800 31.03400 30.64800
H  -7.93700 31.78600 33.14500
H  -8.00400 33.35800 32.46100
H  -6.88000 32.98000 33.81900

