158

Mg 8.03100 3.24700 27.83400
C  9.56300 1.60400 30.44000
C  6.30600 5.19600 30.12300
C  6.32300 4.72300 25.18900
C  9.31200 0.86200 25.65400
N  7.80800 3.18900 29.99700
C  8.70700 2.63200 30.84700
C  8.55000 3.24600 32.28300
C  7.27400 4.15200 32.21700
C  7.15700 4.21700 30.66300
C  5.98200 3.61200 32.95300
C  9.86700 3.83500 32.97100
C  10.42500 3.16400 34.16400
H  10.96100 4.01500 35.26800
N  6.52000 4.69800 27.65600
C  6.01100 5.47200 28.73000
C  5.30700 6.57200 28.14600
C  5.34300 6.45200 26.73200
C  6.04600 5.24400 26.46300
C  4.60100 7.46500 29.18700
C  4.73100 7.41700 25.75100
O  4.92200 7.19300 24.54400
C  4.06900 8.66400 26.25200
N  7.76200 2.74900 25.74000
C  7.07500 3.51500 24.87700
C  7.20500 2.93200 23.39500
C  8.06200 1.57400 23.65000
C  8.44200 1.74200 25.10400
C  5.86800 2.75500 22.67000
C  9.29200 1.47600 22.62500
C  9.49000 0.14400 21.97100
N  9.34500 1.56300 27.97800
C  9.73800 0.67100 27.03200
C  10.60900 -0.23900 27.67700
C  10.68800 0.06900 29.06500
C  9.79900 1.17700 29.12900
C  11.25000 -1.35300 26.87800
C  11.15500 -0.35000 30.36000
O  11.93700 -1.23500 30.70300
C  10.39100 0.63400 31.26900
C  9.55300 -0.00200 32.28100
O  8.48100 -0.65100 32.09800
O  10.09700 0.08000 33.54400
C  9.15700 -0.29200 34.65000
H  5.93500 5.84700 30.91700
H  6.02200 5.23800 24.27400
H  9.63100 0.07500 24.96700
H  8.33300 2.34700 32.86100
H  7.38700 5.20200 32.48600
H  5.30200 3.20500 32.20500
H  5.56000 4.36200 33.62100
H  6.26500 2.73600 33.53700
H  9.46100 4.78900 33.31000
H  10.73500 3.99200 32.33100
H  11.18800 2.42100 33.92900
H  9.66100 2.50700 34.58000
H  5.29900 8.10000 29.73400
H  4.16500 6.84400 29.97000
H  3.85900 8.17200 28.81600
H  4.76700 9.30800 26.78800
H  3.17300 8.42900 26.82600
H  3.71700 9.16300 25.35000
H  7.74700 3.67500 22.81000
H  7.44700 0.67600 23.60500
H  5.78800 3.34300 21.75600
H  5.09500 3.10300 23.35700
H  5.62100 1.70800 22.49800
H  10.15800 1.61500 23.27200
H  9.27600 2.22500 21.83400
H  8.68700 -0.55100 22.21700
H  10.44300 -0.13600 22.42000
H  9.48700 0.20500 20.88300
H  11.84800 -0.91000 26.08200
H  10.63900 -2.16300 26.47900
H  11.94700 -1.85000 27.55200
H  11.15700 1.10300 31.88700
H  8.74600 -1.28300 34.45700
H  8.48800 0.56200 34.74900
H  9.83100 -0.40600 35.49900
Mg 36.54700 48.79400 25.25700
C  36.49400 46.83900 28.18800
C  34.59400 51.04500 26.76800
C  36.17600 50.33900 22.23600
C  38.15200 46.12200 23.62900
N  35.58800 48.90700 27.22800
C  35.83300 48.07300 28.30800
C  35.48900 48.73300 29.66300
C  34.72200 50.02200 29.21000
C  34.97500 49.99400 27.63600
C  33.17100 50.02400 29.53500
C  36.70400 48.83000 30.64500
C  36.69600 48.07400 31.99800
H  35.36000 47.95400 32.66900
N  35.48200 50.46400 24.55200
C  34.73800 51.26200 25.36900
C  34.20700 52.38200 24.59700
C  34.67600 52.32000 23.26000
C  35.50700 51.00600 23.27000
C  33.38800 53.44600 25.30200
C  34.46600 53.18100 22.10400
O  35.21900 52.96500 21.13100
C  33.53200 54.37700 22.11100
N  37.08500 48.30200 23.24500
C  36.84400 49.12800 22.17400
C  37.50200 48.59600 20.88300
C  38.22100 47.32300 21.41900
C  37.89600 47.32900 22.86000
C  36.56500 48.37400 19.58700
C  39.79000 47.27700 21.30300
C  40.35300 46.90000 19.93100
N  37.29500 46.92800 25.77700
C  37.87700 45.95100 25.00500
C  38.15300 44.73600 25.85400
C  37.61600 45.07000 27.12900
C  37.14200 46.39400 26.99900
C  38.68700 43.39800 25.36800
C  37.42700 44.56200 28.45700
O  37.76000 43.51400 28.98900
C  36.73500 45.72500 29.27100
C  35.42600 45.17600 29.77400
O  34.44100 45.26800 29.09800
O  35.53900 44.49700 30.93500
C  34.28200 43.83700 31.37900
H  34.02200 51.76500 27.35800
H  36.12800 50.93100 21.31900
H  38.55200 45.17000 23.27300
H  34.82000 48.06600 30.20700
H  35.23200 50.89700 29.61200
H  32.84700 49.16900 30.12800
H  32.45700 50.07600 28.71300
H  33.04300 50.93800 30.11500
H  37.01500 49.84700 30.88300
H  37.44800 48.38300 29.98600
H  37.21100 48.75500 32.67500
H  37.29100 47.16500 31.90100
H  32.32700 53.23300 25.43500
H  33.49700 54.35900 24.71700
H  33.84300 53.70000 26.25900
H  32.52000 53.97900 22.17700
H  33.44700 54.76500 21.09600
H  33.75200 55.26300 22.70700
H  38.38100 49.15700 20.56500
H  37.79400 46.45900 20.91100
H  35.57100 48.79100 19.74800
H  36.43300 47.30800 19.40700
H  36.93000 48.94500 18.73300
H  40.15700 46.63700 22.10500
H  40.26400 48.22300 21.56300
H  41.02900 47.70000 19.62900
H  39.64100 46.72300 19.12500
H  40.90600 45.97300 20.08700
H  39.41700 43.56600 24.57700
H  37.91800 42.65700 25.14900
H  39.31400 42.95700 26.14300
H  37.40900 46.08500 30.05000
H  33.94400 43.09900 30.65100
H  33.47500 44.56400 31.47100
H  34.39400 43.45500 32.39400

