158

Mg -1.95400 16.95400 27.33700
C  -2.76300 14.77500 30.01100
C  -2.00100 19.48600 29.65600
C  -1.38900 19.08000 24.76800
C  -2.32700 14.31200 25.10600
N  -2.26900 17.08700 29.59700
C  -2.50000 16.09900 30.51400
C  -2.35900 16.59400 31.96700
C  -2.21700 18.18000 31.76300
C  -2.20100 18.26700 30.23100
C  -3.40700 18.95600 32.39700
C  -1.10100 15.97200 32.66200
C  -0.61700 16.70800 33.96400
H  -0.38700 15.82400 35.25100
N  -1.77300 19.03000 27.28300
C  -1.83900 19.91600 28.36200
C  -1.74900 21.31900 27.84500
C  -1.61900 21.17000 26.41400
C  -1.54100 19.71500 26.07900
C  -1.70600 22.57900 28.72900
C  -1.62800 22.28000 25.38700
O  -1.62200 22.03100 24.18200
C  -1.70000 23.74900 25.79000
N  -1.84200 16.74600 25.29200
C  -1.56500 17.72100 24.43700
C  -1.58300 17.33800 22.97200
C  -1.60300 15.81400 23.08900
C  -1.96900 15.56600 24.56300
C  -2.78600 17.87200 22.15000
C  -0.40200 15.08800 22.43800
C  0.83700 15.03300 23.31000
N  -2.48600 14.99200 27.46100
C  -2.67100 14.02700 26.46200
C  -3.15000 12.79100 27.04100
C  -3.10200 12.99000 28.40600
C  -2.73400 14.34900 28.66100
C  -3.46700 11.55300 26.11200
C  -3.35800 12.38900 29.71000
O  -3.60700 11.26300 29.97000
C  -3.07000 13.46500 30.79300
C  -1.92100 13.06400 31.54200
O  -0.73100 13.14000 31.17900
O  -2.29500 12.58700 32.77800
C  -1.27900 12.10500 33.68500
H  -1.84200 20.29800 30.36700
H  -1.08800 19.80900 24.01300
H  -2.32900 13.46000 24.42300
H  -3.17900 16.37800 32.65100
H  -1.31300 18.57100 32.23000
H  -3.21800 19.50600 33.31900
H  -4.23700 18.28900 32.63100
H  -3.90600 19.56400 31.64300
H  -0.33100 16.00800 31.89100
H  -1.23700 14.96200 33.04800
H  -1.34100 17.49000 34.19300
H  0.33200 17.07100 33.57000
H  -1.73300 22.35500 29.79500
H  -2.64800 23.08800 28.52200
H  -0.82100 23.14400 28.44000
H  -2.73300 23.89200 26.10700
H  -1.30400 24.45600 25.06200
H  -1.00700 24.02100 26.58600
H  -0.59300 17.58400 22.58700
H  -2.49500 15.41300 22.60900
H  -3.52300 18.31000 22.82300
H  -3.35800 17.15400 21.56300
H  -2.43000 18.65600 21.48000
H  -0.23000 15.53500 21.45900
H  -0.81800 14.08600 22.32800
H  0.73400 15.73600 24.13700
H  1.70800 15.38800 22.75800
H  0.95500 13.97600 23.55000
H  -3.89700 11.92200 25.18000
H  -4.21100 10.91200 26.58500
H  -2.55200 10.97500 25.98400
H  -3.96700 13.57500 31.40200
H  -1.43100 11.03900 33.85700
H  -1.15700 12.58900 34.65400
H  -0.28800 12.11300 33.23000
Mg 34.83800 2.91500 30.04000
C  32.56300 4.22000 32.53900
C  37.35000 3.29200 32.24400
C  36.82000 2.11100 27.56000
C  32.14700 3.13700 27.88800
N  34.91800 3.74300 32.14800
C  33.88100 4.00100 32.98900
C  34.35400 4.12800 34.44900
C  35.91300 4.10500 34.28100
C  36.06300 3.69100 32.81400
C  36.57800 5.42100 34.59600
C  33.85900 2.93700 35.32600
C  33.74400 3.05700 36.84000
H  34.40700 4.29900 37.31800
N  36.84400 2.71800 29.88200
C  37.70300 2.90700 30.91800
C  39.08100 2.61200 30.44000
C  38.92500 2.18800 29.08100
C  37.49100 2.28100 28.77900
C  40.17300 2.75800 31.29000
C  39.98600 1.58600 28.05900
O  39.78200 1.41900 26.84800
C  41.29900 1.01300 28.58800
N  34.59900 3.00100 27.98300
C  35.50100 2.37000 27.14900
C  34.97100 2.32600 25.69600
C  33.44100 2.33100 25.97600
C  33.42500 2.88200 27.36300
C  35.40800 3.43600 24.75400
C  32.60500 1.04000 25.73400
C  31.47900 1.19300 24.64700
N  32.75800 3.48200 30.16600
C  31.79100 3.44900 29.19400
C  30.48900 3.89700 29.78900
C  30.80500 4.13400 31.09100
C  32.19200 4.00200 31.22000
C  29.21800 4.07600 29.03000
C  30.17500 4.61100 32.25500
O  29.05300 4.96500 32.55700
C  31.33700 4.67700 33.27200
C  31.44800 5.99900 33.90600
O  32.19900 6.89200 33.52900
O  30.72300 6.03500 35.11100
C  30.91100 7.23100 35.96900
H  38.20200 3.44800 32.90900
H  37.40100 1.97700 26.64500
H  31.23400 3.15000 27.28900
H  34.10000 5.12400 34.81400
H  36.39800 3.32600 34.87000
H  36.89400 5.36900 35.63800
H  35.91300 6.26100 34.39300
H  37.42800 5.65900 33.95700
H  34.53700 2.10100 35.15600
H  32.89500 2.62200 34.92700
H  34.29000 2.23100 37.29600
H  32.71400 3.01100 37.19200
H  40.28400 3.80700 31.56300
H  41.10700 2.43400 30.82900
H  39.95600 2.14200 32.16200
H  41.34300 0.49000 29.54300
H  41.83700 1.93700 28.80400
H  41.89800 0.41100 27.90400
H  35.11900 1.32700 25.28500
H  32.90600 3.15400 25.50100
H  35.94500 4.16700 25.35800
H  34.61000 3.95900 24.22800
H  36.08300 3.08000 23.97500
H  32.06300 0.80600 26.65000
H  33.22500 0.23500 25.33900
H  31.43800 2.20500 24.24600
H  30.47300 1.02400 25.03100
H  31.77900 0.60100 23.78200
H  28.43700 3.37100 29.31300
H  29.40400 4.08100 27.95600
H  28.82200 5.05900 29.28300
H  31.11000 4.01300 34.10600
H  31.77500 7.04100 36.60600
H  30.07300 7.33600 36.65800
H  30.98400 8.16100 35.40500

