158

Mg -10.00500 40.06300 43.15200
C  -8.69300 37.11500 42.12500
C  -7.87800 41.74100 41.02200
C  -11.91500 42.95400 43.40000
C  -12.67400 38.33500 44.61800
N  -8.60500 39.45400 41.56600
C  -8.09600 38.18900 41.41500
C  -6.98400 38.08800 40.42200
C  -6.66600 39.62500 40.15000
C  -7.72900 40.35700 40.97700
C  -5.18400 40.09700 40.56100
C  -7.49500 37.33800 39.16200
C  -6.65600 36.18600 38.58000
H  -5.56400 36.62000 37.58500
N  -9.80100 42.17000 42.48200
C  -8.78100 42.62900 41.63200
C  -9.01000 44.02900 41.40200
C  -10.20300 44.43400 42.07900
C  -10.72100 43.14400 42.74700
C  -8.21200 44.90200 40.41900
C  -10.83700 45.83700 41.93700
O  -10.25300 46.66700 41.22800
C  -12.06600 46.33000 42.66400
N  -12.02800 40.65600 43.85000
C  -12.53400 41.83100 43.92100
C  -14.02000 41.71700 44.46700
C  -14.20100 40.27100 44.81100
C  -12.87600 39.68000 44.41200
C  -14.30300 42.65900 45.70100
C  -15.39100 39.56600 44.08600
C  -16.23800 38.56000 44.91800
N  -10.49100 38.05600 43.54400
C  -11.58000 37.50700 44.13500
C  -11.42300 36.05200 44.20300
C  -10.16200 35.83000 43.40500
C  -9.75000 37.11700 43.00700
C  -12.39500 35.04300 44.76100
C  -9.24800 34.82200 42.82500
O  -9.25100 33.62700 42.85700
C  -8.11100 35.63900 42.16100
C  -6.89200 35.56900 43.04000
O  -6.52600 36.23100 43.99600
O  -6.28600 34.36300 42.78500
C  -4.98100 34.18400 43.40600
H  -7.07200 42.37200 40.64200
H  -12.59300 43.80800 43.34000
H  -13.45800 37.81300 45.17100
H  -6.14400 37.52200 40.82700
H  -6.81000 39.86500 39.09600
H  -5.32100 40.34900 41.61200
H  -4.76200 40.98300 40.08800
H  -4.50600 39.25200 40.44100
H  -7.61100 38.01500 38.31600
H  -8.47700 36.90700 39.35900
H  -7.14900 35.27100 38.25200
H  -5.98000 35.88100 39.37900
H  -8.72400 45.14800 39.48800
H  -7.29900 44.41100 40.08100
H  -7.79800 45.78100 40.91300
H  -12.28900 47.38400 42.49400
H  -11.89700 46.20400 43.73300
H  -12.92700 45.80700 42.24800
H  -14.59600 42.05100 43.60400
H  -14.25400 40.04100 45.87500
H  -14.85100 42.09500 46.45600
H  -14.97300 43.47700 45.43800
H  -13.40200 43.15300 46.06300
H  -14.98700 39.08600 43.19400
H  -16.11800 40.36300 43.93200
H  -15.59600 38.02900 45.62100
H  -16.75200 37.81700 44.30700
H  -17.06400 39.05600 45.42700
H  -12.30000 34.94300 45.84200
H  -12.40200 34.11900 44.18200
H  -13.42700 35.36900 44.63100
H  -7.96400 35.38700 41.11100
H  -5.03400 33.44300 44.20400
H  -4.61300 35.13600 43.78800
H  -4.39000 33.82500 42.56300
Mg -3.10500 34.52000 26.51500
C  -4.28900 33.17200 29.62300
C  -1.21200 36.69700 28.43100
C  -2.65200 36.28100 23.66200
C  -4.84100 32.08500 24.88000
N  -2.85400 34.92200 28.77600
C  -3.29300 34.14700 29.84700
C  -2.67300 34.58900 31.16500
C  -1.91200 35.86300 30.80900
C  -1.97200 35.84300 29.26800
C  -2.41600 37.17100 31.48100
C  -1.87000 33.45800 31.95600
C  -2.45800 33.12800 33.39300
H  -1.48200 33.02200 34.55500
N  -2.08500 36.29800 26.13900
C  -1.29300 36.92800 27.02800
C  -0.56000 37.92700 26.21400
C  -1.04100 37.84100 24.89700
C  -1.92800 36.70500 24.82000
C  0.39000 38.86200 26.88600
C  -0.68400 38.74100 23.73200
O  -0.84900 38.37300 22.56800
C  -0.07200 40.17600 23.96200
N  -3.74300 34.38200 24.57100
C  -3.39600 35.12100 23.51700
C  -3.93800 34.48700 22.18300
C  -4.23500 33.01000 22.60600
C  -4.26300 33.15400 24.12800
C  -5.17900 35.21900 21.59800
C  -3.22900 31.92000 22.14000
C  -3.98000 30.61300 21.83500
N  -4.43100 33.01500 27.08700
C  -4.88200 31.98600 26.28200
C  -5.55900 30.97000 27.16500
C  -5.37200 31.37800 28.44300
C  -4.70300 32.63600 28.38100
C  -6.36000 29.83500 26.63900
C  -5.56500 31.06900 29.88000
O  -6.16800 30.14700 30.41500
C  -4.88300 32.21400 30.62600
C  -5.86600 32.88900 31.49100
O  -6.63300 33.78000 31.16800
O  -5.74600 32.36300 32.76900
C  -6.48300 32.92300 33.80900
H  -0.55900 37.43200 28.90700
H  -2.63700 36.91700 22.77500
H  -5.29200 31.14400 24.55800
H  -3.50100 34.84900 31.82500
H  -0.89000 35.77900 31.17800
H  -2.18300 37.12700 32.54500
H  -3.50300 37.18300 31.40000
H  -1.92400 38.04300 31.05000
H  -0.86100 33.84400 32.10200
H  -1.74400 32.50700 31.43700
H  -2.96900 32.16600 33.37400
H  -3.14800 33.89300 33.74700
H  1.07300 39.22800 26.11900
H  1.02100 38.33300 27.60000
H  -0.13700 39.59800 27.49400
H  -0.47800 40.77100 23.14300
H  1.00300 40.04500 23.84300
H  -0.26400 40.55400 24.96600
H  -3.11700 34.65300 21.48500
H  -5.29000 32.80300 22.43200
H  -5.01000 35.73300 20.65200
H  -5.47400 36.04900 22.24100
H  -6.02200 34.55000 21.42500
H  -2.58300 31.75200 23.00200
H  -2.84400 32.31800 21.20100
H  -3.39300 30.06900 21.09500
H  -4.92500 30.90200 21.37600
H  -4.10000 29.96400 22.70300
H  -6.31200 28.91000 27.21300
H  -6.15000 29.64100 25.58700
H  -7.38800 30.15900 26.79700
H  -4.03600 31.84400 31.20400
H  -5.81000 33.65100 34.26100
H  -6.79700 32.22100 34.58100
H  -7.36900 33.36000 33.34700

