158

Mg 1.38400 41.93300 24.93100
C  2.32900 42.18800 28.37400
C  -1.54000 40.55900 25.97000
C  0.55600 41.41000 21.73800
C  4.60500 42.77200 23.97900
N  0.45900 41.55600 26.95300
C  1.03800 41.66500 28.19800
C  0.04800 41.35400 29.30000
C  -1.17300 40.77400 28.55800
C  -0.77200 40.94500 27.07200
C  -1.49400 39.33200 28.88500
C  -0.25500 42.63100 30.09400
C  -0.47400 42.45000 31.62200
H  -1.53600 41.49500 32.21700
N  -0.26200 41.21100 24.00300
C  -1.32600 40.66300 24.62300
C  -2.32000 40.21300 23.66100
C  -1.81100 40.49600 22.34000
C  -0.45700 41.05800 22.63500
C  -3.79800 39.83600 24.01000
C  -2.46200 40.35400 20.93500
O  -1.95800 40.74900 19.90200
C  -3.73900 39.67200 20.82800
N  2.39100 42.12800 23.10900
C  1.85200 41.79500 21.90500
C  2.95900 41.89200 20.77900
C  4.13700 42.62100 21.53600
C  3.70000 42.50900 22.94900
C  3.30000 40.52500 20.13500
C  4.29400 44.12800 21.08800
C  3.21200 45.10900 21.58800
N  3.15500 42.35800 25.92000
C  4.36200 42.73700 25.39400
C  5.28900 42.90000 26.46600
C  4.52000 42.69000 27.61600
C  3.20600 42.45200 27.26500
C  6.75000 43.17100 26.36900
C  4.68900 42.62800 29.06300
O  5.70900 42.75500 29.78100
C  3.28400 42.27200 29.59200
C  3.43000 41.06200 30.46200
O  3.80200 39.96700 30.07000
O  3.00500 41.33400 31.73000
C  3.04400 40.14000 32.68600
H  -2.53800 40.22700 26.26300
H  0.40100 41.10600 20.70100
H  5.63700 42.98700 23.69300
H  0.52200 40.64400 29.97800
H  -2.07800 41.36500 28.69800
H  -2.48100 39.39600 29.34200
H  -0.80700 38.89100 29.60700
H  -1.62100 38.69600 28.00900
H  -1.16000 43.21500 29.92300
H  0.52000 43.37500 29.91300
H  -0.63500 43.39700 32.13600
H  0.45800 42.05500 32.02700
H  -3.91500 38.86700 24.49400
H  -4.53900 40.00100 23.22700
H  -4.08500 40.61300 24.71800
H  -3.77800 38.86700 21.56200
H  -3.85300 39.06800 19.92700
H  -4.52800 40.42300 20.85900
H  2.56100 42.44800 19.93000
H  5.09200 42.09900 21.47800
H  2.46400 40.23300 19.50000
H  3.41800 39.76700 20.91000
H  4.23000 40.71500 19.59900
H  4.32900 44.29300 20.01100
H  5.28000 44.39400 21.46900
H  3.64200 45.68000 22.41100
H  2.24500 44.69000 21.86400
H  3.10700 45.81300 20.76200
H  6.97200 44.13700 25.91600
H  7.27500 42.45600 25.73600
H  7.30700 43.01100 27.29200
H  2.90900 43.09100 30.20600
H  4.06600 40.22000 33.05800
H  2.82200 39.14500 32.30200
H  2.35000 40.31600 33.50800
Mg -5.98900 25.43700 26.55500
C  -4.52000 26.84300 29.48400
C  -7.76400 23.36700 28.68000
C  -7.09100 23.94000 23.85100
C  -3.59100 27.23300 24.73800
N  -6.02000 25.06000 28.83600
C  -5.50700 25.87500 29.81600
C  -5.96900 25.44800 31.16800
C  -6.68700 24.06600 30.93600
C  -6.79400 24.13100 29.43100
C  -5.82800 22.84400 31.22900
C  -6.91800 26.55400 31.83000
C  -7.38600 26.28800 33.25100
H  -6.75800 25.11100 34.10000
N  -7.33700 23.89200 26.25700
C  -7.93700 23.16900 27.26700
C  -8.89300 22.22900 26.63900
C  -8.81800 22.41800 25.19200
C  -7.74200 23.44900 25.02700
C  -9.81200 21.29100 27.48100
C  -9.58800 21.72900 24.04700
O  -9.27000 21.97400 22.90000
C  -10.62400 20.72000 24.40500
N  -5.29900 25.47800 24.61300
C  -5.98000 24.81500 23.66000
C  -5.26300 24.98800 22.29700
C  -4.34600 26.20200 22.53800
C  -4.40900 26.37200 24.04100
C  -4.39100 23.73500 21.75000
C  -4.70900 27.50900 21.84500
C  -3.55500 28.21300 21.02500
N  -4.41800 26.81100 26.95400
C  -3.52700 27.43000 26.11200
C  -2.54800 28.18500 26.85800
C  -2.96500 28.00800 28.20000
C  -4.06300 27.12000 28.18700
C  -1.29000 28.86600 26.22900
C  -2.55700 28.31900 29.56500
O  -1.56900 28.92000 30.00500
C  -3.63100 27.58600 30.52300
C  -2.77100 26.79300 31.38200
O  -2.20500 25.73100 31.06200
O  -2.87000 27.25700 32.68500
C  -2.24900 26.33800 33.71500
H  -8.41300 22.71200 29.26500
H  -7.46000 23.55700 22.89700
H  -2.82800 27.74600 24.14900
H  -5.08000 25.26100 31.77000
H  -7.63300 23.97900 31.46900
H  -5.00900 23.09100 31.90500
H  -5.43400 22.35900 30.33600
H  -6.34100 22.09000 31.82500
H  -7.78400 26.73300 31.19200
H  -6.32000 27.46500 31.80400
H  -8.44800 26.04800 33.20200
H  -7.33000 27.25300 33.75600
H  -10.58300 20.80700 26.88300
H  -10.19700 21.93700 28.27000
H  -9.33100 20.45800 27.99400
H  -10.94300 20.25800 23.47100
H  -11.50100 21.24000 24.79200
H  -10.27300 19.91500 25.05000
H  -5.99800 25.22800 21.52900
H  -3.31700 25.90300 22.33900
H  -4.73600 23.40500 20.76900
H  -4.52500 22.91600 22.45700
H  -3.34100 24.00900 21.65600
H  -4.99800 28.19700 22.64000
H  -5.59300 27.43000 21.21200
H  -2.67600 27.58200 20.88900
H  -3.28300 29.20600 21.38500
H  -3.74800 28.46200 19.98100
H  -1.54600 29.89100 25.96300
H  -0.96300 28.29900 25.35700
H  -0.38300 28.80400 26.83100
H  -4.20900 28.26600 31.15000
H  -2.59600 25.30400 33.73000
H  -2.24000 26.79800 34.70300
H  -1.17600 26.41700 33.53800

