158

Mg 7.97100 2.42500 27.99500
C  9.73100 1.07700 30.90400
C  6.05100 4.00200 30.27400
C  6.24800 3.44300 25.39600
C  9.69700 0.03400 26.13000
N  7.88400 2.47900 30.25800
C  8.77000 2.03300 31.23000
C  8.55200 2.67400 32.62500
C  7.26400 3.46800 32.40800
C  7.01300 3.28900 30.85600
C  6.09300 2.96800 33.28300
C  9.83600 3.47200 33.19100
C  10.36700 2.93700 34.55600
H  10.33800 3.98000 35.72200
N  6.42000 3.50200 27.82800
C  5.73200 4.12700 28.92400
C  4.59800 4.86800 28.34400
C  4.70200 4.78700 26.89700
C  5.85500 3.89700 26.62900
C  3.57800 5.58400 29.20300
C  3.91600 5.39300 25.76500
O  4.09800 5.13600 24.58400
C  2.88800 6.34700 26.08100
N  8.04400 1.90600 26.01600
C  7.16700 2.45900 25.10500
C  7.38100 1.79600 23.69400
C  8.55200 0.84400 23.93800
C  8.78000 0.88100 25.45600
C  6.07500 1.19500 23.09900
C  9.88200 1.22300 23.18700
C  10.80000 0.11000 22.77100
N  9.50200 0.80800 28.34500
C  10.01600 -0.03800 27.46000
C  10.96600 -0.87800 28.17400
C  10.88400 -0.44700 29.54100
C  9.95400 0.49200 29.59300
C  11.85800 -1.88300 27.52200
C  11.45000 -0.65800 30.88800
O  12.32800 -1.45300 31.20500
C  10.62200 0.33000 31.81700
C  9.71400 -0.53800 32.66100
O  8.75300 -1.19500 32.26300
O  10.05800 -0.41900 33.95700
C  9.40100 -1.23400 35.00200
H  5.52800 4.61400 31.01100
H  5.70700 3.59200 24.45800
H  10.25400 -0.67000 25.50800
H  8.42400 1.80200 33.26700
H  7.51300 4.48000 32.72800
H  6.49600 2.36100 34.09300
H  5.19500 2.56900 32.81000
H  5.71000 3.83200 33.82700
H  9.64800 4.52600 33.39700
H  10.68100 3.40300 32.50600
H  11.37100 2.51700 34.50700
H  9.76900 2.16300 35.03800
H  2.69300 4.95400 29.29300
H  3.08600 6.42900 28.72100
H  3.90100 5.76900 30.22700
H  2.12500 5.92800 26.73600
H  2.46200 6.64300 25.12300
H  3.34400 7.18800 26.60500
H  7.76900 2.45300 22.91500
H  8.16900 -0.09700 23.54200
H  6.11100 0.14100 22.82500
H  5.73300 1.84200 22.29200
H  5.28600 1.17300 23.85000
H  10.40500 1.91500 23.84700
H  9.72100 1.76700 22.25600
H  10.94700 0.09000 21.69100
H  10.40000 -0.83100 23.14800
H  11.78800 0.26200 23.20800
H  12.06800 -1.71400 26.46600
H  11.26200 -2.79500 27.55600
H  12.80700 -1.97500 28.05000
H  11.42300 0.93700 32.23900
H  10.13200 -1.94500 35.38400
H  8.55700 -1.82200 34.64100
H  8.97400 -0.61500 35.79200
Mg 17.97100 50.72800 26.09400
C  19.75800 49.08400 28.61800
C  15.75300 51.65900 28.43300
C  16.00300 51.84300 23.56800
C  20.14900 49.50600 23.70200
N  17.73200 50.19900 28.29700
C  18.67300 49.74300 29.14600
C  18.26500 50.02500 30.58000
C  16.79100 50.50900 30.46800
C  16.76400 50.87700 28.99800
C  15.77400 49.52700 30.91800
C  19.15200 51.07100 31.25500
C  19.43500 50.92700 32.80600
H  18.44000 51.71700 33.59700
N  16.10500 51.73300 25.99000
C  15.38800 52.00200 27.14300
C  14.22500 52.70400 26.74500
C  14.26400 52.77100 25.33400
C  15.48200 52.08100 24.89200
C  13.18300 53.17600 27.74900
C  13.30800 53.49000 24.39500
O  13.53100 53.65700 23.19300
C  11.99800 54.14300 24.85900
N  18.12400 50.67800 23.91100
C  17.18800 51.26500 23.11600
C  17.47800 51.10600 21.60000
C  18.88600 50.37100 21.62000
C  19.08300 50.13400 23.17200
C  16.44400 50.47000 20.68200
C  19.98800 51.15800 20.81900
C  20.91800 50.30200 19.86200
N  19.68900 49.56700 26.06200
C  20.44400 49.16100 25.10000
C  21.61800 48.47700 25.63400
C  21.36600 48.35400 26.95300
C  20.16100 49.04000 27.21200
C  22.83200 48.03200 24.81800
C  21.81300 47.88700 28.28200
O  22.85000 47.30200 28.56900
C  20.89300 48.47900 29.40700
C  20.56600 47.44400 30.39600
O  19.93600 46.48500 30.09900
O  20.95000 47.76700 31.64600
C  20.46800 46.84100 32.67300
H  15.00600 52.06400 29.11900
H  15.42900 52.34600 22.78700
H  20.87200 49.28300 22.91400
H  18.28400 49.15200 31.23300
H  16.65400 51.34000 31.16000
H  14.85500 49.98000 31.29000
H  16.17100 48.98400 31.77700
H  15.66800 48.69300 30.22400
H  18.68800 52.04500 31.10000
H  20.11000 51.27500 30.77500
H  20.43800 51.33000 32.94500
H  19.47700 49.88100 33.10700
H  12.26000 52.59800 27.70100
H  12.81300 54.13800 27.39700
H  13.59000 53.43500 28.72700
H  12.28400 55.10100 25.29300
H  11.52300 53.54100 25.63400
H  11.22800 54.37300 24.12300
H  17.68400 52.14300 21.33500
H  18.93500 49.35500 21.22800
H  15.60200 50.04800 21.23100
H  16.84900 49.57400 20.21400
H  15.99200 51.18400 19.99300
H  20.65700 51.58600 21.56500
H  19.61100 52.02800 20.28000
H  21.97600 50.19100 20.09800
H  20.80300 50.67200 18.84300
H  20.54400 49.28300 19.75700
H  23.68400 48.68700 25.00300
H  22.66500 48.03100 23.74100
H  23.23300 47.11600 25.25300
H  21.50300 49.20200 29.94900
H  20.83100 45.83600 32.45500
H  19.40100 46.92100 32.87600
H  20.91700 47.13700 33.62100

