158

Mg 42.64800 41.23400 27.87200
C  41.50700 43.63400 30.30200
C  43.37900 39.11200 30.40400
C  43.96600 39.24000 25.59300
C  42.65900 44.00900 25.50800
N  42.53700 41.48600 30.02800
C  41.94700 42.40800 30.79900
C  41.91700 42.00900 32.23200
C  42.71200 40.68200 32.26400
C  42.90700 40.37700 30.76400
C  44.05500 40.78900 33.02000
C  40.49600 42.02500 32.90500
C  40.30900 43.07000 34.04000
H  39.49900 42.51600 35.31900
N  43.45100 39.35700 27.95100
C  43.54300 38.55600 29.06300
C  43.94200 37.15900 28.71700
C  44.08800 37.21800 27.33200
C  43.92100 38.66700 26.88600
C  43.97400 36.04200 29.69800
C  44.30200 36.04200 26.41200
O  44.64300 36.14900 25.23900
C  44.13400 34.65600 27.03500
N  43.15000 41.59200 25.85600
C  43.70500 40.53900 25.11400
C  43.84500 40.93000 23.64200
C  43.30900 42.42600 23.58000
C  43.06800 42.75000 25.08200
C  45.25100 40.77900 23.04200
C  42.04400 42.57400 22.70800
C  40.67700 42.31400 23.43800
N  42.14700 43.35500 27.90500
C  42.20300 44.29100 26.78500
C  41.67900 45.53400 27.26000
C  41.32200 45.29400 28.66900
C  41.68200 43.97200 28.97700
C  41.37000 46.74900 26.42600
C  40.68400 45.88800 29.91900
O  40.18300 46.96000 30.13100
C  40.91900 44.87000 31.02100
C  41.93100 45.48200 31.94000
O  43.12800 45.27900 31.80200
O  41.27000 46.20300 32.92400
C  41.94900 46.74200 34.16000
H  43.54400 38.36600 31.18500
H  44.30000 38.53300 24.83200
H  42.56400 44.80400 24.76700
H  42.41900 42.80900 32.77700
H  42.07700 39.91500 32.70600
H  44.26400 40.00900 33.75200
H  44.06500 41.75100 33.53200
H  44.92600 40.96000 32.38700
H  40.25500 41.08500 33.40200
H  39.65400 42.11700 32.21800
H  39.75600 43.89000 33.58100
H  41.26000 43.41100 34.44900
H  43.15500 35.35500 29.48200
H  43.79000 36.29200 30.74300
H  44.84600 35.40100 29.57100
H  43.20900 34.48500 27.58500
H  44.96800 34.16200 27.53300
H  44.07700 33.96300 26.19500
H  43.11200 40.29600 23.14400
H  44.09400 43.11700 23.27500
H  45.22400 39.86000 22.45700
H  45.99200 40.53400 23.80200
H  45.53300 41.50100 22.27600
H  41.99200 41.86900 21.87900
H  41.98400 43.49900 22.13400
H  40.76000 42.01800 24.48300
H  39.93600 41.71200 22.91200
H  40.17200 43.28000 23.45100
H  40.52600 46.59600 25.75400
H  42.23100 47.08500 25.84700
H  41.07700 47.53400 27.12300
H  39.95300 44.60900 31.45400
H  42.89000 47.23500 33.91600
H  42.12900 45.96800 34.90600
H  41.25000 47.44800 34.60900
Mg -6.19100 24.96400 26.18200
C  -4.60700 26.59600 28.96200
C  -7.73900 23.01100 28.42300
C  -7.24300 23.04100 23.70300
C  -3.97000 26.61100 24.11300
N  -6.05000 24.85600 28.36800
C  -5.45600 25.58100 29.26800
C  -5.80800 25.26100 30.74800
C  -6.52000 23.93100 30.50100
C  -6.78500 23.90300 29.01200
C  -5.87400 22.58400 31.05800
C  -6.50400 26.38000 31.46600
C  -5.93900 26.78100 32.86600
H  -5.14200 25.75200 33.67600
N  -7.46500 23.36700 26.08500
C  -8.06900 22.75700 27.10700
C  -8.98900 21.81300 26.63900
C  -8.92100 21.82600 25.28300
C  -7.85700 22.78600 24.94600
C  -9.80300 20.91400 27.54000
C  -9.67700 20.99500 24.25400
O  -9.43000 21.03700 23.00900
C  -10.76300 20.13000 24.65000
N  -5.81000 24.96000 24.14600
C  -6.22700 23.91000 23.37500
C  -5.51100 23.87500 22.02100
C  -4.56400 25.19100 22.10000
C  -4.75000 25.60600 23.55300
C  -4.82600 22.50400 21.78000
C  -4.84200 26.29600 21.02700
C  -3.71700 26.59100 20.04500
N  -4.66000 26.48300 26.41300
C  -3.90100 26.98100 25.47900
C  -3.02800 27.96900 25.97100
C  -3.26100 27.87400 27.39600
C  -4.24800 26.92600 27.61600
C  -2.13100 28.92400 25.22300
C  -2.95000 28.38600 28.74100
O  -2.19000 29.29200 29.08100
C  -3.73600 27.49100 29.81100
C  -2.55500 26.86700 30.53600
O  -2.12000 25.69700 30.41200
O  -2.20600 27.63900 31.53500
C  -1.25800 27.09400 32.55000
H  -8.28900 22.41700 29.15600
H  -7.66500 22.68700 22.76000
H  -3.22300 27.12800 23.50800
H  -4.94100 24.93100 31.32000
H  -7.47900 23.95200 31.01800
H  -5.56700 21.91600 30.25400
H  -6.61300 22.03400 31.64200
H  -5.00200 22.78900 31.67900
H  -7.55200 26.13900 31.64500
H  -6.58500 27.26200 30.83000
H  -6.88000 26.91400 33.40000
H  -5.31100 27.66800 32.93800
H  -10.85300 20.94000 27.24700
H  -9.69400 21.09000 28.61000
H  -9.50300 19.88500 27.34200
H  -10.44900 19.34400 25.33700
H  -11.11100 19.60700 23.75900
H  -11.50200 20.83000 25.03900
H  -6.22400 23.90500 21.19700
H  -3.52100 24.87600 22.11900
H  -3.80700 22.81800 21.55200
H  -5.32500 21.97200 20.97000
H  -4.86100 22.01000 22.75000
H  -5.16100 27.13500 21.64600
H  -5.73700 25.88600 20.55800
H  -2.84000 25.94900 20.12900
H  -3.41000 27.63500 19.99400
H  -4.13500 26.41400 19.05400
H  -2.81900 29.65900 24.80400
H  -1.62100 28.42600 24.39900
H  -1.33600 29.32500 25.85200
H  -4.39700 28.08800 30.43900
H  -0.28600 26.98900 32.06800
H  -1.55000 26.10900 32.91300
H  -1.26200 27.82300 33.36000

