158

Mg 1.47800 8.42000 27.06200
C  2.20700 10.24300 29.87300
C  1.32100 5.45800 28.91300
C  1.30200 6.57800 24.22100
C  2.19100 11.32000 25.11100
N  1.71800 7.87700 29.12100
C  1.85000 8.85000 30.13700
C  1.77100 8.27400 31.59600
C  1.74900 6.71900 31.24900
C  1.56200 6.65900 29.70500
C  2.99100 5.96100 31.82300
C  0.50500 8.72800 32.34700
C  0.42100 8.55900 33.89600
H  1.74000 7.95300 34.54800
N  1.22200 6.25900 26.59600
C  1.16900 5.24100 27.51400
C  0.89700 3.97600 26.76600
C  0.98700 4.29500 25.36100
C  1.17200 5.73000 25.35500
C  0.76800 2.67100 27.58800
C  1.00000 3.37900 24.16300
O  1.25300 3.83700 23.02300
C  0.69900 1.85700 24.46800
N  1.77400 8.87500 24.94900
C  1.49200 7.92500 24.02200
C  1.78900 8.50200 22.63800
C  1.94400 10.01300 22.85400
C  2.02900 10.06000 24.37300
C  2.98400 7.88400 21.91100
C  0.91700 10.93400 22.19800
C  -0.53600 10.68000 22.52300
N  1.96900 10.40000 27.34200
C  2.29000 11.45400 26.52600
C  2.57500 12.66800 27.27700
C  2.66300 12.19700 28.58700
C  2.21300 10.82400 28.57700
C  2.96000 13.99900 26.72700
C  2.86600 12.64200 29.91900
O  3.24900 13.76600 30.35200
C  2.45100 11.44600 30.90800
C  3.52500 11.27500 31.87700
O  4.60900 10.71000 31.77000
O  3.09900 11.87600 33.00400
C  3.85700 11.70200 34.20900
H  1.24400 4.55000 29.51600
H  1.14400 5.97300 23.32600
H  2.53100 12.09400 24.41900
H  2.69900 8.62600 32.04600
H  0.86700 6.36300 31.78100
H  3.49500 6.56500 32.57700
H  3.70500 5.70300 31.04100
H  2.60800 5.05800 32.29800
H  -0.33400 8.17900 31.92100
H  0.31600 9.78200 32.14200
H  -0.43900 8.00800 34.27400
H  0.33000 9.56800 34.29900
H  1.62100 2.00600 27.45300
H  0.02000 2.09300 27.04500
H  0.45600 2.77400 28.62700
H  -0.21700 1.79500 25.05500
H  1.52200 1.51500 25.09500
H  0.66500 1.46100 23.45300
H  0.95800 8.24300 21.98300
H  2.93200 10.34100 22.53200
H  3.42500 8.64900 21.27200
H  2.69800 7.09900 21.21000
H  3.68800 7.61900 22.70000
H  0.97400 10.83000 21.11500
H  1.17100 11.93100 22.55900
H  -1.04200 10.18000 21.69700
H  -1.03800 11.56400 22.91600
H  -0.60300 10.09100 23.43800
H  2.10800 14.55000 26.32900
H  3.65400 13.84500 25.90100
H  3.38700 14.72100 27.42300
H  1.45700 11.71100 31.26800
H  3.11700 11.37700 34.94000
H  4.31600 12.67900 34.36400
H  4.67700 10.98500 34.18000
Mg 47.48100 35.75000 26.31500
C  45.68000 34.22500 29.04000
C  48.46200 38.30500 28.37600
C  48.88800 37.01000 23.57100
C  46.23500 32.97100 24.25100
N  47.02200 36.21600 28.34700
C  46.36600 35.39800 29.37700
C  46.60500 35.94500 30.76900
C  47.23900 37.34900 30.46500
C  47.65400 37.32300 28.97200
C  46.31100 38.55000 30.63200
C  47.62700 35.02100 31.54500
C  47.50500 34.78000 33.03300
H  46.69500 35.83800 33.80400
N  48.59500 37.41500 26.02000
C  48.90200 38.30900 27.00600
C  49.70800 39.34200 26.34800
C  49.85700 38.97600 24.95200
C  49.04300 37.78500 24.77000
C  50.27800 40.45800 27.16000
C  50.58100 39.67900 23.76300
O  50.70800 39.21900 22.60100
C  51.11800 41.15500 24.00100
N  47.39700 35.07600 24.14000
C  48.18800 35.77500 23.34100
C  48.35500 35.04200 21.95600
C  47.53000 33.72900 22.22300
C  47.07500 33.87000 23.66400
C  47.90700 35.88300 20.79000
C  48.35700 32.40600 22.05500
C  47.88700 31.51500 20.93200
N  46.03000 34.01000 26.53400
C  45.77400 33.00300 25.58300
C  45.07800 32.00600 26.30400
C  44.95000 32.42100 27.66100
C  45.59600 33.67700 27.71400
C  44.50800 30.71900 25.80000
C  44.41900 32.07600 28.96200
O  43.72900 31.13300 29.32300
C  44.77100 33.30000 29.83400
C  45.16000 32.76000 31.19500
O  45.94800 31.85200 31.39400
O  44.38700 33.43500 32.14700
C  44.36100 32.75800 33.47900
H  48.84300 39.09600 29.02500
H  49.53300 37.28900 22.73400
H  46.01700 32.10600 23.62000
H  45.64800 35.89300 31.28800
H  48.17000 37.61200 30.96700
H  46.00700 39.05600 29.71600
H  46.84500 39.24500 31.28000
H  45.38300 38.28000 31.13600
H  48.63900 35.41500 31.45000
H  47.85200 34.11100 30.98900
H  48.55100 34.75300 33.33700
H  47.21600 33.74200 33.19500
H  49.85800 41.41700 26.85700
H  51.35700 40.47700 27.00500
H  50.16700 40.45400 28.24500
H  51.61500 41.36900 23.05500
H  51.83300 41.16600 24.82400
H  50.23400 41.78100 24.11700
H  49.42200 34.82200 21.97300
H  46.67300 33.76800 21.55000
H  47.46200 35.26300 20.01200
H  48.75900 36.52100 20.55600
H  47.16800 36.58500 21.17900
H  48.32000 31.70700 22.88900
H  49.40800 32.59300 21.83400
H  47.22600 30.69000 21.19700
H  48.80100 31.05700 20.55200
H  47.44000 32.12000 20.14400
H  43.45700 30.76300 25.51300
H  44.70800 30.08100 26.66100
H  45.18100 30.29400 25.05500
H  43.80100 33.78200 29.95800
H  43.67800 31.90800 33.48900
H  44.09200 33.49500 34.23500
H  45.36400 32.38300 33.68300

