158

Mg 49.79300 35.28500 27.10500
C  47.78800 33.74700 29.53900
C  49.54000 38.24500 28.75400
C  51.37300 36.74000 24.59900
C  49.46700 32.33500 25.19100
N  48.82600 35.89800 28.96600
C  48.10900 35.10300 29.90800
C  47.99500 35.77600 31.24400
C  48.19500 37.30800 30.88400
C  48.98600 37.15000 29.51600
C  46.87400 38.05800 30.88200
C  49.11100 35.29200 32.13300
C  48.97700 35.42700 33.65200
H  47.61800 35.88200 34.27300
N  50.53500 37.22200 26.78200
C  50.29700 38.30300 27.57000
C  50.92000 39.49100 26.98200
C  51.59800 38.98900 25.83800
C  51.18900 37.56600 25.72000
C  50.82600 40.85400 27.73300
C  52.44700 39.80200 24.87400
O  52.90500 39.41500 23.79900
C  52.76400 41.25900 25.19300
N  50.24200 34.66800 25.14800
C  50.92800 35.45100 24.32200
C  51.49400 34.74000 23.17000
C  50.73200 33.33800 23.19900
C  50.14500 33.37500 24.69700
C  51.43400 35.53600 21.79600
C  51.62700 32.08600 22.95000
C  50.97400 31.13600 21.93600
N  48.91300 33.40400 27.31300
C  48.80300 32.34400 26.45900
C  47.94300 31.31300 26.98400
C  47.50200 31.76500 28.21300
C  48.14500 33.03800 28.33300
C  47.23100 30.11300 26.25900
C  46.65200 31.47100 29.29800
O  45.97300 30.45100 29.50800
C  46.79300 32.81400 30.23700
C  47.17900 32.36900 31.53600
O  48.24500 32.01000 31.95400
O  46.06200 32.15900 32.27100
C  46.18700 31.24400 33.45600
H  49.49500 39.20600 29.26900
H  52.15100 37.05300 23.90100
H  49.29300 31.41500 24.62900
H  46.98600 35.58700 31.61100
H  48.90400 37.83500 31.52300
H  46.03600 37.53200 31.33800
H  46.59900 38.19700 29.83600
H  46.90100 39.01400 31.40500
H  49.97300 35.90200 31.86300
H  49.51100 34.31700 31.85100
H  49.61600 36.26300 33.93600
H  49.22100 34.52400 34.21100
H  50.91000 41.72600 27.08500
H  51.58100 41.13100 28.46900
H  49.90700 41.02400 28.29300
H  51.85100 41.81400 24.97600
H  53.54900 41.67300 24.56000
H  53.20700 41.45600 26.16900
H  52.55000 34.61500 23.41100
H  49.84200 33.39400 22.57300
H  50.98200 36.50000 22.02600
H  50.84100 34.93100 21.10900
H  52.42600 35.66500 21.36200
H  51.70400 31.64100 23.94200
H  52.66300 32.29000 22.68000
H  50.50300 31.78600 21.19900
H  50.30900 30.50000 22.52000
H  51.79500 30.59900 21.46100
H  46.21700 30.39100 25.97200
H  47.08300 29.26700 26.93000
H  47.89400 29.72400 25.48600
H  45.81700 33.29800 30.23000
H  46.40300 30.20200 33.21700
H  45.32000 31.32800 34.11000
H  47.05800 31.57900 34.02000
Mg 26.60700 49.78800 26.32400
C  24.57000 51.00700 28.88200
C  28.57000 48.44500 28.59800
C  28.55600 48.94100 23.83400
C  24.48800 51.51300 24.14000
N  26.57000 49.80000 28.54400
C  25.58800 50.24300 29.37700
C  25.84800 49.84700 30.85300
C  27.27200 49.14700 30.81400
C  27.49400 49.08900 29.22900
C  28.31700 50.01200 31.58600
C  24.67200 49.08800 31.51100
C  24.33100 49.52500 32.95800
H  25.27900 50.00300 34.02400
N  28.36200 48.79000 26.21800
C  29.06200 48.33200 27.27800
C  30.28500 47.72700 26.84400
C  30.29300 47.87400 25.43800
C  29.07100 48.63600 25.07600
C  31.27500 47.03200 27.67400
C  31.30900 47.49600 24.38000
O  31.18500 47.79800 23.20500
C  32.69500 46.90300 24.89200
N  26.57600 50.28000 24.29000
C  27.48500 49.75500 23.45600
C  27.00500 49.88600 22.00800
C  25.83400 50.96800 22.10700
C  25.55000 50.82200 23.58100
C  28.07600 50.24900 21.01400
C  24.55500 50.56200 21.27400
C  23.77700 49.20500 21.74000
N  24.90300 50.99100 26.44700
C  24.16600 51.64200 25.43800
C  23.07700 52.38200 26.02200
C  23.19500 52.12600 27.40100
C  24.37400 51.33700 27.59600
C  22.07400 53.11700 25.31400
C  22.65600 52.32900 28.66100
O  21.71900 53.00400 29.01400
C  23.51700 51.66100 29.75800
C  24.05400 52.71100 30.67600
O  25.12500 53.28100 30.68100
O  23.07600 52.93800 31.56000
C  23.66800 53.58500 32.76800
H  29.28300 47.94000 29.25300
H  28.94200 48.46800 22.92800
H  23.85400 52.04000 23.42400
H  25.98400 50.79600 31.37100
H  27.23400 48.12800 31.19800
H  29.04800 49.28000 31.93100
H  27.93200 50.53600 32.46100
H  28.70100 50.81600 30.95700
H  24.82900 48.01300 31.60100
H  23.75200 49.03800 30.92900
H  23.99300 48.62600 33.47300
H  23.48200 50.20800 32.92800
H  31.29200 45.95300 27.52200
H  31.07200 47.21400 28.72900
H  32.26900 47.47900 27.65600
H  32.61200 45.96000 25.43200
H  33.12300 47.70100 25.50000
H  33.43200 46.67000 24.12400
H  26.73500 48.88100 21.68400
H  26.15100 52.01000 22.15600
H  28.96900 50.60200 21.53000
H  27.75900 51.04400 20.33900
H  28.33000 49.42400 20.34800
H  24.76500 50.57100 20.20400
H  23.86100 51.39700 21.37100
H  22.92500 49.43400 22.38100
H  24.29800 48.57500 22.46100
H  23.56900 48.43600 20.99700
H  21.44600 53.54000 26.09800
H  21.44800 52.35200 24.85400
H  22.34100 53.83500 24.53800
H  22.77300 51.07700 30.30000
H  24.51300 53.03100 33.17600
H  22.92000 53.65500 33.55700
H  23.98700 54.59500 32.50600

