158

Mg -2.46100 16.85800 26.78400
C  -2.88500 14.52900 29.56000
C  -2.72600 19.42200 29.06900
C  -2.46900 18.79200 24.16500
C  -2.83200 13.94100 24.73800
N  -2.87400 16.97400 29.07500
C  -2.82100 15.91300 29.94200
C  -2.85500 16.47900 31.43500
C  -2.95200 18.04500 31.18800
C  -2.85500 18.15700 29.69300
C  -4.23100 18.74900 31.81400
C  -1.70400 15.94100 32.41600
C  -1.19200 16.88800 33.49700
H  -0.74800 16.21300 34.75700
N  -2.48400 18.82500 26.67400
C  -2.60000 19.76800 27.70000
C  -2.58100 21.08900 27.09500
C  -2.59300 20.91800 25.65200
C  -2.49600 19.44600 25.43700
C  -2.75300 22.28700 27.99100
C  -2.66300 21.95500 24.63300
O  -2.79500 21.67800 23.42500
C  -2.78400 23.41600 25.01500
N  -2.71700 16.38400 24.78000
C  -2.57300 17.35000 23.82700
C  -2.59400 16.84100 22.34600
C  -2.58300 15.30500 22.60700
C  -2.59200 15.13300 24.11200
C  -3.92300 17.30500 21.62400
C  -1.45200 14.52200 21.82800
C  -1.93000 13.41000 20.81100
N  -2.82100 14.67100 27.01900
C  -2.89700 13.68200 26.10100
C  -2.96700 12.40700 26.74200
C  -2.99000 12.72500 28.08700
C  -2.85600 14.09500 28.25900
C  -2.93000 11.03800 26.09300
C  -3.00100 12.09100 29.42700
O  -3.08300 10.93400 29.82400
C  -2.88200 13.28500 30.43800
C  -1.62600 13.10400 31.17500
O  -0.52300 13.42900 30.76800
O  -1.78500 12.49200 32.36300
C  -0.64200 12.36900 33.31100
H  -2.63000 20.30200 29.70800
H  -2.40400 19.44500 23.29200
H  -2.81300 13.01400 24.16300
H  -3.78100 16.05600 31.82400
H  -2.11100 18.64700 31.53000
H  -5.07700 18.80400 31.12900
H  -3.93800 19.72400 32.20600
H  -4.53200 18.13800 32.66500
H  -0.86800 15.73400 31.74800
H  -1.99700 14.98900 32.86000
H  -1.90000 17.69500 33.68500
H  -0.29700 17.31500 33.04400
H  -3.34900 21.97500 28.84900
H  -3.25600 23.15800 27.57000
H  -1.86300 22.78400 28.37600
H  -2.86900 24.06700 24.14500
H  -1.94300 23.82400 25.57500
H  -3.68900 23.55400 25.60600
H  -1.73500 17.20300 21.78100
H  -3.57000 14.95200 22.30900
H  -4.80000 17.02000 22.20400
H  -4.05700 16.65600 20.75900
H  -4.05900 18.34900 21.34100
H  -0.68900 14.11500 22.49200
H  -0.93500 15.23800 21.19000
H  -1.50400 13.63600 19.83400
H  -3.01000 13.42700 20.66400
H  -1.58700 12.40600 21.06200
H  -3.91600 10.64900 25.84100
H  -2.36800 10.42900 26.80200
H  -2.41300 11.08800 25.13500
H  -3.75900 13.22500 31.08200
H  -0.78300 11.31100 33.53100
H  -0.68200 13.04000 34.16900
H  0.36600 12.55100 32.93800
Mg 44.07000 4.08400 48.21900
C  41.79300 6.85000 48.25800
C  41.20600 2.16400 47.97100
C  46.00500 1.49900 47.69400
C  46.69500 6.30400 47.67500
N  41.79700 4.52300 48.20300
C  41.10500 5.64000 48.17200
C  39.52900 5.50100 48.08600
C  39.44300 3.97000 48.32400
C  40.93100 3.51300 48.24000
C  38.81000 3.49000 49.68800
C  38.81600 6.04600 46.83500
C  39.39000 5.45600 45.47700
H  38.59000 5.78700 44.21200
N  43.64500 2.08900 47.76800
C  42.42200 1.47200 47.74300
C  42.69900 0.01800 47.55800
C  44.06400 -0.18200 47.46600
C  44.61400 1.14400 47.61500
C  41.49300 -0.95200 47.48200
C  44.79800 -1.50200 47.16800
O  44.21500 -2.56700 47.06900
C  46.31500 -1.56000 46.98500
N  46.11300 3.96000 47.55100
C  46.69400 2.73000 47.67300
C  48.23300 2.89200 47.88000
C  48.47200 4.45300 47.70700
C  47.03700 4.98100 47.70200
C  48.85200 2.33200 49.16400
C  49.20600 4.77900 46.40000
C  50.64400 5.10600 46.49400
N  44.21200 6.13800 48.16700
C  45.37100 6.87800 47.92900
C  45.07100 8.33400 48.10900
C  43.62300 8.33800 48.21500
C  43.20600 7.00700 48.22100
C  45.99700 9.51400 47.96700
C  42.43300 9.14300 48.31100
O  42.31600 10.31600 48.42300
C  41.18200 8.18200 48.20200
C  40.44400 8.33600 49.43100
O  40.66900 7.71800 50.44800
O  39.24600 8.90600 49.14000
C  38.23200 8.73800 50.22800
H  40.30900 1.54300 48.01400
H  46.81400 0.78200 47.85300
H  47.50800 7.03300 47.68200
H  39.02800 6.01800 48.90500
H  38.84900 3.54400 47.51600
H  38.50200 4.42800 50.15100
H  39.49600 3.01500 50.38900
H  37.89400 2.92300 49.52400
H  38.59100 7.11200 46.85000
H  37.88000 5.48700 46.81600
H  39.26900 4.37300 45.50600
H  40.43200 5.75800 45.37700
H  40.69600 -0.47100 48.04900
H  41.71100 -1.95400 47.85300
H  41.23100 -1.06000 46.43000
H  46.81800 -1.65300 47.94800
H  46.64700 -0.68700 46.42400
H  46.68100 -2.40900 46.40700
H  48.63400 2.30900 47.05000
H  48.96900 4.98000 48.52200
H  47.97500 1.93300 49.67300
H  49.30900 3.11000 49.77600
H  49.61000 1.57200 48.97700
H  48.64100 5.60100 45.95900
H  49.03900 3.96600 45.69300
H  50.85900 5.99500 45.90100
H  51.36000 4.36000 46.15100
H  50.86200 5.20100 47.55800
H  46.36500 9.67400 48.98000
H  45.53000 10.48300 47.79400
H  46.77900 9.21000 47.27000
H  40.54800 8.30900 47.32400
H  37.30700 9.28300 50.03900
H  38.57200 9.20000 51.15500
H  38.00000 7.70200 50.47500

