158

Mg 8.31100 2.77200 27.44500
C  9.45200 1.33800 30.32400
C  6.55400 5.06800 29.30000
C  6.62200 3.74700 24.61300
C  9.49800 -0.16600 25.67100
N  7.78700 2.93000 29.64400
C  8.58800 2.41400 30.68800
C  8.31900 3.05000 31.95300
C  7.41000 4.30300 31.58100
C  7.17500 4.11100 30.10900
C  6.21000 4.57400 32.47400
C  9.62900 3.38600 32.75200
C  9.47800 3.98300 34.21800
H  10.56600 3.51000 35.27400
N  7.05000 4.32000 26.96100
C  6.50900 5.18800 27.85300
C  5.89500 6.27600 27.14700
C  6.01600 6.02600 25.76600
C  6.59600 4.63900 25.77400
C  5.21600 7.53600 27.69200
C  5.47900 6.70500 24.50200
O  5.75100 6.31000 23.36600
C  4.55700 7.84100 24.65100
N  8.25200 1.95500 25.39500
C  7.40500 2.57200 24.47800
C  7.43200 1.76600 23.16100
C  8.43500 0.64400 23.42200
C  8.80000 0.82700 24.89300
C  6.03900 1.41700 22.55200
C  9.75100 0.46700 22.48100
C  9.39700 -0.39200 21.24800
N  9.30500 1.01200 27.85200
C  9.74100 -0.11400 27.07100
C  10.55300 -1.11600 27.94500
C  10.45300 -0.45700 29.18800
C  9.71300 0.74600 29.10200
C  11.38100 -2.26300 27.60400
C  10.91700 -0.67300 30.51900
O  11.69700 -1.54100 30.93500
C  10.34200 0.49300 31.32800
C  9.65500 -0.12800 32.48500
O  8.57300 -0.75800 32.44300
O  10.56700 -0.11800 33.58600
C  9.94300 -0.53400 34.78900
H  6.09800 5.97400 29.70500
H  6.12300 4.11400 23.71400
H  10.00100 -0.99100 25.16200
H  7.73700 2.36000 32.56400
H  8.13400 5.11600 31.53100
H  6.33700 5.63300 32.69700
H  6.10500 3.92000 33.34000
H  5.37000 4.33900 31.82000
H  10.21300 4.03500 32.10000
H  10.19200 2.47600 32.95900
H  8.54100 3.65600 34.66900
H  9.40800 5.07100 34.19500
H  4.20600 7.74400 27.33700
H  5.72000 8.36700 27.20000
H  5.29700 7.73200 28.76100
H  3.64800 7.55700 25.18100
H  4.19800 8.20300 23.68700
H  5.06000 8.71400 25.06600
H  7.78700 2.46500 22.40400
H  7.88800 -0.29700 23.46600
H  6.02300 0.37900 22.22100
H  5.85400 2.04900 21.68400
H  5.33400 1.64000 23.35300
H  10.62100 0.06000 22.99700
H  10.06900 1.45400 22.14800
H  8.32500 -0.58600 21.26400
H  9.96000 -1.32100 21.33200
H  9.59300 0.05000 20.27100
H  11.28100 -2.97300 28.42500
H  12.43100 -2.09600 27.36400
H  10.79300 -2.66300 26.77800
H  11.29100 0.96300 31.58400
H  9.24800 0.20900 35.18100
H  10.69500 -0.74000 35.55000
H  9.47900 -1.52000 34.75100
Mg 39.76200 8.76300 29.20900
C  41.66100 10.01200 31.89900
C  37.76200 7.17100 31.36400
C  38.03800 7.48600 26.53800
C  42.23100 9.87900 27.05100
N  39.65300 8.58600 31.40500
C  40.53500 9.28900 32.28100
C  39.97700 9.09700 33.73800
C  38.67500 8.19800 33.52900
C  38.72000 7.89300 32.07000
C  38.53500 6.94800 34.42300
C  39.75400 10.43400 34.44500
C  38.82700 10.59300 35.62600
H  39.27100 11.37300 36.91800
N  38.06000 7.57000 28.98200
C  37.40100 6.96200 30.02300
C  36.23600 6.24600 29.48400
C  36.23500 6.42100 28.10500
C  37.48000 7.22100 27.83000
C  35.26300 5.53700 30.50700
C  35.19900 5.77400 27.18900
O  35.40900 5.76900 26.01600
C  34.05100 5.01000 27.58900
N  40.18600 8.55100 27.14600
C  39.25700 8.13500 26.23700
C  39.78000 8.37800 24.77000
C  40.81400 9.40300 24.97400
C  41.10900 9.33000 26.47400
C  40.40300 7.13700 24.09200
C  40.38800 10.87000 24.59000
C  38.91500 11.26100 24.66600
N  41.67800 9.63400 29.35100
C  42.54700 9.96300 28.43300
C  43.74500 10.47800 29.06600
C  43.49400 10.58200 30.42200
C  42.15300 10.03500 30.56400
C  44.87800 11.05600 28.22000
C  43.88100 11.07100 31.66800
O  44.84000 11.71800 31.97300
C  42.75300 10.70700 32.72900
C  43.40100 9.95500 33.80800
O  43.72700 8.77900 33.65700
O  43.62100 10.83500 34.81700
C  44.38200 10.29300 35.93700
H  37.03100 6.64100 31.97900
H  37.53500 7.16300 25.62400
H  42.94100 10.46100 26.46000
H  40.61900 8.50500 34.39000
H  37.83000 8.86400 33.70400
H  37.52200 6.85400 34.81200
H  39.25100 7.05600 35.23900
H  38.83600 6.12400 33.77600
H  39.20200 10.96000 33.66600
H  40.76300 10.84200 34.50800
H  38.64300 9.63200 36.10500
H  37.89100 11.03200 35.28100
H  34.64600 4.77600 30.03000
H  34.65000 6.32900 30.93700
H  35.91800 5.12800 31.27700
H  33.54200 5.65400 28.30600
H  34.48900 4.07000 27.92500
H  33.37100 4.92400 26.74200
H  38.88900 8.69600 24.22900
H  41.67400 9.24400 24.32300
H  39.89900 7.02900 23.13100
H  40.15500 6.28600 24.72600
H  41.49200 7.19200 24.10800
H  40.58700 10.91100 23.51900
H  40.90700 11.72500 25.02400
H  38.50600 11.36000 23.66000
H  38.91400 12.23500 25.15500
H  38.26800 10.57300 25.21000
H  45.82600 10.98100 28.75300
H  44.72000 12.10200 27.95600
H  45.03500 10.45700 27.32300
H  42.46800 11.69300 33.09700
H  43.71700 9.73100 36.59300
H  44.85900 11.14500 36.42200
H  45.14000 9.55000 35.68900

