158

Mg 16.53500 51.52300 25.36500
C  18.20400 50.38900 28.20700
C  13.81500 52.47600 27.33000
C  15.06100 52.70100 22.66500
C  19.18500 50.26100 23.50000
N  16.08900 51.37100 27.50500
C  16.92600 50.92500 28.51500
C  16.33700 51.24600 29.92300
C  14.87400 51.70000 29.60700
C  14.93100 51.86900 28.02400
C  13.89700 50.65500 30.10300
C  17.22300 52.25300 30.69900
C  17.61300 51.87600 32.13200
H  17.17300 52.98400 33.16600
N  14.64100 52.42500 25.02000
C  13.70000 52.77300 25.94400
C  12.59100 53.43600 25.26400
C  12.90700 53.50600 23.94800
C  14.28300 52.89000 23.81600
C  11.33600 54.04200 25.98000
C  12.02800 54.01400 22.75200
O  12.31700 53.84200 21.62900
C  10.86200 54.85100 23.08000
N  16.99400 51.36200 23.30900
C  16.26200 52.04900 22.39700
C  17.06300 52.25400 21.09100
C  18.41800 51.48500 21.41000
C  18.18600 50.98100 22.85300
C  16.29600 51.80200 19.85500
C  19.67900 52.35300 21.36400
C  20.93200 51.54800 21.08100
N  18.21600 50.49900 25.76000
C  19.25200 50.03700 24.92700
C  20.26700 49.39600 25.64900
C  19.91500 49.54900 26.94100
C  18.67400 50.18800 26.96000
C  21.54200 48.75800 25.17500
C  20.35000 49.30100 28.24900
O  21.33600 48.71600 28.71300
C  19.21100 49.92000 29.23900
C  18.69300 48.87200 30.21500
O  17.85500 48.02000 29.96200
O  19.44700 48.98000 31.40400
C  19.25800 48.06200 32.48000
H  12.96800 52.83700 27.91800
H  14.59500 53.16700 21.79500
H  19.99700 49.90400 22.86300
H  16.37400 50.27200 30.41100
H  14.78200 52.64600 30.14100
H  12.98900 51.12900 30.47500
H  14.29000 50.04600 30.91700
H  13.66800 50.08700 29.20100
H  16.75300 53.23000 30.80600
H  18.19000 52.40800 30.22000
H  18.70000 51.81100 32.10100
H  17.18600 50.92700 32.45900
H  11.31000 55.11300 25.78100
H  11.42200 53.76800 27.03100
H  10.41700 53.52500 25.70400
H  11.03100 55.82900 23.53000
H  10.07200 54.24600 23.52400
H  10.32000 55.08200 22.16300
H  17.30900 53.31300 21.02300
H  18.53800 50.60600 20.77800
H  16.78700 51.14900 19.13400
H  15.89400 52.68700 19.36000
H  15.36800 51.28100 20.09000
H  19.68500 52.83000 22.34400
H  19.54500 53.16400 20.64900
H  20.65300 50.55800 20.72200
H  21.64600 51.48000 21.90200
H  21.47400 52.02500 20.26400
H  21.29000 47.82800 24.66500
H  22.13100 48.46200 26.04300
H  22.18900 49.33700 24.51700
H  19.72100 50.74800 29.73200
H  18.40400 48.25100 33.13200
H  20.14500 47.84000 33.07300
H  19.04000 47.08600 32.04700
Mg 0.49600 43.66500 26.08200
C  2.69800 43.98000 28.80200
C  -2.09300 43.26300 28.36300
C  -1.45500 42.84800 23.49700
C  3.23000 44.20300 23.89300
N  0.36600 43.51400 28.39600
C  1.37400 43.73900 29.28200
C  0.83000 43.53400 30.68100
C  -0.58900 42.94200 30.52300
C  -0.82900 43.34900 29.02200
C  -0.77100 41.40900 30.80500
C  0.88900 44.88600 31.48400
C  1.32700 44.81100 32.92500
H  0.86200 43.65000 33.75400
N  -1.49900 43.16000 25.97200
C  -2.40400 43.11900 27.00600
C  -3.69100 42.75200 26.48000
C  -3.53600 42.54700 25.05200
C  -2.11500 42.80500 24.76800
C  -4.88700 42.51700 27.47300
C  -4.57300 42.24800 24.04800
O  -4.34400 41.96300 22.83300
C  -6.06200 42.21000 24.52500
N  0.91200 43.37400 23.97600
C  -0.13500 43.15500 23.11600
C  0.36200 43.14200 21.66600
C  1.75100 43.82100 21.75600
C  1.99900 43.80800 23.29300
C  0.13400 41.73200 20.92300
C  1.82000 45.29100 21.18000
C  0.82000 46.20800 21.73600
N  2.54600 43.97600 26.24700
C  3.49100 44.21500 25.25300
C  4.75300 44.47300 25.96100
C  4.47500 44.38500 27.29000
C  3.12800 44.02200 27.46300
C  6.13700 44.86800 25.40700
C  5.03900 44.32000 28.59100
O  6.23600 44.49300 28.86700
C  3.88600 44.15600 29.67100
C  4.31200 43.06800 30.44200
O  4.51300 41.98800 29.99400
O  4.68200 43.43300 31.72000
C  5.16800 42.41500 32.59600
H  -2.93800 43.06400 29.02500
H  -1.95300 42.48900 22.59300
H  4.06700 44.49000 23.25300
H  1.48900 42.79000 31.12700
H  -1.24600 43.50700 31.18400
H  -0.90100 40.87900 29.86200
H  -1.62300 41.21200 31.45700
H  0.15200 40.99700 31.21200
H  -0.14900 45.21400 31.53300
H  1.44900 45.70300 31.02800
H  0.88500 45.73800 33.29000
H  2.40100 44.99500 32.95800
H  -4.58400 42.19300 28.46900
H  -5.59600 41.76400 27.12900
H  -5.45000 43.44300 27.59000
H  -6.38000 41.38400 25.16200
H  -6.70900 42.19000 23.64800
H  -6.23100 43.21900 24.90300
H  -0.25500 43.70900 20.96900
H  2.37700 43.10900 21.21900
H  0.31700 41.80000 19.85100
H  -0.92300 41.48300 21.01100
H  0.82600 40.99300 21.32700
H  1.75600 45.24400 20.09300
H  2.82400 45.60300 21.46700
H  1.33500 46.94500 22.35200
H  -0.01800 45.70600 22.21700
H  0.36900 46.71000 20.88000
H  6.70600 45.33100 26.21400
H  6.23800 45.59500 24.60100
H  6.64100 43.93900 25.14100
H  3.72700 45.00600 30.33500
H  5.79500 41.67000 32.10600
H  4.33600 41.93900 33.11500
H  5.82100 42.81300 33.37200

