158

Mg 8.85700 3.77400 27.57700
C  10.23200 2.26100 30.47100
C  6.90900 5.78600 29.82100
C  7.61300 5.36000 24.92400
C  10.72600 1.67600 25.57300
N  8.67000 3.96300 29.88400
C  9.38300 3.28900 30.88200
C  8.94100 3.69600 32.28300
C  8.03400 4.90100 32.00100
C  7.81100 4.85500 30.47800
C  6.65400 5.05500 32.75800
C  10.10000 4.02300 33.21300
C  9.93200 4.98600 34.40700
H  10.73200 4.66600 35.67200
N  7.36200 5.28500 27.36400
C  6.73000 6.02100 28.40300
C  5.94900 7.12600 27.75200
C  6.20800 7.03000 26.32500
C  7.09900 5.86000 26.15400
C  5.00600 8.06400 28.50000
C  5.81300 7.92400 25.15600
O  6.01600 7.73400 23.96400
C  4.94800 9.18300 25.47000
N  9.17100 3.58100 25.55300
C  8.56200 4.38500 24.61000
C  8.88300 3.92700 23.17100
C  9.97700 2.76400 23.37200
C  10.00700 2.66400 24.93500
C  7.59800 3.59300 22.35700
C  11.33400 3.08100 22.69500
C  11.88300 2.03400 21.72100
N  10.17200 2.22800 27.89700
C  10.87600 1.49300 27.03200
C  11.65900 0.45700 27.75600
C  11.45400 0.83000 29.08100
C  10.53400 1.90000 29.14100
C  12.43400 -0.67100 27.14500
C  11.78500 0.36700 30.42300
O  12.58400 -0.51800 30.87800
C  11.04800 1.31500 31.38500
C  10.21100 0.49100 32.33200
O  9.06900 0.06700 32.08000
O  10.73800 0.43500 33.59200
C  9.86600 -0.07200 34.58400
H  6.34900 6.44000 30.49200
H  7.35000 5.85700 23.98700
H  11.49400 1.03500 25.13500
H  8.41200 2.78700 32.56800
H  8.54800 5.85500 32.11700
H  6.42900 6.10800 32.92700
H  6.52700 4.45900 33.66200
H  5.83000 4.67800 32.15200
H  11.01700 4.29200 32.68900
H  10.30400 3.06100 33.68300
H  8.88800 4.84200 34.68600
H  10.17700 5.97100 34.01000
H  5.49200 9.02200 28.68600
H  4.90700 7.60500 29.48300
H  4.14200 8.09500 27.83600
H  3.99000 8.82500 25.84900
H  4.77700 9.65500 24.50300
H  5.35300 9.83400 26.24400
H  9.37600 4.67000 22.54400
H  9.53700 1.87400 22.92100
H  7.84500 2.75100 21.70900
H  7.18600 4.50500 21.92600
H  6.87900 3.19200 23.07100
H  12.06000 3.37300 23.45400
H  11.24600 4.00500 22.12200
H  11.04300 1.36900 21.52000
H  12.73300 1.47200 22.10900
H  12.16500 2.52800 20.79100
H  13.29000 -0.26800 26.60400
H  11.75600 -1.09700 26.40500
H  12.88100 -1.42900 27.78900
H  11.87200 1.78300 31.92400
H  9.30100 -0.93500 34.23200
H  9.20600 0.78200 34.73800
H  10.29400 -0.42800 35.52200
Mg 40.83000 8.51500 30.26400
C  42.73900 9.63400 33.00700
C  38.61900 7.28300 32.51800
C  39.43100 6.81400 27.78100
C  43.48300 9.61100 28.13700
N  40.76100 8.61100 32.55300
C  41.63400 9.04100 33.47800
C  41.20700 8.62800 34.89500
C  40.00600 7.69700 34.58800
C  39.71600 7.94900 33.06700
C  40.17000 6.20900 34.94500
C  40.82800 9.89800 35.75000
C  41.29100 9.66900 37.19400
H  41.55600 10.98200 38.01100
N  39.10800 7.41700 30.14300
C  38.35800 7.03600 31.18900
C  37.24900 6.26600 30.66100
C  37.43600 6.16400 29.27800
C  38.72200 6.78300 28.99600
C  36.03600 5.77800 31.40100
C  36.51000 5.64400 28.16500
O  36.86700 5.40900 27.02800
C  35.07400 5.39900 28.48700
N  41.40800 8.21500 28.27100
C  40.62900 7.41800 27.45200
C  41.20900 7.46900 26.03800
C  42.31100 8.61400 26.10000
C  42.46900 8.80500 27.57000
C  41.75900 6.06600 25.63300
C  41.76000 9.89500 25.35200
C  42.56700 10.49200 24.23500
N  42.67800 9.46000 30.45200
C  43.64300 9.94400 29.48800
C  44.75000 10.60700 30.17700
C  44.44200 10.45600 31.56500
C  43.16700 9.78200 31.67000
C  46.01500 11.09100 29.50000
C  44.92600 10.76700 32.91900
O  45.92000 11.32900 33.28100
C  43.80200 10.36100 33.82500
C  44.47700 9.56900 34.87500
O  45.11500 8.56000 34.74800
O  44.25900 10.18000 36.06100
C  44.86600 9.55100 37.26500
H  38.02700 6.80300 33.30000
H  39.07000 6.26500 26.90800
H  44.25000 10.04900 27.49400
H  42.04900 8.13100 35.37600
H  39.21800 7.97900 35.28700
H  41.15800 5.96700 35.33800
H  40.00000 5.48700 34.14600
H  39.49100 6.01600 35.77500
H  39.74600 10.01600 35.70200
H  41.32500 10.79300 35.37600
H  42.17200 9.02700 37.22800
H  40.44300 9.20000 37.69200
H  36.20400 5.56000 32.45600
H  35.74400 4.76900 31.11100
H  35.11400 6.35600 31.34500
H  34.70800 6.33900 28.90000
H  34.88800 4.62100 29.22700
H  34.50400 5.14500 27.59300
H  40.43500 7.72900 25.31600
H  43.32600 8.39000 25.77200
H  41.51400 5.28300 26.35100
H  42.83700 6.10700 25.47700
H  41.31100 5.73500 24.69600
H  41.71800 10.70400 26.08100
H  40.74400 9.65700 25.03600
H  41.82900 10.54300 23.43500
H  43.46800 9.95500 23.93800
H  42.90700 11.46000 24.60400
H  45.98200 12.18000 29.53100
H  46.06000 10.72600 28.47400
H  46.84300 10.80500 30.15000
H  43.50800 11.34400 34.19300
H  45.95500 9.56200 37.21800
H  44.55700 8.52100 37.44000
H  44.66600 10.22600 38.09700

