158

Mg 15.75100 52.56900 25.11400
C  17.43100 51.39500 27.93000
C  13.21000 53.50800 27.10900
C  14.19800 53.41700 22.32500
C  18.60200 51.40500 23.13700
N  15.47300 52.56200 27.18000
C  16.31300 52.11000 28.15000
C  15.74200 52.46800 29.55100
C  14.30700 52.81500 29.29100
C  14.30100 52.94300 27.73100
C  13.28000 51.75500 29.70500
C  16.66500 53.52700 30.38100
C  17.06900 53.07900 31.77500
H  16.07100 52.46700 32.82700
N  13.90200 53.36400 24.71000
C  13.03500 53.76800 25.68400
C  11.86300 54.38600 25.10400
C  12.18300 54.39200 23.69100
C  13.47500 53.72700 23.49900
C  10.62200 54.79100 25.86600
C  11.43600 54.99800 22.64500
O  11.88000 55.01200 21.49200
C  10.07900 55.67800 22.92800
N  16.44300 52.59900 23.05000
C  15.51400 52.94000 22.08800
C  16.05800 52.66800 20.70400
C  17.51700 52.19400 20.97000
C  17.53200 52.03500 22.48300
C  15.29200 51.50900 19.88200
C  18.68500 53.13300 20.54000
C  19.88600 52.53100 19.77500
N  17.66800 51.59400 25.38300
C  18.61700 51.14200 24.55700
C  19.60400 50.35400 25.29900
C  19.20600 50.48700 26.60900
C  17.99400 51.14700 26.61700
C  20.73700 49.61500 24.64400
C  19.52000 50.12200 28.00400
O  20.50600 49.55300 28.43700
C  18.36700 50.69100 28.92200
C  17.71000 49.71800 29.78500
O  16.73600 49.02000 29.51100
O  18.33300 49.70200 31.03000
C  17.69800 48.86600 32.06000
H  12.40400 53.93100 27.71200
H  13.65700 53.64900 21.40500
H  19.43400 51.01000 22.55100
H  15.87200 51.64200 30.25000
H  14.02600 53.81900 29.61200
H  12.69100 52.13700 30.53800
H  13.73200 50.83900 30.08400
H  12.66800 51.55000 28.82700
H  16.13900 54.47900 30.45400
H  17.58600 53.75100 29.84300
H  17.32300 54.01100 32.28100
H  17.98700 52.51300 31.62000
H  10.36900 55.84900 25.79400
H  10.65300 54.66900 26.94900
H  9.68900 54.30800 25.57400
H  10.41900 56.39100 23.67800
H  9.21600 55.03700 23.10900
H  9.89700 56.21200 21.99600
H  16.01400 53.66500 20.26600
H  17.68700 51.25600 20.44000
H  15.64100 50.52500 20.19400
H  15.28300 51.68600 18.80600
H  14.28100 51.59400 20.28100
H  19.09900 53.72400 21.35700
H  18.19800 53.81100 19.84000
H  19.77500 51.46900 19.55800
H  20.78800 52.71900 20.35800
H  20.01300 53.02900 18.81300
H  21.63500 50.15900 24.93500
H  20.67900 49.47000 23.56600
H  20.82200 48.65200 25.14800
H  18.85800 51.44900 29.53300
H  18.38400 48.02600 32.16800
H  16.71000 48.45700 31.85100
H  17.74300 49.45300 32.97700
Mg -0.15700 43.85300 24.71100
C  2.06400 43.70000 27.43000
C  -2.69600 42.78300 26.82900
C  -2.16900 44.06800 22.18800
C  2.72500 44.27700 22.66700
N  -0.30400 43.29300 26.93500
C  0.69500 43.43600 27.84000
C  0.24900 43.01900 29.26400
C  -1.23600 42.50400 28.95600
C  -1.47600 42.95400 27.46300
C  -1.51400 41.02100 29.24200
C  0.26000 44.15400 30.25100
C  0.14000 43.76900 31.75900
H  0.11800 42.32200 32.14800
N  -2.22400 43.59600 24.54300
C  -3.02300 43.11200 25.52800
C  -4.35000 43.13000 24.94100
C  -4.24200 43.46200 23.57300
C  -2.87300 43.78400 23.35200
C  -5.53300 42.67900 25.66400
C  -5.28700 43.51200 22.44300
O  -5.11400 43.98200 21.34500
C  -6.66700 42.88800 22.69900
N  0.29400 44.09700 22.74900
C  -0.79200 44.19000 21.91800
C  -0.24400 44.13700 20.42200
C  1.20300 44.46700 20.65300
C  1.49800 44.30900 22.08800
C  -0.55800 42.66700 19.74100
C  1.61000 45.90100 20.06800
C  1.44100 47.05300 21.05200
N  1.99200 43.86500 24.88000
C  3.02000 44.08100 24.02700
C  4.21600 44.18200 24.64300
C  3.94500 44.00800 26.02300
C  2.55500 43.80900 26.14000
C  5.59100 44.45000 23.98300
C  4.49000 44.00500 27.36300
O  5.60900 44.14400 27.68900
C  3.30500 43.79400 28.35900
C  3.58700 42.50400 29.16500
O  3.80900 41.37600 28.68300
O  3.85100 42.84300 30.43000
C  4.43200 41.77000 31.20200
H  -3.58900 42.38200 27.31300
H  -2.78700 44.18500 21.29500
H  3.58900 44.53800 22.05300
H  0.84900 42.15800 29.55800
H  -1.98800 43.02700 29.54700
H  -2.08200 40.58800 28.41900
H  -2.20200 41.00700 30.08700
H  -0.62500 40.51200 29.61500
H  -0.52800 44.84900 29.96400
H  1.16500 44.71500 30.01800
H  -0.66200 44.41000 32.12600
H  1.03500 44.13600 32.26200
H  -5.52400 42.87500 26.73600
H  -5.71400 41.63800 25.39800
H  -6.38000 43.19400 25.20900
H  -6.50700 41.98700 23.29100
H  -7.00800 42.70300 21.68000
H  -7.38800 43.47800 23.26400
H  -0.82600 44.79700 19.77800
H  1.69700 43.63200 20.15600
H  -1.19100 42.05600 20.38500
H  0.29500 41.99600 19.64300
H  -1.19200 42.77800 18.86200
H  0.98200 46.00300 19.18300
H  2.64400 45.95200 19.72600
H  1.10100 46.68000 22.01800
H  0.59700 47.60500 20.64000
H  2.37200 47.61700 20.99700
H  5.75900 43.63000 23.28400
H  6.40200 44.43900 24.71100
H  5.65400 45.42200 23.49400
H  3.16400 44.65500 29.01200
H  4.57000 42.20000 32.19300
H  5.43500 41.59600 30.81200
H  3.78200 40.89600 31.17100

