158

Mg -2.59100 16.63400 26.88800
C  -3.11600 14.34500 29.61000
C  -3.04500 19.20100 29.12000
C  -2.58800 18.74200 24.36200
C  -2.77700 13.94900 24.63900
N  -3.04300 16.75000 29.11600
C  -3.25100 15.71000 30.01800
C  -3.52500 16.28500 31.48000
C  -3.40900 17.86100 31.30100
C  -3.20800 17.93800 29.75300
C  -4.54200 18.74900 31.91200
C  -2.54500 15.65500 32.55100
C  -2.14600 16.46000 33.77200
H  -2.03200 15.94300 35.20200
N  -2.74300 18.66700 26.72500
C  -2.83300 19.56400 27.76000
C  -2.68000 20.87500 27.31600
C  -2.49800 20.79200 25.94800
C  -2.61100 19.32100 25.60500
C  -2.60800 22.09000 28.29800
C  -2.25900 21.85600 24.94200
O  -2.00600 21.66000 23.74300
C  -2.11300 23.28200 25.40900
N  -2.88400 16.40200 24.78900
C  -2.61700 17.38200 23.93300
C  -2.56000 16.88100 22.47800
C  -2.60200 15.34300 22.61800
C  -2.79500 15.21400 24.13100
C  -3.63400 17.40500 21.47800
C  -1.31500 14.62100 22.11600
C  -0.08300 14.75100 23.08800
N  -2.84600 14.62100 27.06800
C  -2.95700 13.65400 26.05500
C  -2.91100 12.34200 26.69000
C  -2.95700 12.58000 28.05200
C  -2.96200 13.95900 28.22700
C  -2.97100 10.99500 25.98400
C  -3.15000 11.93600 29.34700
O  -3.14000 10.79800 29.68800
C  -3.22600 13.12500 30.38900
C  -2.06800 12.93500 31.31300
O  -0.94400 13.20500 31.10800
O  -2.62100 12.39500 32.45700
C  -1.63700 12.09200 33.51800
H  -3.00100 19.96000 29.90500
H  -2.24900 19.42100 23.57600
H  -2.63900 13.15500 23.90300
H  -4.52900 15.89100 31.63600
H  -2.43900 18.14800 31.70800
H  -5.17400 18.16200 32.57800
H  -5.12500 19.14200 31.07900
H  -4.06100 19.56800 32.44600
H  -1.63600 15.39000 32.01100
H  -3.09700 14.80200 32.94600
H  -2.65000 17.42600 33.74500
H  -1.09100 16.66700 33.59200
H  -3.32800 22.82900 27.94700
H  -1.55300 22.28700 28.10700
H  -2.84300 21.96600 29.35500
H  -3.08000 23.56600 25.82300
H  -1.87900 23.90600 24.54600
H  -1.39100 23.26900 26.22500
H  -1.54600 17.07100 22.12500
H  -3.42000 14.82300 22.12200
H  -4.32800 18.14900 21.87000
H  -4.30300 16.63200 21.10000
H  -2.96600 17.78900 20.70700
H  -1.20800 14.95700 21.08400
H  -1.53200 13.55500 22.05800
H  -0.42200 15.16500 24.03800
H  0.61400 15.39900 22.55700
H  0.48600 13.83200 23.23100
H  -2.70200 11.10300 24.93300
H  -3.91500 10.45500 25.90800
H  -2.19300 10.37600 26.43000
H  -4.18500 13.20100 30.90000
H  -1.85700 11.09200 33.89100
H  -1.82100 12.67200 34.42300
H  -0.56100 12.17700 33.37000
Mg 24.99500 1.36100 29.38200
C  27.00400 1.51000 32.12200
C  22.17100 1.26700 31.29500
C  23.12300 1.17500 26.52500
C  27.90600 1.29900 27.33000
N  24.64300 1.05900 31.53300
C  25.61600 1.48900 32.43100
C  25.02200 1.78000 33.80900
C  23.48000 1.61900 33.56200
C  23.37700 1.31000 32.06000
C  22.75500 0.51400 34.39500
C  25.44300 3.10000 34.32100
C  24.76300 3.49600 35.67400
H  25.16400 2.83600 37.06700
N  23.00700 1.26300 28.96000
C  21.93900 1.14900 29.91300
C  20.71100 1.09900 29.22500
C  20.93200 1.07000 27.79000
C  22.39000 1.18200 27.73300
C  19.41200 1.02200 30.02800
C  19.84200 0.83800 26.70700
O  20.10000 1.09600 25.56900
C  18.37000 0.50400 27.01700
N  25.47600 1.30700 27.20500
C  24.47600 1.29800 26.29900
C  25.04500 1.37000 24.80200
C  26.59300 1.48000 25.08200
C  26.70200 1.37900 26.63200
C  24.65200 0.04100 24.01500
C  27.22800 2.74200 24.46900
C  26.46200 4.11400 24.64800
N  27.10500 1.10200 29.58800
C  28.11000 1.22700 28.74800
C  29.30200 0.94600 29.45400
C  28.98900 1.21300 30.79000
C  27.59900 1.22600 30.80600
C  30.64600 0.62600 28.83600
C  29.46100 1.38100 32.09100
O  30.59000 1.30400 32.52000
C  28.22200 1.80400 32.99400
C  28.40800 0.89100 34.21600
O  28.12600 -0.30200 34.30300
O  29.00800 1.63500 35.30200
C  28.89800 1.01100 36.62500
H  21.28600 1.30400 31.93300
H  22.34000 1.13200 25.76500
H  28.83700 1.12600 26.78700
H  25.48200 0.95300 34.35200
H  22.95200 2.55500 33.74100
H  21.70300 0.67500 34.63000
H  23.19600 0.38300 35.38400
H  22.87500 -0.42100 33.84800
H  25.33200 3.90600 33.59500
H  26.51700 3.00900 34.48100
H  23.68500 3.34700 35.74600
H  24.99400 4.55500 35.78100
H  18.70700 0.24400 29.73600
H  18.91000 1.98400 30.13200
H  19.68100 0.66600 31.02200
H  18.51700 -0.41300 27.58700
H  17.94400 0.22400 26.05400
H  17.93100 1.26600 27.66200
H  24.64500 2.24500 24.28800
H  27.16900 0.60900 24.77000
H  25.42100 -0.22000 23.28900
H  23.74500 0.14600 23.41900
H  24.25900 -0.75400 24.64900
H  27.33500 2.64700 23.38800
H  28.22300 2.90600 24.88100
H  25.64200 4.11100 25.36600
H  26.07900 4.31400 23.64700
H  27.21600 4.84000 24.95000
H  30.91600 1.37500 28.09100
H  30.62100 -0.38000 28.41800
H  31.32500 0.77900 29.67400
H  28.19100 2.86100 33.25600
H  27.99400 1.33300 37.14200
H  29.75900 1.27600 37.23900
H  28.86800 -0.06000 36.42700

