158

Mg 2.58900 -1.10100 43.89000
C  6.01300 -0.59200 43.18400
C  1.78700 1.57900 41.83200
C  -0.54900 -2.23100 43.70900
C  3.57300 -4.29100 45.05900
N  3.79600 0.27700 42.58700
C  5.19100 0.33400 42.57800
C  5.62900 1.59000 41.75700
C  4.27300 2.36500 41.51000
C  3.18300 1.36600 42.00000
C  4.11900 3.85100 42.05900
C  6.40800 1.27100 40.46300
C  5.92700 0.29700 39.40900
H  5.91100 0.80200 38.02100
N  0.80000 -0.29000 43.01800
C  0.68500 0.77700 42.19300
C  -0.65300 0.93500 41.81300
C  -1.39600 -0.04300 42.52100
C  -0.39900 -0.96700 43.11500
C  -1.22000 2.13000 41.02900
C  -2.88200 -0.08800 42.64400
O  -3.61100 0.72700 42.02800
C  -3.57800 -1.04200 43.57700
N  1.69900 -2.95800 44.34500
C  0.42300 -3.09100 44.21300
C  -0.01900 -4.51200 44.66700
C  1.24700 -5.17600 45.12400
C  2.23700 -4.06900 44.85800
C  -1.25800 -4.65600 45.57900
C  1.57400 -6.57300 44.53600
C  0.43600 -7.53400 44.11500
N  4.42500 -2.12700 44.36600
C  4.63500 -3.36600 44.90200
C  6.04000 -3.54500 45.16700
C  6.68100 -2.49500 44.45600
C  5.63100 -1.68000 43.98100
C  6.62300 -4.70600 45.91800
C  7.95700 -1.91400 44.06800
O  9.14000 -2.20900 44.23600
C  7.52100 -0.58000 43.21000
C  8.15700 0.58900 43.97400
O  7.74600 1.08000 44.96800
O  9.24000 0.94900 43.28300
C  9.79000 2.25700 43.55800
H  1.60100 2.51900 41.30700
H  -1.59000 -2.53600 43.57600
H  3.82000 -5.32800 45.29400
H  6.39200 2.13800 42.30900
H  4.02900 2.34700 40.44700
H  4.35000 4.64100 41.34600
H  4.90500 3.86500 42.81500
H  3.17100 3.85600 42.59700
H  7.36200 0.84900 40.77700
H  6.74500 2.21500 40.03400
H  4.93300 0.03000 39.76800
H  6.58800 -0.56800 39.45500
H  -1.64100 2.85100 41.72900
H  -1.90200 1.82300 40.23600
H  -0.46000 2.71500 40.51000
H  -3.62900 -2.01100 43.08100
H  -4.53300 -0.61800 43.89000
H  -2.94500 -0.96200 44.46100
H  -0.22300 -4.90600 43.67200
H  1.30100 -5.36200 46.19700
H  -1.64500 -3.63800 45.53600
H  -1.01500 -4.93600 46.60400
H  -1.99400 -5.34500 45.16300
H  2.29600 -7.08100 45.17600
H  2.07000 -6.43600 43.57500
H  -0.55300 -7.09600 44.24800
H  0.59400 -8.41900 44.73100
H  0.50600 -7.92000 43.09800
H  6.99700 -5.38100 45.14700
H  5.89800 -5.26400 46.51000
H  7.54500 -4.56300 46.48100
H  7.98300 -0.74700 42.23600
H  9.04500 3.02300 43.34100
H  10.52100 2.41800 42.76600
H  10.13900 2.28300 44.59000
Mg 24.26600 -6.91200 47.22300
C  27.10700 -4.73700 46.39200
C  22.42400 -5.19400 44.85200
C  22.08900 -9.39900 47.30100
C  26.73000 -8.98300 48.87000
N  24.82300 -5.25100 45.72500
C  25.94100 -4.41100 45.69900
C  25.77400 -3.19800 44.77800
C  24.14700 -3.31700 44.54300
C  23.79800 -4.76500 45.00700
C  23.33800 -2.23300 45.31800
C  26.55800 -3.33300 43.38900
C  26.78800 -2.04400 42.65000
H  25.96200 -1.75700 41.46500
N  22.42800 -7.17800 46.40800
C  21.80100 -6.31500 45.50700
C  20.50000 -6.78900 45.26000
C  20.36900 -8.06400 45.86800
C  21.66900 -8.25300 46.61500
C  19.54500 -6.17200 44.25900
C  19.12800 -8.98600 45.83200
O  18.14900 -8.66400 45.19000
C  19.03900 -10.26800 46.54400
N  24.46100 -8.90300 47.78800
C  23.35100 -9.70300 47.82400
C  23.65400 -11.09600 48.40300
C  25.16300 -10.95500 48.81400
C  25.52900 -9.53400 48.42500
C  22.67100 -11.43400 49.65500
C  26.11300 -12.01700 48.23700
C  26.09600 -13.31600 49.13100
N  26.42500 -6.83100 47.64900
C  27.24400 -7.71600 48.45300
C  28.57100 -7.19700 48.63100
C  28.51900 -5.99800 47.87600
C  27.27400 -5.88700 47.18500
C  29.72800 -7.78600 49.41200
C  29.30400 -4.90300 47.46700
O  30.42100 -4.57700 47.78800
C  28.45800 -4.05500 46.34000
C  28.37100 -2.64800 46.67900
O  28.00100 -2.12500 47.71200
O  28.86900 -1.94300 45.57700
C  28.95000 -0.48400 45.70700
H  21.85200 -4.51800 44.21200
H  21.56000 -10.35300 47.23700
H  27.23600 -9.52800 49.66900
H  25.99100 -2.23000 45.23000
H  23.90800 -3.32500 43.48000
H  22.66000 -1.72500 44.63100
H  23.99700 -1.44300 45.67800
H  22.84200 -2.59000 46.22000
H  25.96600 -3.96800 42.73000
H  27.52800 -3.79700 43.56500
H  27.83900 -1.97700 42.36700
H  26.73100 -1.17300 43.30300
H  18.51000 -6.02900 44.56900
H  19.58900 -6.59500 43.25600
H  19.91400 -5.15100 44.16600
H  19.56400 -11.11900 46.11200
H  17.96900 -10.43200 46.42100
H  19.30300 -10.21400 47.60000
H  23.66000 -11.84300 47.61000
H  25.25200 -11.08900 49.89200
H  21.96000 -12.14400 49.23500
H  22.18800 -10.50300 49.95300
H  23.26200 -11.88400 50.45300
H  27.09400 -11.55100 48.33100
H  25.95800 -12.29300 47.19400
H  26.98100 -13.40000 49.76100
H  26.06100 -14.11800 48.39300
H  25.25200 -13.44300 49.80900
H  30.18400 -8.73900 49.14400
H  29.25900 -7.88600 50.39100
H  30.44000 -6.96400 49.48800
H  28.94500 -4.18800 45.37400
H  29.08700 0.02000 44.75000
H  29.84500 -0.26100 46.28800
H  28.06600 -0.01600 46.14000

