158

Mg 23.31100 -6.19100 45.98500
C  25.64800 -3.88300 44.87800
C  21.11300 -4.67800 43.55900
C  21.32000 -8.83100 46.12000
C  25.87800 -8.08600 47.61400
N  23.44900 -4.56900 44.31300
C  24.48900 -3.75800 44.14100
C  24.22700 -2.58500 43.21100
C  22.72200 -2.86400 42.86400
C  22.36500 -4.08700 43.67200
C  21.77400 -1.64900 43.30900
C  25.16300 -2.68400 41.96500
C  25.33500 -1.41600 41.22800
H  24.66000 -1.27700 39.80000
N  21.38900 -6.56900 45.15900
C  20.67300 -5.84900 44.22100
C  19.42500 -6.49900 43.90300
C  19.39900 -7.71200 44.67700
C  20.76800 -7.74900 45.43400
C  18.43700 -6.09700 42.82600
C  18.26200 -8.70600 44.65000
O  17.18100 -8.49600 44.05500
C  18.34800 -9.96200 45.44400
N  23.52600 -8.11800 46.85800
C  22.52700 -9.01500 46.80400
C  22.94200 -10.38800 47.23900
C  24.36200 -10.21700 47.76200
C  24.61400 -8.69000 47.46500
C  21.96200 -11.29500 48.07300
C  25.48000 -11.08600 47.20000
C  26.48200 -11.52500 48.18200
N  25.29800 -5.96300 46.34100
C  26.21900 -6.78800 47.06700
C  27.42500 -5.98400 47.25200
C  27.27200 -4.89600 46.46200
C  25.96900 -4.91100 45.90100
C  28.61200 -6.46800 48.02600
C  27.90300 -3.70400 45.96400
O  28.99500 -3.21600 46.23500
C  26.95400 -3.08100 44.88600
C  26.88800 -1.61200 45.17100
O  27.19700 -0.75000 44.34700
O  26.35600 -1.43900 46.45900
C  25.77600 -0.04500 46.66700
H  20.45100 -4.06300 42.94600
H  20.68900 -9.71900 46.19700
H  26.57300 -8.68300 48.20800
H  24.43900 -1.70200 43.81300
H  22.71300 -3.05400 41.79000
H  21.23800 -1.95800 44.20600
H  21.10400 -1.44100 42.47400
H  22.30400 -0.72000 43.51700
H  24.66300 -3.21700 41.15600
H  26.05700 -3.26400 42.19500
H  26.40700 -1.22200 41.24500
H  24.91500 -0.67700 41.90900
H  18.34000 -6.84200 42.03600
H  18.86700 -5.18800 42.40400
H  17.54800 -5.72800 43.33800
H  18.59000 -9.88400 46.50400
H  19.02800 -10.65100 44.94300
H  17.32500 -10.32900 45.35700
H  23.02500 -10.94500 46.30500
H  24.26000 -10.38800 48.83400
H  21.13700 -10.69000 48.44800
H  22.47400 -11.69500 48.94800
H  21.55000 -12.10400 47.46900
H  26.10200 -10.50700 46.51700
H  25.03400 -11.92000 46.65800
H  26.05300 -11.57900 49.18300
H  27.35500 -10.87700 48.26100
H  26.71500 -12.55500 47.91400
H  29.38000 -5.70800 48.16600
H  29.00000 -7.29400 47.43100
H  28.37200 -6.88400 49.00500
H  27.41000 -3.12500 43.89600
H  26.02500 0.77100 45.98900
H  26.08400 0.38900 47.61800
H  24.72100 -0.32000 46.62800
Mg 17.23200 -2.12200 27.41500
C  15.98200 -0.01400 30.07700
C  19.21700 -3.54800 29.82500
C  18.66900 -3.98600 24.96200
C  15.60400 -0.10900 25.19400
N  17.58300 -1.76800 29.69100
C  16.90600 -0.91500 30.54500
C  17.32500 -1.14400 32.00100
C  18.52900 -2.12000 31.82000
C  18.54000 -2.44100 30.33900
C  19.91600 -1.54500 32.17900
C  16.15300 -1.79300 32.83800
C  16.23600 -1.63000 34.39200
H  17.44000 -0.82300 35.02100
N  18.62200 -3.69700 27.42700
C  19.39300 -4.09100 28.52300
C  20.16500 -5.28800 28.13900
C  19.92800 -5.51100 26.72900
C  19.05000 -4.42000 26.31500
C  21.01100 -6.09300 29.14100
C  20.52800 -6.58000 25.72000
O  20.10800 -6.58100 24.55500
C  21.50800 -7.63200 26.13700
N  17.12000 -2.08500 25.34200
C  17.92000 -2.86600 24.51900
C  17.61400 -2.58900 23.04900
C  16.53400 -1.44600 23.13500
C  16.34400 -1.21800 24.66300
C  18.92500 -2.28700 22.32600
C  15.27600 -1.85400 22.30900
C  13.93000 -2.13000 23.10500
N  16.01000 -0.47400 27.53000
C  15.34200 0.20300 26.51900
C  14.55300 1.23900 27.04600
C  14.72900 1.17800 28.44200
C  15.58000 0.07900 28.70200
C  13.88900 2.34300 26.25400
C  14.43200 1.79500 29.73500
O  13.71400 2.82500 29.92400
C  15.17700 0.93600 30.82400
C  15.98100 1.82200 31.68400
O  17.10600 2.21100 31.50600
O  15.23300 2.17800 32.76900
C  15.84600 3.17700 33.67700
H  19.96600 -3.83300 30.56700
H  19.16700 -4.55900 24.17800
H  15.08000 0.54100 24.49000
H  17.64000 -0.17600 32.39100
H  18.36100 -3.04100 32.37900
H  19.74600 -0.52400 32.52300
H  20.51600 -1.42900 31.27600
H  20.39900 -2.06100 33.00900
H  16.09100 -2.82900 32.50400
H  15.23200 -1.28800 32.54900
H  16.29600 -2.66400 34.73100
H  15.25100 -1.26400 34.68300
H  20.61600 -6.15700 30.15500
H  22.03500 -5.72500 29.06900
H  21.19200 -7.10600 28.78100
H  21.07500 -8.38500 26.79600
H  22.36000 -7.10300 26.56400
H  21.91100 -8.09500 25.23600
H  17.27500 -3.47500 22.51300
H  17.03800 -0.54300 22.79000
H  19.76100 -2.40200 23.01600
H  18.92600 -1.25300 21.98200
H  19.12000 -2.93800 21.47400
H  15.41100 -2.74600 21.69700
H  15.12100 -1.01100 21.63600
H  14.20300 -2.38900 24.12800
H  13.59200 -3.05100 22.63100
H  13.14600 -1.37300 23.07100
H  13.34100 3.04500 26.88400
H  13.27100 1.88300 25.48300
H  14.67000 2.97500 25.83300
H  14.44100 0.37500 31.40100
H  15.80800 4.15200 33.19100
H  16.88400 2.91200 33.87900
H  15.30500 3.26600 34.61900

