158

Mg -1.94100 35.13100 26.34700
C  -3.52800 33.02500 28.73100
C  -0.88900 36.96800 29.01200
C  -0.62700 37.17700 24.17600
C  -3.60300 33.33900 23.84200
N  -2.25600 34.99900 28.62500
C  -2.82500 34.02600 29.36600
C  -2.74700 34.20700 30.88100
C  -1.90700 35.55500 30.87800
C  -1.62400 35.85900 29.41100
C  -2.58000 36.69200 31.69100
C  -2.20200 32.93900 31.58100
C  -2.97000 32.26600 32.71100
H  -2.25900 32.24700 34.06300
N  -0.88300 36.88600 26.60100
C  -0.48100 37.43300 27.76000
C  0.46100 38.38000 27.48500
C  0.57300 38.47000 26.04000
C  -0.35700 37.51300 25.54500
C  1.27300 39.06100 28.62400
C  1.55700 39.22000 25.19600
O  1.59600 39.19600 23.94000
C  2.56600 40.11800 25.88900
N  -2.27600 35.27700 24.30700
C  -1.52600 36.23100 23.62500
C  -1.84800 36.24700 22.16500
C  -2.80800 34.97500 22.04600
C  -2.90300 34.47800 23.45600
C  -2.44200 37.65000 21.60700
C  -2.28400 33.95600 21.02900
C  -1.01400 33.06600 21.47900
N  -3.27000 33.42900 26.24300
C  -3.83700 32.84900 25.12700
C  -4.71000 31.74700 25.51000
C  -4.56300 31.72300 26.95100
C  -3.70400 32.84100 27.28100
C  -5.51900 30.80600 24.81100
C  -4.97300 31.04400 28.15900
O  -5.89500 30.27900 28.38200
C  -4.22800 31.77200 29.33700
C  -5.40100 32.09600 30.14900
O  -6.23900 32.98000 29.95700
O  -5.48100 31.15300 31.16000
C  -6.52200 31.44300 32.19300
H  -0.48200 37.39800 29.93000
H  -0.26000 37.84300 23.39100
H  -4.06100 32.70700 23.07900
H  -3.73000 34.30300 31.34300
H  -0.95900 35.42700 31.39900
H  -3.43100 36.28900 32.24100
H  -2.87200 37.47400 30.99100
H  -1.88700 37.11400 32.41900
H  -1.21500 33.27700 31.89700
H  -1.96800 32.13500 30.88300
H  -3.13500 31.26300 32.32000
H  -3.94100 32.76200 32.72900
H  2.35000 39.06400 28.45700
H  1.10500 38.54400 29.56900
H  0.91100 40.08000 28.75800
H  2.98000 40.79000 25.13700
H  3.30000 39.45000 26.34100
H  1.99800 40.72900 26.59000
H  -1.02100 36.12500 21.46500
H  -3.80700 35.32900 21.79100
H  -1.64800 38.02700 20.96300
H  -2.53900 38.27900 22.49100
H  -3.44400 37.58000 21.18200
H  -2.04900 34.48500 20.10600
H  -3.01200 33.21200 20.70300
H  -0.71500 33.34600 22.48900
H  -0.24800 33.25300 20.72600
H  -1.27200 32.01200 21.36900
H  -5.40600 31.01300 23.74700
H  -6.57900 30.86000 25.05600
H  -5.10700 29.81400 25.00000
H  -3.60300 31.07800 29.90000
H  -6.17700 32.07400 33.01200
H  -6.83700 30.43900 32.47800
H  -7.44200 31.94600 31.89300
Mg -5.29600 25.60100 24.83400
C  -3.93300 27.19100 27.72300
C  -6.84600 23.47300 26.96800
C  -6.46600 23.91200 22.12800
C  -3.56500 27.81000 22.82800
N  -5.23200 25.30200 27.10600
C  -4.71900 26.16000 28.05300
C  -5.02400 25.63500 29.47400
C  -5.71500 24.23000 29.21000
C  -6.02100 24.34000 27.64800
C  -4.97000 22.92400 29.61700
C  -5.94800 26.76400 30.22500
C  -6.13500 26.62100 31.72600
H  -5.21500 25.59000 32.44600
N  -6.52500 24.00500 24.59100
C  -7.11400 23.24700 25.61900
C  -7.97300 22.23400 25.01900
C  -7.80100 22.24200 23.56400
C  -6.85000 23.35500 23.36500
C  -8.83200 21.37500 25.88100
C  -8.51200 21.37100 22.52200
O  -8.41200 21.56200 21.35900
C  -9.35600 20.25100 22.97000
N  -4.94700 25.73500 22.71000
C  -5.61500 24.96800 21.75900
C  -5.11000 25.32700 20.32600
C  -4.44800 26.75100 20.60800
C  -4.31400 26.79700 22.13700
C  -4.21900 24.29200 19.61800
C  -5.09400 28.01800 20.04000
C  -6.41500 28.48300 20.62000
N  -3.96400 27.18500 25.13600
C  -3.44500 28.01800 24.23000
C  -2.70700 29.06500 24.99600
C  -2.87700 28.73500 26.28800
C  -3.65400 27.58900 26.39300
C  -1.94100 30.23500 24.44500
C  -2.54600 29.14100 27.58200
O  -1.88400 30.07100 27.94900
C  -3.24300 28.12900 28.59900
C  -2.19100 27.47400 29.42900
O  -1.16400 26.89800 28.97800
O  -2.39200 27.58700 30.79600
C  -1.36000 27.35100 31.79600
H  -7.35400 22.76500 27.62600
H  -7.04700 23.60600 21.25500
H  -3.17200 28.63600 22.23200
H  -4.08800 25.44400 29.99900
H  -6.65200 24.25800 29.76700
H  -4.18700 23.08400 30.35900
H  -4.49800 22.54300 28.71200
H  -5.51900 22.06500 30.00300
H  -6.94300 26.48900 29.87400
H  -5.68300 27.81000 30.06800
H  -7.10700 26.18500 31.96000
H  -6.09600 27.59200 32.22000
H  -9.83700 21.08800 25.57200
H  -9.04800 21.85900 26.83400
H  -8.41700 20.38400 26.06700
H  -8.83400 19.49600 23.55800
H  -9.63000 19.84400 21.99600
H  -10.25200 20.70800 23.38800
H  -6.02400 25.40400 19.73800
H  -3.37800 26.81200 20.40500
H  -3.81300 23.65000 20.39900
H  -3.35300 24.86600 19.28900
H  -4.61300 23.69400 18.79500
H  -5.20800 27.78400 18.98100
H  -4.36300 28.82500 20.09800
H  -6.84200 27.78900 21.34400
H  -7.11300 28.58000 19.78800
H  -6.05200 29.45500 20.95500
H  -1.04400 30.02700 23.86200
H  -1.72500 30.91600 25.26800
H  -2.47300 30.79700 23.67800
H  -3.86800 28.74100 29.24900
H  -1.40200 28.09700 32.59000
H  -0.35200 27.15900 31.42800
H  -1.50900 26.31100 32.08600

