158

Mg -0.11400 7.33600 27.61500
C  0.67900 9.85700 30.10500
C  0.04900 5.11500 30.17900
C  -0.84900 5.03900 25.44000
C  0.42100 9.67400 25.15300
N  0.29800 7.56900 29.90000
C  0.55900 8.62600 30.69700
C  0.87600 8.26300 32.11200
C  0.97400 6.72100 32.08300
C  0.46200 6.42900 30.56000
C  2.37800 6.14700 32.35700
C  -0.13100 8.84400 33.21500
C  0.44000 8.73500 34.65000
H  -0.34100 7.89900 35.58600
N  -0.42200 5.31300 27.82700
C  -0.39300 4.60100 28.97600
C  -0.77500 3.24800 28.71400
C  -0.79500 3.16500 27.32100
C  -0.76500 4.54000 26.80100
C  -0.96000 2.17100 29.81000
C  -1.00300 1.98200 26.43400
O  -0.98700 1.97000 25.22200
C  -1.40700 0.63600 27.10000
N  -0.07000 7.25700 25.55500
C  -0.44400 6.22200 24.84600
C  -0.63400 6.54800 23.30100
C  0.15800 7.88500 23.27200
C  0.16400 8.31100 24.73500
C  -0.07000 5.43800 22.36000
C  -0.46100 8.89700 22.20300
C  -1.79000 9.57400 22.39100
N  0.50700 9.34900 27.58300
C  0.61900 10.19400 26.45400
C  0.86000 11.50700 26.90900
C  0.92400 11.48300 28.31100
C  0.68300 10.16000 28.68800
C  1.09500 12.67800 26.03800
C  1.12200 12.29100 29.51600
O  1.28400 13.48200 29.72200
C  1.03200 11.28000 30.66500
C  2.33700 11.26300 31.42700
O  3.28000 10.54500 31.23200
O  2.24600 12.13800 32.42500
C  3.30600 12.06400 33.37700
H  0.17800 4.41900 31.01100
H  -1.22900 4.29000 24.74300
H  0.68000 10.42600 24.40500
H  1.77600 8.76700 32.46600
H  0.25400 6.20900 32.72100
H  3.20800 6.84800 32.26600
H  2.60800 5.37800 31.62000
H  2.48200 5.94900 33.42400
H  -1.08900 8.32900 33.14600
H  -0.29600 9.90200 33.01600
H  0.53900 9.74200 35.05700
H  1.43700 8.29700 34.64000
H  -0.09800 1.55300 30.06000
H  -1.81400 1.59900 29.44700
H  -1.28600 2.71000 30.69900
H  -0.73800 0.44700 27.93900
H  -1.39500 -0.13800 26.33300
H  -2.35600 0.81300 27.60700
H  -1.69700 6.70400 23.11500
H  1.21700 7.66400 23.14100
H  0.57500 5.91800 21.62300
H  -0.94100 4.96000 21.91100
H  0.44200 4.64400 22.90400
H  -0.43100 8.51100 21.18400
H  0.35500 9.61900 22.23900
H  -2.41600 9.45500 21.50700
H  -1.78400 10.63700 22.63000
H  -2.37300 8.97600 23.09200
H  1.20900 13.62100 26.57200
H  0.17400 12.67700 25.45400
H  1.98900 12.52100 25.43600
H  0.16400 11.71500 31.16100
H  3.51400 13.09400 33.66600
H  4.26300 11.59900 33.13900
H  2.93500 11.57600 34.27800
Mg 46.44300 4.78900 47.60100
C  44.89200 7.87600 46.53600
C  43.58800 3.20900 46.68900
C  48.31200 1.99600 47.64600
C  49.35100 6.75700 48.41400
N  44.53500 5.43700 46.64400
C  44.11900 6.78300 46.29900
C  42.71000 6.70700 45.70800
C  42.28700 5.20600 45.88500
C  43.53300 4.56300 46.50700
C  40.98800 4.95600 46.68800
C  42.58700 7.26100 44.26500
C  41.41500 8.27900 44.12000
H  40.28700 8.04100 43.14800
N  46.03900 2.88400 47.23600
C  44.74000 2.42100 46.98300
C  44.87000 0.98600 46.86800
C  46.19100 0.52600 47.11200
C  46.92900 1.78800 47.35000
C  43.72900 -0.00800 46.41100
C  46.77000 -0.86700 47.11400
O  46.05200 -1.79600 46.90000
C  48.18100 -1.22000 47.29500
N  48.55900 4.44200 47.93300
C  49.08300 3.19900 47.74400
C  50.62300 3.23000 47.96700
C  50.93400 4.74000 48.37000
C  49.54100 5.36400 48.27700
C  51.15500 2.17900 49.01600
C  52.12800 5.29900 47.55900
C  51.82100 5.96300 46.22300
N  46.99300 6.89700 47.68500
C  48.22900 7.48700 48.02700
C  48.06400 8.93900 48.10400
C  46.76300 9.12100 47.50000
C  46.21200 7.86800 47.21100
C  49.11300 9.94100 48.54300
C  45.74000 10.08400 47.07900
O  45.75600 11.34200 47.19900
C  44.45500 9.27600 46.46400
C  43.29000 9.62400 47.21400
O  42.97100 9.11200 48.27600
O  42.64900 10.59300 46.42100
C  41.37900 11.10700 46.99900
H  42.68500 2.65300 46.42700
H  48.91600 1.09600 47.77300
H  50.24500 7.25500 48.79800
H  42.21100 7.35400 46.42900
H  42.17900 4.76900 44.89200
H  40.48200 4.29500 45.98500
H  40.48600 5.89300 46.93000
H  41.18800 4.44400 47.62900
H  42.26300 6.44900 43.61500
H  43.43500 7.77600 43.81200
H  41.80800 9.26100 43.85500
H  40.84700 8.36300 45.04600
H  42.82500 0.57900 46.24700
H  43.56500 -0.74300 47.19900
H  44.08800 -0.61900 45.58300
H  48.22200 -2.30900 47.31000
H  48.36200 -0.88300 48.31600
H  48.73500 -0.78800 46.46100
H  50.90900 2.93900 46.95700
H  51.16100 4.71800 49.43600
H  51.45900 1.25500 48.52400
H  50.30700 2.01400 49.68100
H  51.99200 2.42500 49.67000
H  52.72200 4.44200 47.23900
H  52.76700 5.81800 48.27400
H  52.25000 6.96100 46.30700
H  50.76400 6.13100 46.01700
H  52.23200 5.45100 45.35200
H  48.61000 10.88200 48.76400
H  49.85400 10.20400 47.78800
H  49.51700 9.59800 49.49500
H  44.44800 9.56800 45.41400
H  41.51300 11.14600 48.08000
H  40.47000 10.54600 46.78300
H  41.29300 12.09400 46.54500

