158

Mg 41.81800 40.72500 27.43000
C  40.74500 43.27900 29.51300
C  42.08100 38.62100 30.07500
C  43.27800 38.41300 25.36300
C  41.63600 42.89000 24.70300
N  41.44700 40.94500 29.54300
C  40.98600 42.03200 30.18300
C  40.83600 41.72100 31.67500
C  41.33600 40.25300 31.85600
C  41.65600 39.91500 30.41500
C  42.55300 40.04200 32.85300
C  39.41100 41.99700 32.19200
C  39.28000 43.11600 33.29500
H  38.75900 42.72500 34.71900
N  42.49600 38.85200 27.66400
C  42.45500 38.13400 28.82400
C  42.91500 36.83900 28.67200
C  43.34400 36.70700 27.29700
C  43.02900 37.99800 26.68600
C  43.07900 35.83300 29.84500
C  43.90500 35.49100 26.61900
O  44.09800 35.53100 25.38500
C  43.82700 34.14000 27.30300
N  42.24400 40.62300 25.25100
C  43.02300 39.61400 24.73900
C  43.29400 39.95500 23.20700
C  42.62700 41.36900 23.02000
C  42.12300 41.62700 24.39800
C  44.78100 39.84100 22.74500
C  41.49200 41.51200 21.82700
C  40.06800 41.03200 22.13000
N  41.29600 42.63800 27.13200
C  41.27800 43.43400 25.94600
C  40.75700 44.73600 26.22400
C  40.47000 44.69000 27.61200
C  40.90400 43.48500 28.12600
C  40.58100 46.05300 25.36200
C  39.96500 45.50000 28.76300
O  39.52400 46.65900 28.79100
C  40.28000 44.68300 30.09000
C  41.35100 45.34200 30.85600
O  42.57300 45.29900 30.59100
O  40.82800 45.90700 31.97100
C  41.80200 46.27600 33.04200
H  42.13200 37.95300 30.93700
H  43.83200 37.84400 24.61400
H  41.48200 43.45700 23.78200
H  41.59700 42.23000 32.26700
H  40.62600 39.56600 32.31600
H  43.53800 39.95700 32.39300
H  42.34500 39.09300 33.34900
H  42.62100 40.90700 33.51300
H  39.01800 41.05100 32.56500
H  38.78400 42.28300 31.34800
H  38.50500 43.79900 32.94600
H  40.22100 43.62700 33.49900
H  42.27000 35.10400 29.80700
H  42.97200 36.31100 30.81900
H  44.03100 35.30600 29.79100
H  44.14400 33.36700 26.60400
H  42.81200 33.76100 27.41800
H  44.48800 34.02400 28.16200
H  42.85400 39.20700 22.54800
H  43.33500 42.09500 22.62200
H  45.47600 39.39800 23.45900
H  45.12000 40.76000 22.26800
H  44.78600 39.14200 21.90900
H  41.91200 41.01800 20.95100
H  41.45600 42.56000 21.53100
H  40.09700 40.48500 23.07200
H  39.69000 40.37900 21.34400
H  39.53100 41.96800 22.28800
H  40.00200 45.73900 24.49400
H  41.58000 46.32100 25.01800
H  40.01000 46.85600 25.82800
H  39.43200 44.48500 30.74600
H  42.42700 45.39300 33.17600
H  41.24500 46.42100 33.96800
H  42.49100 47.09500 32.83700
Mg 16.60800 51.64700 24.87300
C  18.37000 50.53600 27.70000
C  14.10100 52.65500 26.95500
C  14.60000 52.18300 22.29600
C  18.95600 50.06200 22.83600
N  16.31700 51.49700 27.06400
C  17.24900 51.20700 27.97800
C  16.83000 51.63300 29.40100
C  15.32100 52.09700 29.12400
C  15.23400 52.14400 27.60900
C  14.28300 51.18900 29.89500
C  17.70400 52.84000 29.93600
C  17.93300 52.87400 31.51800
H  17.20800 52.03000 32.41500
N  14.67900 52.45600 24.67100
C  13.81400 52.85800 25.63900
C  12.64500 53.41300 25.02600
C  12.74300 53.26200 23.67800
C  14.06300 52.69400 23.47300
C  11.47000 54.05200 25.77800
C  11.71200 53.57500 22.64700
O  11.89600 53.36700 21.47400
C  10.33500 53.93400 23.04300
N  16.71400 51.29600 22.88700
C  15.81500 51.60600 21.97100
C  16.24900 51.33800 20.55600
C  17.70200 50.66200 20.73500
C  17.79500 50.70500 22.27500
C  15.22000 50.59000 19.66200
C  18.92000 51.40800 20.04600
C  19.88900 50.54100 19.15100
N  18.28400 50.47700 25.19500
C  19.24300 50.03400 24.22800
C  20.34000 49.40900 24.97100
C  20.04600 49.58100 26.33800
C  18.78100 50.28200 26.38000
C  21.62000 48.79800 24.35600
C  20.54200 49.40200 27.65600
O  21.62100 48.99900 28.02200
C  19.41600 49.94900 28.58400
C  18.91500 48.71700 29.33700
O  18.11800 47.89000 28.91400
O  19.34200 48.77600 30.68100
C  18.66100 47.85400 31.63400
H  13.40400 53.16100 27.62600
H  13.94500 52.30500 21.43100
H  19.73600 49.67100 22.17900
H  16.80400 50.74400 30.03000
H  15.21200 53.10800 29.51500
H  13.79300 50.71100 29.04600
H  13.63900 51.84900 30.47700
H  14.82200 50.57200 30.61300
H  17.17500 53.77600 29.75900
H  18.59100 52.68600 29.32100
H  17.94400 53.91900 31.82500
H  18.99900 52.68900 31.65400
H  10.64700 53.35000 25.90900
H  11.04300 54.96300 25.35800
H  11.81800 54.32200 26.77500
H  10.27200 54.96000 23.40700
H  9.99500 53.16500 23.73700
H  9.68500 53.94500 22.16800
H  16.33100 52.29200 20.03600
H  17.74400 49.61400 20.44200
H  14.74200 51.37200 19.07200
H  14.40400 50.08500 20.18100
H  15.72400 49.90000 18.98500
H  19.49100 52.00600 20.75700
H  18.61500 52.06400 19.23100
H  19.87900 50.92000 18.13000
H  19.57600 49.49800 19.19100
H  20.87200 50.78800 19.55300
H  22.15000 49.52700 23.74300
H  21.26000 47.96600 23.75100
H  22.30900 48.39500 25.09900
H  19.73300 50.73600 29.26800
H  18.42100 46.90100 31.16400
H  17.89400 48.31800 32.25500
H  19.45400 47.50300 32.29500

