158

Mg 45.64800 5.48100 47.31400
C  43.54600 8.27000 46.71400
C  42.87900 3.45700 46.84900
C  47.72900 2.94100 47.14300
C  48.49400 7.80400 47.25100
N  43.53400 5.86300 46.69300
C  42.85700 7.05200 46.64300
C  41.27700 6.91700 46.57100
C  41.19200 5.44400 46.60800
C  42.66500 4.89200 46.83200
C  40.27000 4.86900 47.72100
C  40.62800 7.65700 45.36000
C  39.29000 7.20500 44.90700
H  39.14600 6.51400 43.48800
N  45.39400 3.39500 47.08700
C  44.15000 2.80200 46.95400
C  44.40500 1.32400 46.90100
C  45.83100 1.14100 46.88700
C  46.38200 2.49700 47.01900
C  43.34500 0.28300 46.73100
C  46.50100 -0.27000 46.80800
O  45.79200 -1.24700 46.87900
C  47.96400 -0.33900 46.55500
N  47.79300 5.41200 47.27300
C  48.37200 4.18900 47.20600
C  49.92800 4.28000 47.17400
C  50.12500 5.79800 47.17900
C  48.70700 6.46100 47.17400
C  50.68200 3.62300 48.28900
C  51.19900 6.56200 46.27200
C  52.55700 6.86700 46.89400
N  46.00000 7.51500 47.12000
C  47.19500 8.27700 47.13300
C  46.80200 9.65400 47.02500
C  45.43400 9.67700 46.96600
C  44.99400 8.39200 46.81900
C  47.81800 10.82600 47.09900
C  44.31600 10.55800 46.86200
O  44.28400 11.79400 46.68200
C  43.01200 9.67700 46.70900
C  41.99600 9.93600 47.82600
O  41.96100 9.33300 48.94200
O  41.03100 10.81100 47.40300
C  39.79300 11.05200 48.19700
H  42.05900 2.73900 46.78800
H  48.30000 2.02200 47.28500
H  49.36300 8.46500 47.24200
H  40.90900 7.37600 47.48900
H  40.89700 4.94900 45.68300
H  40.81200 4.28000 48.46100
H  39.45800 4.26400 47.31900
H  39.77500 5.65100 48.29700
H  41.32600 7.51200 44.53600
H  40.50600 8.73500 45.46500
H  38.58000 8.01000 45.09700
H  38.93100 6.52100 45.67600
H  43.50400 -0.38400 45.88400
H  42.38500 0.79000 46.63600
H  43.34200 -0.44000 47.54700
H  48.47600 -0.20000 47.50800
H  48.11900 0.38500 45.75500
H  48.28500 -1.34000 46.27000
H  50.42200 3.90300 46.27800
H  50.45600 6.01900 48.19300
H  50.85800 2.58700 47.99800
H  50.13900 3.64200 49.23400
H  51.62800 4.10300 48.53900
H  50.87300 7.55100 45.95000
H  51.37100 5.94100 45.39300
H  53.29000 6.23700 46.39100
H  52.66800 6.68800 47.96300
H  52.79900 7.92600 46.79800
H  47.25800 11.75000 47.24000
H  48.47700 10.89700 46.23400
H  48.52800 10.73900 47.92200
H  42.46500 9.78000 45.77200
H  38.94400 11.16300 47.52100
H  39.96300 11.91200 48.84400
H  39.59600 10.20200 48.85000
Mg 17.03200 51.77600 26.02400
C  19.13300 50.33700 28.53000
C  14.70400 52.42200 28.51000
C  15.16100 53.14300 23.68100
C  19.47300 50.98600 23.68000
N  17.01300 51.59100 28.20200
C  17.94800 50.90300 29.01900
C  17.53700 50.89000 30.46300
C  16.07100 51.32600 30.35700
C  15.89900 51.88000 28.99700
C  15.04000 50.23900 30.73700
C  18.36100 51.82600 31.40200
C  18.52000 51.44800 32.89300
H  17.18100 51.09900 33.73500
N  15.20400 52.75200 26.08300
C  14.35400 52.83300 27.22000
C  13.13500 53.45300 26.78500
C  13.20900 53.67100 25.38800
C  14.56200 53.23600 24.98600
C  12.10800 53.84600 27.76300
C  12.23500 54.37100 24.44600
O  12.49500 54.49100 23.25700
C  10.99500 55.14400 24.93600
N  17.34200 52.08100 23.95100
C  16.38800 52.68600 23.19700
C  16.84600 52.89600 21.69900
C  18.19900 52.10800 21.69700
C  18.36600 51.70800 23.17600
C  15.85100 52.50400 20.59700
C  19.48800 52.86200 21.16500
C  20.25500 53.79200 22.11400
N  18.92500 50.82700 25.99400
C  19.77400 50.53500 24.97800
C  20.87000 49.75700 25.42700
C  20.66900 49.56300 26.82400
C  19.45000 50.31700 27.12600
C  22.03300 49.19500 24.61300
C  21.22800 49.01000 28.05700
O  22.25400 48.37300 28.24400
C  20.25200 49.55400 29.22200
C  19.78400 48.45200 30.08000
O  19.11500 47.45600 29.79600
O  20.26300 48.72800 31.35500
C  19.75200 47.84200 32.35700
H  13.98800 52.61300 29.31100
H  14.50500 53.42500 22.85500
H  20.30300 50.80000 22.99400
H  17.76700 49.89400 30.83900
H  15.84800 52.13200 31.05600
H  14.46100 49.89200 29.88000
H  14.34300 50.74600 31.40500
H  15.52800 49.42800 31.27600
H  17.91000 52.81900 31.42700
H  19.39900 51.89600 31.07600
H  19.06100 52.28800 33.32900
H  19.28100 50.67100 32.95900
H  12.26500 53.54300 28.79800
H  11.17300 53.48700 27.33000
H  12.08400 54.93000 27.87000
H  11.36200 56.01300 25.48300
H  10.49400 54.45900 25.62100
H  10.44900 55.34600 24.01500
H  17.15000 53.93900 21.60500
H  18.01800 51.14800 21.21300
H  16.31300 52.02100 19.73600
H  15.23300 53.38100 20.40300
H  15.17200 51.77000 21.03000
H  19.22600 53.63100 20.43800
H  20.08200 52.13800 20.60700
H  19.94500 53.65300 23.14900
H  20.13800 54.83000 21.80400
H  21.33000 53.61600 22.16500
H  22.87500 49.83200 24.88300
H  21.92100 49.36500 23.54200
H  22.26100 48.15800 24.85900
H  20.86200 50.26900 29.77200
H  18.67000 47.75200 32.44800
H  19.99500 48.30100 33.31500
H  20.31900 46.91200 32.37100

