158

Mg 1.23400 7.62600 25.40600
C  1.73000 9.50300 28.29400
C  1.78500 4.78300 27.40900
C  0.89300 5.88400 22.60000
C  1.50700 10.61500 23.60600
N  1.82300 7.21900 27.56700
C  1.74300 8.15700 28.53400
C  1.76000 7.47100 29.92100
C  2.14800 5.94300 29.63300
C  1.94200 5.96900 28.11200
C  3.53300 5.54400 30.04300
C  0.33700 7.66800 30.62900
C  0.38900 7.87500 32.21500
H  1.67700 7.58400 32.96200
N  1.31400 5.61100 25.03700
C  1.42700 4.56200 26.07200
C  1.25900 3.29100 25.35800
C  1.01700 3.60900 23.96800
C  0.98800 5.08800 23.79600
C  1.29300 1.92300 26.03600
C  0.77300 2.58400 22.83700
O  0.33800 2.96300 21.74600
C  1.17600 1.13100 23.01000
N  1.15700 8.20600 23.39800
C  0.95400 7.25400 22.43200
C  1.01400 7.90800 21.02400
C  0.81900 9.46900 21.30000
C  1.26800 9.45700 22.82700
C  2.32000 7.71400 20.15700
C  -0.65900 9.96000 21.02800
C  -0.77800 11.14300 20.02800
N  1.53100 9.66500 25.82200
C  1.59800 10.74100 24.96400
C  1.79800 11.96600 25.75500
C  1.81700 11.47700 27.08000
C  1.57900 10.10700 27.05300
C  2.09300 13.35600 25.22200
C  2.11900 11.94300 28.41500
O  2.51700 13.05600 28.75300
C  1.91900 10.68800 29.27600
C  3.07900 10.56900 30.14600
O  4.13200 9.97300 29.98600
O  2.76200 11.22500 31.34000
C  3.69300 11.16500 32.45300
H  1.97100 3.89100 28.01000
H  0.72200 5.27100 21.71300
H  1.39400 11.59000 23.12700
H  2.51900 7.88400 30.58500
H  1.43800 5.24000 30.06800
H  4.10600 6.17800 30.71900
H  4.12100 5.28600 29.16200
H  3.32800 4.57700 30.50200
H  -0.24500 6.75500 30.50400
H  -0.23600 8.51700 30.25600
H  -0.45700 7.35400 32.66500
H  0.29200 8.94700 32.38300
H  1.99700 1.17400 25.67300
H  0.32600 1.44600 25.87500
H  1.39700 2.05900 27.11300
H  1.10800 0.48000 22.13800
H  0.45000 0.70100 23.70100
H  2.16400 0.99400 23.44900
H  0.20500 7.56300 20.38000
H  1.50300 10.11100 20.74400
H  2.77000 8.64200 19.80300
H  2.27100 6.90900 19.42300
H  3.01700 7.22400 20.83700
H  -1.18400 10.30000 21.92000
H  -1.29400 9.19600 20.58000
H  -1.61000 11.00200 19.33800
H  0.07900 11.27900 19.36800
H  -0.93500 12.05300 20.60800
H  1.73400 13.46900 24.19900
H  3.16100 13.57200 25.26900
H  1.61800 14.05600 25.90900
H  1.04100 10.89800 29.88700
H  3.25300 11.37300 33.42800
H  4.52700 11.84400 32.27400
H  4.06800 10.14200 32.41600
Mg 9.15300 47.57700 25.32500
C  7.06100 47.40500 28.17700
C  11.63500 48.96500 27.09100
C  10.99200 47.43100 22.64000
C  6.22700 46.93100 23.42200
N  9.28300 48.08000 27.38400
C  8.34600 47.96100 28.41600
C  8.90500 48.58300 29.73200
C  10.26100 49.23200 29.26300
C  10.40000 48.76100 27.76800
C  10.21700 50.81400 29.19700
C  9.03800 47.58500 30.96700
C  8.43600 48.14400 32.27800
H  7.97500 47.35200 33.54500
N  11.08700 47.97100 24.96000
C  12.00000 48.57200 25.82500
C  13.32200 48.60200 25.20400
C  13.15200 48.04500 23.91300
C  11.67600 47.77600 23.79400
C  14.63600 48.92800 26.03100
C  14.19200 47.73400 22.86200
O  13.92500 47.25600 21.74500
C  15.60200 47.95600 23.15300
N  8.67000 47.40500 23.27900
C  9.64600 47.28000 22.42900
C  9.12500 46.73000 21.09100
C  7.63400 46.29700 21.38300
C  7.44400 46.92900 22.79400
C  9.35500 47.77800 19.91800
C  7.38900 44.72300 21.34000
C  8.47400 43.75700 21.94100
N  7.03000 47.29500 25.68200
C  6.05400 47.03500 24.76200
C  4.80100 46.81500 25.46400
C  5.09200 46.99700 26.82100
C  6.49400 47.26200 26.87600
C  3.44700 46.67200 24.96100
C  4.60700 47.02200 28.22900
O  3.51100 46.79700 28.69900
C  5.89400 47.18600 29.12500
C  5.97300 45.90900 29.87600
O  6.63600 44.94800 29.58500
O  5.16200 45.97500 30.94800
C  4.88500 44.83500 31.91200
H  12.28400 49.63400 27.66000
H  11.62100 47.18700 21.78200
H  5.42500 46.55300 22.78400
H  8.27700 49.43400 29.99500
H  11.17200 48.89800 29.76000
H  11.14100 51.17100 28.74100
H  10.25700 51.21600 30.20900
H  9.31200 51.20900 28.73700
H  10.12000 47.48100 31.05300
H  8.71000 46.56500 30.76600
H  7.43300 48.45900 31.99000
H  8.90800 49.11500 32.42800
H  14.31500 49.28000 27.01200
H  15.11800 49.79200 25.57300
H  15.24200 48.02700 26.11500
H  15.91500 47.39400 24.03200
H  15.66600 48.98300 23.51400
H  16.17800 47.84100 22.23500
H  9.67200 45.87200 20.69900
H  6.99100 46.71000 20.60600
H  8.44500 47.92300 19.33600
H  10.09900 47.43000 19.20100
H  9.73200 48.72800 20.29400
H  7.14800 44.35500 20.34200
H  6.53300 44.53800 21.99000
H  8.03500 43.09500 22.68700
H  9.35900 44.18000 22.41600
H  8.99100 43.22600 21.14200
H  3.43900 46.27200 23.94700
H  3.10900 47.70800 24.97700
H  2.80900 46.11400 25.64600
H  5.79000 47.97700 29.86700
H  3.79900 44.75300 31.91400
H  5.35500 45.02200 32.87800
H  5.27800 43.88200 31.55900

