158

Mg 53.65400 23.82500 44.18400
C  51.24800 26.15100 43.23600
C  51.55300 21.32900 43.17900
C  56.34400 21.74700 43.87800
C  55.85600 26.45500 44.86800
N  51.62900 23.81800 43.17300
C  50.80700 24.85400 42.95700
C  49.45500 24.36600 42.39100
C  49.52400 22.83900 42.64000
C  50.99200 22.61200 43.05100
C  48.44900 22.08000 43.54200
C  49.28600 24.83900 40.89400
C  47.86200 25.25200 40.46500
H  47.40400 24.58300 39.10000
N  53.82400 21.75400 43.72200
C  52.82500 20.89000 43.48300
C  53.35800 19.56100 43.44600
C  54.77600 19.69900 43.41000
C  55.06500 21.13100 43.63500
C  52.49800 18.31500 43.18400
C  55.72900 18.49100 43.11400
O  55.29100 17.31900 42.88400
C  57.16800 18.73100 43.04400
N  55.83600 24.05500 44.24200
C  56.71400 23.05400 44.18600
C  58.11600 23.43500 44.28900
C  57.97500 24.97500 44.75200
C  56.45500 25.20500 44.64600
C  58.89300 22.58400 45.35000
C  58.89300 25.96400 43.96500
C  59.28300 27.28800 44.70600
N  53.59300 25.92900 44.14700
C  54.47900 26.86700 44.56400
C  53.93200 28.15900 44.59900
C  52.62700 27.90900 44.14900
C  52.50200 26.57200 43.76500
C  54.57100 29.51000 44.95800
C  51.39100 28.53900 43.77300
O  51.07100 29.72000 43.71900
C  50.50400 27.44200 43.14200
C  50.42300 27.82200 41.75600
O  51.32000 27.77900 40.90700
O  49.25500 28.38300 41.49600
C  49.01300 28.95800 40.16700
H  50.85600 20.50700 42.99900
H  57.17200 21.03500 43.89600
H  56.52500 27.23300 45.24100
H  48.68400 24.71200 43.07900
H  49.35000 22.45700 41.63400
H  47.74800 22.77800 43.99900
H  48.98200 21.44800 44.25200
H  47.84400 21.43800 42.90000
H  49.51700 24.02300 40.20900
H  49.92700 25.69200 40.67000
H  47.94800 26.33200 40.34600
H  47.16600 25.12500 41.29500
H  52.70100 17.97600 42.16800
H  51.45900 18.44600 43.48600
H  52.85000 17.52900 43.85300
H  57.63900 18.89900 44.01300
H  57.34800 19.67600 42.53200
H  57.80700 17.97100 42.59500
H  58.71300 23.28500 43.39000
H  58.03600 25.17500 45.82100
H  59.88800 22.38500 44.95300
H  58.38600 21.67100 45.66300
H  59.10500 23.17200 46.24300
H  58.51200 26.27000 42.99000
H  59.82600 25.44100 43.75500
H  60.36400 27.43200 44.69700
H  59.04100 27.23800 45.76700
H  58.82000 28.14200 44.21100
H  54.50800 29.46300 46.04500
H  53.98800 30.35100 44.58400
H  55.60100 29.52000 44.60000
H  49.52800 27.43100 43.62800
H  49.91800 29.14400 39.58800
H  48.33500 29.80100 40.30100
H  48.34400 28.33300 39.57500
Mg 16.40900 51.53200 25.70600
C  18.17900 50.49900 28.54800
C  13.75000 52.26900 27.83900
C  14.74900 52.41500 22.91100
C  18.97800 50.05800 23.78400
N  16.05400 51.43400 28.03900
C  16.97600 51.08900 28.97500
C  16.45900 51.41300 30.34700
C  14.92400 51.84200 30.11500
C  14.84700 51.79900 28.55700
C  13.88400 50.91700 30.89000
C  17.46500 52.49100 30.99400
C  17.82400 52.11300 32.45400
H  17.00900 51.04600 33.23800
N  14.55500 52.37700 25.42300
C  13.59400 52.54900 26.39300
C  12.39700 53.05400 25.72200
C  12.60500 53.02400 24.32400
C  13.97500 52.54700 24.13900
C  11.14300 53.57600 26.49800
C  11.73200 53.53700 23.22500
O  12.02400 53.49800 22.01200
C  10.30200 54.10800 23.46600
N  16.67600 51.14800 23.66900
C  16.00900 51.80300 22.71700
C  16.60000 51.71300 21.28100
C  17.95800 50.96600 21.63000
C  17.88800 50.71900 23.09800
C  15.65200 50.69000 20.45900
C  19.25400 51.75900 21.39400
C  20.33900 50.94700 20.69100
N  18.03800 50.40800 25.98800
C  19.05500 49.93400 25.12300
C  20.12400 49.36000 25.87700
C  19.77600 49.50900 27.19000
C  18.56900 50.23100 27.23900
C  21.40900 48.77100 25.32800
C  20.33600 49.34100 28.52200
O  21.44400 48.82300 28.87600
C  19.26900 49.94300 29.51700
C  18.76500 48.85600 30.36700
O  17.81100 48.13300 30.12400
O  19.68600 48.56200 31.38800
C  19.48800 47.26600 32.12400
H  12.90900 52.43100 28.51600
H  14.36800 52.66100 21.91800
H  19.72800 49.58700 23.14600
H  16.44700 50.51100 30.95900
H  14.75400 52.88200 30.39200
H  14.20600 50.73800 31.91600
H  13.78400 49.94100 30.41400
H  12.82400 51.16900 30.88800
H  16.85000 53.38900 31.05800
H  18.33000 52.75600 30.38600
H  17.68100 53.00300 33.06700
H  18.88100 51.86800 32.55900
H  11.15100 54.61700 26.17400
H  11.26900 53.71800 27.57200
H  10.21000 53.06900 26.25400
H  9.70200 53.46400 24.11000
H  9.82800 54.16500 22.48600
H  10.56700 55.04800 23.94900
H  16.62700 52.72700 20.88000
H  17.93000 49.98300 21.15900
H  14.89100 51.26800 19.93400
H  15.20800 49.98800 21.16500
H  16.27300 50.06200 19.82000
H  19.62700 52.25600 22.29000
H  19.07700 52.65600 20.79900
H  20.08400 50.02600 20.16600
H  21.07500 50.63800 21.43400
H  20.89900 51.59000 20.01200
H  22.32300 49.32100 25.55300
H  21.46300 48.61300 24.25100
H  21.50600 47.79500 25.80200
H  19.62700 50.76500 30.13700
H  19.12400 47.46600 33.13200
H  20.43000 46.74600 32.29900
H  18.86600 46.53900 31.60200

