158

Mg 25.32700 0.14700 30.24700
C  27.64600 0.39400 32.86300
C  22.86000 0.58600 32.65400
C  23.20300 -0.05400 27.91400
C  27.94600 -0.54500 28.07600
N  25.34100 0.51500 32.48300
C  26.37800 0.61700 33.27300
C  25.99500 0.95300 34.75100
C  24.41400 0.88400 34.67000
C  24.13300 0.61700 33.17200
C  23.76700 -0.06900 35.66000
C  26.46400 2.35400 35.26900
C  27.43500 2.43300 36.42400
H  27.36600 3.51500 37.47000
N  23.29400 0.24800 30.26700
C  22.47300 0.46000 31.29700
C  21.06700 0.64000 30.80800
C  21.12000 0.31600 29.45200
C  22.54200 0.08300 29.17100
C  19.80300 1.09400 31.57000
C  20.01200 0.11700 28.42900
O  20.21300 -0.35000 27.34700
C  18.57500 0.46200 28.72800
N  25.49200 -0.38900 28.23400
C  24.48500 -0.09800 27.44600
C  24.94400 0.10100 25.97500
C  26.49700 -0.24200 26.01700
C  26.68000 -0.41900 27.54400
C  24.12100 -0.65800 24.85600
C  27.48400 0.77100 25.32500
C  26.96000 1.56000 24.14700
N  27.36900 -0.27300 30.40100
C  28.27900 -0.55600 29.43400
C  29.57200 -0.68400 30.04100
C  29.38800 -0.24400 31.35600
C  28.07100 -0.03300 31.57400
C  30.86700 -1.06100 29.41300
C  30.08200 0.06000 32.64100
O  31.32300 0.06300 32.75900
C  28.98600 0.49600 33.60300
C  29.02100 -0.30500 34.86900
O  28.58000 -1.45300 34.93400
O  29.92400 0.31700 35.76500
C  30.47100 -0.51100 36.78500
H  22.13700 0.65500 33.46900
H  22.44600 0.01200 27.13000
H  28.87900 -0.71400 27.53500
H  26.52000 0.18200 35.31400
H  23.91100 1.83200 34.85700
H  22.69200 0.00400 35.81900
H  24.44600 0.01400 36.50800
H  23.79500 -1.05500 35.19600
H  25.59900 3.01000 35.36300
H  26.93100 2.76700 34.37500
H  28.38200 2.53800 35.89500
H  27.63500 1.51800 36.98000
H  20.11700 1.53900 32.51400
H  19.18800 0.19700 31.64100
H  19.28100 1.82600 30.95400
H  18.19900 -0.13200 29.56000
H  17.93100 0.16900 27.89900
H  18.43700 1.51000 28.99300
H  24.74400 1.11700 25.63600
H  26.59500 -1.20800 25.52100
H  23.47200 -1.37300 25.36200
H  24.85900 -1.02700 24.14300
H  23.53700 0.10500 24.34200
H  28.27600 0.10600 24.98000
H  27.74100 1.39800 26.17900
H  26.10800 1.00700 23.75100
H  27.71700 1.67900 23.37200
H  26.70800 2.58800 24.40700
H  31.73500 -0.40300 29.38400
H  30.70200 -1.54200 28.44800
H  31.23000 -1.92600 29.96700
H  29.23200 1.50600 33.93100
H  29.74100 -0.66700 37.57900
H  31.32600 0.01200 37.21200
H  30.87500 -1.46700 36.45100
Mg 42.84900 41.85200 26.11400
C  41.96000 44.16900 28.52300
C  44.05800 39.68400 28.48300
C  43.83300 39.78800 23.66800
C  42.23500 44.37200 23.61600
N  42.93300 41.96200 28.26600
C  42.52400 42.96500 29.10600
C  42.53300 42.42000 30.57500
C  43.56100 41.26800 30.45600
C  43.55700 40.89600 28.96800
C  44.97000 41.49400 30.96100
C  41.09900 41.89100 30.99000
C  40.92800 41.68700 32.52400
H  40.07800 42.65400 33.32100
N  43.55500 39.88100 26.10300
C  44.04300 39.16300 27.11100
C  44.43600 37.86800 26.62400
C  43.93700 37.75300 25.28600
C  43.73800 39.19400 24.90600
C  44.99800 36.89400 27.59800
C  43.71300 36.52800 24.44300
O  43.36800 36.50300 23.29300
C  43.79500 35.25800 25.10100
N  43.16800 42.09100 23.94800
C  43.64200 41.05500 23.17200
C  43.89500 41.55800 21.74400
C  43.22200 42.88100 21.75100
C  42.86500 43.17300 23.18300
C  45.36600 41.68800 21.38900
C  41.90800 43.03100 20.79700
C  40.61500 42.51100 21.40300
N  42.31400 43.95900 26.01800
C  42.02600 44.79000 24.98400
C  41.53300 46.03300 25.55200
C  41.47200 45.83600 26.89700
C  41.98300 44.54700 27.12500
C  41.20400 47.24400 24.82900
C  41.04300 46.38500 28.13400
O  40.45200 47.37100 28.35400
C  41.24900 45.25500 29.29500
C  42.02500 45.92900 30.37100
O  43.23500 46.06800 30.43100
O  41.15700 46.41600 31.30500
C  41.60200 47.35600 32.32800
H  44.47000 38.96500 29.19400
H  44.11300 39.12500 22.84600
H  41.81800 44.99500 22.82200
H  42.83500 43.21900 31.25100
H  43.20500 40.41200 31.02800
H  45.06500 42.42600 31.51900
H  45.65100 41.51800 30.11100
H  45.23900 40.73300 31.69400
H  40.97000 40.89300 30.57100
H  40.22900 42.45100 30.64700
H  41.93200 41.64100 32.94600
H  40.54000 40.67900 32.67100
H  45.57400 36.12000 27.09300
H  44.11100 36.42600 28.02600
H  45.56200 37.34900 28.41200
H  44.78500 34.87600 25.35100
H  43.24600 34.55900 24.47000
H  43.08700 35.33000 25.92600
H  43.48100 40.74700 21.14500
H  43.83500 43.71000 21.39800
H  45.51600 41.37800 20.35500
H  45.90800 40.96200 21.99400
H  45.79900 42.67500 21.55700
H  42.07300 42.43400 19.89900
H  41.75300 44.05000 20.44200
H  40.08800 43.43600 21.63700
H  40.65600 41.81400 22.24000
H  39.91300 42.02300 20.72600
H  40.93800 48.06300 25.49700
H  40.47800 47.11300 24.02600
H  42.09800 47.67400 24.37800
H  40.36500 44.78100 29.72100
H  41.71600 46.77100 33.24000
H  40.80500 48.09100 32.44600
H  42.65800 47.61000 32.24200

