158

Mg -1.84200 18.23100 27.02100
C  -2.34200 16.08900 29.66100
C  -2.83900 20.88900 28.82300
C  -1.62600 20.07000 24.17600
C  -1.71200 15.30900 25.01700
N  -2.35400 18.45900 29.01100
C  -2.37900 17.46500 29.97700
C  -2.69400 18.03300 31.36600
C  -3.16300 19.49600 31.07800
C  -2.80100 19.65900 29.56600
C  -4.65000 19.95300 31.49400
C  -1.51400 17.85400 32.34300
C  -1.87800 17.37400 33.74400
H  -0.78400 17.39400 34.81900
N  -2.09000 20.22500 26.56300
C  -2.43000 21.20700 27.44600
C  -2.32000 22.52500 26.79700
C  -1.83300 22.24900 25.46800
C  -1.82500 20.81400 25.38200
C  -2.40900 23.85800 27.48700
C  -1.36400 23.22800 24.37300
O  -1.00000 22.89400 23.29900
C  -1.30900 24.67000 24.73700
N  -1.69400 17.76200 24.95200
C  -1.58900 18.73200 23.97400
C  -1.36300 18.06300 22.53800
C  -1.06600 16.56200 22.95900
C  -1.58500 16.49900 24.37300
C  -2.46300 18.34700 21.44300
C  0.46400 16.03200 22.83400
C  1.59900 16.95700 23.50600
N  -1.97100 16.12200 27.24200
C  -1.84500 15.09500 26.35200
C  -1.80700 13.79700 27.06800
C  -2.04500 14.15300 28.39800
C  -2.15400 15.54300 28.40600
C  -1.58000 12.40900 26.43000
C  -2.17200 13.67300 29.71600
O  -2.17100 12.50400 30.12200
C  -2.33600 14.86100 30.63800
C  -1.24300 14.69200 31.60400
O  -0.15400 15.07500 31.33000
O  -1.66600 14.04000 32.73800
C  -0.46700 13.59500 33.52700
H  -3.03000 21.77300 29.43600
H  -1.48000 20.57800 23.22100
H  -1.51700 14.43200 24.39600
H  -3.49900 17.41100 31.75600
H  -2.58500 20.25200 31.60800
H  -5.11400 19.12700 32.03300
H  -5.22300 20.40400 30.68400
H  -4.56900 20.66100 32.31900
H  -1.01500 18.80300 32.53600
H  -0.74000 17.24400 31.87700
H  -2.19000 16.33100 33.69000
H  -2.77300 17.83600 34.16000
H  -2.58700 23.75500 28.55800
H  -3.19800 24.46000 27.03900
H  -1.54200 24.50900 27.37500
H  -0.55600 24.67700 25.52500
H  -2.33400 24.83800 25.06600
H  -1.09700 25.29800 23.87100
H  -0.47900 18.49200 22.06700
H  -1.67500 15.99600 22.25500
H  -3.30800 17.66200 21.50300
H  -2.09900 18.39800 20.41700
H  -2.83100 19.32300 21.76100
H  0.64700 15.95200 21.76300
H  0.50200 15.15400 23.47900
H  1.19500 17.94400 23.73200
H  2.55200 16.95900 22.97800
H  1.77900 16.55000 24.50100
H  -2.52000 12.04400 26.01700
H  -1.25900 11.62800 27.12000
H  -0.82900 12.52900 25.64900
H  -3.30900 14.71400 31.10600
H  -0.45900 14.14100 34.47000
H  0.51700 13.73100 33.07700
H  -0.61500 12.52900 33.70300
Mg -9.92700 39.77300 39.75100
C  -8.61100 36.60400 38.98600
C  -6.91400 41.16100 38.94000
C  -11.44300 42.91600 39.61700
C  -13.01500 38.33900 39.90800
N  -8.00900 38.90700 39.04500
C  -7.67900 37.60100 38.86900
C  -6.20200 37.50200 38.49300
C  -5.61700 38.92200 38.70800
C  -6.92000 39.74800 38.84800
C  -4.56100 39.12400 39.84800
C  -6.02500 36.98400 37.02200
C  -6.69700 37.79700 35.79700
H  -7.45400 37.05500 34.71300
N  -9.19500 41.80700 39.38400
C  -7.94400 42.13600 39.06200
C  -7.86900 43.55700 38.87700
C  -9.11400 44.09500 39.14000
C  -10.01700 42.93500 39.39600
C  -6.65300 44.26000 38.23700
C  -9.45600 45.65400 38.99700
O  -8.63100 46.52100 38.72600
C  -10.90700 46.15700 39.24000
N  -11.89800 40.52800 39.85800
C  -12.31000 41.82500 39.85500
C  -13.85300 42.00900 40.01500
C  -14.31400 40.54200 39.99300
C  -12.99100 39.74600 39.90000
C  -14.34400 42.80100 41.23600
C  -15.28500 40.25800 38.76700
C  -16.34600 39.12100 38.93700
N  -10.70600 37.78700 39.78700
C  -12.02500 37.39500 39.72000
C  -12.04400 35.94700 39.70200
C  -10.74800 35.57900 39.38400
C  -9.98300 36.77300 39.41700
C  -13.32900 35.11500 39.82500
C  -9.88800 34.45200 39.05500
O  -10.13200 33.27400 38.92200
C  -8.47400 35.10200 38.85700
C  -7.42000 34.50500 39.82200
O  -7.55600 34.35400 41.01900
O  -6.42300 34.01500 39.04200
C  -5.42900 33.06700 39.70100
H  -5.88500 41.51700 38.85700
H  -12.09300 43.79300 39.63700
H  -14.00600 37.89000 39.99600
H  -5.77200 36.71300 39.11000
H  -5.13900 39.26000 37.78900
H  -4.71500 40.16000 40.14900
H  -3.54000 38.94600 39.51000
H  -4.80900 38.41900 40.64100
H  -6.35300 35.96700 36.80400
H  -4.95000 37.03100 36.84900
H  -5.86800 38.22300 35.23100
H  -7.31300 38.64900 36.08400
H  -6.69400 44.51000 37.17700
H  -5.72900 43.68500 38.28600
H  -6.54400 45.13900 38.87200
H  -11.33200 45.72400 40.14600
H  -11.53600 45.74000 38.45300
H  -11.09800 47.22600 39.14700
H  -14.11600 42.62800 39.15800
H  -14.82000 40.31500 40.93100
H  -14.87000 42.25100 42.01600
H  -14.96400 43.68200 41.07100
H  -13.46800 43.27100 41.68400
H  -14.69000 40.11400 37.86600
H  -15.86000 41.16600 38.58400
H  -17.32500 39.59900 38.91600
H  -16.21500 38.62400 39.89800
H  -16.32800 38.36500 38.15200
H  -14.05900 35.60700 39.18200
H  -13.68200 35.02300 40.85200
H  -13.25300 34.05400 39.58700
H  -8.14000 34.79100 37.86700
H  -5.80200 32.09800 39.36700
H  -5.30200 32.94700 40.77700
H  -4.52600 33.07000 39.09000

