158

Mg 42.38200 41.94800 25.23300
C  41.84100 44.40100 27.70200
C  43.95400 39.94300 27.58600
C  42.74400 39.66800 22.84800
C  41.21500 44.30700 22.89300
N  42.75100 42.13900 27.31800
C  42.33400 43.14700 28.16800
C  42.61000 42.84300 29.61700
C  43.27500 41.48800 29.53100
C  43.44500 41.20200 28.03700
C  44.54400 41.37800 30.42500
C  41.34300 42.75200 30.54600
C  41.40800 42.16300 31.96500
H  42.00200 43.06000 33.01900
N  43.30900 40.03800 25.22100
C  43.94300 39.40400 26.28800
C  44.31200 38.10100 25.92000
C  43.85700 37.98000 24.55000
C  43.26300 39.26000 24.12400
C  44.87700 37.02700 26.89600
C  43.89200 36.73300 23.70800
O  43.61600 36.75400 22.53900
C  44.31600 35.41200 24.31300
N  42.19900 42.04600 23.10800
C  42.20600 40.88700 22.39100
C  41.88200 41.19600 20.87500
C  41.24900 42.58500 20.99300
C  41.67600 43.05900 22.41400
C  43.13200 41.04000 19.99200
C  39.73900 42.67200 20.79400
C  38.83500 41.64400 21.59800
N  41.77800 43.97600 25.19100
C  41.35900 44.74400 24.19500
C  41.03200 46.08800 24.66800
C  41.12800 45.96500 26.10100
C  41.63500 44.71200 26.32500
C  40.56300 47.24000 23.94800
C  41.00000 46.71500 27.32900
O  40.64800 47.86700 27.55500
C  41.32600 45.66600 28.42900
C  42.31500 46.34200 29.30800
O  43.47000 46.49600 29.01100
O  41.69600 46.64600 30.54400
C  42.67000 47.29300 31.45600
H  44.45900 39.37400 28.36900
H  42.82300 38.87000 22.10700
H  40.73000 45.04500 22.25100
H  43.32700 43.58800 29.96200
H  42.49500 40.82500 29.90500
H  45.31400 41.35800 29.65300
H  44.48100 40.39000 30.88000
H  44.49100 42.22800 31.10400
H  40.46700 42.31800 30.06500
H  41.03700 43.74500 30.87400
H  41.94200 41.21400 32.01900
H  40.39500 41.96900 32.31900
H  44.86900 37.32600 27.94400
H  45.89100 36.81800 26.55700
H  44.33600 36.08200 26.94400
H  45.27300 35.70500 24.74600
H  44.51600 34.68700 23.52400
H  43.45800 35.11300 24.91500
H  41.13600 40.50400 20.48400
H  41.65400 43.29100 20.26800
H  43.36600 41.98400 19.50000
H  42.99400 40.37600 19.13900
H  44.00300 40.67200 20.53500
H  39.70600 42.53800 19.71300
H  39.35800 43.66800 21.01600
H  38.12400 42.28000 22.12500
H  39.47100 41.23500 22.38300
H  38.46800 40.94200 20.84900
H  39.98600 46.99300 23.05700
H  41.37500 47.89200 23.62500
H  39.91400 47.76800 24.64600
H  40.47700 45.41000 29.06200
H  43.35000 48.01800 31.00700
H  43.32300 46.58900 31.97300
H  42.13400 47.87300 32.20800
Mg 30.46600 57.80400 39.41300
C  27.63600 55.81900 38.73500
C  32.30100 55.08700 38.11900
C  33.04300 59.78200 39.58200
C  28.28300 60.45400 40.39400
N  29.99000 55.71900 38.59900
C  28.79500 55.14500 38.45000
C  28.75400 53.70500 37.90400
C  30.29600 53.45400 38.09100
C  30.91500 54.82100 38.24500
C  30.61700 52.47500 39.23400
C  28.29000 53.60300 36.49100
C  28.58300 54.77300 35.60400
H  27.64400 55.03100 34.36300
N  32.38900 57.42300 39.06400
C  32.95900 56.34600 38.41700
C  34.40100 56.62400 38.22700
C  34.59500 57.90600 38.59500
C  33.34400 58.38600 39.18100
C  35.35900 55.60500 37.70500
C  35.92200 58.70600 38.48100
O  36.87300 58.17900 37.96900
C  36.15100 60.09400 38.84300
N  30.60200 59.85200 39.84900
C  31.80500 60.40500 39.97200
C  31.76200 61.84000 40.32700
C  30.24700 61.99200 40.83700
C  29.69600 60.67000 40.38900
C  32.75700 62.40300 41.36000
C  29.45300 63.17700 40.20100
C  28.68100 63.99900 41.23800
N  28.37800 58.15400 39.57700
C  27.66800 59.25300 39.94700
C  26.27600 59.00400 39.78100
C  26.17600 57.70300 39.32700
C  27.45600 57.20700 39.23100
C  25.18500 59.96200 40.01500
C  25.30300 56.67000 38.77400
O  24.05000 56.67800 38.66100
C  26.16800 55.42100 38.48800
C  25.85900 54.31800 39.47500
O  26.48200 54.10500 40.48800
O  24.69100 53.66100 39.05600
C  24.05800 52.43800 39.71000
H  33.01200 54.30700 37.83800
H  33.82600 60.54200 39.53600
H  27.66700 61.26600 40.78600
H  28.03400 53.18600 38.53700
H  30.69100 52.96900 37.19800
H  31.65300 52.13800 39.18800
H  30.10600 51.52300 39.09300
H  30.27200 52.83600 40.20300
H  27.25400 53.29900 36.34100
H  28.87500 52.83500 35.98500
H  29.56300 54.47500 35.23000
H  28.69500 55.74600 36.08200
H  35.74400 55.89700 36.72900
H  34.96900 54.63000 37.41200
H  36.13400 55.40500 38.44500
H  35.76000 60.18400 39.85700
H  35.67500 60.74700 38.11100
H  37.20900 60.32500 38.96600
H  32.02400 62.32300 39.38600
H  30.27200 61.96800 41.92700
H  32.79800 61.60700 42.10300
H  32.27800 63.24300 41.86400
H  33.70300 62.83100 41.02900
H  28.82900 62.68500 39.45500
H  30.26100 63.78300 39.78900
H  29.15900 64.94600 41.48900
H  28.37200 63.45600 42.13200
H  27.79200 64.31000 40.69000
H  25.48500 60.54700 40.88500
H  24.31100 59.37400 40.29700
H  24.90200 60.61600 39.19000
H  25.92300 55.01400 37.50700
H  24.94800 51.89200 40.02300
H  23.33700 51.89400 39.10000
H  23.32300 52.64900 40.48600

