158

Mg 40.36700 8.89900 29.86800
C  42.12500 10.26600 32.70900
C  38.00100 7.75700 32.05500
C  38.94900 7.40600 27.31000
C  43.12900 9.92200 27.83500
N  40.11400 8.98300 32.05100
C  40.87600 9.68400 33.00300
C  40.32800 9.45800 34.37200
C  39.00700 8.64200 34.21300
C  39.05000 8.44100 32.68700
C  38.87200 7.30400 34.99700
C  40.14400 10.76500 35.24000
C  39.43600 10.52200 36.64100
H  40.34200 10.42200 37.95000
N  38.59500 7.84500 29.69200
C  37.75900 7.51900 30.68200
C  36.69200 6.80600 30.13600
C  36.92400 6.64000 28.73500
C  38.18100 7.27300 28.50400
C  35.48500 6.35000 30.96200
C  36.16700 5.87100 27.71700
O  36.64000 5.60500 26.62900
C  34.74000 5.48200 28.02500
N  41.10000 8.57900 27.92900
C  40.25700 8.00800 27.01900
C  40.90400 7.98700 25.59500
C  42.20400 8.80300 25.79100
C  42.14200 9.16700 27.28400
C  41.16500 6.46800 25.07800
C  42.20700 10.01300 24.76700
C  41.21800 11.14800 24.95500
N  42.23300 9.93900 30.16100
C  43.21300 10.29200 29.22700
C  44.21800 11.08100 29.99600
C  43.86100 11.05400 31.33200
C  42.64200 10.36200 31.42800
C  45.36600 11.73600 29.29700
C  44.30000 11.41000 32.67100
O  45.25900 12.07500 32.95800
C  43.19200 10.93500 33.69700
C  43.71400 9.95000 34.64300
O  43.90700 8.76500 34.40700
O  43.88400 10.56300 35.88100
C  44.46700 9.65700 36.92900
H  37.19600 7.46500 32.73400
H  38.52200 7.07600 26.36100
H  43.97800 10.26300 27.23900
H  41.02900 8.75400 34.82300
H  38.20500 9.36900 34.34400
H  39.67900 7.28000 35.73000
H  39.21300 6.45100 34.41200
H  37.88400 7.15300 35.43100
H  39.57200 11.55200 34.74900
H  41.12500 11.16800 35.49300
H  38.85400 9.60400 36.54800
H  38.75200 11.37100 36.66400
H  34.67000 6.77700 30.37900
H  35.39000 6.73000 31.97900
H  35.43000 5.26100 30.94700
H  34.63000 4.98700 28.99000
H  34.49100 4.70400 27.30400
H  34.11700 6.34400 27.78600
H  40.40200 8.55300 24.81100
H  43.09200 8.17800 25.70500
H  42.16700 6.24500 24.71200
H  40.48600 6.22100 24.26200
H  41.01700 5.70200 25.83800
H  42.07200 9.61100 23.76300
H  43.18900 10.48500 24.72900
H  40.37400 10.91100 25.60300
H  40.88700 11.58800 24.01500
H  41.72000 12.00100 25.41200
H  45.85400 12.50900 29.89100
H  45.07400 12.18400 28.34800
H  46.08000 10.97700 28.97600
H  42.85500 11.89900 34.07900
H  45.41000 10.07800 37.27700
H  44.76800 8.68300 36.54200
H  43.76100 9.47400 37.74000
Mg 54.35100 23.73700 44.94800
C  51.90300 26.05100 43.79700
C  52.33900 21.19700 43.65200
C  56.87400 21.64400 45.46100
C  56.23200 26.59500 45.78100
N  52.42500 23.63700 43.76100
C  51.73900 24.72800 43.27000
C  50.70100 24.24100 42.28300
C  50.44200 22.77300 42.75400
C  51.78400 22.46900 43.38900
C  49.27200 22.57100 43.71800
C  51.27900 24.28500 40.85100
C  50.54800 25.15600 39.80800
H  51.42600 25.71400 38.62000
N  54.52400 21.68200 44.66900
C  53.58200 20.79100 44.21300
C  54.10600 19.48400 44.26800
C  55.38900 19.51900 44.86100
C  55.67200 20.95100 45.01900
C  53.42700 18.28400 43.60000
C  56.24600 18.35100 45.38800
O  55.81700 17.23800 45.27100
C  57.56700 18.52700 46.19300
N  56.31700 24.09400 45.28200
C  57.15200 23.05300 45.53400
C  58.58800 23.63900 45.94000
C  58.32300 25.18600 45.88800
C  56.85300 25.30600 45.69800
C  59.09500 23.17600 47.34500
C  59.12800 25.86800 44.76900
C  59.81400 27.19000 45.23900
N  54.05300 25.88300 44.99700
C  54.85900 26.84100 45.45500
C  54.10500 28.05800 45.68100
C  52.89800 27.82100 45.00500
C  52.92900 26.45900 44.56000
C  54.61000 29.23800 46.62900
C  51.66300 28.41600 44.56100
O  51.10200 29.49000 44.74300
C  50.94900 27.29400 43.78200
C  50.58200 27.84800 42.39500
O  51.38000 27.90300 41.47500
O  49.30600 28.18800 42.27600
C  48.79000 28.93800 41.09600
H  51.58800 20.44000 43.41400
H  57.76600 21.04400 45.65400
H  56.90500 27.43800 45.94700
H  49.85600 24.91800 42.41400
H  50.30600 22.10100 41.90600
H  48.56200 21.78000 43.47800
H  48.76400 23.53500 43.73700
H  49.65000 22.40000 44.72600
H  51.14900 23.30100 40.40200
H  52.34600 24.50600 40.82100
H  50.10000 25.92000 40.44300
H  49.80000 24.46200 39.42500
H  52.91100 18.56300 42.68200
H  52.69200 17.84300 44.27300
H  54.18800 17.54600 43.34700
H  57.41800 19.18700 47.04800
H  58.36100 18.93600 45.56900
H  57.83000 17.52700 46.53700
H  59.36000 23.30000 45.24900
H  58.51600 25.61100 46.87300
H  58.78700 22.13600 47.45100
H  58.68800 23.78500 48.15300
H  60.18000 23.27300 47.37900
H  58.52300 26.13700 43.90200
H  59.84300 25.20000 44.28900
H  59.22100 28.05000 44.92600
H  60.76600 27.31500 44.72200
H  59.94700 27.15400 46.32100
H  55.68500 29.40600 46.56900
H  54.37800 28.92100 47.64600
H  54.13500 30.19100 46.39800
H  50.03100 26.94200 44.25200
H  49.28600 29.88500 40.88300
H  47.70900 29.07800 41.09900
H  49.02100 28.47500 40.13600

