158

Mg 26.93300 51.20700 25.87000
C  25.02300 52.34500 28.55600
C  29.34700 50.30900 28.12100
C  28.73700 50.18800 23.29500
C  24.75800 52.83100 23.74800
N  27.15100 51.33200 28.10700
C  26.20300 51.76600 28.91800
C  26.60300 51.50800 30.41800
C  28.04200 50.92700 30.27500
C  28.22300 50.87500 28.77300
C  29.22200 51.75800 31.01000
C  25.57100 50.57700 31.16500
C  24.91800 51.25800 32.42200
H  24.93700 50.56800 33.83200
N  28.72200 50.25200 25.73700
C  29.62900 50.12900 26.74500
C  30.81400 49.45700 26.21500
C  30.60300 49.23000 24.85100
C  29.32300 49.81300 24.56800
C  31.97000 49.03800 27.18000
C  31.48500 48.60700 23.82300
O  31.13900 48.39000 22.61900
C  32.86300 48.26500 24.12000
N  26.88300 51.59000 23.84200
C  27.64800 50.93600 22.97000
C  27.29600 51.23800 21.49000
C  25.92900 52.00300 21.69100
C  25.87700 52.17100 23.19000
C  28.38500 52.03600 20.75000
C  24.63600 51.26500 21.16900
C  24.10100 51.89000 19.90700
N  25.24100 52.39800 26.06700
C  24.44000 52.97800 25.10000
C  23.31900 53.68700 25.70300
C  23.44100 53.41600 27.11700
C  24.62600 52.67000 27.23100
C  22.22300 54.43000 24.99300
C  22.89600 53.63000 28.44300
O  21.93600 54.22600 28.84700
C  23.97300 52.98100 29.40500
C  24.46700 53.95700 30.34400
O  25.33600 54.75700 30.13000
O  23.71500 53.96600 31.50400
C  23.96400 54.76600 32.69300
H  29.99000 49.93700 28.92200
H  29.35700 49.86700 22.45500
H  23.96400 53.17500 23.08200
H  26.62300 52.49200 30.88700
H  27.99400 49.88900 30.60400
H  29.93800 52.28700 30.38100
H  29.64500 50.93000 31.57900
H  28.80500 52.52500 31.66200
H  26.09000 49.72900 31.61100
H  24.81400 50.17700 30.49100
H  23.85800 51.26900 32.16700
H  25.22100 52.29600 32.55300
H  32.92500 49.44500 26.84600
H  32.19500 47.97300 27.12400
H  31.90300 49.34600 28.22300
H  33.23000 49.23600 24.45300
H  33.43300 47.87200 23.27800
H  33.09600 47.56800 24.92500
H  27.07500 50.33700 20.91800
H  25.94800 52.98500 21.21900
H  28.87000 51.36000 20.04600
H  29.01600 52.52500 21.49200
H  27.92800 52.84000 20.17300
H  23.88700 51.30300 21.96100
H  24.94000 50.23400 20.98400
H  23.02600 51.97600 20.06200
H  24.16500 51.23900 19.03500
H  24.56500 52.82800 19.60100
H  22.31300 54.43500 23.90600
H  22.39000 55.46300 25.29900
H  21.23600 54.08600 25.30300
H  23.58500 52.08200 29.88300
H  24.27500 55.76200 32.37800
H  24.73400 54.38200 33.36300
H  23.02400 54.73400 33.24400
Mg -12.28400 38.14600 41.49400
C  -9.89200 35.86500 41.03100
C  -10.32600 40.49500 39.84900
C  -14.99100 40.17900 41.09000
C  -14.52200 35.59700 42.57700
N  -10.35500 38.06100 40.48400
C  -9.60700 37.00100 40.33000
C  -8.36000 37.32400 39.54300
C  -8.47600 38.85500 39.26300
C  -9.82600 39.18300 39.85200
C  -7.36400 39.72300 39.87900
C  -8.09600 36.34200 38.42400
C  -6.75100 35.71800 38.39900
H  -5.86700 36.33400 37.19600
N  -12.53500 40.11800 40.75600
C  -11.59500 40.94900 40.29800
C  -12.11700 42.26100 40.19300
C  -13.46900 42.21400 40.43200
C  -13.71400 40.79000 40.85100
C  -11.33200 43.47700 39.66100
C  -14.47600 43.42100 40.35400
O  -14.16000 44.47400 39.74600
C  -15.83800 43.34100 40.97800
N  -14.55900 37.88300 41.64800
C  -15.40200 38.91500 41.54500
C  -16.90300 38.45000 41.57400
C  -16.74600 36.99600 42.06100
C  -15.17700 36.80000 42.16000
C  -18.00400 39.31600 42.28200
C  -17.31200 35.86900 41.11000
C  -18.04000 34.71600 41.86800
N  -12.31300 36.10800 41.73100
C  -13.16800 35.24500 42.39800
C  -12.48900 34.03800 42.74000
C  -11.17300 34.18300 42.21400
C  -11.14300 35.48800 41.54900
C  -13.04000 32.84200 43.44500
C  -9.95000 33.56100 41.96500
O  -9.54000 32.45800 42.38300
C  -9.05100 34.62800 41.18800
C  -7.75200 34.81500 41.85400
O  -6.82400 34.03200 41.85300
O  -7.72000 36.08100 42.45900
C  -6.42400 36.48300 43.06900
H  -9.70900 41.17600 39.26000
H  -15.85300 40.82200 40.89900
H  -15.19400 34.88000 43.05400
H  -7.55600 37.27600 40.27700
H  -8.45900 39.12300 38.20700
H  -7.62600 40.28300 40.77600
H  -6.87100 40.34300 39.13100
H  -6.53900 39.05000 40.11300
H  -8.44400 36.78900 37.49300
H  -8.87900 35.59000 38.52000
H  -6.81100 34.65300 38.17200
H  -6.17300 35.87500 39.31000
H  -11.37500 44.28400 40.39300
H  -11.61900 43.80700 38.66300
H  -10.27700 43.26800 39.48500
H  -15.91800 42.93500 41.98600
H  -16.48400 42.84600 40.25200
H  -16.16200 44.38100 41.00100
H  -17.13800 38.35400 40.51400
H  -17.23200 36.99400 43.03600
H  -17.49200 40.01600 42.94100
H  -18.61600 38.70100 42.94200
H  -18.60200 39.84500 41.53900
H  -16.48400 35.37200 40.60500
H  -18.02100 36.20900 40.35500
H  -19.04800 34.71700 41.45500
H  -18.13600 34.84400 42.94600
H  -17.60600 33.74900 41.61400
H  -13.80000 32.45600 42.76600
H  -13.57200 33.12000 44.35500
H  -12.27500 32.09000 43.63800
H  -8.76700 34.00500 40.33900
H  -6.42300 37.55300 42.86000
H  -5.52200 36.08300 42.60700
H  -6.37700 36.36100 44.15100

