158

Mg 9.34800 47.80600 26.46400
C  7.29500 48.16900 29.12500
C  11.99900 49.02100 28.32400
C  11.42300 47.34700 23.74400
C  6.68700 47.47800 24.29800
N  9.60400 48.49900 28.53900
C  8.60000 48.47800 29.49600
C  9.17800 48.91600 30.85000
C  10.56300 49.53000 30.43700
C  10.80600 48.96800 29.01100
C  10.65500 51.08500 30.41400
C  9.38100 47.79300 31.93900
C  8.62500 48.02000 33.29400
H  8.58800 46.84900 34.26000
N  11.43400 48.08400 26.12100
C  12.37600 48.61900 27.03100
C  13.70200 48.60700 26.46300
C  13.47100 48.07700 25.10100
C  12.04500 47.83200 24.93200
C  14.99600 48.94100 27.33500
C  14.60800 47.88800 24.10200
O  14.41100 47.29000 22.99100
C  15.98500 48.14900 24.54900
N  9.10200 47.56400 24.29500
C  10.11200 47.18100 23.44700
C  9.56300 47.07200 22.02400
C  8.00200 47.12900 22.19200
C  7.92300 47.39900 23.72000
C  10.07500 48.22000 21.13900
C  7.33200 45.79400 21.73400
C  6.48900 45.88100 20.45900
N  7.36900 47.75200 26.63500
C  6.40900 47.59900 25.72400
C  5.14900 47.51800 26.38000
C  5.43400 47.84400 27.73800
C  6.81100 47.98700 27.84100
C  3.87200 47.38200 25.76400
C  4.82200 48.11100 28.99200
O  3.65700 48.16500 29.21400
C  6.02400 48.21600 30.02900
C  5.94200 47.01700 30.94700
O  6.20900 45.85700 30.63900
O  5.40600 47.43800 32.13100
C  5.10900 46.39500 33.14900
H  12.80500 49.51100 28.87400
H  12.04700 47.12400 22.87600
H  5.78000 47.19600 23.75800
H  8.45500 49.66700 31.16900
H  11.40700 49.06400 30.94500
H  11.05700 51.50900 29.49500
H  11.35200 51.49500 31.14600
H  9.73400 51.65200 30.54900
H  10.43500 47.58300 32.11500
H  9.10600 46.84600 31.47400
H  7.62100 48.32800 33.00400
H  9.07600 48.86500 33.81400
H  14.74300 48.93100 28.39500
H  15.37300 49.90200 26.98600
H  15.80900 48.23700 27.15600
H  16.65500 47.85900 23.73900
H  16.08700 47.28000 25.20000
H  16.28700 49.08300 25.02200
H  9.88800 46.18900 21.47300
H  7.47500 47.94600 21.69900
H  10.71000 48.89900 21.70800
H  9.26700 48.82900 20.73400
H  10.65300 47.83700 20.29700
H  6.67100 45.51100 22.55300
H  8.10600 45.02700 21.69400
H  5.61600 45.24800 20.61900
H  7.17200 45.54300 19.67900
H  6.15200 46.87900 20.17900
H  3.12300 47.83000 26.41700
H  3.58100 46.33600 25.66700
H  3.82900 47.83300 24.77200
H  6.04500 49.13700 30.61200
H  5.03700 45.39300 32.72700
H  4.22000 46.73400 33.68100
H  5.83200 46.35400 33.96400
Mg -11.77700 38.21300 41.93900
C  -9.58300 35.63500 40.89600
C  -9.50900 40.44100 40.53400
C  -14.13100 40.47100 41.92800
C  -13.94600 35.79200 43.13000
N  -9.68000 38.09200 41.03500
C  -9.01200 36.96600 40.72800
C  -7.79100 37.23400 39.91100
C  -7.59800 38.83400 40.12200
C  -9.00100 39.17200 40.63700
C  -6.51900 39.11700 41.19100
C  -7.95800 36.86200 38.38800
C  -6.91300 35.92500 37.75500
H  -5.99900 36.56000 36.70300
N  -11.82400 40.15700 41.40200
C  -10.78700 40.94600 40.83100
C  -11.19400 42.29700 40.67500
C  -12.58800 42.30700 40.97000
C  -12.88600 40.94400 41.49600
C  -10.34000 43.39200 40.06700
C  -13.44700 43.55800 40.80500
O  -12.99300 44.59400 40.27800
C  -14.93000 43.54400 41.10700
N  -13.79800 38.12000 42.29700
C  -14.45900 39.27500 42.53600
C  -15.87700 39.05000 43.17200
C  -15.97500 37.50400 43.26000
C  -14.48600 37.10100 42.98500
C  -16.08200 39.89600 44.54200
C  -16.86000 36.83400 42.16100
C  -17.33600 35.42200 42.47800
N  -11.90400 36.11000 41.95400
C  -12.74100 35.29100 42.60400
C  -12.28100 33.88900 42.46000
C  -11.06100 33.98400 41.72300
C  -10.84600 35.40000 41.54700
C  -13.08500 32.70300 42.76900
C  -10.04800 33.21000 40.99200
O  -9.94400 31.99000 40.77300
C  -9.19600 34.32400 40.31000
C  -7.69800 33.91900 40.37400
O  -6.89700 34.24700 41.25300
O  -7.36900 33.22400 39.23300
C  -6.06800 32.52500 39.33200
H  -8.81200 41.18900 40.14800
H  -14.97900 41.13900 41.76400
H  -14.62300 35.08100 43.60800
H  -6.97700 36.63900 40.32500
H  -7.34700 39.33600 39.18800
H  -5.74600 38.36100 41.32500
H  -7.00000 39.41200 42.12400
H  -5.99800 39.99000 40.79800
H  -7.92400 37.77500 37.79400
H  -8.95900 36.49400 38.16400
H  -7.31500 35.08800 37.18400
H  -6.28700 35.49600 38.53700
H  -10.80300 43.82500 39.18100
H  -9.38000 43.05000 39.68000
H  -10.14600 44.15500 40.82200
H  -15.47100 42.86400 40.44800
H  -15.28000 44.55400 40.89300
H  -15.09500 43.51100 42.18400
H  -16.71200 39.31000 42.52200
H  -16.32800 37.06100 44.19200
H  -16.68400 39.32400 45.24700
H  -16.65800 40.77700 44.25800
H  -15.11300 40.00700 45.03000
H  -16.24900 36.81500 41.25900
H  -17.73000 37.45300 41.94100
H  -17.73600 35.10800 43.44200
H  -16.66800 34.60300 42.21100
H  -18.18800 35.19200 41.83800
H  -14.14100 32.86400 42.55300
H  -13.04900 32.53400 43.84500
H  -12.88500 31.79200 42.20600
H  -9.51300 34.46100 39.27600
H  -5.52000 32.51200 40.27400
H  -5.37500 32.90300 38.58000
H  -6.28700 31.50500 39.01800

