158

Mg 2.20800 -1.18800 43.93800
C  5.35300 -0.19000 43.44300
C  0.98000 1.43200 42.02700
C  -1.02000 -2.64000 44.14300
C  3.49500 -4.42900 44.93300
N  3.12300 0.26900 42.68600
C  4.42300 0.62100 42.76100
C  4.77900 1.81600 41.82800
C  3.32200 2.50400 41.85700
C  2.36100 1.35800 42.22500
C  3.18800 3.69100 42.81800
C  5.27500 1.36200 40.40100
C  6.42800 2.15800 39.80100
H  6.25400 2.87400 38.47300
N  0.26600 -0.66600 43.23400
C  -0.01300 0.46700 42.47500
C  -1.43900 0.53100 42.21700
C  -1.99600 -0.65600 42.78300
C  -0.89700 -1.41800 43.47200
C  -2.13300 1.57200 41.42500
C  -3.50000 -0.94800 42.68100
O  -4.33800 -0.10000 42.29700
C  -4.04200 -2.21300 43.20400
N  1.40800 -3.18100 44.22300
C  0.04800 -3.41600 44.49100
C  -0.12100 -4.80400 45.30100
C  1.23100 -5.49300 45.03600
C  2.10400 -4.28200 44.63200
C  -0.58600 -4.48900 46.76100
C  1.20500 -6.66100 43.91900
C  1.49500 -8.04900 44.50500
N  4.08800 -2.17400 44.24600
C  4.46300 -3.40600 44.76400
C  5.89400 -3.41500 44.96300
C  6.28000 -2.08600 44.48300
C  5.13800 -1.42600 44.07000
C  6.79400 -4.41500 45.54700
C  7.45900 -1.26100 44.29200
O  8.63400 -1.47700 44.64000
C  6.86800 0.02300 43.60500
C  7.07800 1.23600 44.46400
O  6.21700 1.79500 45.15000
O  8.43900 1.56700 44.41000
C  8.80300 2.71900 45.22500
H  0.66600 2.33000 41.49100
H  -1.98900 -3.09900 44.35400
H  3.86500 -5.41300 45.23000
H  5.39900 2.40100 42.50600
H  3.07900 2.83900 40.84800
H  3.96800 3.63400 43.57700
H  2.18900 3.73100 43.25400
H  3.39600 4.62400 42.29600
H  4.43900 1.24100 39.71100
H  5.63000 0.33200 40.42000
H  7.32000 1.53400 39.74500
H  6.67300 2.93200 40.52800
H  -3.07600 1.17200 41.05200
H  -1.47300 1.66000 40.56300
H  -2.27900 2.54700 41.89100
H  -3.38900 -3.04000 42.92600
H  -5.03500 -2.36200 42.77800
H  -4.16300 -2.15300 44.28500
H  -0.93500 -5.21600 44.70500
H  1.68900 -5.88500 45.94400
H  -1.63800 -4.74300 46.89300
H  -0.57000 -3.42100 46.97400
H  0.08500 -5.03600 47.42300
H  1.90900 -6.48100 43.10700
H  0.21800 -6.70000 43.45800
H  1.30200 -8.13400 45.57400
H  2.47400 -8.42900 44.21400
H  0.84000 -8.67600 43.90100
H  6.98900 -5.35500 45.03100
H  6.44900 -4.67300 46.54900
H  7.71900 -3.86600 45.72600
H  7.46600 0.03600 42.69300
H  8.40200 3.61200 44.74700
H  9.87900 2.89000 45.26600
H  8.44700 2.55100 46.24100
Mg 9.33900 4.05400 27.36400
C  10.40600 2.66900 30.41900
C  7.35100 6.28500 29.12900
C  7.69200 4.96000 24.50900
C  10.66400 1.32900 25.68600
N  8.80300 4.30100 29.48000
C  9.46700 3.74200 30.54800
C  9.04000 4.28200 31.81300
C  8.03900 5.49000 31.42700
C  8.11600 5.41100 29.91300
C  6.67600 5.32500 32.08500
C  10.22800 4.69300 32.70300
C  10.45200 4.34700 34.22100
H  10.42700 5.36700 35.37600
N  7.89300 5.53200 26.91000
C  7.24100 6.35500 27.74400
C  6.44200 7.31700 26.95500
C  6.58300 7.00100 25.58200
C  7.37300 5.75900 25.60000
C  5.57300 8.34500 27.56800
C  5.97400 7.65300 24.42600
O  5.90700 7.19700 23.29700
C  5.47100 9.08600 24.60400
N  8.98500 3.07600 25.32500
C  8.36900 3.70900 24.33600
C  8.42800 2.92600 22.96800
C  9.51300 1.82400 23.37700
C  9.80200 2.13800 24.88500
C  7.01900 2.36300 22.55000
C  10.73900 1.74500 22.37800
C  10.29100 0.92200 21.16100
N  10.45400 2.48700 27.85300
C  10.89100 1.41800 27.08700
C  11.61700 0.52200 27.90400
C  11.50700 0.98700 29.22800
C  10.74400 2.18900 29.13200
C  12.35900 -0.71800 27.54100
C  11.87300 0.69000 30.57400
O  12.48200 -0.29800 30.95700
C  11.23100 1.82000 31.40400
C  10.50500 1.25700 32.51900
O  9.33900 0.95500 32.46100
O  11.30700 1.01200 33.61800
C  10.63500 0.30000 34.74800
H  6.76100 7.05200 29.63600
H  7.32000 5.41800 23.59000
H  11.06000 0.50200 25.09400
H  8.61500 3.46000 32.38800
H  8.51300 6.37600 31.84800
H  6.40600 6.13900 32.75800
H  6.58100 4.43800 32.71200
H  5.93300 5.26700 31.28900
H  10.13300 5.76700 32.86600
H  11.16400 4.53400 32.16700
H  11.39800 3.82300 34.36200
H  9.64700 3.65700 34.47200
H  5.87800 9.38800 27.48200
H  5.55500 8.07100 28.62300
H  4.57600 8.29000 27.13200
H  5.21600 9.46100 23.61300
H  6.33500 9.60300 25.02100
H  4.58500 9.13600 25.23700
H  8.87300 3.54800 22.19100
H  8.94600 0.90300 23.51100
H  7.00500 1.33200 22.19400
H  6.54100 3.08500 21.88900
H  6.46200 2.27900 23.48300
H  11.59500 1.27500 22.86400
H  11.09400 2.73200 22.08300
H  10.73300 1.22700 20.21200
H  9.22600 0.81800 20.95400
H  10.65700 -0.09000 21.33200
H  13.44800 -0.72900 27.58100
H  12.05500 -1.07400 26.55700
H  12.10300 -1.45000 28.30700
H  11.88600 2.49200 31.95700
H  9.90700 0.97200 35.20400
H  11.23900 -0.17700 35.52000
H  10.16900 -0.63700 34.44400

