158

Mg 47.89200 25.88300 28.93900
C  48.71900 27.99100 31.69800
C  46.81600 23.42600 31.21800
C  47.49200 23.63200 26.40500
C  49.43300 28.19900 26.75100
N  47.69900 25.83500 31.13600
C  48.10800 26.81300 32.13500
C  47.71900 26.35200 33.55900
C  47.37500 24.86400 33.33500
C  47.27100 24.66800 31.81500
C  48.41400 23.87700 33.93600
C  46.55900 27.25600 34.15800
C  46.75900 27.84000 35.57900
H  47.30500 27.03200 36.81500
N  47.06700 23.86100 28.81300
C  46.74100 23.10300 29.86600
C  46.13500 21.85300 29.33900
C  46.27000 21.91300 27.86800
C  46.95300 23.15000 27.64600
C  45.54800 20.77800 30.26900
C  45.79600 20.96800 26.80600
O  45.91800 21.14900 25.62200
C  45.23100 19.69000 27.30700
N  48.56100 25.81200 26.85000
C  48.15800 24.82400 25.99500
C  48.46200 25.18000 24.50900
C  49.00200 26.67000 24.62700
C  49.01900 26.93600 26.17300
C  49.48700 24.20100 23.83900
C  48.04800 27.75000 24.01700
C  48.60300 28.86200 23.07800
N  48.82000 27.71000 29.07400
C  49.38900 28.56100 28.14200
C  49.84200 29.71500 28.73100
C  49.61500 29.53700 30.14100
C  48.96100 28.31400 30.29600
C  50.47800 30.91900 28.11800
C  49.76300 30.13700 31.46000
O  50.30200 31.20500 31.83800
C  49.25300 29.13000 32.50000
C  50.42300 28.73700 33.26500
O  51.31500 28.04500 32.87700
O  50.47200 29.43100 34.46600
C  51.74000 29.33500 35.24600
H  46.39400 22.81900 32.02100
H  47.27900 23.11000 25.47000
H  50.03600 28.82300 26.08800
H  48.55000 26.52900 34.24100
H  46.39000 24.77100 33.79300
H  48.14400 22.96200 34.46200
H  48.98800 24.49600 34.62600
H  49.03900 23.61200 33.08300
H  45.63000 26.71700 34.34100
H  46.34000 28.13900 33.55700
H  45.78800 28.18700 35.93500
H  47.27200 28.79400 35.46300
H  44.58400 20.40700 29.92100
H  45.35700 21.15200 31.27400
H  46.30800 20.00600 30.39200
H  45.91000 19.15600 27.97200
H  44.93300 19.01900 26.50200
H  44.25800 19.86200 27.76700
H  47.53500 25.18300 23.93700
H  49.94100 26.85400 24.10500
H  49.10600 23.74200 22.92700
H  49.67400 23.34700 24.49000
H  50.46000 24.68200 23.73500
H  47.61200 28.27900 24.86400
H  47.25300 27.21600 23.49700
H  48.90500 29.71300 23.68800
H  47.86200 29.07400 22.30600
H  49.45300 28.62600 22.43800
H  50.01400 31.74400 28.65700
H  50.38600 31.05700 27.04000
H  51.52200 30.80300 28.41000
H  48.44500 29.60800 33.05400
H  52.65000 29.31500 34.64700
H  51.60900 28.46400 35.88800
H  51.79300 30.23100 35.86500
Mg -12.18100 37.39300 43.30600
C  -9.98200 34.92000 42.03500
C  -10.30900 39.80100 41.64500
C  -14.61700 39.74900 43.93800
C  -14.26900 34.95200 44.28400
N  -10.27900 37.32500 41.93300
C  -9.59900 36.23600 41.59700
C  -8.43200 36.62200 40.68900
C  -8.44900 38.28300 40.75800
C  -9.68200 38.54300 41.65500
C  -7.19300 39.04600 41.29200
C  -8.55700 36.07100 39.24500
C  -7.34200 36.36400 38.47900
H  -7.12100 35.53600 37.19100
N  -12.41100 39.56500 42.85500
C  -11.59600 40.30700 42.12500
C  -12.11900 41.63400 41.86100
C  -13.47800 41.62400 42.37700
C  -13.51900 40.33000 43.09600
C  -11.33700 42.69800 41.06800
C  -14.49700 42.78800 42.32900
O  -14.11700 43.82000 41.84500
C  -15.81200 42.69000 42.89000
N  -14.07900 37.37300 44.02900
C  -14.89300 38.43000 44.42100
C  -16.28900 37.96800 44.90800
C  -16.16200 36.43200 44.85100
C  -14.69800 36.23300 44.38300
C  -16.73200 38.60600 46.27300
C  -17.19100 35.70400 43.94600
C  -17.95300 34.54500 44.51900
N  -12.08100 35.30600 43.37200
C  -13.02800 34.45400 43.93400
C  -12.51800 33.07400 43.75500
C  -11.27800 33.27100 43.10000
C  -11.08100 34.63200 42.78000
C  -13.15200 31.80900 44.19100
C  -10.05200 32.55300 42.56800
O  -9.75500 31.37800 42.53400
C  -9.20300 33.58000 41.91400
C  -7.88100 33.62100 42.66800
O  -6.91000 33.00000 42.29600
O  -7.90600 34.41500 43.77700
C  -6.54500 34.66800 44.35600
H  -9.68400 40.54200 41.14300
H  -15.29800 40.57200 44.16200
H  -15.02400 34.25200 44.64900
H  -7.56100 36.20700 41.19700
H  -8.75700 38.67600 39.78900
H  -7.30500 39.19200 42.36600
H  -6.86600 39.92700 40.74000
H  -6.32100 38.39300 41.29100
H  -9.48500 36.55800 38.94900
H  -8.80000 35.00900 39.28300
H  -6.39500 36.12900 38.96300
H  -7.34100 37.42600 38.23200
H  -11.59300 43.64200 41.55000
H  -11.58500 42.73800 40.00800
H  -10.25300 42.58700 41.07400
H  -16.47900 43.48500 42.55800
H  -15.68900 42.82400 43.96400
H  -16.28000 41.77200 42.53200
H  -16.99500 38.28700 44.14200
H  -16.20400 36.01600 45.85800
H  -16.88200 37.79200 46.98200
H  -17.69800 39.09400 46.13600
H  -15.97500 39.26500 46.69800
H  -16.79200 35.34900 42.99600
H  -17.96400 36.39900 43.61800
H  -17.83400 34.44900 45.59900
H  -17.60900 33.67500 43.95900
H  -18.98400 34.77800 44.25300
H  -13.83400 32.04200 45.00900
H  -12.42200 31.03700 44.43200
H  -13.71500 31.46200 43.32400
H  -9.03300 33.30100 40.87400
H  -6.11400 33.70100 44.61500
H  -6.47800 35.28900 45.24900
H  -5.90800 35.15000 43.61400

