158

Mg 25.14800 -4.87500 45.75500
C  26.69600 -2.14700 44.19000
C  22.36200 -4.08500 43.63500
C  24.09500 -7.95700 46.14100
C  28.30300 -5.71900 47.18400
N  24.65200 -3.27000 44.13500
C  25.44600 -2.30800 43.59800
C  24.76700 -1.43200 42.52100
C  23.32500 -1.97500 42.52300
C  23.43200 -3.16000 43.53600
C  22.18700 -0.90600 42.65900
C  25.46400 -1.40200 41.20400
C  24.74200 -0.69500 39.98000
H  25.34500 -0.98700 38.60100
N  23.44000 -5.90700 45.00700
C  22.42300 -5.37000 44.23100
C  21.35600 -6.39400 44.22300
C  21.76000 -7.54300 44.99100
C  23.16000 -7.16900 45.41500
C  19.99400 -6.08300 43.60800
C  20.88000 -8.73700 45.18900
O  19.77400 -8.80500 44.75500
C  21.45100 -9.98000 45.99200
N  25.98300 -6.54700 46.60400
C  25.29500 -7.70000 46.74000
C  26.19400 -8.77200 47.38000
C  27.55700 -8.08900 47.63000
C  27.31600 -6.70500 47.03300
C  25.55900 -9.43100 48.63900
C  28.76500 -8.84700 46.87200
C  30.09700 -9.00000 47.64200
N  27.16400 -4.12700 45.83300
C  28.26900 -4.50600 46.50500
C  29.18600 -3.42500 46.47500
C  28.67800 -2.52600 45.50900
C  27.39100 -2.98400 45.16000
C  30.49000 -3.38200 47.24400
C  28.96200 -1.28700 44.82800
O  29.88800 -0.51500 44.90100
C  27.74100 -1.08900 43.89700
C  27.21800 0.20900 44.17300
O  26.65000 0.54700 45.18300
O  27.19500 1.03800 43.10300
C  26.65200 2.40000 43.19400
H  21.47900 -3.86500 43.03200
H  23.72400 -8.95900 46.37000
H  29.24700 -5.94900 47.68200
H  24.92200 -0.41700 42.88700
H  23.15400 -2.39000 41.53000
H  21.55600 -0.77500 41.78100
H  22.62800 0.04300 42.96700
H  21.56400 -1.26500 43.47800
H  25.56500 -2.46700 40.99600
H  26.47600 -1.00500 41.28400
H  24.88300 0.37200 40.14900
H  23.67400 -0.91300 39.94600
H  20.01000 -6.31600 42.54300
H  19.85700 -5.01300 43.76300
H  19.14000 -6.65300 43.97300
H  20.67000 -10.73600 46.07600
H  21.70400 -9.63000 46.99300
H  22.25600 -10.49500 45.46700
H  26.24500 -9.61800 46.69500
H  27.68600 -8.00000 48.70900
H  26.14800 -9.23700 49.53600
H  25.53000 -10.51200 48.50300
H  24.53100 -9.10900 48.80600
H  28.96200 -8.25100 45.98100
H  28.45800 -9.85200 46.58300
H  30.19600 -10.01400 48.03000
H  30.13400 -8.32700 48.49800
H  31.05600 -8.78100 47.17200
H  31.32700 -3.07100 46.61800
H  30.74000 -4.40300 47.53000
H  30.44700 -2.65100 48.05200
H  28.06300 -1.04100 42.85600
H  25.96500 2.58900 42.36800
H  27.45300 3.13700 43.24200
H  26.02600 2.49500 44.08100
Mg 27.27200 50.55200 26.62500
C  25.01500 51.80200 29.13500
C  29.49200 50.02100 29.42200
C  29.46000 49.77900 24.51300
C  24.90100 51.50700 24.30200
N  27.35400 51.12800 28.98800
C  26.20400 51.27500 29.72200
C  26.42600 51.17300 31.24500
C  27.98300 50.84400 31.32800
C  28.32200 50.72800 29.82800
C  28.86600 51.81200 32.22500
C  25.57200 50.05400 31.92400
C  24.62100 50.61800 32.98000
H  24.47300 49.75400 34.30200
N  29.21400 49.96200 26.93000
C  29.94000 49.71500 28.10800
C  31.22200 49.23500 27.71100
C  31.32500 49.20700 26.26300
C  29.95600 49.67000 25.84200
C  32.43800 49.00200 28.70600
C  32.58800 48.75400 25.34700
O  32.53500 48.88700 24.12100
C  33.89500 48.30200 25.92600
N  27.20000 50.70300 24.68100
C  28.26400 50.33500 23.99000
C  27.85000 50.01800 22.53000
C  26.41600 50.57700 22.35500
C  26.14200 51.06500 23.84100
C  28.76600 50.59400 21.49900
C  25.30400 49.63200 21.82900
C  24.44000 50.08700 20.66600
N  25.40000 51.44400 26.64600
C  24.55700 51.74800 25.60200
C  23.22700 52.13100 26.12800
C  23.41700 52.19700 27.48800
C  24.71800 51.78800 27.78100
C  22.08400 52.61200 25.23900
C  22.71700 52.55100 28.68900
O  21.58800 52.86800 28.90800
C  23.72800 52.24300 29.89800
C  23.91600 53.41600 30.83800
O  24.59800 54.41000 30.59300
O  23.15300 53.19200 31.93600
C  23.24100 54.24900 32.89700
H  30.07700 49.66000 30.27100
H  30.16600 49.35000 23.79900
H  24.21700 51.72300 23.47800
H  26.12700 52.19000 31.49800
H  28.10700 49.86000 31.78000
H  28.30200 52.70000 32.51100
H  29.84100 52.03600 31.79200
H  29.05800 51.31300 33.17500
H  26.20200 49.26200 32.32900
H  25.11800 49.52700 31.08500
H  23.62100 50.55400 32.55000
H  24.86800 51.64200 33.26100
H  32.37800 49.56100 29.64000
H  33.35800 49.31100 28.21000
H  32.32600 47.96100 29.00900
H  34.43000 47.56600 25.32700
H  33.64800 47.69100 26.79400
H  34.57400 49.12300 26.15400
H  27.85000 48.93500 22.40700
H  26.48800 51.46400 21.72500
H  29.63500 50.87000 22.09600
H  28.43700 51.53600 21.05900
H  29.08100 49.84100 20.77700
H  24.67100 49.37500 22.67800
H  25.70600 48.66300 21.53200
H  23.40000 50.12200 20.99200
H  24.50100 49.37000 19.84800
H  24.86100 51.00600 20.25900
H  22.12300 52.40300 24.17000
H  22.09800 53.69600 25.34400
H  21.11800 52.29800 25.63600
H  23.35200 51.42100 30.50600
H  23.24600 55.27700 32.53600
H  23.90000 54.06000 33.74400
H  22.32400 54.18000 33.48300

