158

Mg 48.51100 35.96200 27.77800
C  46.59500 34.41900 30.12200
C  49.04000 38.54200 30.06100
C  50.31300 37.64300 25.40100
C  47.76200 33.52500 25.46000
N  48.12700 36.33500 29.85600
C  47.35000 35.47500 30.63500
C  47.40100 35.84600 32.14900
C  47.61900 37.41500 31.93700
C  48.35800 37.41100 30.56500
C  46.31600 38.36900 31.91400
C  48.73100 35.30400 32.86600
C  48.61000 34.86300 34.33400
H  47.93000 35.85500 35.23000
N  49.47600 37.75800 27.78600
C  49.53600 38.75400 28.75400
C  50.27100 39.87400 28.30900
C  50.67000 39.66100 26.99600
C  50.09600 38.28300 26.68200
C  50.41100 41.08000 29.11900
C  51.48900 40.47600 26.00000
O  51.79900 40.11100 24.85800
C  52.04900 41.81400 26.39400
N  48.94600 35.71200 25.68400
C  49.79100 36.44700 24.93300
C  50.12400 35.75700 23.63200
C  49.41100 34.32800 23.73400
C  48.69000 34.48100 25.05800
C  49.62500 36.63000 22.41700
C  50.19300 33.03600 23.53000
C  50.21100 32.36100 22.05600
N  47.37600 34.27400 27.71400
C  47.16000 33.33700 26.77800
C  46.32300 32.35500 27.27500
C  46.05100 32.74500 28.62000
C  46.69000 33.94300 28.82200
C  45.87600 31.07600 26.56300
C  45.35200 32.40900 29.86200
O  44.57000 31.47900 30.10200
C  45.52500 33.60100 30.78700
C  45.73500 33.19600 32.22500
O  46.64100 32.69300 32.85300
O  44.53000 33.41600 32.85800
C  44.52900 33.21000 34.30000
H  49.02100 39.34700 30.79900
H  51.02700 38.08200 24.70100
H  47.62200 32.59600 24.90300
H  46.50000 35.55100 32.68600
H  48.36800 37.76500 32.64700
H  46.32500 39.01500 32.79200
H  45.36700 37.84100 31.82000
H  46.38700 39.00400 31.03100
H  49.56600 35.99900 32.77800
H  48.98200 34.42800 32.26900
H  49.59400 34.71200 34.77600
H  48.13400 33.89100 34.46300
H  49.83600 41.86200 28.62200
H  51.48200 41.28300 29.10300
H  50.17300 40.98100 30.17800
H  51.31300 42.38900 26.95500
H  52.34500 42.31600 25.47300
H  52.97300 41.78900 26.97200
H  51.20400 35.76800 23.48600
H  48.59400 34.19400 23.02500
H  49.32300 35.96600 21.60700
H  50.45700 37.22900 22.04900
H  48.75200 37.24900 22.62500
H  49.76500 32.38600 24.29300
H  51.21200 33.28900 23.82200
H  49.26600 32.66500 21.60600
H  50.25100 31.27800 22.17900
H  51.08600 32.57300 21.44300
H  46.05400 31.21700 25.49700
H  44.79500 30.93900 26.53700
H  46.34700 30.13700 26.85300
H  44.57300 34.12300 30.68800
H  43.49500 33.43600 34.55900
H  45.24400 33.92300 34.71100
H  44.68700 32.18600 34.63600
Mg -12.19000 38.52100 42.18400
C  -9.94600 36.13300 41.23300
C  -10.27600 40.85300 40.46200
C  -14.62900 40.68500 42.80000
C  -14.30000 35.96800 43.44800
N  -10.35600 38.45200 40.98700
C  -9.53000 37.37700 40.80700
C  -8.19600 37.77900 40.04400
C  -8.27600 39.33500 39.90300
C  -9.73300 39.54900 40.45800
C  -7.20600 40.24800 40.62000
C  -7.81200 36.98900 38.71800
C  -6.60900 35.91900 38.63700
H  -5.69800 36.28300 37.50500
N  -12.41400 40.56800 41.71500
C  -11.54300 41.33600 41.07200
C  -12.09200 42.68700 41.10700
C  -13.33200 42.67300 41.73200
C  -13.50100 41.25100 42.14300
C  -11.40200 43.84400 40.40000
C  -14.18700 43.88700 41.98300
O  -13.93100 44.97800 41.54300
C  -15.29800 43.71700 42.86300
N  -14.23800 38.26200 42.85000
C  -15.01700 39.35800 43.06400
C  -16.36300 38.99200 43.61500
C  -16.28500 37.42500 43.74700
C  -14.85100 37.19300 43.40300
C  -16.75900 39.73600 44.97800
C  -17.27800 36.75000 42.77000
C  -18.70500 36.89200 43.32000
N  -12.17100 36.47800 42.26900
C  -13.03000 35.57800 42.94600
C  -12.41700 34.27400 42.97700
C  -11.22700 34.40700 42.28000
C  -11.15700 35.76700 41.86800
C  -12.91800 32.98600 43.70000
C  -10.02200 33.69500 41.82500
O  -9.65700 32.55000 42.03200
C  -9.18500 34.84900 41.08100
C  -7.82200 34.79600 41.72000
O  -7.04900 33.91500 41.44200
O  -7.64200 35.83000 42.65700
C  -6.28600 35.98300 43.24700
H  -9.61400 41.59300 40.00700
H  -15.43500 41.29900 43.20800
H  -14.92900 35.16900 43.84500
H  -7.34400 37.47000 40.64900
H  -8.21600 39.57800 38.84200
H  -7.50800 40.55700 41.62100
H  -7.30800 41.11100 39.96200
H  -6.17500 39.91900 40.49400
H  -7.59300 37.78400 38.00500
H  -8.57700 36.45100 38.15800
H  -7.18100 35.02400 38.39500
H  -6.01400 35.77400 39.53900
H  -11.84600 44.21900 39.47800
H  -10.42200 43.46900 40.10600
H  -11.31800 44.71500 41.05100
H  -15.62200 44.67300 43.27500
H  -15.02900 43.18300 43.77400
H  -16.12600 43.22700 42.35000
H  -17.04700 39.43000 42.88800
H  -16.43800 37.15200 44.79100
H  -15.87500 40.11700 45.49000
H  -17.48100 39.08400 45.47000
H  -17.27300 40.63800 44.64500
H  -17.06700 35.69600 42.58600
H  -17.26500 37.10300 41.73900
H  -19.41000 37.14500 42.52800
H  -18.63300 37.54900 44.18600
H  -18.86800 35.85600 43.61800
H  -13.12300 32.24700 42.92500
H  -13.83800 33.30400 44.19200
H  -12.12100 32.65900 44.36700
H  -9.07800 34.54200 40.04100
H  -5.63500 36.58900 42.61700
H  -5.83300 35.00600 43.41600
H  -6.42400 36.63300 44.11100

