158

Mg 10.02200 48.15600 26.17000
C  7.81200 48.60300 28.82100
C  12.55000 49.80400 27.94900
C  12.01600 47.81800 23.51500
C  7.25800 47.36900 24.11300
N  10.11300 49.27700 28.12200
C  9.15300 49.05900 29.11200
C  9.77300 49.65200 30.35300
C  11.09500 50.32000 29.96800
C  11.28700 49.77100 28.53900
C  11.21700 51.88700 30.08900
C  9.87700 48.57800 31.45600
C  10.51700 49.00600 32.80800
H  9.76400 48.34200 34.02100
N  12.05600 48.64400 25.82300
C  12.86600 49.22600 26.70400
C  14.22000 49.24800 26.10600
C  14.15500 48.59400 24.84200
C  12.67200 48.30500 24.66700
C  15.44700 49.88600 26.83200
C  15.30200 48.13600 23.86000
O  15.12900 47.52400 22.79100
C  16.72800 48.40000 24.24700
N  9.66100 47.60500 24.03400
C  10.69100 47.43900 23.22200
C  10.29900 46.99600 21.85800
C  8.71400 46.73100 22.01900
C  8.50300 47.18000 23.51900
C  10.61800 47.95600 20.66300
C  8.23000 45.34900 21.78000
C  8.47100 44.27800 22.83400
N  8.00000 48.04700 26.33600
C  6.95900 47.70500 25.46200
C  5.62600 47.67000 26.08400
C  5.99400 48.03100 27.41300
C  7.39100 48.23700 27.49900
C  4.30300 47.32100 25.57800
C  5.45300 48.06500 28.74100
O  4.29300 47.92900 29.10300
C  6.60000 48.37800 29.74000
C  6.78900 47.09600 30.52000
O  7.43500 46.13900 30.14800
O  6.10500 47.17900 31.69800
C  6.47900 46.11400 32.59100
H  13.35800 50.30500 28.48700
H  12.76400 47.70600 22.72800
H  6.51500 46.97700 23.41500
H  9.13100 50.43700 30.75300
H  11.92900 49.96500 30.57300
H  10.25800 52.34200 30.33700
H  11.69500 52.31500 29.20800
H  11.91300 51.94200 30.92600
H  10.30600 47.69500 30.98200
H  8.89700 48.12900 31.61700
H  10.73400 50.07000 32.89700
H  11.48300 48.50000 32.81100
H  16.18900 50.31800 26.16100
H  15.97100 49.07100 27.33200
H  15.20800 50.75700 27.44200
H  16.89200 49.47300 24.15100
H  17.36800 47.77700 23.62100
H  16.79100 48.00300 25.26000
H  10.86100 46.06800 21.76000
H  8.27800 47.43300 21.30800
H  10.80400 48.95900 21.04800
H  9.79600 47.99700 19.94900
H  11.55500 47.62000 20.22000
H  8.64300 45.04600 20.81800
H  7.16100 45.50200 21.63300
H  7.47700 43.85000 22.96000
H  8.71200 44.73900 23.79200
H  9.24300 43.55100 22.58100
H  4.22300 46.41000 24.98400
H  3.97100 48.05600 24.84500
H  3.57600 47.40500 26.38600
H  6.21500 49.19600 30.35000
H  6.18700 45.17800 32.11500
H  5.95500 46.28400 33.53100
H  7.55800 46.21800 32.70200
Mg -10.91700 16.82700 40.90100
C  -7.43600 16.29500 40.47800
C  -10.30300 20.15200 39.98400
C  -14.22400 17.48800 40.73200
C  -11.38200 13.44600 40.81200
N  -9.08400 18.07700 40.27500
C  -7.74300 17.64900 40.35200
C  -6.74900 18.81400 40.13100
C  -7.72400 20.05800 40.45900
C  -9.12500 19.42400 40.20800
C  -7.48400 20.72300 41.86300
C  -6.21000 18.78200 38.71900
C  -4.67100 18.53500 38.45500
H  -4.32700 17.72200 37.20200
N  -12.13100 18.64900 40.52200
C  -11.70000 19.79300 40.03600
C  -12.76000 20.70600 39.69100
C  -13.91700 19.99900 40.09000
C  -13.45500 18.65300 40.44800
C  -12.54100 22.18000 39.22900
C  -15.31500 20.59100 40.10000
O  -15.46000 21.80200 39.85500
C  -16.57800 19.81000 40.40300
N  -12.57400 15.64700 40.81600
C  -13.82900 16.17300 40.84100
C  -14.82400 14.93000 40.98600
C  -13.88600 13.68400 40.62000
C  -12.52800 14.24400 40.79800
C  -15.50400 14.98700 42.37100
C  -14.11000 13.20900 39.14800
C  -14.18800 14.13000 37.98000
N  -9.68200 15.18800 40.85000
C  -10.01600 13.84700 40.84800
C  -8.84300 12.98500 40.69900
C  -7.83000 13.95900 40.55600
C  -8.40000 15.27700 40.64700
C  -8.90400 11.51200 40.75600
C  -6.42300 14.11700 40.39700
O  -5.59700 13.29300 40.02800
C  -6.10300 15.56400 40.43000
C  -5.18400 15.78500 41.57900
O  -4.27800 16.59900 41.52300
O  -5.45000 14.91600 42.65900
C  -4.37200 14.91200 43.74800
H  -10.12300 21.18200 39.66800
H  -15.30200 17.48900 40.55900
H  -11.60700 12.38700 40.67300
H  -5.91200 18.87700 40.82600
H  -7.55500 20.85300 39.73400
H  -6.86700 20.04500 42.45200
H  -8.46900 20.52900 42.28700
H  -7.08000 21.73500 41.89000
H  -6.59700 19.70800 38.29300
H  -6.71200 17.97100 38.19200
H  -4.21900 18.10100 39.34800
H  -4.24900 19.53700 38.37500
H  -11.71900 22.23300 38.51500
H  -12.21100 22.76500 40.08800
H  -13.50400 22.54100 38.86700
H  -16.71700 19.16400 39.53600
H  -17.42200 20.49700 40.46800
H  -16.41100 19.28000 41.34100
H  -15.63600 14.92700 40.25900
H  -14.08200 12.76800 41.17800
H  -16.57100 15.19200 42.27400
H  -15.00800 15.87400 42.76500
H  -15.22300 14.15200 43.01300
H  -14.86900 12.42600 39.14600
H  -13.21600 12.62400 38.92900
H  -13.26600 14.23800 37.40900
H  -14.49700 15.14500 38.22900
H  -15.02400 13.73600 37.40100
H  -8.02500 10.91600 40.51100
H  -9.72400 11.09600 40.17000
H  -8.99600 11.23300 41.80600
H  -5.46300 15.78700 39.57600
H  -4.83300 14.87000 44.73500
H  -3.84900 15.86600 43.82100
H  -3.73500 14.04200 43.58900

