158

Mg 52.88800 23.71600 44.15400
C  49.93000 25.60700 44.04100
C  51.06800 20.94500 43.71800
C  55.78100 21.89600 43.99600
C  54.77000 26.67800 44.12900
N  50.67700 23.38900 43.84200
C  49.66200 24.22400 43.88400
C  48.35800 23.48400 43.59400
C  48.77900 22.03200 43.81200
C  50.32200 22.13100 43.70300
C  48.26600 21.44500 45.17400
C  47.70900 23.83200 42.18400
C  48.65100 23.89700 40.97400
H  48.03200 24.25100 39.64800
N  53.38200 21.70900 43.90800
C  52.41900 20.77000 43.71900
C  52.99600 19.46700 43.79500
C  54.43200 19.66200 43.78400
C  54.63600 21.13800 43.97700
C  52.19800 18.22800 43.58000
C  55.45800 18.53500 43.45000
O  55.01300 17.41700 43.42800
C  56.92800 18.66000 43.25200
N  54.93100 24.22800 43.90500
C  55.96600 23.28800 43.88400
C  57.33600 23.91100 43.88900
C  56.95700 25.44800 44.14900
C  55.46900 25.45900 44.08600
C  58.26000 23.34500 45.05400
C  57.50700 26.32800 43.06800
C  57.97700 27.69500 43.57700
N  52.55800 25.77000 44.14500
C  53.36400 26.86700 44.15400
C  52.61300 28.04800 44.37800
C  51.29000 27.64600 44.30600
C  51.28200 26.22900 44.10600
C  53.16800 29.42400 44.55800
C  49.96400 28.08400 44.28100
O  49.52200 29.21900 44.58600
C  49.05800 26.83900 44.06800
C  48.30900 26.93700 42.84500
O  48.78400 26.92900 41.72200
O  47.04900 27.17900 43.23900
C  46.20700 27.76300 42.21200
H  50.48500 20.04600 43.50500
H  56.68600 21.34000 44.24800
H  55.23700 27.66500 44.13700
H  47.62000 23.77000 44.34500
H  48.31200 21.45700 43.01400
H  47.66200 22.19900 45.67800
H  49.12600 21.15000 45.77600
H  47.76000 20.50800 44.94400
H  47.04700 24.69000 42.29800
H  47.06900 22.96900 41.99800
H  49.20700 22.97800 40.78800
H  49.37200 24.68500 41.18900
H  52.62100 17.22800 43.67800
H  51.85200 18.16100 42.54800
H  51.33800 18.32000 44.24400
H  57.31500 17.91400 42.55800
H  57.47800 18.63600 44.19300
H  57.07800 19.61300 42.74300
H  57.82200 23.68700 42.94000
H  57.28400 25.86100 45.10300
H  58.85700 22.56300 44.58500
H  57.67700 22.97100 45.89600
H  58.93400 24.13100 45.39300
H  56.74700 26.54100 42.31500
H  58.31100 25.78700 42.57000
H  59.02200 27.67000 43.27000
H  57.83300 27.89200 44.63900
H  57.56900 28.51600 42.98700
H  54.01200 29.31400 45.23900
H  52.35100 30.00800 44.98300
H  53.50000 29.82500 43.60000
H  48.41800 26.88800 44.94900
H  45.48700 26.96700 42.02400
H  46.74800 28.00000 41.29600
H  45.62900 28.54600 42.70300
Mg -10.64700 17.75300 43.42400
C  -7.14300 17.20000 43.26000
C  -9.92400 21.07900 42.47500
C  -13.86200 18.31500 43.05800
C  -11.13800 14.37600 43.77200
N  -8.71900 18.97500 42.91900
C  -7.42100 18.53900 43.03000
C  -6.40500 19.63400 42.64800
C  -7.37000 20.93900 42.62400
C  -8.79700 20.29600 42.65500
C  -7.12000 22.00500 43.79400
C  -5.41700 19.34200 41.42900
C  -5.78300 18.29600 40.37600
H  -5.65100 18.71700 38.88300
N  -11.77000 19.51000 42.72500
C  -11.31200 20.77200 42.45400
C  -12.41700 21.58200 42.14900
C  -13.56200 20.81600 42.37800
C  -13.07300 19.47700 42.70400
C  -12.23400 23.06400 41.75500
C  -15.03200 21.28100 42.27200
O  -15.33400 22.47300 42.03800
C  -16.18600 20.44400 42.60200
N  -12.33800 16.50300 43.28700
C  -13.57800 17.00600 43.37200
C  -14.58400 15.97300 43.85100
C  -13.71600 14.67400 43.72200
C  -12.30000 15.16000 43.47900
C  -15.22400 16.26600 45.20500
C  -14.11300 13.69000 42.54900
C  -15.22900 12.69300 42.75500
N  -9.51500 16.09600 43.53300
C  -9.80900 14.80100 43.68200
C  -8.61300 13.98200 43.72500
C  -7.58300 14.90300 43.58100
C  -8.16100 16.17300 43.42200
C  -8.56900 12.41600 43.83800
C  -6.13400 15.02500 43.58600
O  -5.28100 14.15600 43.67700
C  -5.82700 16.52300 43.42700
C  -4.91600 17.00400 44.55700
O  -3.90200 17.70300 44.44100
O  -5.35900 16.48500 45.77600
C  -4.71400 16.99900 46.96400
H  -9.72700 22.12800 42.24400
H  -14.94900 18.36600 42.96500
H  -11.41100 13.33600 43.96200
H  -5.68800 19.69700 43.46600
H  -7.28100 21.38600 41.63400
H  -6.96000 22.96900 43.31000
H  -6.27300 21.79700 44.44900
H  -8.03100 21.97900 44.39100
H  -4.46300 19.10200 41.89800
H  -5.28600 20.27900 40.88700
H  -6.82600 18.07300 40.60200
H  -5.19200 17.38300 40.46000
H  -13.06500 23.46000 41.17300
H  -11.39700 23.11400 41.05800
H  -12.03800 23.70600 42.61400
H  -16.20100 20.29400 43.68200
H  -16.22900 19.55600 41.97200
H  -17.05800 20.99600 42.25200
H  -15.41300 15.93100 43.14400
H  -13.72400 14.15700 44.68200
H  -14.51800 16.65600 45.93900
H  -15.73900 15.40600 45.63300
H  -15.94300 17.07200 45.05900
H  -13.24300 13.09800 42.26300
H  -14.42400 14.25700 41.67100
H  -16.17000 12.98600 42.28800
H  -15.27700 12.78700 43.84000
H  -14.82300 11.72800 42.45300
H  -9.17100 12.05000 43.00600
H  -9.02300 12.02300 44.74700
H  -7.53800 12.07700 43.73300
H  -5.26800 16.61800 42.49600
H  -4.35000 18.01300 46.80200
H  -3.89800 16.37800 47.33400
H  -5.46600 17.12000 47.74400

