158

Mg 8.56500 5.01600 27.58700
C  9.86500 3.29900 30.35300
C  6.60500 6.91200 29.59900
C  7.49400 6.63400 24.85100
C  10.09600 2.59400 25.49400
N  8.06400 4.91500 29.75500
C  8.84900 4.23900 30.65800
C  8.41000 4.67700 32.04300
C  7.45700 5.89600 31.80800
C  7.38700 5.95200 30.27100
C  5.96300 5.81100 32.43600
C  9.42700 4.89600 33.12900
C  8.82700 4.80200 34.52800
H  9.76200 5.00600 35.76900
N  7.28600 6.61500 27.29400
C  6.47200 7.12000 28.22700
C  5.48400 8.16700 27.55400
C  5.96200 8.24200 26.16800
C  6.99800 7.19300 26.06200
C  4.34200 8.98800 28.35900
C  5.52900 9.12600 25.05300
O  6.00900 9.06600 23.91900
C  4.46300 10.12000 25.32400
N  8.81500 4.73500 25.46300
C  8.31200 5.58000 24.57100
C  8.65100 5.16300 23.14300
C  9.48100 3.85700 23.24600
C  9.49400 3.68700 24.79600
C  7.39000 4.98100 22.19200
C  10.98000 3.86200 22.68100
C  11.28400 2.68300 21.75100
N  9.81600 3.29300 27.79600
C  10.29400 2.36700 26.89800
C  11.03100 1.30000 27.58300
C  10.97400 1.68400 28.91700
C  10.19900 2.89000 29.00800
C  11.56400 0.07600 26.95300
C  11.38500 1.38300 30.33200
O  12.13700 0.50800 30.71400
C  10.72900 2.46000 31.24600
C  9.93700 1.53500 32.16000
O  8.82800 1.03100 32.00100
O  10.51800 1.65400 33.38100
C  9.98500 0.85500 34.49000
H  6.06700 7.59600 30.25900
H  7.00800 7.10300 23.99200
H  10.59600 1.88800 24.82800
H  7.83400 3.78800 32.29900
H  7.98000 6.74300 32.25300
H  6.01800 4.99200 33.15300
H  5.27500 5.68800 31.60000
H  5.75900 6.70700 33.02300
H  10.06300 5.75500 32.91700
H  10.10900 4.04600 33.15800
H  8.65100 3.74100 34.70600
H  7.91200 5.38800 34.60800
H  3.38700 9.16500 27.86300
H  4.60200 10.03000 28.55100
H  4.17000 8.67200 29.38800
H  4.76200 10.64300 26.23300
H  3.47800 9.66000 25.40200
H  4.50700 10.87800 24.54200
H  9.24400 5.98300 22.73700
H  8.86200 3.00100 22.97600
H  7.49000 4.13000 21.51800
H  7.40100 5.84600 21.53000
H  6.39800 4.95500 22.64400
H  11.68300 3.91200 23.51300
H  11.19300 4.72100 22.04500
H  11.42400 2.93100 20.69900
H  10.47300 1.95600 21.79000
H  12.15000 2.12900 22.11200
H  11.93800 -0.49600 27.80200
H  12.27800 0.55800 26.28500
H  10.79600 -0.35800 26.31200
H  11.55400 2.84100 31.84800
H  9.53200 1.46800 35.26900
H  10.90200 0.45600 34.92400
H  9.33000 0.03600 34.19200
Mg 26.59900 50.40400 27.21300
C  24.63900 51.72200 29.96300
C  29.10700 49.61900 29.59000
C  28.42000 49.39500 24.72800
C  24.26900 51.69500 25.00800
N  26.82400 50.78100 29.53900
C  25.82700 51.18300 30.38400
C  26.33300 51.05600 31.82600
C  27.78000 50.56800 31.64600
C  27.92600 50.27100 30.15000
C  28.96800 51.52100 32.18600
C  25.39700 50.11000 32.65000
C  24.73000 50.51700 33.94100
H  25.69800 50.77300 35.14600
N  28.46100 49.62500 27.11000
C  29.30000 49.28600 28.20300
C  30.42000 48.53400 27.71100
C  30.30700 48.47300 26.27100
C  29.01500 49.18300 26.01300
C  31.59600 47.97600 28.58300
C  31.25100 47.84800 25.20000
O  31.09300 47.96100 23.99400
C  32.43200 46.82500 25.55600
N  26.47100 50.70200 25.11900
C  27.29100 50.03900 24.25800
C  26.89600 50.22400 22.83200
C  25.33400 50.59000 22.97500
C  25.30100 50.98500 24.49800
C  27.79500 51.36300 22.21700
C  24.21800 49.49700 22.64900
C  23.17900 49.91500 21.66600
N  24.75600 51.55600 27.37300
C  23.92200 51.97200 26.35200
C  22.81700 52.51000 26.95900
C  23.00600 52.47100 28.39000
C  24.17500 51.80900 28.59400
C  21.61400 53.07600 26.21200
C  22.42700 52.91900 29.70100
O  21.36600 53.47800 29.95600
C  23.44400 52.36900 30.76400
C  23.88500 53.52100 31.60400
O  24.80900 54.32700 31.29800
O  23.17300 53.57600 32.73600
C  23.65300 54.35400 33.94300
H  29.76000 49.24100 30.38000
H  28.94300 49.04200 23.83600
H  23.56400 52.02900 24.24400
H  26.33600 52.03700 32.30000
H  27.92300 49.58700 32.10000
H  29.75000 51.52400 31.42600
H  29.28300 51.13000 33.15400
H  28.74500 52.57500 32.35600
H  25.89700 49.19800 32.97700
H  24.62900 49.63800 32.03700
H  23.98800 49.72800 34.06500
H  24.29500 51.48800 33.70500
H  31.32500 46.94200 28.80000
H  31.57500 48.38100 29.59500
H  32.59900 48.19500 28.21900
H  33.28800 47.33900 25.99300
H  32.83500 46.23800 24.73000
H  32.06300 46.14100 26.32000
H  27.03000 49.35400 22.18900
H  25.23600 51.51400 22.40400
H  28.30100 51.92800 23.00000
H  27.20200 52.13400 21.72500
H  28.53900 50.88900 21.57600
H  23.69600 49.23700 23.57000
H  24.75400 48.67900 22.16800
H  22.20800 49.44800 21.82500
H  23.41000 49.76700 20.61100
H  22.93900 50.97100 21.79200
H  20.71900 52.68100 26.69200
H  21.59000 52.95700 25.12900
H  21.73600 54.14400 26.39200
H  23.06800 51.69400 31.53400
H  24.59300 54.87200 33.75200
H  23.90600 53.58100 34.66900
H  22.93000 55.02700 34.40400

