158

Mg 1.09100 7.39700 25.21000
C  1.96000 9.67600 27.94300
C  1.25400 4.94900 27.34100
C  0.49100 5.51800 22.61100
C  1.32100 10.36000 23.04900
N  1.68600 7.32700 27.36800
C  1.90000 8.29300 28.28900
C  1.91000 7.70300 29.72700
C  1.93500 6.19700 29.41000
C  1.57100 6.12600 27.95100
C  3.11900 5.40000 29.91700
C  0.60400 8.08100 30.49100
C  0.63600 8.38900 31.96000
H  1.71400 7.68100 32.86200
N  0.84900 5.49600 25.01300
C  0.96700 4.60900 25.97400
C  0.57500 3.32300 25.41700
C  0.35700 3.40100 24.02100
C  0.48600 4.88000 23.83800
C  0.57500 2.06700 26.25100
C  0.14200 2.29500 23.01000
O  -0.12300 2.53500 21.85100
C  0.04200 0.80900 23.58900
N  0.96100 7.82500 23.09700
C  0.65200 6.87200 22.25300
C  0.59700 7.38400 20.77600
C  0.61200 8.93100 21.01900
C  1.03500 9.08200 22.48800
C  1.71900 6.90800 19.73800
C  -0.80500 9.64100 20.92200
C  -0.95800 11.00500 20.09500
N  1.50900 9.60500 25.38600
C  1.51400 10.66500 24.43800
C  1.75600 11.97900 25.07300
C  1.91200 11.62800 26.45300
C  1.75600 10.18300 26.57600
C  1.81800 13.31700 24.36700
C  2.18800 12.17300 27.78400
O  2.35800 13.31500 28.17900
C  2.00400 10.87100 28.82800
C  3.09100 10.79700 29.88000
O  4.28000 10.40000 29.67900
O  2.57400 11.33000 31.00600
C  3.50200 11.21700 32.12100
H  1.18400 4.09700 28.02000
H  0.27100 4.83000 21.79200
H  1.35900 11.24100 22.40500
H  2.72400 8.15100 30.29700
H  1.11200 5.67300 29.89600
H  3.54900 4.94500 29.02500
H  2.90100 4.68900 30.71400
H  3.88500 6.04200 30.35400
H  -0.10700 7.26200 30.38300
H  0.06700 8.83300 29.91300
H  -0.33700 8.09400 32.35300
H  0.77400 9.46500 32.07000
H  0.50900 2.22700 27.32700
H  1.56200 1.62700 26.10700
H  -0.18700 1.33200 25.99000
H  -0.16400 0.20500 22.70500
H  -0.91300 0.84700 24.11300
H  0.95600 0.45300 24.06300
H  -0.31300 7.03400 20.29000
H  1.21900 9.30500 20.19400
H  1.39400 6.10300 19.07900
H  2.59100 6.63000 20.32900
H  1.93000 7.65100 18.96800
H  -1.12100 9.86700 21.94000
H  -1.44800 8.89200 20.45900
H  -1.86900 10.98600 19.49700
H  0.01800 11.18000 19.64300
H  -1.06400 11.80000 20.83400
H  2.64000 13.22900 23.65700
H  2.01400 14.15300 25.03800
H  0.81100 13.39800 23.95700
H  1.06700 11.04600 29.35600
H  4.42900 10.64400 32.10500
H  2.91300 10.73600 32.90200
H  3.64200 12.24300 32.46200
Mg -11.34100 17.04100 43.34000
C  -7.87300 17.48000 43.39300
C  -11.74100 20.44700 43.30300
C  -14.64600 16.48400 43.23400
C  -10.75000 13.63800 42.55300
N  -9.91500 18.80500 43.24600
C  -8.58900 18.69500 43.35200
C  -7.93400 20.09500 43.41600
C  -9.22000 21.06900 43.58100
C  -10.38400 20.04400 43.36100
C  -9.28600 21.87800 44.85500
C  -7.08100 20.35800 42.08300
C  -5.66600 20.98500 42.22100
H  -5.22800 21.64400 40.93200
N  -12.98500 18.26500 43.21200
C  -12.95000 19.63200 43.16500
C  -14.28700 20.08100 43.11800
C  -15.18900 18.96100 43.03400
C  -14.29100 17.82200 43.11300
C  -14.69800 21.53700 43.32300
C  -16.69200 19.07700 43.01400
O  -17.29700 20.19100 42.98000
C  -17.49900 17.78100 42.84200
N  -12.49200 15.34900 42.83200
C  -13.79400 15.34500 43.06600
C  -14.38000 13.90100 43.09400
C  -13.21700 13.06000 42.53400
C  -12.07700 14.08400 42.51900
C  -14.90900 13.43700 44.48900
C  -13.63000 12.42700 41.09300
C  -12.84000 11.23500 40.58600
N  -9.68100 15.80500 42.99800
C  -9.64300 14.46300 42.70000
C  -8.24800 14.02500 42.76100
C  -7.53900 15.19600 43.07800
C  -8.47100 16.27100 43.14200
C  -7.68600 12.67300 42.68100
C  -6.19800 15.73200 43.28200
O  -5.16500 15.15300 43.22800
C  -6.32600 17.28900 43.58000
C  -5.99300 17.43100 45.07000
O  -6.45000 16.81500 46.00600
O  -5.05200 18.48400 45.17800
C  -4.96500 19.07600 46.56200
H  -11.86500 21.53000 43.36800
H  -15.67300 16.11500 43.25100
H  -10.67600 12.56800 42.34800
H  -7.22300 20.19800 44.23600
H  -9.24200 21.71000 42.69900
H  -9.53200 21.29700 45.74300
H  -9.95100 22.73400 44.73700
H  -8.27600 22.28300 44.93000
H  -7.60500 21.15800 41.55900
H  -6.95300 19.58800 41.32200
H  -4.93300 20.22000 42.47600
H  -5.63600 21.60300 43.11900
H  -13.95400 22.26800 43.00700
H  -15.03800 21.77800 44.33100
H  -15.48600 21.61200 42.57400
H  -17.21100 17.35200 41.88200
H  -18.55600 18.04100 42.79300
H  -17.41600 17.11000 43.69700
H  -15.23500 13.91600 42.41800
H  -13.05100 12.26000 43.25500
H  -15.96800 13.32100 44.25500
H  -14.79700 14.18100 45.27800
H  -14.63300 12.45000 44.86100
H  -13.60700 13.17800 40.30300
H  -14.64600 12.05300 41.21800
H  -12.56300 11.34200 39.53700
H  -13.40500 10.30400 40.62100
H  -11.84500 11.15400 41.02300
H  -8.28800 12.06900 43.36100
H  -6.64000 12.69800 42.98500
H  -7.90600 12.33600 41.66700
H  -5.73700 17.85200 42.85600
H  -5.80800 18.86800 47.22200
H  -5.05300 20.16200 46.54800
H  -4.00700 18.92600 47.05800

