158

Mg 24.65000 -4.43400 46.21700
C  26.94000 -2.23300 44.78100
C  22.28900 -3.40700 43.97200
C  22.84900 -7.21300 46.91500
C  27.36400 -5.83800 48.19400
N  24.72800 -3.05200 44.48100
C  25.68800 -2.18400 44.08700
C  25.22600 -1.19700 42.98300
C  23.66700 -1.42200 43.09600
C  23.55400 -2.71700 43.90600
C  22.83600 -0.27800 43.73700
C  25.76300 -1.59600 41.59300
C  26.05000 -0.41600 40.64600
H  25.58800 -0.54400 39.16900
N  22.74500 -5.18500 45.63400
C  21.98000 -4.67200 44.61100
C  20.77600 -5.51600 44.47300
C  20.85900 -6.65200 45.34100
C  22.19500 -6.33300 46.03100
C  19.67800 -5.14600 43.57200
C  19.87600 -7.80400 45.44400
O  18.91500 -7.97300 44.68800
C  20.07600 -8.88700 46.50300
N  25.01900 -6.16600 47.53600
C  24.09300 -7.08500 47.61700
C  24.54200 -8.28900 48.48400
C  25.96700 -7.76700 49.01200
C  26.13200 -6.50000 48.17500
C  23.54100 -8.95000 49.47600
C  27.10500 -8.74100 48.96500
C  28.26800 -8.55900 49.92200
N  26.69000 -4.08700 46.58400
C  27.62400 -4.69300 47.46200
C  28.88600 -3.96300 47.25600
C  28.63200 -2.91100 46.33600
C  27.29400 -3.07700 45.85400
C  30.15300 -4.27400 48.00900
C  29.29600 -1.78100 45.62000
O  30.45000 -1.43000 45.71000
C  28.26000 -1.33500 44.61700
C  28.02100 0.11400 44.89400
O  27.41200 0.60800 45.85400
O  28.51100 0.76400 43.81300
C  28.29000 2.22700 43.62000
H  21.55700 -2.99000 43.27700
H  22.42700 -8.20100 47.11300
H  28.22500 -6.12400 48.80300
H  25.43200 -0.19300 43.35400
H  23.30300 -1.73000 42.11600
H  21.82600 -0.27100 43.32500
H  23.14000 0.74800 43.53200
H  22.79100 -0.52200 44.79800
H  25.05700 -2.06600 40.90800
H  26.67600 -2.16900 41.75400
H  27.12600 -0.26300 40.73000
H  25.49600 0.43700 41.03800
H  19.74100 -4.05900 43.59900
H  18.70300 -5.40000 43.98900
H  19.78900 -5.61800 42.59500
H  20.18600 -8.45000 47.49500
H  20.96300 -9.43400 46.18200
H  19.18600 -9.51600 46.52600
H  24.72500 -9.15500 47.84800
H  26.03200 -7.43400 50.04800
H  22.59800 -8.40500 49.43500
H  23.94400 -8.88300 50.48700
H  23.29000 -10.00200 49.34300
H  27.51000 -8.74100 47.95300
H  26.78700 -9.77900 49.06500
H  28.49700 -9.52700 50.36700
H  28.26300 -7.80900 50.71300
H  29.08500 -8.31200 49.24400
H  30.63500 -5.17800 47.63600
H  29.95300 -4.33100 49.07900
H  30.88600 -3.47000 47.95300
H  28.73700 -1.40400 43.64000
H  29.17700 2.78400 43.32000
H  27.82000 2.70000 44.48200
H  27.68400 2.39700 42.73100
Mg 50.62500 45.46500 41.43400
C  47.61600 46.46700 40.18200
C  49.80700 42.24500 40.78000
C  53.94600 44.77900 41.88700
C  51.44900 48.98700 41.58900
N  48.88400 44.51100 40.55700
C  47.74300 45.08500 40.08500
C  46.68500 44.01100 39.58700
C  47.36100 42.72600 40.18800
C  48.79800 43.16400 40.50800
C  46.72900 41.95100 41.38600
C  46.49000 44.09800 38.10800
C  45.05100 44.11200 37.62700
H  44.77400 42.90500 36.66900
N  51.73500 43.75100 41.33500
C  51.17200 42.48600 41.14900
C  52.19800 41.51500 41.07000
C  53.39600 42.19200 41.35900
C  53.06300 43.67800 41.62900
C  51.91000 40.03100 40.78400
C  54.72000 41.61900 41.29400
O  54.95400 40.46600 41.04100
C  56.07500 42.42000 41.52300
N  52.44900 46.66200 41.53200
C  53.66100 46.11900 41.79900
C  54.70100 47.19600 42.06000
C  53.90800 48.51000 42.08900
C  52.46400 48.03900 41.72600
C  55.66500 47.05800 43.30400
C  54.48500 49.58400 41.13700
C  54.64700 50.96400 41.76900
N  49.69700 47.39700 41.10700
C  50.09700 48.64700 41.26500
C  49.03500 49.57700 40.93700
C  48.04400 48.77400 40.40100
C  48.50000 47.41000 40.58100
C  48.96600 51.05000 41.07200
C  46.68800 48.81200 39.85300
O  45.93800 49.76500 39.66100
C  46.41200 47.30900 39.68400
C  45.18800 47.13400 40.53200
O  45.18900 46.66100 41.68800
O  43.98100 47.41000 39.88800
C  42.75300 47.18000 40.61100
H  49.48600 41.24200 40.49100
H  55.00400 44.54700 42.03000
H  51.55300 50.06300 41.74000
H  45.73900 44.16100 40.10800
H  47.44700 41.92800 39.45000
H  47.41100 41.99800 42.23600
H  46.77100 40.88100 41.18400
H  45.72200 42.23900 41.68700
H  46.84400 43.17200 37.65500
H  46.98800 44.97100 37.68700
H  44.85600 45.07500 37.15500
H  44.40200 44.03600 38.49900
H  51.31000 39.71800 41.63900
H  52.82900 39.44500 40.78100
H  51.34500 39.91600 39.85900
H  56.27400 42.77700 42.53300
H  56.12700 43.24400 40.81100
H  56.83900 41.67000 41.32300
H  55.26800 47.18600 41.13000
H  53.79300 48.90400 43.09900
H  56.21700 47.99000 43.42500
H  56.36500 46.28200 42.99600
H  55.07000 46.68800 44.13900
H  53.90000 49.70900 40.22600
H  55.50600 49.40100 40.80200
H  55.58200 51.48900 41.57200
H  54.50100 51.02500 42.84700
H  53.94900 51.71300 41.39400
H  48.00100 51.29500 40.62800
H  49.80400 51.57600 40.61400
H  48.90400 51.34400 42.11900
H  46.08100 47.13400 38.66000
H  42.31900 48.17900 40.56900
H  42.78500 46.84200 41.64700
H  42.07600 46.52400 40.06300

