158

Mg 41.50000 8.71700 29.45500
C  43.29700 10.04900 32.20100
C  39.16200 7.59600 31.67000
C  39.79200 7.54200 26.83200
C  44.13100 9.76300 27.28000
N  41.38700 8.65800 31.69900
C  42.16200 9.31900 32.60200
C  41.61500 9.13200 34.00200
C  40.41800 8.17300 33.79500
C  40.31200 8.09200 32.32400
C  40.56600 6.81300 34.53300
C  41.34000 10.53000 34.73600
C  41.42500 10.43400 36.28800
H  41.37300 11.72300 37.25200
N  39.70200 7.68200 29.31800
C  38.80700 7.38800 30.34200
C  37.52800 6.91500 29.72900
C  37.66100 7.09800 28.29900
C  39.11000 7.41700 28.11100
C  36.37900 6.34200 30.56400
C  36.58600 7.02200 27.21900
O  36.82400 7.35100 26.02600
C  35.19000 6.65600 27.67000
N  42.04500 8.49000 27.30800
C  41.07600 8.03100 26.47200
C  41.57800 8.17200 25.07700
C  42.98700 8.79600 25.16700
C  43.06700 9.01700 26.68400
C  41.53300 6.87200 24.24300
C  43.15800 10.16700 24.29100
C  42.57200 11.48100 24.92600
N  43.39800 9.62100 29.65200
C  44.31400 10.04100 28.69300
C  45.28800 10.91500 29.33200
C  44.94800 10.93600 30.67800
C  43.80400 10.13600 30.82300
C  46.42100 11.52000 28.50400
C  45.39800 11.34700 32.01300
O  46.40600 11.98200 32.34700
C  44.27500 10.79300 33.00200
C  45.00900 9.86300 33.99600
O  45.64400 8.82000 33.77300
O  45.01400 10.59500 35.20800
C  45.54600 9.84500 36.40700
H  38.27500 7.45700 32.29100
H  39.24700 7.13100 25.98000
H  44.81700 10.16600 26.53200
H  42.35500 8.62900 34.62500
H  39.47000 8.63400 34.07200
H  39.61600 6.67600 35.04800
H  41.43600 6.81600 35.18900
H  40.62600 6.02200 33.78600
H  40.35000 10.85600 34.41600
H  41.93300 11.39500 34.44100
H  42.32800 9.90400 36.59100
H  40.59500 9.82600 36.64800
H  36.36500 6.36200 31.65400
H  36.21400 5.35600 30.13000
H  35.60600 7.03100 30.22400
H  34.53100 6.48000 26.82000
H  34.73900 7.53700 28.12700
H  35.03200 5.78700 28.30800
H  40.88100 8.90200 24.66400
H  43.67300 8.00200 24.87100
H  40.52500 6.81800 23.83100
H  41.80200 5.94000 24.74000
H  42.23100 6.76100 23.41300
H  42.59000 10.09000 23.36400
H  44.19600 10.39400 24.04700
H  41.97600 11.36100 25.83100
H  41.81000 11.85900 24.24500
H  43.36300 12.21100 25.09500
H  47.03400 10.77600 27.99600
H  46.90600 12.30800 29.08000
H  45.78300 11.95800 27.73700
H  43.86500 11.56500 33.65200
H  46.10600 8.97800 36.05700
H  44.67300 9.47500 36.94500
H  46.23900 10.39200 37.04500
Mg 48.74500 25.03600 28.44600
C  49.59700 27.26800 30.90200
C  47.76200 22.77200 30.81900
C  47.64300 23.13000 25.95000
C  50.23900 27.26500 26.12100
N  48.78500 25.02600 30.69700
C  48.92100 26.12700 31.39800
C  48.48400 25.90700 32.87300
C  48.13300 24.38900 32.88100
C  48.18800 24.03000 31.38800
C  48.81300 23.36900 33.76400
C  47.35200 26.85900 33.35200
C  47.77600 27.91500 34.33300
H  46.97500 28.13900 35.59900
N  48.03500 23.07100 28.41300
C  47.73600 22.30300 29.49100
C  47.22300 21.06900 28.99400
C  46.96300 21.25400 27.60000
C  47.53700 22.56900 27.26400
C  46.94000 19.87900 29.85100
C  46.40900 20.25500 26.49400
O  46.38800 20.46400 25.30500
C  45.99800 18.93300 26.92500
N  48.92200 25.13700 26.34900
C  48.22700 24.27300 25.49500
C  48.23700 24.72000 24.10300
C  49.15300 26.01800 24.15300
C  49.48600 26.21100 25.60900
C  48.74300 23.70100 22.99700
C  48.47500 27.10700 23.35800
C  49.44400 27.95600 22.55600
N  49.76400 26.87600 28.52300
C  50.27200 27.67800 27.49200
C  50.77400 28.92200 28.03800
C  50.59600 28.81200 29.41400
C  49.88600 27.54800 29.59900
C  51.33500 30.11000 27.12800
C  50.79400 29.48200 30.63200
O  51.26700 30.54700 30.97200
C  50.09200 28.50000 31.68800
C  51.16600 28.13700 32.65800
O  52.06400 27.37700 32.40600
O  51.01200 28.83400 33.87300
C  51.95500 28.43800 34.94300
H  47.30000 22.16400 31.60000
H  47.06900 22.58700 25.19600
H  50.78200 27.84900 25.37500
H  49.34000 26.06000 33.53100
H  47.08500 24.35400 33.17900
H  49.00300 23.72900 34.77500
H  49.70700 22.99100 33.26800
H  48.12300 22.52700 33.72600
H  46.43400 26.36200 33.66400
H  47.06700 27.46600 32.49300
H  47.56700 28.89400 33.90200
H  48.83400 27.82900 34.58000
H  47.05000 20.07100 30.91900
H  47.69800 19.11700 29.67500
H  45.93100 19.56100 29.59000
H  45.78400 18.27900 26.07900
H  45.08300 19.01700 27.51000
H  46.80700 18.42700 27.45200
H  47.20100 24.99300 23.90300
H  50.06300 25.76800 23.60700
H  48.78200 22.73000 23.49100
H  49.66500 23.97800 22.48600
H  47.94300 23.64100 22.26000
H  48.02800 27.84700 24.02200
H  47.71900 26.72400 22.67200
H  50.47300 27.61400 22.66200
H  49.36200 28.97400 22.93700
H  49.29000 27.96900 21.47700
H  51.42000 31.02800 27.70900
H  50.72600 30.35900 26.26000
H  52.33900 29.94100 26.73700
H  49.38900 29.09800 32.26900
H  51.88200 29.29700 35.61000
H  52.94500 28.42500 34.48600
H  51.74500 27.47900 35.41800

