158

Mg 35.00000 3.55100 29.56500
C  32.56200 4.25800 32.12400
C  37.27600 2.98300 32.00300
C  37.10900 2.81100 27.18300
C  32.31100 4.10800 27.18200
N  34.96700 3.76000 31.78900
C  33.86400 3.96500 32.60500
C  34.30300 3.99100 34.13500
C  35.87000 3.70200 33.99000
C  36.07500 3.47400 32.48800
C  36.90200 4.71700 34.64000
C  33.48800 2.89600 34.92300
C  32.89600 3.47400 36.23500
H  33.76200 4.44500 37.03700
N  36.90800 2.92200 29.58900
C  37.68800 2.63200 30.68600
C  38.93800 1.98500 30.28900
C  38.91500 2.08300 28.80400
C  37.62400 2.65200 28.51500
C  40.05400 1.50600 31.20800
C  39.95600 1.60000 27.77100
O  39.76900 1.61500 26.56000
C  41.31900 1.11800 28.27200
N  34.69700 3.53300 27.41100
C  35.81000 3.08800 26.70000
C  35.41600 2.96800 25.23000
C  33.86900 3.21800 25.24700
C  33.57000 3.65800 26.67500
C  36.21600 3.96200 24.30200
C  32.97500 1.95400 24.89600
C  31.70100 2.42400 24.12900
N  32.89600 4.22800 29.60000
C  31.96300 4.35400 28.51500
C  30.71800 4.66200 29.09400
C  30.90400 4.65600 30.53400
C  32.24500 4.40300 30.78400
C  29.34900 4.78300 28.42600
C  30.21600 4.82200 31.79600
O  29.10000 5.08000 31.98000
C  31.33900 4.71800 32.95800
C  31.52200 6.03000 33.63600
O  31.97800 7.00300 33.06300
O  30.98600 6.07800 34.85800
C  30.92300 7.32700 35.61200
H  37.89000 2.53400 32.78700
H  37.67300 2.39900 26.34400
H  31.53900 4.22100 26.41900
H  34.16300 4.98000 34.57100
H  36.11300 2.74000 34.44000
H  37.45800 4.31300 35.48600
H  36.41900 5.58100 35.09700
H  37.72600 4.95600 33.96700
H  34.12300 2.03600 35.13400
H  32.65600 2.61100 34.27900
H  32.86500 2.57800 36.85500
H  31.88700 3.86700 36.10800
H  40.54400 0.57000 30.93900
H  39.66200 1.38800 32.21800
H  40.86300 2.22800 31.31600
H  41.63100 1.70700 29.13400
H  42.06200 1.06100 27.47600
H  41.03900 0.10700 28.57000
H  35.57600 1.92700 24.95000
H  33.82900 4.13700 24.66200
H  36.63400 4.76600 24.90800
H  35.49600 4.40200 23.61200
H  37.04100 3.48400 23.77500
H  32.67200 1.34700 25.74900
H  33.51200 1.33200 24.18100
H  31.63300 2.09300 23.09300
H  31.55300 3.50300 24.12800
H  30.81700 1.99900 24.60400
H  29.46300 5.46500 27.58300
H  28.63900 5.22500 29.12500
H  29.09300 3.75500 28.17200
H  30.98600 4.10100 33.78500
H  30.27300 7.16500 36.47200
H  30.31400 8.04200 35.05900
H  31.90600 7.56300 36.01900
Mg 36.54700 48.79400 25.25700
C  36.49400 46.83900 28.18800
C  34.59400 51.04500 26.76800
C  36.17600 50.33900 22.23600
C  38.15200 46.12200 23.62900
N  35.58800 48.90700 27.22800
C  35.83300 48.07300 28.30800
C  35.48900 48.73300 29.66300
C  34.72200 50.02200 29.21000
C  34.97500 49.99400 27.63600
C  33.17100 50.02400 29.53500
C  36.70400 48.83000 30.64500
C  36.69600 48.07400 31.99800
H  35.36000 47.95400 32.66900
N  35.48200 50.46400 24.55200
C  34.73800 51.26200 25.36900
C  34.20700 52.38200 24.59700
C  34.67600 52.32000 23.26000
C  35.50700 51.00600 23.27000
C  33.38800 53.44600 25.30200
C  34.46600 53.18100 22.10400
O  35.21900 52.96500 21.13100
C  33.53200 54.37700 22.11100
N  37.08500 48.30200 23.24500
C  36.84400 49.12800 22.17400
C  37.50200 48.59600 20.88300
C  38.22100 47.32300 21.41900
C  37.89600 47.32900 22.86000
C  36.56500 48.37400 19.58700
C  39.79000 47.27700 21.30300
C  40.35300 46.90000 19.93100
N  37.29500 46.92800 25.77700
C  37.87700 45.95100 25.00500
C  38.15300 44.73600 25.85400
C  37.61600 45.07000 27.12900
C  37.14200 46.39400 26.99900
C  38.68700 43.39800 25.36800
C  37.42700 44.56200 28.45700
O  37.76000 43.51400 28.98900
C  36.73500 45.72500 29.27100
C  35.42600 45.17600 29.77400
O  34.44100 45.26800 29.09800
O  35.53900 44.49700 30.93500
C  34.28200 43.83700 31.37900
H  34.02200 51.76500 27.35800
H  36.12800 50.93100 21.31900
H  38.55200 45.17000 23.27300
H  34.82000 48.06600 30.20700
H  35.23200 50.89700 29.61200
H  32.84700 49.16900 30.12800
H  32.45700 50.07600 28.71300
H  33.04300 50.93800 30.11500
H  37.01500 49.84700 30.88300
H  37.44800 48.38300 29.98600
H  37.21100 48.75500 32.67500
H  37.29100 47.16500 31.90100
H  32.32700 53.23300 25.43500
H  33.49700 54.35900 24.71700
H  33.84300 53.70000 26.25900
H  32.52000 53.97900 22.17700
H  33.44700 54.76500 21.09600
H  33.75200 55.26300 22.70700
H  38.38100 49.15700 20.56500
H  37.79400 46.45900 20.91100
H  35.57100 48.79100 19.74800
H  36.43300 47.30800 19.40700
H  36.93000 48.94500 18.73300
H  40.15700 46.63700 22.10500
H  40.26400 48.22300 21.56300
H  41.02900 47.70000 19.62900
H  39.64100 46.72300 19.12500
H  40.90600 45.97300 20.08700
H  39.41700 43.56600 24.57700
H  37.91800 42.65700 25.14900
H  39.31400 42.95700 26.14300
H  37.40900 46.08500 30.05000
H  33.94400 43.09900 30.65100
H  33.47500 44.56400 31.47100
H  34.39400 43.45500 32.39400

