158

Mg 7.65100 3.95100 27.73400
C  8.96600 2.58700 30.68200
C  6.08200 6.38200 29.65700
C  5.90000 4.93600 25.02000
C  8.91600 1.18500 25.87400
N  7.62500 4.48100 29.96800
C  8.20700 3.74700 30.98100
C  7.91700 4.38500 32.34500
C  7.04000 5.59100 31.97300
C  6.95500 5.54200 30.42000
C  5.68500 5.67600 32.61800
C  9.16700 4.77000 33.20000
C  9.08900 4.43700 34.66700
H  10.39200 4.55600 35.44300
N  6.31100 5.51700 27.39900
C  5.80300 6.39700 28.32500
C  5.04800 7.43700 27.61300
C  5.03000 7.10600 26.23200
C  5.73900 5.80700 26.14800
C  4.38200 8.63100 28.19700
C  4.30600 7.77700 25.06300
O  4.28900 7.26200 23.95300
C  3.59400 9.09600 25.17400
N  7.48200 3.22600 25.80700
C  6.56500 3.72400 24.92100
C  6.56800 2.99000 23.58500
C  7.53700 1.72800 23.84100
C  8.04900 2.08300 25.25700
C  5.14500 2.65200 23.06900
C  8.70400 1.56700 22.91400
C  8.84900 0.08400 22.28600
N  8.82200 2.34100 28.12800
C  9.22900 1.31800 27.31000
C  10.07800 0.47700 28.14200
C  10.00600 0.86800 29.43700
C  9.21000 2.04400 29.40300
C  10.80400 -0.75200 27.71100
C  10.38600 0.57600 30.81700
O  11.13400 -0.20300 31.35000
C  9.59500 1.64800 31.65000
C  8.72000 0.89300 32.51400
O  7.80000 0.21200 32.10100
O  9.07000 1.10300 33.83800
C  8.22300 0.32000 34.76400
H  5.55500 7.21800 30.12200
H  5.24600 5.36300 24.25700
H  9.26600 0.33400 25.28600
H  7.28900 3.72600 32.94500
H  7.63900 6.50100 32.00000
H  5.23900 6.65500 32.79700
H  5.82500 5.37200 33.65500
H  4.96300 5.13700 32.00500
H  9.29700 5.84500 33.07300
H  10.12100 4.30300 32.95300
H  8.68800 3.44000 34.84900
H  8.25900 5.00700 35.08500
H  4.89600 9.59100 28.15000
H  4.21900 8.47000 29.26300
H  3.39300 8.73800 27.75300
H  2.67900 8.98900 25.75600
H  3.35900 9.42400 24.16100
H  4.28300 9.80700 25.63000
H  6.96900 3.69300 22.85500
H  7.04600 0.75700 23.89200
H  4.99400 3.12500 22.09800
H  4.43600 2.98600 23.82600
H  5.11900 1.56200 23.05400
H  9.59200 1.81300 23.49700
H  8.75300 2.29800 22.10700
H  8.86500 0.04200 21.19700
H  8.09900 -0.60900 22.66700
H  9.81700 -0.34300 22.54500
H  10.40600 -1.24600 26.82400
H  10.73100 -1.63800 28.34100
H  11.86200 -0.52800 27.57400
H  10.34300 2.15400 32.26100
H  7.45600 0.92300 35.24900
H  8.85300 -0.09200 35.55200
H  7.61000 -0.44100 34.28100
Mg 42.46900 41.70100 27.17600
C  41.51900 44.18400 29.49000
C  43.56200 39.73800 29.66500
C  43.66500 39.60600 24.89000
C  41.91600 44.17400 24.63300
N  42.52400 41.93400 29.32000
C  42.00600 42.96500 30.04800
C  41.90800 42.55000 31.50700
C  42.95900 41.37400 31.54100
C  42.99600 40.93700 30.07300
C  44.33200 41.70100 32.07300
C  40.50900 42.10800 32.00200
C  40.00600 42.92200 33.22200
H  39.51900 42.09100 34.43900
N  43.22900 39.83200 27.27200
C  43.64200 39.13400 28.36900
C  43.97500 37.73600 28.05900
C  43.86500 37.72100 26.61300
C  43.59600 39.10200 26.15800
C  44.59200 36.74300 29.01000
C  44.13000 36.56700 25.63300
O  43.86300 36.68000 24.47200
C  44.67700 35.18600 26.08900
N  42.86700 41.90800 25.04100
C  43.30900 40.85700 24.35900
C  43.50200 41.30300 22.87200
C  42.79600 42.67600 22.80000
C  42.48200 42.92900 24.23800
C  45.00000 41.31900 22.33100
C  41.59200 42.79300 21.81300
C  40.30500 42.11200 22.18600
N  41.80100 43.75100 26.97500
C  41.60100 44.55600 25.92900
C  41.05700 45.86000 26.39400
C  40.99100 45.69200 27.81100
C  41.51200 44.49200 28.14100
C  40.60500 47.02400 25.53800
C  40.56300 46.31900 29.08100
O  40.03100 47.38700 29.33300
C  40.86200 45.29300 30.23600
C  41.93700 46.00900 31.13500
O  43.10100 46.28200 30.86500
O  41.36400 46.12100 32.35400
C  42.13500 46.45800 33.54200
H  43.89600 39.12500 30.50400
H  43.90500 38.95600 24.04600
H  41.68400 44.83600 23.79600
H  42.25200 43.31600 32.20300
H  42.61500 40.47600 32.05400
H  44.48300 42.77700 31.98400
H  45.08800 41.11500 31.55000
H  44.34800 41.35200 33.10500
H  40.46100 41.08800 32.38400
H  39.84100 42.21500 31.14700
H  39.12100 43.44400 32.85800
H  40.79600 43.50200 33.69800
H  44.55000 37.04000 30.05800
H  45.64700 36.52800 28.84000
H  44.21400 35.72600 28.90200
H  44.89200 34.62900 25.17700
H  43.75400 34.67300 26.35800
H  45.46700 35.22800 26.83900
H  42.95900 40.58000 22.26300
H  43.56100 43.36400 22.44000
H  45.47100 42.28700 22.50800
H  44.88200 40.99400 21.29800
H  45.35500 40.45600 22.89500
H  41.98400 42.39300 20.87800
H  41.37200 43.85600 21.71300
H  39.47000 42.80900 22.24600
H  40.37400 41.54400 23.11400
H  40.01500 41.43100 21.38600
H  40.69400 47.96500 26.08100
H  39.54800 46.95500 25.28200
H  41.14100 47.18000 24.60200
H  40.03000 44.97200 30.86200
H  41.61700 47.39700 33.73700
H  43.22300 46.41900 33.48000
H  41.83500 45.85600 34.40000

