158

Mg 30.92400 58.72400 40.73900
C  28.32400 56.62900 39.78000
C  33.14700 56.35700 39.46400
C  33.41400 61.07000 40.93300
C  28.57400 61.16800 41.69000
N  30.70700 56.77400 39.75500
C  29.55600 56.17500 39.35500
C  29.73100 54.88200 38.58700
C  31.29400 54.72500 38.76600
C  31.74700 56.00800 39.38300
C  31.69700 53.41900 39.52200
C  29.27200 54.95900 37.09900
C  28.23300 53.98800 36.54100
H  27.14300 54.52000 35.55200
N  32.92000 58.72100 40.25100
C  33.69300 57.63600 39.82700
C  35.07800 57.97000 39.76300
C  35.16100 59.30000 40.12000
C  33.80300 59.76500 40.41100
C  36.19500 56.96800 39.40200
C  36.51900 60.00900 40.29500
O  37.53300 59.37700 40.18900
C  36.62500 61.46100 40.61000
N  30.93600 60.92100 41.03600
C  32.16200 61.55500 41.24800
C  31.90600 62.93900 41.81200
C  30.37600 63.02600 42.05300
C  29.88600 61.63700 41.56600
C  32.81000 63.38200 43.10100
C  29.65400 64.15800 41.33800
C  28.31200 64.64700 41.90200
N  28.92400 58.83900 40.81300
C  28.06100 59.94300 41.16100
C  26.74000 59.61800 40.80700
C  26.74400 58.29900 40.30900
C  28.06700 57.87300 40.42600
C  25.52300 60.54200 41.05400
C  25.98800 57.21500 39.80900
O  24.81100 57.11400 39.57800
C  26.92800 56.08700 39.38200
C  26.59100 54.91100 40.17600
O  26.96200 54.60700 41.29900
O  25.69900 54.16000 39.42800
C  25.24900 52.85800 40.05500
H  33.78600 55.59300 39.01500
H  34.19100 61.81800 41.10400
H  27.88400 61.91900 42.08000
H  29.12100 54.19400 39.17400
H  31.79300 54.78500 37.79900
H  32.01200 53.72800 40.51900
H  32.57700 52.97300 39.05900
H  30.95500 52.62200 39.55500
H  30.14200 54.76600 36.47100
H  28.95900 55.98900 36.93200
H  27.66900 53.63300 37.40300
H  28.71300 53.11200 36.10400
H  35.79100 56.23500 38.70400
H  36.64000 56.62000 40.33400
H  36.98900 57.46800 38.84700
H  36.00700 62.15000 40.03400
H  37.67000 61.76500 40.54200
H  36.27100 61.70600 41.61100
H  32.18400 63.57100 40.96900
H  30.12400 62.90600 43.10700
H  32.20800 63.37800 44.00900
H  33.33800 64.33400 43.04600
H  33.58100 62.63600 43.29500
H  29.62600 63.69700 40.35100
H  30.27700 65.05100 41.31300
H  28.15600 64.27200 42.91300
H  27.54600 64.29100 41.21200
H  28.30800 65.73700 41.90700
H  24.99700 60.18200 41.93900
H  24.82800 60.50300 40.21600
H  25.83200 61.57100 41.23800
H  26.84200 55.95900 38.30300
H  24.38100 52.96700 40.70600
H  26.04400 52.46200 40.68700
H  24.94100 52.13900 39.29500
Mg 37.21500 50.49500 24.96400
C  37.57800 48.55000 27.94400
C  35.59000 52.88800 26.78900
C  36.26000 52.14000 22.01500
C  38.21100 47.73700 23.10900
N  36.57100 50.59000 27.09800
C  36.88700 49.79500 28.13400
C  36.64600 50.49200 29.47000
C  35.78300 51.66200 29.07200
C  35.92300 51.74400 27.53100
C  34.36100 51.60300 29.70400
C  37.98700 50.75700 30.14900
C  37.98700 50.25700 31.56100
H  36.75400 50.44400 32.42900
N  36.22300 52.33300 24.46300
C  35.65200 53.16300 25.38100
C  34.95500 54.25200 24.73100
C  35.21400 54.09100 23.33300
C  35.90100 52.82800 23.20900
C  34.16300 55.17900 25.47700
C  34.78900 54.96700 22.14800
O  35.17200 54.70600 21.00300
C  33.82900 56.20800 22.30600
N  37.17500 49.98200 22.87200
C  36.75800 50.80900 21.90500
C  37.03900 50.18200 20.53200
C  37.97800 48.93300 20.87800
C  37.73800 48.84300 22.39100
C  35.71900 49.98400 19.71900
C  39.48900 49.05000 20.54600
C  40.08200 47.87700 19.66300
N  37.96600 48.61800 25.35700
C  38.27800 47.57800 24.55400
C  38.58900 46.39600 25.24000
C  38.46000 46.77200 26.62700
C  37.95700 48.10800 26.69200
C  38.89400 45.11800 24.65200
C  38.44900 46.30100 27.96900
O  38.81300 45.19700 28.38000
C  38.10200 47.43800 28.95000
C  36.98400 46.86600 29.70200
O  35.79700 46.78100 29.35600
O  37.48400 46.48700 30.95200
C  36.54300 45.81300 31.86900
H  35.03600 53.63900 27.35600
H  36.06900 52.50500 21.00400
H  38.75800 47.01200 22.50300
H  36.07300 49.76400 30.04600
H  36.25500 52.51300 29.56300
H  33.70200 51.66100 28.83800
H  34.12700 52.51600 30.25200
H  34.09400 50.76100 30.34300
H  38.28600 51.79200 29.97700
H  38.68600 50.18800 29.53600
H  38.67300 50.90000 32.11300
H  38.21800 49.19100 31.54100
H  34.00600 56.07300 24.87400
H  34.66500 55.48900 26.39400
H  33.21100 54.75800 25.80100
H  33.51600 56.51800 21.30900
H  34.42300 57.05800 22.64200
H  33.00600 56.06600 23.00600
H  37.59700 50.91300 19.94600
H  37.48400 48.07000 20.43300
H  34.87400 49.94100 20.40600
H  35.77100 49.05900 19.14400
H  35.54300 50.79200 19.01000
H  40.10200 49.14300 21.44300
H  39.52700 49.89800 19.86200
H  41.08100 48.11800 19.30000
H  39.44700 47.87100 18.77700
H  40.21200 46.92300 20.17300
H  38.37100 44.27100 25.09400
H  39.95700 44.87700 24.67200
H  38.72800 45.06400 23.57600
H  38.88700 47.83300 29.59400
H  35.96700 45.11400 31.26200
H  36.00400 46.44500 32.57500
H  37.18300 45.12800 32.42500

