158

Mg 35.97800 48.99200 24.88500
C  36.14200 46.96000 27.67000
C  34.40300 51.38200 26.81700
C  34.89700 50.63600 22.06000
C  36.91000 46.25900 22.96000
N  35.34400 49.13300 26.96200
C  35.62300 48.19300 27.90900
C  35.36800 48.77300 29.29000
C  34.44000 49.96100 28.99300
C  34.71800 50.18200 27.50900
C  32.86800 49.81800 29.23000
C  36.74900 49.30800 29.93600
C  36.71500 49.15300 31.46800
H  35.37700 48.91800 32.15600
N  35.03100 50.79400 24.47600
C  34.52600 51.62000 25.43200
C  34.20400 52.88400 24.87700
C  34.34100 52.78000 23.44400
C  34.71600 51.28800 23.25100
C  33.77100 54.09300 25.68000
C  34.27200 53.78600 22.30000
O  34.79500 53.60400 21.23200
C  33.83600 55.18800 22.57500
N  35.84700 48.45600 22.78300
C  35.46800 49.35800 21.85600
C  35.86100 48.85000 20.42900
C  36.77500 47.64200 20.72500
C  36.54800 47.44600 22.24900
C  34.52000 48.56100 19.62400
C  38.25100 47.82700 20.30000
C  39.36500 47.62300 21.41600
N  36.54000 47.00600 25.17900
C  36.95300 46.04400 24.31100
C  37.42400 44.86900 25.03700
C  37.13300 45.15700 26.40100
C  36.52000 46.43500 26.36900
C  38.05300 43.66100 24.53200
C  37.08000 44.68000 27.81400
O  37.39300 43.62400 28.36100
C  36.57400 45.90900 28.63100
C  35.56100 45.43200 29.52900
O  34.37400 45.42300 29.26100
O  36.14300 45.10400 30.72100
C  35.18500 44.55100 31.73300
H  34.03900 52.17000 27.47900
H  34.75400 51.18000 21.12400
H  37.41000 45.46600 22.40000
H  34.87900 48.00000 29.88300
H  34.70000 50.76500 29.68100
H  32.29200 49.66100 28.31800
H  32.52600 50.74400 29.69200
H  32.64300 48.96100 29.86500
H  36.93000 50.35100 29.67400
H  37.48600 48.59000 29.57500
H  37.06600 50.14600 31.74900
H  37.33600 48.31500 31.78500
H  33.49900 53.74700 26.67700
H  32.90100 54.56100 25.21900
H  34.60000 54.79900 25.71800
H  32.99800 55.15100 23.27200
H  33.39600 55.60500 21.66900
H  34.65000 55.80100 22.96100
H  36.45800 49.65300 19.99700
H  36.39000 46.72100 20.28700
H  33.63900 48.75600 20.23600
H  34.44900 47.53900 19.25100
H  34.53700 49.36600 18.88800
H  38.34800 48.89600 20.10700
H  38.48200 47.19300 19.44400
H  39.19900 46.69300 21.96000
H  39.37100 48.36600 22.21400
H  40.34900 47.55700 20.95100
H  38.08700 42.86100 25.27200
H  39.05500 43.99300 24.26200
H  37.54200 43.23500 23.66900
H  37.35400 46.22500 29.32300
H  34.23600 44.15700 31.36800
H  34.92600 45.34600 32.43200
H  35.60300 43.71700 32.29700
Mg 10.31500 47.55200 26.25800
C  8.18700 47.75500 28.92200
C  12.83200 49.09200 28.06700
C  12.42000 47.38800 23.45900
C  7.79400 46.60500 24.16900
N  10.59300 47.94600 28.47900
C  9.52400 48.13800 29.26400
C  9.92900 48.82600 30.57200
C  11.23400 49.60700 30.06900
C  11.64600 48.80300 28.85500
C  11.01900 51.16400 29.78300
C  10.24100 47.89700 31.79900
C  10.93700 48.54900 33.04400
H  10.22500 48.24400 34.39400
N  12.28900 48.15700 25.86000
C  13.16300 48.71400 26.75900
C  14.45800 48.90100 26.13900
C  14.35700 48.32800 24.83600
C  12.99100 47.91800 24.68200
C  15.60300 49.36600 26.95300
C  15.49600 48.30400 23.77300
O  15.28400 48.00300 22.61800
C  16.89100 48.65600 24.17500
N  10.16300 47.10400 24.06500
C  11.11600 47.08100 23.16300
C  10.69600 46.42700 21.82300
C  9.16400 46.28700 22.07100
C  9.02700 46.67600 23.57100
C  11.18300 47.22600 20.54800
C  8.62200 44.84400 21.80900
C  9.30000 43.72700 22.65300
N  8.33600 47.31400 26.44600
C  7.40200 46.89900 25.47900
C  6.06600 46.83600 26.11900
C  6.28700 47.12300 27.48500
C  7.69000 47.33100 27.65800
C  4.67400 46.77200 25.38800
C  5.74900 47.38700 28.77600
O  4.61000 47.34000 29.20800
C  6.96000 47.77100 29.75000
C  6.93200 46.75900 30.90300
O  7.43700 45.65000 30.89400
O  6.20600 47.29600 31.91600
C  5.88000 46.42200 33.01600
H  13.40700 49.72100 28.75000
H  13.11200 47.25900 22.62400
H  6.89200 46.24300 23.67300
H  9.13700 49.51800 30.85900
H  12.04200 49.55000 30.79900
H  11.12700 51.38100 28.72100
H  11.82300 51.70200 30.28600
H  9.99800 51.42200 30.06300
H  10.97800 47.21100 31.38200
H  9.41300 47.20300 31.94500
H  10.76500 49.62100 32.95400
H  12.00700 48.35200 32.99000
H  15.40300 49.66100 27.98300
H  16.18100 50.21000 26.57700
H  16.39800 48.62400 27.02400
H  16.82100 49.62300 24.67400
H  17.47400 48.45900 23.27500
H  17.20400 47.95700 24.95000
H  11.19600 45.46500 21.71100
H  8.57300 46.97700 21.46900
H  11.95900 46.69700 19.99400
H  11.60600 48.16600 20.90400
H  10.30400 47.45800 19.94700
H  8.78200 44.68900 20.74200
H  7.55500 44.86500 22.03200
H  8.48700 43.26000 23.20900
H  9.97000 44.15000 23.40200
H  9.73400 42.98100 21.98700
H  4.64100 46.36000 24.37900
H  4.26900 47.77900 25.29500
H  4.01800 46.31300 26.12800
H  6.71400 48.75100 30.15900
H  5.88900 47.10000 33.87000
H  6.58300 45.62600 33.26000
H  4.85200 46.07700 32.90000

