158

Mg 8.70200 4.00600 27.91900
C  9.89600 2.30800 30.90900
C  6.69000 5.81400 30.09700
C  7.39800 5.32300 25.32800
C  10.58800 1.63200 26.08100
N  8.19400 3.75400 30.26100
C  8.93300 3.21200 31.25500
C  8.53500 3.73500 32.70000
C  7.35200 4.70400 32.27400
C  7.46200 4.81800 30.73600
C  5.98900 4.24100 32.76100
C  9.73600 4.46700 33.40000
C  10.19400 3.80100 34.73800
H  10.67600 4.71100 35.83000
N  7.36300 5.49800 27.70900
C  6.61700 6.12200 28.72500
C  5.77600 7.18700 28.11800
C  6.19300 7.24700 26.72200
C  7.02800 5.99000 26.52000
C  4.89100 8.00200 28.93900
C  5.74200 8.21000 25.54600
O  5.95800 8.03700 24.32900
C  4.93200 9.37800 25.88900
N  8.85100 3.41600 25.98500
C  8.18900 4.19400 25.02300
C  8.46600 3.62500 23.65600
C  9.63700 2.57000 23.91200
C  9.76600 2.57100 25.42600
C  7.16600 3.19900 22.90900
C  11.00300 2.87400 23.16000
C  11.70800 1.59500 22.66600
N  10.05600 2.31500 28.34400
C  10.68800 1.45800 27.44500
C  11.51700 0.53800 28.20100
C  11.20100 0.87700 29.55200
C  10.31800 1.94200 29.59300
C  12.56200 -0.50400 27.80200
C  11.74500 0.63800 30.90800
O  12.75700 0.00800 31.26500
C  10.77500 1.48700 31.84900
C  9.90400 0.66400 32.61300
O  9.14300 -0.22600 32.16400
O  10.22700 0.86100 33.97100
C  9.07500 0.29900 34.84800
H  5.96900 6.34000 30.72600
H  6.96000 5.83400 24.46800
H  11.20400 0.94400 25.49900
H  8.23800 2.93800 33.38200
H  7.51300 5.75100 32.52800
H  5.95000 3.16100 32.90400
H  5.25900 4.44200 31.97700
H  5.78900 4.82200 33.66100
H  9.60900 5.53000 33.60500
H  10.65800 4.34600 32.83200
H  11.11400 3.24200 34.56800
H  9.44500 3.12700 35.15300
H  4.02200 7.37400 29.13700
H  4.63600 8.95600 28.47900
H  5.29900 8.32600 29.89700
H  5.58500 10.11700 26.35400
H  4.11200 8.96400 26.47400
H  4.44100 9.82100 25.02200
H  8.85500 4.39200 22.98600
H  9.29400 1.57000 23.64400
H  6.24200 3.56100 23.36100
H  7.10900 2.16100 22.58400
H  7.23000 3.67300 21.92900
H  11.71000 3.39500 23.80600
H  10.85200 3.54600 22.31500
H  12.14800 1.75200 21.68100
H  10.98900 0.77700 22.63000
H  12.38200 1.17100 23.41000
H  12.01300 -1.41900 27.58100
H  13.36100 -0.61000 28.53600
H  13.01500 -0.16500 26.86900
H  11.36600 2.11400 32.51700
H  9.39800 -0.70600 35.11900
H  8.08700 0.28700 34.38800
H  8.99600 0.75800 35.83300
Mg 24.15800 -5.34500 45.63200
C  26.34400 -3.07400 44.31100
C  21.66000 -4.25900 43.48700
C  22.13900 -7.86000 46.68500
C  26.72300 -6.82700 47.44100
N  24.10100 -3.83000 44.13800
C  25.10900 -3.00900 43.74600
C  24.75200 -2.25800 42.40800
C  23.11500 -2.41000 42.36200
C  22.92100 -3.57600 43.37200
C  22.28800 -1.15000 42.71200
C  25.51600 -2.85900 41.21100
C  26.26700 -1.89200 40.24700
H  25.71000 -1.66300 38.84000
N  22.12500 -5.94600 45.24100
C  21.28500 -5.36000 44.30600
C  19.99000 -6.02800 44.33500
C  20.04500 -7.01400 45.39100
C  21.48500 -6.94300 45.84400
C  18.88400 -5.71900 43.37000
C  18.91800 -7.93600 45.71400
O  17.84100 -7.73000 45.18800
C  19.14000 -9.07000 46.68700
N  24.54200 -7.16900 46.71000
C  23.43300 -7.93400 47.11800
C  23.92600 -9.21200 47.91500
C  25.49100 -8.84900 48.15500
C  25.58100 -7.52100 47.42800
C  23.10100 -9.57700 49.19400
C  26.57100 -9.90300 47.63900
C  27.72800 -10.21700 48.54700
N  26.13100 -4.98000 45.96500
C  27.01000 -5.61100 46.79700
C  28.31700 -4.89900 46.74900
C  28.09700 -3.93500 45.73800
C  26.71000 -3.99300 45.33600
C  29.51800 -5.10800 47.63500
C  28.73500 -2.89700 44.90900
O  29.91600 -2.59200 44.78900
C  27.69300 -2.24400 44.01900
C  27.40500 -0.84300 44.51600
O  26.91500 -0.65500 45.59100
O  28.04800 0.07800 43.77700
C  28.42900 1.33800 44.43700
H  20.97000 -3.79100 42.78200
H  21.53700 -8.60400 47.21000
H  27.47000 -7.19200 48.14900
H  25.00600 -1.22500 42.64600
H  22.73500 -2.72900 41.39200
H  22.02600 -1.08000 43.76800
H  21.36200 -1.17300 42.13800
H  22.88100 -0.27600 42.44300
H  24.69600 -3.30200 40.64700
H  26.23500 -3.61300 41.53000
H  27.28000 -2.28600 40.16600
H  26.48200 -0.94700 40.74500
H  18.34900 -6.63400 43.11400
H  19.22800 -5.25500 42.44600
H  18.18300 -5.07000 43.89400
H  18.19700 -9.59100 46.85200
H  19.53600 -8.67600 47.62300
H  19.87400 -9.77600 46.29700
H  23.95600 -10.10300 47.28900
H  25.60300 -8.70500 49.22900
H  23.74800 -9.43400 50.05900
H  22.60800 -10.54900 49.18100
H  22.32500 -8.81600 49.28400
H  26.98300 -9.69200 46.65300
H  26.08000 -10.82900 47.34000
H  27.33200 -10.34400 49.55400
H  28.55500 -9.51500 48.44200
H  28.00900 -11.20300 48.17700
H  29.67200 -6.12300 47.99900
H  29.33100 -4.59700 48.58000
H  30.49500 -4.85700 47.22100
H  27.93400 -2.33200 42.95900
H  28.86600 1.25500 45.43200
H  27.63700 2.08600 44.39100
H  29.17900 1.81500 43.80700

