158

Mg 39.93900 9.12000 28.91500
C  41.86100 10.25500 31.55200
C  37.65400 7.76600 31.07300
C  38.18400 8.01400 26.25700
C  42.60400 9.90900 26.76300
N  39.90600 8.91600 31.06100
C  40.71800 9.54400 31.92900
C  40.15900 9.51200 33.32800
C  38.92500 8.52100 33.19500
C  38.76700 8.43200 31.67800
C  38.96900 7.19300 33.93800
C  39.85100 10.91700 33.86100
C  39.51000 11.17500 35.34800
H  40.50300 11.96100 36.19400
N  38.16000 8.06000 28.72200
C  37.29700 7.61300 29.72300
C  36.03800 7.12500 29.20800
C  36.22400 7.20900 27.73600
C  37.56800 7.79600 27.49700
C  34.85700 6.58700 30.03100
C  35.23600 6.99200 26.71900
O  35.49700 7.09200 25.51800
C  33.75100 6.59500 27.06300
N  40.41600 8.94300 26.83100
C  39.44900 8.52000 25.86200
C  40.00100 8.41200 24.41600
C  41.42500 9.11300 24.61800
C  41.52600 9.35200 26.15600
C  39.98100 6.98200 23.87500
C  41.45300 10.59600 23.92100
C  40.73800 11.81500 24.52700
N  41.81700 10.04200 29.03000
C  42.77700 10.33000 28.11200
C  43.88000 11.02700 28.71600
C  43.63500 11.00700 30.12700
C  42.34000 10.41100 30.21500
C  45.06900 11.61400 28.01400
C  44.11900 11.29200 31.43800
O  45.18100 11.75700 31.87600
C  42.94600 10.94300 32.42400
C  43.42200 10.10900 33.50500
O  44.16900 9.16600 33.33600
O  42.96000 10.63200 34.67300
C  43.36500 10.04600 35.90500
H  36.96600 7.37200 31.82400
H  37.62300 7.78400 25.34900
H  43.45900 10.05600 26.10000
H  40.83900 9.06600 34.05400
H  38.04300 9.07600 33.51600
H  39.81700 7.22600 34.62200
H  39.05400 6.36700 33.23200
H  38.04300 7.10100 34.50500
H  38.94200 11.22900 33.34700
H  40.74900 11.47900 33.60400
H  39.56200 10.13800 35.67700
H  38.50900 11.60800 35.34000
H  34.89800 6.76400 31.10500
H  34.62500 5.53500 29.86100
H  33.97300 7.14000 29.71100
H  33.59100 5.95500 27.93100
H  33.25300 6.14200 26.20600
H  33.18700 7.49900 27.29400
H  39.46700 9.01000 23.67700
H  42.29900 8.51600 24.35500
H  39.09100 6.85000 23.25900
H  39.88300 6.42100 24.80400
H  40.91000 6.81500 23.33100
H  41.04700 10.40300 22.92900
H  42.52500 10.74800 23.79100
H  40.12000 11.55400 25.38700
H  39.96400 12.13200 23.82900
H  41.41800 12.65800 24.64700
H  44.64200 11.81600 27.03200
H  45.82600 10.83000 27.99400
H  45.46100 12.54200 28.43200
H  42.59100 11.89800 32.81200
H  42.49700 9.88100 36.54300
H  44.03700 10.79200 36.32900
H  43.92900 9.11300 35.90200
Mg 42.65200 41.11200 26.84000
C  42.08500 43.54700 29.35200
C  43.65800 38.99500 29.30100
C  43.47100 39.01800 24.36200
C  41.94400 43.59300 24.46900
N  43.02000 41.32800 29.11300
C  42.56700 42.35900 29.90700
C  42.55500 41.95400 31.44900
C  43.36300 40.57500 31.34400
C  43.37900 40.24400 29.82100
C  44.69200 40.47100 32.10300
C  41.15300 41.92000 32.05600
C  40.80000 42.64400 33.37600
H  40.09400 41.74500 34.41700
N  43.50000 39.23400 26.78000
C  43.76200 38.49400 27.94900
C  44.12000 37.12100 27.53500
C  44.15400 37.17300 26.03700
C  43.70700 38.48600 25.63200
C  44.37600 36.00700 28.60000
C  44.54700 36.07400 25.04700
O  44.48500 36.15000 23.86900
C  45.15300 34.89200 25.64100
N  42.77300 41.28400 24.76300
C  43.05500 40.23800 23.95600
C  42.64200 40.57200 22.50200
C  41.93800 41.97600 22.61400
C  42.26100 42.33300 24.03700
C  43.86600 40.45600 21.55900
C  40.43200 41.84800 22.33400
C  39.56000 41.05400 23.36500
N  42.08500 43.14700 26.83900
C  41.88800 44.00900 25.80300
C  41.41200 45.29300 26.28900
C  41.41600 45.12900 27.68100
C  41.79700 43.76900 27.99400
C  40.85700 46.44700 25.47700
C  41.25400 45.88000 28.92800
O  41.07500 47.05200 29.26700
C  41.44400 44.77800 30.08300
C  42.36500 45.30600 31.08300
O  43.36100 45.99600 30.76800
O  41.84300 45.33600 32.30000
C  42.56100 46.16100 33.34700
H  43.94700 38.32000 30.10900
H  43.66600 38.38400 23.49400
H  41.64500 44.32600 23.71700
H  43.08900 42.73000 31.99700
H  42.70500 39.80600 31.74800
H  45.44700 40.72500 31.35800
H  44.77300 39.49700 32.58400
H  44.70300 41.26500 32.84900
H  40.82700 40.88200 32.11700
H  40.52800 42.51600 31.39100
H  40.09500 43.46400 33.24000
H  41.73500 43.03200 33.78000
H  45.44700 35.84200 28.48200
H  43.84200 35.10500 28.30200
H  44.16800 36.37100 29.60600
H  45.96800 35.29600 26.24100
H  45.68900 34.27500 24.91900
H  44.60300 34.16100 26.23400
H  41.93600 39.79300 22.21300
H  42.42000 42.74500 22.01100
H  44.85400 40.63400 21.98500
H  43.82200 41.35200 20.94000
H  43.78300 39.50600 21.03000
H  40.26200 41.45100 21.33300
H  40.03200 42.85500 22.21600
H  39.99200 41.18000 24.35800
H  39.52500 40.01100 23.04800
H  38.54500 41.44900 23.34400
H  40.92500 46.36700 24.39200
H  41.27800 47.37200 25.87200
H  39.79400 46.52000 25.70700
H  40.43100 44.54300 30.40900
H  43.61200 46.34600 33.12400
H  42.49400 45.76700 34.36100
H  42.12700 47.14600 33.51900

