158

Mg 40.93700 8.00700 29.05600
C  42.74800 9.36400 31.78400
C  38.97300 6.40600 31.29700
C  39.33200 6.89800 26.44900
C  43.31500 9.48800 26.91600
N  40.95800 7.77000 31.25700
C  41.64500 8.62300 32.17100
C  41.08300 8.57300 33.58500
C  39.96800 7.41000 33.41000
C  39.92300 7.18700 31.89300
C  40.14700 6.19800 34.35400
C  40.47600 9.95400 34.13200
C  40.14500 9.97000 35.63600
H  41.03500 10.82300 36.55100
N  39.43300 6.74900 28.92300
C  38.76200 6.08900 29.93100
C  37.76400 5.25700 29.41600
C  37.69500 5.45000 27.98100
C  38.84600 6.36600 27.71700
C  36.84900 4.49800 30.36500
C  36.70300 4.97100 27.03400
O  36.86600 5.17500 25.85900
C  35.45300 4.24600 27.40000
N  41.24000 8.18800 27.04200
C  40.41700 7.69500 26.16200
C  40.74600 7.99100 24.73500
C  41.93100 8.99600 24.89300
C  42.20000 8.88200 26.38600
C  40.98800 6.78300 23.82600
C  41.52400 10.45300 24.48200
C  40.72300 11.29800 25.53800
N  42.70900 9.12100 29.23700
C  43.60600 9.59700 28.27300
C  44.64300 10.32800 28.92100
C  44.33800 10.28400 30.30900
C  43.16400 9.53700 30.44200
C  45.88100 10.93200 28.22900
C  44.80300 10.64400 31.66400
O  45.91700 11.06200 32.02800
C  43.71400 10.09300 32.70600
C  44.36500 9.22500 33.71200
O  44.87500 8.10200 33.60200
O  44.08300 9.80900 34.89100
C  44.35100 9.06100 36.11800
H  38.32700 5.93100 32.03900
H  38.84000 6.57000 25.53100
H  43.86100 9.96100 26.09700
H  41.85500 8.08800 34.18300
H  39.00500 7.79800 33.74100
H  39.87500 5.22700 33.94000
H  39.46700 6.35700 35.19100
H  41.15600 6.17900 34.76600
H  39.53200 10.15300 33.62400
H  40.96400 10.85100 33.75300
H  40.32200 8.95000 35.97700
H  39.08800 10.21300 35.74100
H  37.22100 4.26100 31.36200
H  36.60700 3.56200 29.86000
H  35.91500 5.05400 30.28300
H  34.87900 4.72500 28.19300
H  35.85500 3.26600 27.65700
H  34.71200 4.13000 26.60900
H  39.87000 8.56600 24.43700
H  42.81000 8.77900 24.28500
H  40.12100 6.85100 23.16900
H  40.80700 5.82200 24.30900
H  41.85700 6.85000 23.17100
H  40.90400 10.35700 23.59100
H  42.44700 10.91800 24.13500
H  40.82600 10.90400 26.54900
H  39.68000 11.13300 25.26700
H  40.97100 12.35900 25.50100
H  45.77800 12.01700 28.23700
H  45.91200 10.61300 27.18800
H  46.70800 10.54400 28.82300
H  43.19400 10.88800 33.24100
H  43.49500 8.40500 36.27800
H  44.38800 9.76300 36.95100
H  45.28000 8.50400 35.99700
Mg 35.60500 47.75800 25.98400
C  35.63200 45.71000 28.78900
C  34.41000 50.37300 27.88500
C  35.21600 49.57600 23.10800
C  36.22000 44.96800 23.90200
N  35.12300 47.97700 28.11500
C  35.23900 47.00600 29.07700
C  35.16400 47.72500 30.44700
C  34.53300 49.12300 30.10300
C  34.66900 49.13200 28.57900
C  33.02600 49.44000 30.54500
C  36.61300 47.75200 31.03900
C  36.70600 47.75600 32.57000
H  35.49200 47.82900 33.40900
N  35.02900 49.70800 25.54900
C  34.63400 50.61400 26.48500
C  34.43000 51.90500 25.84700
C  34.63800 51.73300 24.43100
C  34.95400 50.25100 24.27400
C  34.05700 53.15400 26.51800
C  34.73100 52.76300 23.31900
O  35.20700 52.53900 22.19200
C  34.19700 54.13500 23.54400
N  35.40600 47.29300 23.76100
C  35.39400 48.23600 22.84400
C  35.77500 47.83400 21.42100
C  36.08500 46.31100 21.67500
C  35.93200 46.17900 23.19900
C  34.75300 48.13700 20.30900
C  37.54900 45.93300 21.12700
C  38.69700 46.34800 22.03000
N  35.97200 45.81900 26.24900
C  36.17000 44.76000 25.32600
C  36.55600 43.57700 26.08000
C  36.40400 43.87800 27.44200
C  35.99100 45.30500 27.48200
C  36.90700 42.26500 25.40500
C  36.41500 43.36300 28.78300
O  36.73300 42.22000 29.22100
C  35.90600 44.54700 29.70400
C  34.69600 44.13700 30.38300
O  33.56900 44.00600 29.93600
O  34.89200 44.11000 31.74000
C  33.68600 43.75000 32.63000
H  34.07500 51.19500 28.52100
H  35.16100 50.09600 22.15000
H  36.46100 44.20900 23.15400
H  34.44900 47.23100 31.10500
H  35.09600 49.96800 30.49900
H  33.09000 50.40700 31.04300
H  32.53300 48.59900 31.03400
H  32.34800 49.61000 29.71000
H  37.23700 48.56100 30.66100
H  37.14500 46.85000 30.73700
H  37.34900 48.59800 32.82600
H  37.21200 46.85100 32.90600
H  33.07900 53.43200 26.12600
H  34.70800 54.01000 26.33900
H  34.08100 53.00300 27.59700
H  33.23700 53.88500 23.99500
H  33.97100 54.65200 22.61200
H  34.89200 54.66900 24.19300
H  36.71200 48.29900 21.11500
H  35.35700 45.66100 21.18900
H  34.25700 47.29000 19.83400
H  35.33100 48.52100 19.46800
H  33.96600 48.78800 20.68900
H  37.64600 46.42900 20.16100
H  37.73100 44.88200 20.90300
H  38.90300 45.50500 22.68900
H  38.48500 47.25600 22.59600
H  39.56300 46.72500 21.48600
H  37.98400 42.26200 25.23800
H  36.52300 42.22400 24.38600
H  36.63300 41.46400 26.09300
H  36.63500 44.72300 30.49400
H  34.04200 43.03100 33.36700
H  32.80200 43.35500 32.12900
H  33.50200 44.66100 33.20000

