158

Mg 34.29100 2.90100 29.25900
C  32.37400 3.48500 31.93000
C  36.95800 2.34300 31.37700
C  36.18900 2.93900 26.59000
C  31.42600 3.46300 27.14600
N  34.52500 2.80900 31.33100
C  33.64600 3.17900 32.25000
C  34.21300 3.21000 33.73600
C  35.73900 2.82100 33.56900
C  35.77000 2.66400 31.96900
C  36.85300 3.75200 34.08500
C  33.48200 2.24900 34.79100
C  33.13200 2.81500 36.13100
H  34.24500 3.83900 36.67400
N  36.30000 2.42800 29.02700
C  37.25000 2.18100 29.99900
C  38.46200 1.80400 29.32900
C  38.32500 2.09100 27.91400
C  36.87100 2.44300 27.76100
C  39.68100 1.29900 30.10500
C  39.33200 2.03900 26.78300
O  39.02800 2.46700 25.72100
C  40.76700 1.34800 27.01300
N  33.89000 3.28800 27.18400
C  34.87600 3.35400 26.31600
C  34.42300 3.66800 24.84900
C  32.83300 3.52600 24.99200
C  32.68900 3.41600 26.50600
C  35.02800 4.95400 24.31400
C  32.29800 2.16500 24.37900
C  30.91100 2.10400 23.70300
N  32.27300 3.36800 29.41000
C  31.23600 3.56100 28.56200
C  30.03600 3.95400 29.25400
C  30.44800 3.92300 30.53100
C  31.78600 3.48900 30.59000
C  28.66100 4.21300 28.70300
C  29.93200 4.06400 31.83600
O  28.79700 4.31900 32.24900
C  31.16100 3.83200 32.80700
C  31.27500 5.09500 33.59200
O  31.81700 6.17500 33.27400
O  30.63300 4.89400 34.80100
C  30.37200 5.98900 35.71200
H  37.81800 2.08200 31.99800
H  36.69000 2.99400 25.62100
H  30.60300 3.43000 26.42800
H  34.10200 4.23100 34.10100
H  35.97100 1.81300 33.91100
H  37.46000 3.14000 34.75100
H  36.48900 4.56700 34.71200
H  37.43400 4.17200 33.26400
H  34.16300 1.43200 35.03000
H  32.60200 1.90500 34.24700
H  32.93200 2.12100 36.94700
H  32.23200 3.42500 36.04800
H  39.31400 1.10900 31.11300
H  40.38800 2.12700 30.16400
H  40.03300 0.39700 29.60600
H  40.60200 0.37700 27.48000
H  41.36800 2.10300 27.52000
H  41.15400 1.15400 26.01300
H  34.84500 2.81800 24.31300
H  32.29900 4.44200 24.74000
H  34.19800 5.28100 23.68800
H  35.83900 4.65700 23.65000
H  35.29600 5.66700 25.09400
H  32.12900 1.42000 25.15600
H  33.02300 1.65500 23.74400
H  30.05300 1.64000 24.18800
H  31.06500 1.51800 22.79700
H  30.53000 3.08200 23.40600
H  28.12000 3.32800 29.03800
H  28.64000 4.37200 27.62500
H  28.37900 5.15200 29.17900
H  30.81800 3.00100 33.42400
H  30.62100 5.66300 36.72200
H  29.35500 6.36800 35.81000
H  31.03600 6.83500 35.53500
Mg 2.21300 42.04400 25.23800
C  3.66100 42.04000 28.40700
C  -0.64000 40.62300 26.58900
C  0.95500 41.59400 22.11400
C  5.34000 42.81400 23.92700
N  1.57900 41.37300 27.26200
C  2.35100 41.58600 28.40400
C  1.53700 41.13800 29.66700
C  0.14800 40.57400 29.03400
C  0.39200 40.74400 27.52100
C  -0.20800 39.05600 29.42400
C  1.20600 42.31300 30.64200
C  1.76300 42.25700 32.11300
H  0.79800 42.52000 33.23800
N  0.32900 41.45400 24.48200
C  -0.67600 40.89300 25.19700
C  -1.79100 40.60300 24.30800
C  -1.37200 41.06100 22.98100
C  -0.00700 41.43200 23.14400
C  -3.09000 40.00800 24.80100
C  -2.16200 41.14500 21.74000
O  -1.73700 41.55700 20.67800
C  -3.63500 40.80300 21.68500
N  3.06000 42.24100 23.37500
C  2.33100 41.88700 22.27900
C  3.16700 42.18600 20.98100
C  4.49200 42.69900 21.63500
C  4.30000 42.52800 23.06600
C  3.35600 41.01700 20.03300
C  4.85300 44.15600 21.32400
C  5.03400 44.53700 19.87600
N  4.14000 42.42000 25.93700
C  5.26500 42.85000 25.32700
C  6.25700 43.15100 26.27800
C  5.71200 42.82700 27.50200
C  4.41900 42.36100 27.27900
C  7.56800 43.69800 26.08300
C  5.90200 42.90600 28.91700
O  6.85300 43.36300 29.48300
C  4.67100 42.29400 29.59100
C  4.99000 41.18300 30.47300
O  5.25300 40.01500 30.13400
O  5.07500 41.61900 31.74700
C  5.20900 40.63000 32.82800
H  -1.57900 40.24000 26.99400
H  0.61300 41.58900 21.07700
H  6.23600 43.16500 23.41100
H  2.01000 40.27200 30.12900
H  -0.77000 41.08200 29.33000
H  -0.00000 38.31800 28.65000
H  -1.21600 38.89200 29.80700
H  0.39800 38.76100 30.28100
H  0.12300 42.39500 30.73600
H  1.57500 43.25800 30.24400
H  2.55600 43.00500 32.11400
H  2.25600 41.33300 32.41400
H  -3.88600 40.75200 24.80800
H  -2.96400 39.51700 25.76600
H  -3.26800 39.17700 24.11800
H  -3.62200 39.79000 21.28100
H  -4.31200 41.41100 21.08600
H  -3.99800 40.75600 22.71100
H  2.64300 43.00900 20.49700
H  5.36600 42.08600 21.41600
H  3.05400 40.04200 20.41700
H  4.39200 40.83500 19.74600
H  2.90900 41.15500 19.04900
H  5.86900 44.25400 21.70700
H  4.22400 44.80100 21.93800
H  4.62400 43.75500 19.23700
H  6.10300 44.62800 19.68100
H  4.53500 45.49100 19.70800
H  8.29500 42.88900 26.01300
H  7.68000 44.39300 26.91500
H  7.72100 44.26900 25.16700
H  4.20100 43.04500 30.22700
H  6.14100 40.07500 32.72100
H  4.42000 39.87700 32.81100
H  4.97700 41.11800 33.77500

