158

Mg 47.46500 15.54100 28.40600
C  45.05900 15.26700 30.98000
C  49.40500 17.23400 30.55000
C  49.44800 16.14300 25.80700
C  45.01000 14.33100 26.17500
N  47.17400 16.23800 30.48900
C  46.22700 15.89400 31.37200
C  46.61800 16.15400 32.81500
C  47.85200 17.02700 32.64400
C  48.22400 16.84300 31.17800
C  47.67400 18.48400 33.10300
C  46.83100 14.79400 33.58200
C  46.11100 14.69700 35.00200
H  46.15300 15.87500 35.95200
N  49.22600 16.44500 28.21100
C  49.89100 17.02200 29.23300
C  51.20200 17.60000 28.70000
C  51.24500 17.27200 27.26300
C  49.92900 16.65600 27.01800
C  52.14400 18.30300 29.65900
C  52.37800 17.51100 26.25400
O  52.26000 17.18900 25.05000
C  53.67500 18.07100 26.67600
N  47.14700 15.49100 26.28200
C  48.20600 15.64900 25.46600
C  47.85300 15.19200 24.04000
C  46.51800 14.50900 24.20400
C  46.17700 14.80700 25.67200
C  47.81300 16.34300 22.93300
C  46.57600 12.99300 23.84500
C  45.48700 12.62500 22.82000
N  45.47100 14.86800 28.52900
C  44.63200 14.41600 27.51600
C  43.29900 14.04400 28.12600
C  43.44700 14.23500 29.50500
C  44.73300 14.84000 29.66100
C  42.15000 13.30700 27.50600
C  42.89200 14.12700 30.78800
O  41.86200 13.55100 31.08600
C  43.78200 14.85100 31.77100
C  43.11900 16.04800 32.38700
O  43.40900 17.23000 32.17700
O  42.32700 15.61500 33.33700
C  41.77300 16.57600 34.29300
H  50.01200 17.77700 31.27700
H  50.08200 16.36300 24.94500
H  44.42400 13.85500 25.38600
H  45.81000 16.67100 33.33300
H  48.71700 16.77900 33.26000
H  46.84100 18.61400 33.79400
H  47.43900 19.12900 32.25700
H  48.59600 18.76600 33.61400
H  47.89400 14.59500 33.71500
H  46.61300 13.95500 32.92100
H  46.55100 13.89900 35.60100
H  45.08800 14.37000 34.81700
H  52.68400 19.05600 29.08600
H  52.82800 17.65900 30.21200
H  51.57100 18.94000 30.33300
H  53.66000 19.05000 27.15400
H  54.28500 18.14000 25.77500
H  54.05500 17.34900 27.39900
H  48.72700 14.62000 23.72800
H  45.72500 15.01500 23.65300
H  46.89600 16.91500 22.78800
H  48.23200 15.91400 22.02300
H  48.62400 16.96600 23.30900
H  46.62800 12.41800 24.77000
H  47.47700 12.72900 23.29100
H  44.53300 13.13600 22.95200
H  45.28600 11.55900 22.92800
H  45.84700 12.67700 21.79300
H  42.55500 12.34900 27.18000
H  41.71000 13.89900 26.70400
H  41.41200 13.13000 28.28900
H  44.03600 14.19900 32.60600
H  42.48400 17.31500 34.66400
H  41.34500 16.03800 35.13900
H  40.96000 17.16100 33.86400
Mg -5.97400 24.89100 26.09100
C  -4.17200 26.43100 28.60500
C  -7.41500 22.89400 28.54000
C  -7.07000 22.92300 23.53300
C  -4.21900 26.96100 23.68900
N  -5.76200 24.61900 28.25300
C  -5.03400 25.50700 29.09700
C  -5.40900 25.24900 30.55600
C  -6.12800 23.90400 30.51200
C  -6.41700 23.76300 29.00800
C  -5.26500 22.85700 31.11800
C  -6.22700 26.40800 31.15600
C  -5.43000 27.00000 32.38800
H  -5.00500 25.99600 33.45400
N  -7.22100 23.25100 26.07900
C  -7.79400 22.68300 27.17300
C  -8.75800 21.67900 26.67200
C  -8.61400 21.66700 25.26000
C  -7.59200 22.64200 24.88700
C  -9.70200 20.96500 27.56500
C  -9.32900 20.78200 24.30400
O  -9.21400 20.79100 23.06700
C  -10.27100 19.79300 24.70700
N  -5.77200 24.94700 23.91000
C  -6.27600 24.01100 23.07700
C  -5.82800 24.23000 21.61400
C  -5.25000 25.70600 21.70700
C  -5.06400 25.92900 23.20200
C  -4.81300 23.10900 21.16400
C  -6.15500 26.82400 21.08500
C  -5.48400 27.56300 19.90700
N  -4.52600 26.36900 26.10100
C  -3.97600 27.14800 25.09400
C  -2.96200 28.03100 25.59900
C  -3.03800 27.75900 27.03700
C  -3.94500 26.72900 27.24000
C  -2.26300 29.08200 24.81700
C  -2.50600 28.15100 28.25500
O  -1.68900 28.97500 28.42600
C  -3.15900 27.31300 29.32800
C  -2.13000 26.56900 30.05600
O  -1.65700 25.45500 29.74900
O  -1.84600 27.28700 31.21300
C  -1.05900 26.63700 32.30300
H  -7.77000 22.28200 29.37200
H  -7.30100 22.28400 22.67800
H  -3.65200 27.59700 23.00500
H  -4.46100 25.16700 31.08700
H  -7.03300 23.96300 31.11700
H  -5.71700 22.69700 32.09700
H  -4.20100 23.04300 31.26700
H  -5.44700 21.97500 30.50400
H  -7.26200 26.16800 31.39700
H  -6.46500 27.22500 30.47400
H  -6.06600 27.76600 32.83100
H  -4.53200 27.56700 32.14300
H  -9.43500 19.97200 27.92800
H  -10.69500 21.02200 27.11900
H  -9.80800 21.57300 28.46300
H  -10.33300 19.04800 23.91300
H  -11.25000 20.27100 24.73600
H  -9.85500 19.31300 25.59300
H  -6.70900 24.26000 20.97400
H  -4.23900 25.76100 21.30200
H  -3.84900 23.61300 21.09600
H  -5.03900 22.69600 20.18100
H  -4.72000 22.32100 21.91200
H  -6.38300 27.67600 21.72600
H  -7.09000 26.40100 20.71700
H  -6.28600 27.49900 19.17200
H  -4.62300 27.03100 19.50200
H  -5.41200 28.60500 20.22000
H  -2.93700 29.72700 24.25200
H  -1.72300 28.53500 24.04400
H  -1.52600 29.62100 25.41200
H  -3.61900 27.93200 30.09800
H  -1.55400 25.81600 32.82200
H  -0.79000 27.34400 33.08800
H  -0.08600 26.26700 31.98000

