158

Mg 26.04300 -0.90000 29.28500
C  28.00200 -0.89100 32.25800
C  23.26300 -0.58500 31.29800
C  24.20700 -0.66100 26.58700
C  28.90400 -1.16400 27.45700
N  25.69800 -0.84500 31.53800
C  26.64300 -0.76800 32.52200
C  26.02000 -0.53500 33.90800
C  24.49300 -0.46100 33.59700
C  24.45500 -0.59000 32.06600
C  23.68000 -1.57700 34.21200
C  26.54300 0.77600 34.59600
C  25.94400 1.17000 35.92000
H  26.89500 1.30400 37.13800
N  24.02900 -0.65000 28.98800
C  23.03500 -0.68800 29.92500
C  21.76600 -0.66700 29.34800
C  21.99600 -0.47000 27.90600
C  23.46200 -0.64800 27.72300
C  20.52900 -0.56300 30.21000
C  20.98200 -0.32700 26.79500
O  21.30700 -0.09500 25.58300
C  19.48800 -0.29900 27.11600
N  26.45500 -1.17000 27.26100
C  25.54800 -0.84500 26.34400
C  26.18000 -0.71700 24.93000
C  27.67300 -0.73800 25.25800
C  27.68000 -1.09600 26.76400
C  25.71500 -1.92600 24.03000
C  28.46200 0.55800 24.90700
C  29.84100 0.37800 24.15500
N  28.05400 -1.11600 29.72000
C  29.10400 -1.28600 28.86200
C  30.36100 -1.30300 29.60000
C  30.00100 -1.20800 30.93500
C  28.56300 -1.07000 30.92800
C  31.71100 -1.38300 28.96500
C  30.51500 -1.19500 32.33700
O  31.65400 -1.52900 32.73400
C  29.24000 -0.89400 33.22900
C  29.08000 -1.84800 34.37500
O  28.62900 -2.95300 34.28100
O  29.52600 -1.25200 35.55700
C  29.41300 -2.12500 36.72700
H  22.40500 -0.47900 31.96600
H  23.79500 -0.68600 25.57600
H  29.80700 -1.15800 26.84400
H  26.41200 -1.29100 34.58800
H  24.09500 0.49300 33.94200
H  24.17800 -2.29800 34.86000
H  23.11800 -2.18100 33.50000
H  22.98400 -1.26300 34.99000
H  26.46500 1.62500 33.91600
H  27.58500 0.57300 34.84300
H  25.04200 0.59100 36.12000
H  25.45600 2.13600 35.78500
H  19.82500 -1.31600 29.85700
H  20.20800 0.46600 30.04500
H  20.47400 -0.72900 31.28600
H  18.96200 0.22900 26.32100
H  19.25100 0.26700 28.01700
H  19.18700 -1.33100 27.29700
H  25.82700 0.25500 24.58600
H  28.19100 -1.50600 24.68400
H  26.58600 -2.41600 23.59500
H  25.04500 -1.63900 23.21900
H  25.20100 -2.70200 24.59600
H  28.72400 1.12700 25.79900
H  27.87800 1.15700 24.20800
H  29.70700 0.33000 23.07400
H  30.18600 -0.63400 24.36900
H  30.65100 1.06800 24.38900
H  31.78200 -2.32700 28.42600
H  32.37700 -1.34600 29.82700
H  31.91800 -0.61600 28.21800
H  29.36100 0.12900 33.58400
H  30.12000 -1.78200 37.48200
H  29.61900 -3.17200 36.50500
H  28.38700 -1.92600 37.03600
Mg 41.11500 7.50200 29.43500
C  42.63500 9.05500 32.09400
C  38.92500 5.99300 31.57900
C  39.75700 6.06800 26.78400
C  43.72600 8.84300 27.29000
N  41.01200 7.37200 31.59300
C  41.61000 8.20000 32.51000
C  40.94900 7.99800 33.88000
C  39.99200 6.77200 33.67200
C  39.94300 6.61400 32.14800
C  40.57100 5.44500 34.28900
C  40.19900 9.28200 34.20300
C  40.19600 9.68400 35.70700
H  40.85600 11.05400 36.02000
N  39.60000 6.26500 29.21200
C  38.70000 5.87600 30.22400
C  37.53900 5.18400 29.60600
C  37.81900 5.21700 28.18600
C  39.08000 5.85300 28.00600
C  36.39300 4.42700 30.38400
C  36.88500 4.77100 27.00800
O  37.22500 4.83200 25.81500
C  35.51600 4.46200 27.42200
N  41.76100 7.45000 27.32700
C  40.93000 6.82100 26.49700
C  41.43300 6.92900 25.00500
C  42.60500 7.91000 25.15300
C  42.71000 8.11600 26.64300
C  41.77900 5.57300 24.32500
C  42.49500 9.17300 24.35800
C  41.32900 10.14300 24.55000
N  42.83000 8.72000 29.66200
C  43.78600 9.17100 28.74500
C  44.72200 10.01900 29.41500
C  44.32700 10.01600 30.71800
C  43.14800 9.19400 30.81400
C  45.91400 10.71100 28.72800
C  44.61000 10.50600 32.05900
O  45.47500 11.27600 32.45400
C  43.47600 9.85700 32.98900
C  44.04100 8.87900 33.98700
O  44.90500 8.01500 33.72600
O  43.72300 9.20200 35.28500
C  44.18400 8.44600 36.53800
H  38.16300 5.69300 32.30200
H  39.45900 5.55100 25.87000
H  44.40300 9.40700 26.64500
H  41.68100 7.76400 34.65200
H  39.05200 6.91800 34.20400
H  40.59800 4.63800 33.55600
H  39.86300 5.17100 35.07000
H  41.51300 5.44700 34.83700
H  39.14800 9.24200 33.91600
H  40.63300 10.06700 33.58300
H  40.78600 8.94900 36.25300
H  39.17100 9.61500 36.07300
H  36.43800 4.45900 31.47200
H  36.28700 3.43200 29.95100
H  35.45600 4.93800 30.16100
H  34.97300 4.21600 26.51000
H  35.03900 5.32000 27.89600
H  35.61600 3.52200 27.96600
H  40.57200 7.36400 24.49900
H  43.54800 7.51500 24.77300
H  41.31500 4.76300 24.88700
H  42.86300 5.48500 24.25200
H  41.27700 5.50500 23.36000
H  42.40100 8.80000 23.33800
H  43.43500 9.72300 24.33300
H  40.66500 10.10900 23.68700
H  41.63000 11.17800 24.71300
H  40.65700 9.96500 25.38900
H  46.44400 11.47200 29.29900
H  45.56700 11.23700 27.83800
H  46.69100 9.98700 28.48100
H  43.12700 10.71900 33.55800
H  44.79900 9.04800 37.20700
H  44.74400 7.57200 36.20300
H  43.41200 8.01900 37.17800

