158

Mg 24.84400 1.81600 30.07400
C  27.04000 1.81500 32.90300
C  22.24700 2.05500 32.20100
C  22.87800 1.69300 27.31700
C  27.68200 1.13300 28.08700
N  24.64800 2.00200 32.37400
C  25.67100 1.97600 33.27400
C  25.14800 2.11000 34.72400
C  23.63700 2.03300 34.46500
C  23.48200 2.03100 32.92700
C  22.87000 0.87500 35.15700
C  25.78300 3.38800 35.34900
C  26.65500 3.07700 36.63100
H  26.54200 4.16200 37.72000
N  22.83800 1.94800 29.76300
C  21.91800 1.90400 30.79600
C  20.57100 1.79700 30.18300
C  20.75200 1.61200 28.77000
C  22.17800 1.75000 28.57500
C  19.24200 1.86000 30.97800
C  19.71600 1.43200 27.64600
O  20.01000 1.46400 26.47900
C  18.29800 1.37800 28.03400
N  25.24500 1.50900 28.00500
C  24.28300 1.62200 27.04500
C  24.90700 1.35300 25.63000
C  26.42800 1.44900 25.90500
C  26.53200 1.38500 27.43400
C  24.43600 0.02200 24.92800
C  27.06100 2.77200 25.37200
C  26.35700 4.10100 25.71400
N  26.86300 1.43300 30.31300
C  27.91100 1.21300 29.37500
C  29.18400 0.96600 30.08800
C  28.82800 1.23200 31.42900
C  27.41700 1.50700 31.51000
C  30.52100 0.57200 29.40600
C  29.41800 1.40400 32.81400
O  30.55600 1.44600 33.25900
C  28.20900 1.61000 33.82800
C  28.10900 0.38000 34.72100
O  27.61000 -0.73600 34.50500
O  28.76800 0.68600 35.88700
C  29.00800 -0.41600 36.89400
H  21.37800 2.20800 32.84300
H  22.25300 1.52800 26.43700
H  28.51200 0.85600 27.43300
H  25.49100 1.23200 35.27100
H  23.31200 2.98600 34.88200
H  22.13400 0.45800 34.47000
H  22.45300 1.23600 36.09800
H  23.51700 0.00300 35.25900
H  24.99800 4.12500 35.52400
H  26.37100 3.93100 34.60900
H  27.69300 2.92900 36.33100
H  26.37600 2.10900 37.04800
H  18.76000 2.83500 31.06000
H  19.40200 1.60900 32.02600
H  18.54900 1.13800 30.54700
H  17.68600 1.56200 27.15100
H  18.13300 2.30200 28.58800
H  18.08900 0.41500 28.50200
H  24.72900 2.15800 24.91600
H  27.07500 0.71500 25.42500
H  25.15500 -0.79100 24.83100
H  24.28800 0.42600 23.92700
H  23.49200 -0.25600 25.39700
H  27.19000 2.67900 24.29400
H  28.08100 2.85700 25.74700
H  26.38800 4.81200 24.88900
H  27.03500 4.44500 26.49500
H  25.36000 3.98800 26.14100
H  31.23000 0.46900 30.22600
H  30.86600 1.35800 28.73300
H  30.42300 -0.27900 28.73200
H  28.41300 2.54000 34.35900
H  28.29100 -0.17800 37.68100
H  29.96300 -0.21500 37.38100
H  28.87600 -1.40400 36.45400
Mg -2.48800 34.07700 27.29800
C  -4.14500 32.01900 29.53500
C  -0.91900 35.61400 29.87000
C  -1.10700 36.07500 25.00000
C  -4.28400 32.34600 24.69100
N  -2.59900 33.88200 29.46200
C  -3.36200 32.95600 30.17200
C  -3.15800 33.19100 31.70000
C  -2.27900 34.51800 31.86500
C  -1.82500 34.63500 30.34300
C  -2.87000 35.75000 32.46000
C  -2.45600 32.05200 32.43200
C  -3.31900 31.55700 33.63900
H  -2.54300 31.19500 34.91800
N  -1.08000 35.54700 27.41300
C  -0.52800 36.01500 28.53500
C  0.45500 36.99300 28.17200
C  0.35800 37.16200 26.77400
C  -0.68200 36.32000 26.29500
C  1.34500 37.78500 29.09700
C  1.13600 38.12500 25.81400
O  0.87800 38.20200 24.64400
C  2.34400 38.98300 26.41500
N  -2.65200 34.13700 25.11200
C  -2.08300 35.22900 24.46600
C  -2.43500 35.14700 22.96800
C  -3.11700 33.75000 22.81600
C  -3.46000 33.39400 24.29800
C  -3.14500 36.43800 22.55100
C  -2.34600 32.76000 22.02600
C  -1.40000 31.85000 22.70400
N  -3.83900 32.51300 27.05000
C  -4.39600 31.82600 25.98900
C  -5.24600 30.76200 26.49200
C  -5.07200 30.71400 27.89700
C  -4.31800 31.90300 28.16400
C  -6.14800 29.95000 25.68000
C  -5.54600 30.09100 29.15500
O  -6.28900 29.13300 29.35300
C  -4.93700 30.92500 30.31100
C  -6.01400 31.59000 31.13700
O  -6.68000 32.54100 30.81000
O  -6.16500 30.96900 32.33800
C  -7.27700 31.51700 33.11400
H  -0.31300 35.94100 30.71800
H  -0.79200 36.65200 24.12800
H  -4.83100 31.88800 23.86500
H  -4.19700 33.33500 31.99600
H  -1.45500 34.36400 32.56200
H  -3.87900 35.86400 32.06300
H  -2.22000 36.59000 32.21400
H  -2.98200 35.48400 33.51100
H  -1.41100 32.31200 32.60400
H  -2.40800 31.26000 31.68500
H  -3.66700 30.53800 33.47300
H  -4.16800 32.17600 33.92700
H  2.36000 37.44700 28.88900
H  1.09000 37.51000 30.12000
H  1.42900 38.87100 29.09000
H  2.06200 39.73500 27.15200
H  2.82000 39.44900 25.55200
H  3.03700 38.23000 26.79200
H  -1.44800 35.07800 22.51000
H  -4.09600 33.89700 22.36100
H  -2.79600 37.23300 23.21000
H  -4.18300 36.36800 22.22400
H  -2.71900 36.77300 21.60600
H  -1.89300 33.29500 21.19100
H  -3.12400 32.17300 21.53800
H  -1.63000 30.85100 22.33500
H  -1.65700 31.78300 23.76100
H  -0.36900 32.12700 22.48400
H  -5.89500 28.91400 25.45600
H  -6.37200 30.37800 24.70300
H  -7.08300 29.97800 26.23900
H  -4.29700 30.29700 30.93100
H  -7.79800 30.56600 33.22800
H  -7.94800 32.31000 32.78400
H  -6.76500 31.79800 34.03400

