158

Mg 44.88800 5.49200 48.63600
C  42.89300 8.15100 47.88700
C  42.10000 3.35800 47.47900
C  46.79000 2.67200 48.67100
C  47.64000 7.47800 48.84600
N  42.68000 5.70900 47.96600
C  42.23700 6.95900 47.60200
C  40.99200 6.86100 46.80500
C  40.62200 5.36500 47.02700
C  41.81900 4.73700 47.56500
C  39.28000 5.10600 47.78600
C  41.06900 7.40200 45.34400
C  39.94800 8.41200 44.99100
H  39.31500 8.31700 43.59900
N  44.45700 3.35600 48.23300
C  43.31400 2.75400 47.81100
C  43.51800 1.33600 47.83000
C  44.89600 0.99000 48.24400
C  45.47300 2.33400 48.39900
C  42.40300 0.35300 47.41900
C  45.51100 -0.38800 48.30400
O  44.75100 -1.29700 48.15600
C  46.95100 -0.57900 48.66400
N  46.92900 5.12700 48.78600
C  47.49700 3.91700 48.75100
C  49.02200 4.04900 49.07600
C  49.28000 5.56400 48.99000
C  47.87000 6.14100 48.88100
C  49.58200 3.36500 50.39600
C  50.29600 5.92800 47.87200
C  51.37200 7.03500 48.25900
N  45.25500 7.38300 48.48500
C  46.42600 8.09500 48.57200
C  46.07300 9.51000 48.30600
C  44.69000 9.60100 48.14900
C  44.25700 8.24700 48.15000
C  47.05900 10.66400 48.25500
C  43.58800 10.52200 47.97900
O  43.50200 11.74700 47.99700
C  42.30600 9.55100 47.66700
C  41.19900 9.94700 48.52200
O  40.92200 9.56200 49.67100
O  40.42700 10.91900 48.00100
C  39.16900 11.37100 48.57400
H  41.23800 2.76200 47.17300
H  47.45700 1.84300 48.91800
H  48.55400 8.06500 48.95600
H  40.30700 7.46800 47.39700
H  40.41900 4.81600 46.10700
H  38.73300 6.03700 47.93400
H  39.62700 4.78100 48.76700
H  38.58900 4.44300 47.26600
H  41.06900 6.55000 44.66400
H  42.01400 7.93900 45.26000
H  40.32100 9.41700 45.18700
H  39.07100 8.16200 45.58800
H  42.84300 -0.17700 46.57500
H  41.47600 0.87400 47.18000
H  42.20700 -0.26600 48.29500
H  47.59200 -0.12000 47.91100
H  47.21100 -1.62700 48.80900
H  47.11300 -0.04500 49.60100
H  49.46200 3.43700 48.28800
H  49.62400 6.02600 49.91500
H  48.77300 2.72100 50.74000
H  49.82600 4.14200 51.12000
H  50.40100 2.75100 50.02200
H  49.79700 6.26500 46.96400
H  50.91900 5.06900 47.62500
H  51.30400 7.32800 49.30700
H  51.17900 7.85000 47.56200
H  52.39300 6.72700 48.03200
H  46.57500 11.60300 47.98800
H  47.97700 10.52700 47.68300
H  47.42200 10.87500 49.26100
H  42.09800 9.83500 46.63500
H  38.75800 12.14900 47.93100
H  39.30900 11.65800 49.61600
H  38.54700 10.47700 48.62400
Mg -6.66000 24.82500 26.40600
C  -5.47400 26.36700 29.33900
C  -8.38800 22.58600 28.26800
C  -7.62700 23.19200 23.63100
C  -4.29000 26.73400 24.61400
N  -6.69100 24.45000 28.58100
C  -6.38700 25.37100 29.59200
C  -7.11500 24.90500 30.86000
C  -7.70000 23.51500 30.53900
C  -7.59400 23.54100 29.01700
C  -6.84300 22.33000 31.02400
C  -8.23800 25.78300 31.49100
C  -8.71400 25.38500 32.96100
H  -7.83700 24.44600 33.81200
N  -7.88000 23.13700 25.99600
C  -8.50500 22.38300 26.89700
C  -9.17600 21.33200 26.28600
C  -9.10300 21.55900 24.86300
C  -8.19300 22.70300 24.77000
C  -9.92400 20.29100 27.04900
C  -9.76300 20.73900 23.69600
O  -9.51700 20.97400 22.54000
C  -10.86500 19.72500 24.01500
N  -6.07300 24.98400 24.46800
C  -6.63000 24.16400 23.47200
C  -5.90900 24.44200 22.14700
C  -4.86900 25.54000 22.41400
C  -5.08500 25.78200 23.90700
C  -5.54500 23.25600 21.19100
C  -4.94200 26.74100 21.49400
C  -5.96200 27.86600 21.85000
N  -5.24600 26.43900 26.84300
C  -4.31000 27.04400 25.98300
C  -3.58800 28.00700 26.76300
C  -4.06800 27.84700 28.14400
C  -4.96100 26.79400 28.10000
C  -2.60200 29.00500 26.19500
C  -3.99600 28.29400 29.52200
O  -3.26900 29.17000 29.98300
C  -4.82600 27.30400 30.34500
C  -3.99500 26.77100 31.44600
O  -3.28600 25.77900 31.40500
O  -3.80800 27.56600 32.59000
C  -2.82600 27.11900 33.57500
H  -8.93100 21.94800 28.96900
H  -7.85500 22.72000 22.67300
H  -3.66300 27.44000 24.06500
H  -6.34400 24.78700 31.62100
H  -8.74600 23.42400 30.83200
H  -6.43300 21.81600 30.15500
H  -7.45700 21.59600 31.54600
H  -6.06000 22.47400 31.76800
H  -9.14600 25.65200 30.90200
H  -7.99400 26.83500 31.34400
H  -9.62600 24.80200 32.83100
H  -8.84000 26.34600 33.46000
H  -10.05600 19.34800 26.51800
H  -10.89000 20.72000 27.31300
H  -9.46900 19.90900 27.96400
H  -11.32700 19.41500 23.07800
H  -11.59300 20.20700 24.66700
H  -10.40100 18.84900 24.46900
H  -6.66200 24.97400 21.56600
H  -3.88400 25.07200 22.39900
H  -4.49300 23.37800 20.93100
H  -6.19400 23.11800 20.32600
H  -5.63700 22.32700 21.75400
H  -5.07000 26.37500 20.47600
H  -3.95300 27.15900 21.68100
H  -6.82500 27.42700 22.35100
H  -6.32000 28.32700 20.92900
H  -5.38000 28.56300 22.45300
H  -1.59100 28.60300 26.25300
H  -2.61600 29.93200 26.76900
H  -2.93400 29.27000 25.19100
H  -5.58300 27.72100 31.01000
H  -1.84600 27.12500 33.09800
H  -3.13300 26.22900 34.12500
H  -2.70500 27.93600 34.28600

