158

Mg 54.44600 24.52200 45.00200
C  51.85600 26.94300 44.09000
C  52.36500 22.01400 43.79500
C  57.07300 22.44900 44.93500
C  56.50400 27.23000 45.51100
N  52.40500 24.54600 43.92400
C  51.48900 25.60600 43.83400
C  50.08200 25.03900 43.33600
C  50.27300 23.44900 43.63000
C  51.77700 23.29300 43.82700
C  49.46500 22.85000 44.88100
C  49.78800 25.34400 41.83700
C  48.26800 25.15200 41.49900
H  47.97200 24.89900 40.03000
N  54.65800 22.48300 44.61400
C  53.72300 21.66200 44.04700
C  54.32100 20.37300 43.84000
C  55.67800 20.45800 44.34800
C  55.86200 21.86200 44.59700
C  53.56700 19.15400 43.45600
C  56.67100 19.22000 44.46800
O  56.31100 18.03300 44.28200
C  57.99900 19.35400 44.88100
N  56.54800 24.83300 45.01900
C  57.40900 23.74400 45.16100
C  58.79900 24.33700 45.43500
C  58.65200 25.88500 45.60300
C  57.13100 26.00500 45.40400
C  59.59300 23.64000 46.65000
C  59.48500 26.72900 44.59700
C  58.88000 27.11700 43.23100
N  54.18900 26.56700 45.08300
C  55.13200 27.52500 45.36100
C  54.53900 28.77100 45.45200
C  53.25700 28.63300 44.86200
C  53.13400 27.26500 44.58900
C  55.23800 30.06600 45.71600
C  52.14900 29.40900 44.38500
O  52.01100 30.64800 44.46100
C  51.12200 28.31700 43.85000
C  50.85000 28.64000 42.40900
O  51.67500 28.60900 41.45500
O  49.53300 28.84200 42.26000
C  48.86000 29.17900 40.96800
H  51.62600 21.22300 43.65500
H  57.97100 21.82800 44.93600
H  57.23300 27.98900 45.80200
H  49.39900 25.49700 44.05200
H  50.14200 22.94600 42.67200
H  50.05500 22.06600 45.35500
H  48.54100 22.33900 44.61000
H  49.35700 23.68300 45.57600
H  50.40700 24.69000 41.22300
H  50.10200 26.37300 41.66500
H  47.84100 26.09600 41.83800
H  48.02400 24.28300 42.11000
H  54.06300 18.72300 42.58600
H  52.55300 19.38000 43.12500
H  53.50300 18.32600 44.16300
H  58.42700 18.37500 45.09500
H  58.01300 19.77900 45.88500
H  58.63300 19.93600 44.21100
H  59.30000 24.09800 44.49800
H  58.96100 26.07200 46.63100
H  59.21800 24.08400 47.57200
H  60.68100 23.64300 46.59100
H  59.17600 22.63300 46.62900
H  60.13200 25.97000 44.15600
H  60.05900 27.45400 45.17400
H  58.38400 26.19800 42.92000
H  59.73000 27.39600 42.60900
H  58.17000 27.90700 43.47800
H  55.51000 30.68200 44.85900
H  56.10100 29.88600 46.35600
H  54.59100 30.69300 46.33000
H  50.17100 28.33800 44.38100
H  49.65300 29.80400 40.55800
H  47.99200 29.82600 41.09100
H  48.61900 28.41200 40.23100
Mg 47.75600 25.08100 28.20300
C  48.96700 27.28600 30.74600
C  46.79800 22.96100 30.62600
C  47.27000 22.86300 25.71600
C  49.17800 27.30200 25.80300
N  47.93400 25.07800 30.45800
C  48.25600 26.19800 31.27600
C  47.97600 25.91200 32.69400
C  47.43800 24.48200 32.73600
C  47.30200 24.18000 31.23800
C  48.28200 23.36800 33.41400
C  47.00300 27.06300 33.26500
C  46.15100 26.76900 34.48400
H  45.95400 27.80800 35.59000
N  47.19800 23.22200 28.17500
C  46.85300 22.47200 29.29500
C  46.39800 21.15700 28.92200
C  46.60200 21.08300 27.49700
C  47.08000 22.44300 27.04600
C  45.73600 20.15100 29.88300
C  46.18300 19.96600 26.54100
O  46.57000 19.92900 25.40200
C  45.28400 18.87200 27.01400
N  48.16900 25.08700 26.06900
C  47.88800 24.05000 25.28900
C  48.26200 24.26600 23.80000
C  48.67900 25.79600 23.80200
C  48.72200 26.10100 25.30300
C  49.32100 23.29200 23.17000
C  47.78200 26.76600 23.04700
C  48.33200 28.00900 22.41400
N  48.81800 26.90600 28.19100
C  49.35300 27.64000 27.17900
C  49.98200 28.76200 27.73900
C  49.90800 28.70600 29.13700
C  49.18000 27.50600 29.35000
C  50.58800 29.84700 26.94400
C  50.23300 29.36100 30.38700
O  50.83300 30.44700 30.52400
C  49.60900 28.45100 31.47600
C  50.63600 28.16100 32.48300
O  51.29900 27.17300 32.39100
O  50.72000 29.11600 33.38700
C  51.84100 28.83000 34.31000
H  46.37600 22.42000 31.47500
H  47.10400 22.18300 24.87800
H  49.72100 28.05000 25.22100
H  48.94700 25.95400 33.18800
H  46.43400 24.37500 33.14800
H  47.69900 22.70100 34.04900
H  48.99000 23.84700 34.09000
H  48.68900 22.72600 32.63300
H  46.29600 27.39100 32.50300
H  47.78500 27.77800 33.52200
H  46.44900 25.86200 35.01000
H  45.17500 26.57600 34.04000
H  46.41500 19.31300 30.03800
H  44.80600 19.72800 29.50300
H  45.58100 20.60900 30.86000
H  45.73500 18.24300 27.78100
H  45.05300 18.22200 26.17000
H  44.30600 19.20900 27.35600
H  47.34500 24.31400 23.21300
H  49.68800 25.89400 23.40200
H  49.82600 22.68900 23.92400
H  50.08600 23.76800 22.55600
H  48.73500 22.63400 22.52900
H  47.04000 27.12200 23.76300
H  47.32000 26.14400 22.28000
H  47.76700 28.15900 21.49400
H  49.40100 27.95800 22.20900
H  48.19200 28.86100 23.07900
H  49.86700 30.13700 26.17900
H  51.45400 29.38800 26.46800
H  50.83900 30.64900 27.63700
H  49.00700 29.12600 32.08400
H  52.78400 28.84600 33.76300
H  51.77100 27.97900 34.98700
H  51.88800 29.74700 34.89700

