158

Mg 8.61000 3.04800 27.80200
C  9.97600 1.69800 30.75500
C  6.88900 5.19600 29.85000
C  6.95700 4.12300 25.17200
C  10.09900 0.54200 25.96600
N  8.47000 3.36900 30.13100
C  9.10100 2.69300 31.07200
C  8.80900 3.33600 32.46600
C  7.65400 4.35400 32.20000
C  7.69000 4.34200 30.65000
C  6.28500 3.82300 32.63300
C  10.08100 4.10900 32.94600
C  10.50200 3.81700 34.34700
H  10.74900 4.97100 35.41800
N  7.23800 4.51600 27.55300
C  6.66700 5.32700 28.47700
C  5.75300 6.31100 27.94900
C  5.79900 6.03000 26.51300
C  6.70300 4.86800 26.37800
C  5.15600 7.46000 28.78300
C  5.22100 6.73400 25.38600
O  5.35100 6.46800 24.22400
C  4.58900 8.07100 25.64500
N  8.42500 2.33400 25.88400
C  7.67100 2.92100 24.92100
C  8.00000 2.36300 23.51800
C  9.02800 1.26900 23.83400
C  9.20800 1.37300 25.31500
C  6.74600 1.92900 22.78000
C  10.24300 1.36100 22.89200
C  10.47000 0.01000 22.17200
N  9.72400 1.41300 28.20900
C  10.33000 0.55800 27.37300
C  11.25100 -0.28600 28.07500
C  11.05800 0.09800 29.41800
C  10.17300 1.17300 29.45100
C  12.10200 -1.28100 27.41800
C  11.62900 -0.11200 30.76300
O  12.52800 -0.86400 31.09300
C  10.94600 0.96200 31.71200
C  10.17300 0.27500 32.80200
O  9.29000 -0.56600 32.67300
O  10.68000 0.71900 33.92900
C  9.95100 0.23700 35.11600
H  6.19400 5.78500 30.45200
H  6.40600 4.30100 24.24700
H  10.64800 -0.14600 25.32000
H  8.52400 2.57800 33.19500
H  7.83500 5.39100 32.48600
H  5.57600 4.62200 32.84900
H  6.45400 3.11900 33.44800
H  5.83300 3.28400 31.80000
H  9.89900 5.18400 32.93200
H  10.85200 3.94500 32.19300
H  11.48800 3.35300 34.32800
H  9.86600 3.07500 34.83000
H  5.22600 8.45600 28.34600
H  5.64700 7.56800 29.75100
H  4.10400 7.26300 28.99000
H  5.27700 8.76700 26.12500
H  3.75900 7.95400 26.34200
H  4.19700 8.49000 24.71900
H  8.39300 3.23000 22.98900
H  8.51600 0.32200 23.67100
H  5.91200 1.90200 23.48100
H  6.92600 0.96900 22.29500
H  6.50400 2.70000 22.04900
H  11.10600 1.68400 23.47400
H  9.99300 2.12400 22.15500
H  10.30500 0.06900 21.09600
H  9.79200 -0.75600 22.54900
H  11.50500 -0.29400 22.32800
H  11.56300 -2.22900 27.39800
H  13.02000 -1.39200 27.99500
H  12.24100 -0.98600 26.37800
H  11.65900 1.58300 32.25400
H  10.32500 0.72900 36.01400
H  10.10900 -0.84000 35.16800
H  8.86300 0.24600 35.04800
Mg 6.59800 53.96900 41.79200
C  5.71200 50.72300 41.16600
C  9.71700 53.43600 40.42100
C  7.13300 57.35200 41.81100
C  3.20900 54.67200 42.74400
N  7.53100 52.31800 40.81900
C  7.02800 51.05900 40.60600
C  8.11200 50.09000 40.10100
C  9.44800 50.90500 40.35500
C  8.89600 52.29300 40.51800
C  10.32400 50.49900 41.58100
C  7.92500 49.60900 38.65600
C  6.95800 50.46800 37.77000
H  7.51900 51.39400 36.71400
N  8.13900 55.18000 41.31000
C  9.38800 54.72900 40.82400
C  10.28200 55.88800 40.60100
C  9.54700 57.00900 41.04000
C  8.22600 56.56900 41.40300
C  11.59600 55.87100 39.93100
C  10.18200 58.38200 41.23800
O  11.27100 58.73900 40.88400
C  9.43900 59.50900 41.92500
N  5.28700 55.75500 42.07500
C  5.81600 56.97400 42.10700
C  4.77900 58.08700 42.43400
C  3.42300 57.26400 42.44700
C  3.95600 55.79200 42.36800
C  5.05700 58.80000 43.79200
C  2.49100 57.65000 41.27200
C  0.96600 57.73400 41.53500
N  4.81300 52.98000 41.81700
C  3.51700 53.32200 42.39200
C  2.76200 52.12100 42.59000
C  3.53400 51.12500 41.99800
C  4.77700 51.74100 41.62100
C  1.42100 51.97800 43.21800
C  3.57200 49.70300 41.74400
O  2.75200 48.80900 41.99900
C  5.02700 49.37200 41.30300
C  4.97000 48.55400 40.04800
O  4.63200 48.87800 38.94400
O  5.28800 47.30400 40.38200
C  5.32500 46.25100 39.38000
H  10.72700 53.21000 40.07400
H  7.25900 58.43400 41.73600
H  2.22500 54.93300 43.14100
H  8.10200 49.25600 40.80300
H  10.14600 50.85400 39.51800
H  11.32700 50.27900 41.21600
H  9.95600 49.60000 42.07600
H  10.43800 51.30500 42.30700
H  7.67500 48.56000 38.81300
H  8.90700 49.54900 38.18700
H  6.25100 50.99800 38.40800
H  6.44500 49.66700 37.23800
H  11.48900 54.99300 39.29400
H  12.49700 55.70400 40.52000
H  11.64300 56.73600 39.26900
H  8.72200 59.97900 41.25200
H  10.23500 60.22800 42.11900
H  8.97300 59.19400 42.85800
H  4.80500 58.76500 41.58100
H  2.81400 57.35500 43.34700
H  4.24300 58.57800 44.48300
H  5.26300 59.85100 43.59100
H  5.94400 58.29900 44.18000
H  2.54200 56.84000 40.54500
H  2.79900 58.54900 40.73900
H  0.42900 57.53000 40.60900
H  0.72400 58.74500 41.86400
H  0.70200 56.99300 42.28900
H  1.40300 50.95700 43.60000
H  0.53200 52.00600 42.58800
H  1.30900 52.78600 43.94000
H  5.48700 48.85900 42.14700
H  4.42600 45.64400 39.48500
H  6.24100 45.66700 39.47200
H  5.42800 46.65700 38.37300

