158

Mg 16.78100 51.65400 26.59700
C  18.98400 50.56500 29.24300
C  14.60000 52.70000 29.13400
C  14.91000 52.96700 24.22400
C  19.33500 51.05200 24.36100
N  16.77500 51.60700 28.86400
C  17.72200 51.14500 29.72300
C  17.36600 51.39300 31.19100
C  15.91200 51.75000 31.10600
C  15.74000 52.03500 29.58400
C  15.00600 50.59600 31.64100
C  18.33900 52.46700 31.83100
C  18.64600 52.36400 33.30400
H  17.65800 51.58600 34.22100
N  15.01700 52.71400 26.67500
C  14.25100 53.07900 27.75300
C  13.03700 53.84200 27.32900
C  13.05400 53.81800 25.89600
C  14.33500 53.12000 25.53500
C  12.03600 54.29500 28.37400
C  12.09800 54.43200 24.87000
O  12.25700 54.46900 23.65800
C  10.99500 55.13300 25.46400
N  16.97500 51.86500 24.52900
C  16.08000 52.42300 23.74300
C  16.49500 52.31500 22.25500
C  17.95800 51.95600 22.33300
C  18.17000 51.73300 23.88900
C  15.56600 51.38100 21.54100
C  18.96100 53.17100 21.92600
C  20.15200 52.89800 21.03000
N  18.64100 50.73800 26.67600
C  19.53100 50.50700 25.66800
C  20.64900 49.81500 26.17300
C  20.42300 49.72900 27.59000
C  19.30100 50.38700 27.85000
C  21.96500 49.44800 25.49500
C  21.10000 49.34900 28.86100
O  22.15400 48.72500 29.01700
C  20.22500 49.97900 30.00100
C  19.87300 48.84500 30.90600
O  19.22100 47.88400 30.59000
O  20.22800 49.14500 32.22200
C  20.10800 48.06200 33.26500
H  13.91200 53.00000 29.92700
H  14.33700 53.48700 23.45300
H  20.13000 50.98300 23.61600
H  17.55600 50.48800 31.76800
H  15.85700 52.74300 31.55200
H  15.52500 49.74700 32.08600
H  14.29900 50.21500 30.90500
H  14.42000 50.99700 32.46800
H  17.87500 53.42700 31.60500
H  19.29300 52.46700 31.30400
H  18.85800 53.31700 33.79000
H  19.58400 51.81600 33.21200
H  11.07200 53.78700 28.40700
H  11.83200 55.35500 28.21900
H  12.44800 54.22900 29.38100
H  10.49900 55.45500 24.54900
H  11.38900 55.99400 26.00400
H  10.38900 54.51500 26.12600
H  16.37500 53.35300 21.94700
H  18.22300 51.08800 21.72800
H  14.66800 51.02600 22.04600
H  16.09900 50.45600 21.31800
H  15.32900 51.82700 20.57500
H  19.41800 53.70300 22.76000
H  18.37600 53.90800 21.37500
H  20.17900 51.86500 20.68500
H  21.12500 53.08300 21.48500
H  20.18500 53.50800 20.12700
H  22.13400 50.29800 24.83400
H  21.96300 48.52100 24.92100
H  22.70900 49.38800 26.28900
H  20.79300 50.73300 30.54500
H  20.09800 47.05400 32.85000
H  19.40600 48.32700 34.05500
H  21.07200 48.20200 33.75500
Mg -5.74300 24.91200 25.75900
C  -4.12300 26.06700 28.68600
C  -7.66700 22.72000 27.71700
C  -6.62500 23.29600 23.00100
C  -3.25000 26.73200 23.95200
N  -5.80500 24.34500 27.90100
C  -5.12000 25.06300 28.92500
C  -5.66100 24.61000 30.31700
C  -6.58500 23.37400 29.99000
C  -6.75700 23.48000 28.46100
C  -5.98000 21.97300 30.32200
C  -6.51000 25.83000 30.92800
C  -6.30000 26.02500 32.52200
H  -5.49200 24.95200 33.28600
N  -7.14600 23.37000 25.36300
C  -7.82000 22.59500 26.28300
C  -8.67400 21.67600 25.60400
C  -8.44200 21.87400 24.21000
C  -7.37900 22.87200 24.13700
C  -9.58700 20.72500 26.28400
C  -9.02500 21.14700 22.95800
O  -8.68400 21.40500 21.81500
C  -10.12200 20.12400 23.07500
N  -4.98300 25.03300 23.71400
C  -5.57100 24.22200 22.77500
C  -4.93200 24.46400 21.40100
C  -4.05000 25.70500 21.64400
C  -4.02200 25.85400 23.19400
C  -4.11800 23.27200 20.88600
C  -4.57100 26.97400 20.88200
C  -3.65600 27.62200 19.74200
N  -4.11600 26.20800 26.19400
C  -3.26900 26.96800 25.33000
C  -2.46700 27.93700 26.14400
C  -2.80600 27.54600 27.47900
C  -3.76200 26.51700 27.46300
C  -1.40300 28.96700 25.69000
C  -2.37900 27.81200 28.87400
O  -1.54300 28.51900 29.35400
C  -3.36000 26.86400 29.68500
C  -2.57100 26.13000 30.66600
O  -1.99900 25.06900 30.46000
O  -2.65100 26.77400 31.88700
C  -1.73800 26.11100 32.82800
H  -8.17800 21.97100 28.32500
H  -6.81300 22.87000 22.01300
H  -2.67300 27.42800 23.33900
H  -4.79000 24.40000 30.93700
H  -7.60800 23.40600 30.36600
H  -4.96400 21.93100 30.71300
H  -5.99600 21.38900 29.40300
H  -6.77600 21.60000 30.96700
H  -7.57400 25.66700 30.76200
H  -6.26600 26.74900 30.39500
H  -7.31400 26.21900 32.87300
H  -5.75000 26.96300 32.59700
H  -10.58100 20.78100 25.84000
H  -9.81300 20.98200 27.31800
H  -9.27100 19.68200 26.25100
H  -10.25600 19.73900 22.06500
H  -11.02200 20.61500 23.44600
H  -9.73800 19.30700 23.68600
H  -5.74200 24.67300 20.70200
H  -3.05000 25.46000 21.28500
H  -3.62100 22.65200 21.63300
H  -3.30900 23.63200 20.25000
H  -4.69400 22.56500 20.28800
H  -4.60200 27.73500 21.66200
H  -5.59700 26.84000 20.54200
H  -2.74000 27.04100 19.63500
H  -3.32600 28.62300 20.02100
H  -4.16700 27.74700 18.78700
H  -0.64500 29.15100 26.45100
H  -1.82600 29.95000 25.48300
H  -1.06000 28.61500 24.71700
H  -4.09200 27.39300 30.29600
H  -1.86500 26.65000 33.76700
H  -0.73900 26.07900 32.39300
H  -2.00000 25.05500 32.88000

