158

Mg 6.23600 53.85700 41.26500
C  5.35500 50.39400 40.95900
C  9.29300 53.05100 40.35500
C  6.72500 57.06000 41.11500
C  2.68100 54.41700 41.82100
N  7.07600 51.99000 40.53800
C  6.62000 50.68600 40.54500
C  7.68300 49.64700 40.03900
C  8.93800 50.48400 40.43600
C  8.40200 51.95100 40.48400
C  9.73300 50.02100 41.73500
C  7.50500 49.13800 38.56500
C  6.80100 50.01100 37.56900
H  6.28600 49.44700 36.22600
N  7.84200 54.93600 40.87600
C  9.02100 54.41400 40.38400
C  9.92600 55.53400 40.09800
C  9.22200 56.72600 40.38500
C  7.90200 56.28400 40.81000
C  11.34300 55.44000 39.51700
C  9.67600 58.14500 40.27600
O  10.84700 58.41700 39.91800
C  8.84800 59.47300 40.47900
N  4.81500 55.48700 41.35000
C  5.37300 56.76200 41.22900
C  4.23200 57.78000 41.35700
C  2.89600 56.96500 41.24300
C  3.44000 55.56100 41.50800
C  4.12100 58.60900 42.68600
C  2.21600 56.92500 39.88300
C  0.84800 57.62500 39.77800
N  4.41000 52.68400 41.43600
C  3.08400 53.08800 41.77100
C  2.25600 51.94000 41.90400
C  3.17500 50.83900 41.73800
C  4.45000 51.35600 41.36000
C  0.84000 51.97300 42.39300
C  3.24700 49.42000 41.70700
O  2.40200 48.52600 41.95200
C  4.62200 49.08400 41.13400
C  4.27100 48.34900 39.81300
O  3.89500 48.86900 38.74500
O  4.31800 47.03900 40.03700
C  4.19000 46.16700 38.90200
H  10.34700 52.84100 40.16100
H  6.86100 58.12100 41.33500
H  1.63100 54.68300 41.95800
H  7.57100 48.83600 40.75900
H  9.56800 50.55100 39.54900
H  9.93500 50.88000 42.37400
H  10.70600 49.60700 41.47200
H  9.21600 49.27900 42.34300
H  6.89900 48.23300 38.61100
H  8.45100 48.80300 38.13900
H  7.48100 50.82500 37.31900
H  6.00200 50.60700 38.01200
H  11.09400 55.85600 38.54000
H  11.76200 54.44900 39.34100
H  12.13700 56.01300 39.99400
H  9.50300 60.34300 40.44400
H  8.46300 59.33400 41.49000
H  7.97500 59.48800 39.82700
H  4.34300 58.48900 40.53600
H  2.14100 57.18100 42.00000
H  3.91100 57.98500 43.55500
H  3.26500 59.28300 42.68400
H  5.05000 59.13000 42.92000
H  2.17600 55.87900 39.58100
H  2.90900 57.46100 39.23400
H  0.82800 58.11200 40.75300
H  0.07100 56.86200 39.72200
H  0.86500 58.35000 38.96500
H  0.21000 52.19800 41.53200
H  0.71100 52.72000 43.17600
H  0.55200 50.97600 42.72700
H  5.11100 48.41700 41.84400
H  4.97300 46.32600 38.16000
H  3.21800 46.14500 38.40800
H  4.37400 45.15100 39.25100
Mg -10.50900 39.06100 40.48400
C  -9.47400 35.97500 39.60200
C  -7.53400 40.39700 39.11000
C  -11.79000 42.20300 40.37300
C  -13.61900 37.75200 41.45900
N  -8.74500 38.30000 39.38800
C  -8.54300 36.97000 39.22500
C  -7.07800 36.66900 38.67400
C  -6.41700 38.08100 38.95300
C  -7.63100 39.00200 39.07100
C  -5.58200 38.13400 40.24600
C  -7.12100 36.15200 37.13700
C  -7.86200 37.01900 36.08800
H  -8.62700 36.21500 35.07600
N  -9.71600 40.98300 39.97500
C  -8.50700 41.31600 39.43100
C  -8.35700 42.71500 39.37300
C  -9.59000 43.24700 39.75000
C  -10.45700 42.12700 40.01500
C  -7.06600 43.40700 38.82000
C  -9.84600 44.74300 39.94700
O  -9.08700 45.61800 39.41500
C  -11.01800 45.22000 40.65000
N  -12.43100 39.87700 40.97500
C  -12.71500 41.20300 40.70900
C  -14.19600 41.42900 40.94800
C  -14.88300 40.00100 41.11900
C  -13.57400 39.12800 41.26500
C  -14.53500 42.44900 42.07000
C  -15.79300 39.63500 39.92300
C  -17.23800 39.20400 40.30800
N  -11.35200 37.24900 40.64500
C  -12.66400 36.80300 41.07800
C  -12.72000 35.43800 40.98400
C  -11.47500 35.03100 40.45100
C  -10.69200 36.18300 40.26600
C  -13.94200 34.52800 41.13700
C  -10.73700 33.88500 39.93200
O  -11.03100 32.69700 39.94400
C  -9.40000 34.47900 39.41000
C  -8.33600 33.87700 40.24400
O  -8.41100 33.65600 41.42500
O  -7.15200 33.57300 39.51900
C  -6.03800 33.06100 40.24000
H  -6.62400 40.84900 38.71100
H  -12.38200 43.11800 40.29600
H  -14.56700 37.31700 41.78100
H  -6.67100 35.84900 39.26500
H  -5.81200 38.32600 38.08000
H  -4.52900 38.07300 39.97100
H  -5.84900 37.41200 41.01800
H  -5.74000 39.10000 40.72300
H  -7.55100 35.15200 37.08800
H  -6.11800 36.05700 36.72200
H  -7.19900 37.73900 35.60700
H  -8.67900 37.57400 36.54700
H  -6.89400 43.20300 37.76300
H  -6.26300 43.00000 39.43500
H  -6.98700 44.47800 39.00400
H  -11.25100 44.68500 41.57000
H  -11.79100 45.25900 39.88200
H  -11.01700 46.27400 40.92900
H  -14.51900 42.03700 40.10300
H  -15.49100 39.97200 42.02300
H  -15.56700 42.78500 42.17000
H  -13.91700 43.34400 41.99700
H  -14.12600 42.03000 42.99000
H  -15.31700 38.80900 39.39400
H  -15.86600 40.54700 39.33000
H  -17.88200 39.78400 39.64700
H  -17.46300 39.31700 41.36900
H  -17.49400 38.17100 40.07500
H  -13.77700 33.84100 41.96700
H  -13.89300 33.91200 40.23900
H  -14.94500 34.94800 41.05800
H  -9.12000 34.19600 38.39500
H  -5.17500 33.69400 40.03200
H  -5.76800 32.07800 39.85500
H  -6.14500 33.11500 41.32400

