158

Mg 47.40400 16.47100 29.15400
C  45.20600 16.12500 31.79300
C  49.67200 18.00000 31.25900
C  49.40700 17.10500 26.49700
C  44.97700 14.95900 27.06200
N  47.37300 17.06000 31.20900
C  46.38200 16.82500 32.16500
C  46.83200 17.11800 33.63200
C  48.13600 17.91400 33.39100
C  48.43100 17.61400 31.89900
C  48.18700 19.42200 33.64700
C  46.86300 15.87500 34.62900
C  47.75200 15.97800 35.84500
H  47.54700 17.22400 36.75000
N  49.40100 17.35600 28.86400
C  50.14000 17.87300 29.89900
C  51.41400 18.35700 29.37600
C  51.35600 18.15300 27.95500
C  50.03500 17.50300 27.70100
C  52.59000 18.70200 30.24200
C  52.41500 18.37100 26.81000
O  52.18300 18.07100 25.63200
C  53.69100 18.97900 27.08400
N  47.22700 16.16000 27.09000
C  48.16900 16.53200 26.20100
C  47.71500 16.28400 24.78100
C  46.48100 15.33700 25.04400
C  46.13000 15.51800 26.52600
C  47.43800 17.55200 23.99300
C  46.74800 13.83300 24.63400
C  46.14800 13.23400 23.38300
N  45.41300 15.65300 29.34800
C  44.60800 15.14200 28.44700
C  43.37700 14.76700 29.09700
C  43.55900 15.14000 30.42500
C  44.81500 15.66400 30.52900
C  42.18300 14.15900 28.48400
C  42.97500 15.10500 31.75100
O  41.90600 14.62700 32.10300
C  43.96900 15.85000 32.69900
C  43.36400 17.01100 33.31200
O  42.96100 18.02100 32.79500
O  43.30500 16.72100 34.61500
C  42.50100 17.60500 35.47400
H  50.42400 18.53000 31.84700
H  50.01000 17.30400 25.60900
H  44.19400 14.60400 26.38800
H  46.07300 17.76900 34.06800
H  48.94700 17.47200 33.97000
H  49.18300 19.85200 33.74800
H  47.59800 19.70000 34.52100
H  47.73300 19.70400 32.69700
H  47.29700 15.01200 34.12400
H  45.88000 15.57900 34.99700
H  48.77100 15.81500 35.49500
H  47.41600 15.18700 36.51500
H  53.45000 19.05500 29.67200
H  52.99900 17.91900 30.88000
H  52.22400 19.47000 30.92300
H  53.37100 19.95300 27.45300
H  54.24200 19.05200 26.14700
H  54.11600 18.28800 27.81200
H  48.52100 15.79000 24.23800
H  45.66400 15.78200 24.47500
H  46.86800 18.20700 24.65200
H  46.88300 17.41000 23.06600
H  48.38600 18.04200 23.77000
H  46.39600 13.25300 25.48700
H  47.81400 13.62100 24.56300
H  46.85800 12.51900 22.96600
H  45.90300 13.96100 22.60900
H  45.35900 12.59400 23.77800
H  41.96600 14.87000 27.68800
H  41.43600 14.14900 29.27700
H  42.18500 13.11900 28.15500
H  44.27700 15.16700 33.49000
H  42.35700 17.36700 36.52700
H  41.50600 17.57100 35.03000
H  42.92100 18.61100 35.51300
Mg 16.53700 52.09000 26.20100
C  18.90200 50.67500 28.56600
C  14.59200 52.72500 28.96600
C  14.30500 53.38700 24.10700
C  18.79600 51.43600 23.70800
N  16.82200 51.84200 28.39100
C  17.79400 51.21400 29.14200
C  17.51400 51.15600 30.59700
C  16.03500 51.54100 30.68300
C  15.82800 52.12100 29.28200
C  14.98300 50.46100 31.09600
C  18.42900 51.96200 31.52000
C  18.60800 51.42500 32.98100
H  17.76900 52.12500 34.07200
N  14.64800 53.03300 26.54700
C  14.04300 53.12800 27.73000
C  12.72500 53.75700 27.50300
C  12.62700 54.01200 26.05300
C  13.91500 53.47000 25.47100
C  11.65000 54.03100 28.64500
C  11.43000 54.63500 25.26200
O  11.43900 54.74000 24.02100
C  10.13600 55.10800 26.01100
N  16.54100 52.27300 24.20400
C  15.44600 52.78400 23.52500
C  15.65300 52.56700 22.06500
C  17.18300 52.31700 21.91600
C  17.58800 52.05200 23.36000
C  14.86000 51.32100 21.39500
C  18.03000 53.44300 21.38600
C  18.90700 53.08900 20.15300
N  18.48700 51.26800 26.08900
C  19.20200 51.00300 24.99200
C  20.35300 50.23700 25.31700
C  20.35200 50.11300 26.73000
C  19.15500 50.76900 27.17000
C  21.35500 49.71900 24.41600
C  21.04000 49.56600 27.89300
O  22.06300 48.89300 27.97200
C  20.18000 49.99900 29.19900
C  19.93500 48.76800 30.07900
O  19.13300 47.85800 29.88500
O  20.68200 48.85200 31.18900
C  20.30800 47.90600 32.26600
H  13.96200 52.85000 29.84900
H  13.49700 53.57200 23.39600
H  19.44600 51.26100 22.84800
H  17.56000 50.11300 30.90900
H  15.88000 52.35100 31.39600
H  13.95000 50.75500 31.27700
H  15.33600 50.38200 32.12500
H  15.18300 49.56400 30.50900
H  18.05100 52.98400 31.50100
H  19.47200 51.98600 31.20100
H  19.66400 51.58200 33.20000
H  18.47700 50.34400 32.93000
H  11.99400 53.62800 29.59600
H  10.69600 53.62400 28.31000
H  11.59200 55.10600 28.81600
H  10.42400 55.79500 26.80600
H  9.53700 54.27700 26.38200
H  9.54700 55.61400 25.24600
H  15.21000 53.45400 21.61200
H  17.38300 51.44600 21.29300
H  14.52200 51.60500 20.39800
H  13.93800 51.19300 21.96200
H  15.46400 50.41600 21.33300
H  18.65300 53.94300 22.12700
H  17.27700 54.15200 21.04100
H  19.81000 53.69600 20.22400
H  18.46400 53.45400 19.22600
H  19.15800 52.03000 20.08900
H  20.97700 50.02500 23.44000
H  21.36900 48.63000 24.46200
H  22.38400 50.07500 24.44300
H  20.89400 50.67800 29.66400
H  20.74500 46.94300 32.00200
H  19.22600 47.88300 32.39100
H  20.66100 48.32200 33.21000

