158

Mg 40.61200 9.62400 29.20300
C  42.36000 10.76500 31.79900
C  38.37000 8.07300 31.42700
C  38.72700 8.43800 26.56700
C  42.80200 10.93400 26.97000
N  40.45500 9.39400 31.39900
C  41.15400 10.22300 32.28200
C  40.69600 10.16600 33.71700
C  39.54100 9.08100 33.54000
C  39.49200 8.74000 32.03100
C  39.70400 7.72400 34.36100
C  40.14100 11.55200 34.09200
C  39.59100 11.75700 35.43600
H  40.27100 12.48800 36.53600
N  38.85500 8.33300 29.03500
C  38.12000 7.83200 30.07800
C  37.02500 6.97100 29.55500
C  37.03900 7.16300 28.14400
C  38.18100 8.01000 27.83400
C  35.92500 6.32100 30.42300
C  36.18000 6.60100 27.04300
O  36.29300 6.89200 25.87200
C  34.96600 5.80500 27.37200
N  40.64000 9.79500 27.06700
C  39.85400 9.13900 26.16600
C  40.33300 9.32000 24.66700
C  41.60300 10.20500 24.89800
C  41.65300 10.40800 26.40800
C  40.45900 8.06100 23.76700
C  41.59700 11.58500 24.11900
C  40.85900 12.82000 24.76500
N  42.22900 10.57500 29.27200
C  43.08900 11.06500 28.33800
C  44.27100 11.63100 28.97000
C  43.95900 11.58700 30.36000
C  42.80000 10.83700 30.47600
C  45.46800 12.19800 28.32200
C  44.43700 11.92300 31.68200
O  45.51600 12.36500 31.88200
C  43.31800 11.55900 32.63000
C  43.97100 10.89600 33.83900
O  44.34400 9.71000 33.87300
O  44.02000 11.70000 34.95900
C  44.54000 11.20900 36.21800
H  37.71500 7.58800 32.15400
H  38.33300 7.89300 25.70700
H  43.64300 11.21600 26.33200
H  41.41400 9.94100 34.50600
H  38.53600 9.41900 33.79400
H  39.58600 6.84200 33.73200
H  39.08200 7.73000 35.25600
H  40.71600 7.69000 34.76500
H  39.38000 11.94800 33.42000
H  40.94600 12.23700 33.82500
H  39.49400 10.73500 35.80200
H  38.57200 12.13300 35.34700
H  36.35900 5.37700 30.75000
H  34.92700 6.19300 30.00200
H  35.87800 6.96100 31.30400
H  35.26500 5.08600 28.13500
H  34.75100 5.31900 26.42000
H  34.07800 6.39100 27.60900
H  39.62000 9.99600 24.19600
H  42.52500 9.72600 24.56700
H  41.04500 7.38400 24.38800
H  41.23900 8.16200 23.01200
H  39.55000 7.55700 23.43700
H  41.19100 11.34800 23.13600
H  42.65500 11.75400 23.92000
H  40.58700 12.55500 25.78600
H  40.01400 13.25600 24.23100
H  41.61000 13.59800 24.90300
H  45.63900 13.11700 28.88200
H  45.15900 12.42400 27.30100
H  46.29800 11.49100 28.32100
H  42.84300 12.43300 33.07600
H  44.02600 10.26400 36.39200
H  44.23900 11.91100 36.99400
H  45.62900 11.16300 36.23300
Mg 9.98500 47.83700 26.01500
C  7.84200 47.94100 28.87500
C  12.39200 49.42200 27.94700
C  11.80200 48.23500 23.19600
C  7.23900 46.77900 24.06700
N  10.06300 48.73800 28.19500
C  9.13700 48.41200 29.18400
C  9.62700 49.08000 30.49800
C  11.12600 49.56500 30.21400
C  11.25400 49.29100 28.72300
C  11.26500 51.04800 30.47300
C  9.44200 48.16700 31.83200
C  10.47000 48.19600 33.00200
H  10.05000 48.55500 34.40700
N  11.86000 48.54300 25.69300
C  12.72300 49.14500 26.57100
C  13.91500 49.39500 25.85600
C  13.83200 49.11800 24.52300
C  12.41800 48.63000 24.41300
C  15.11600 49.99000 26.58700
C  14.82500 49.35500 23.51700
O  14.55600 49.18100 22.34100
C  16.21100 49.80600 23.75500
N  9.52000 47.63200 23.91100
C  10.51300 47.67200 22.92200
C  10.03100 47.02900 21.59300
C  8.66700 46.38000 22.02100
C  8.47300 46.99300 23.36500
C  9.94500 47.99800 20.37800
C  8.64200 44.77100 22.12200
C  9.61100 44.16000 23.21100
N  7.92800 47.52900 26.34000
C  6.97400 47.05900 25.44800
C  5.71900 46.82600 26.21400
C  6.02300 47.10000 27.58700
C  7.37900 47.52400 27.61500
C  4.45800 46.22400 25.61700
C  5.57400 47.11500 28.96600
O  4.52700 46.79100 29.45900
C  6.80000 47.49700 29.85100
C  7.07100 46.25600 30.60900
O  7.63100 45.27600 30.16700
O  6.66500 46.40700 31.91400
C  7.05200 45.33100 32.84000
H  13.15700 49.86600 28.58800
H  12.37700 48.37200 22.27800
H  6.40600 46.39600 23.47500
H  8.90300 49.89400 30.54700
H  11.89700 49.00700 30.74500
H  12.14700 51.31100 31.05700
H  10.36100 51.33200 31.01200
H  11.30600 51.61900 29.54500
H  9.48300 47.09900 31.61900
H  8.39100 48.40200 32.00200
H  11.30000 48.87600 32.80900
H  10.88200 47.18700 33.01100
H  15.01900 50.09500 27.66700
H  15.35400 50.93400 26.09600
H  15.95000 49.30400 26.43900
H  16.70400 49.93900 22.79200
H  16.80500 49.10800 24.34400
H  16.32100 50.80000 24.18800
H  10.64300 46.21100 21.21300
H  7.81700 46.80000 21.48300
H  10.43500 48.93400 20.64300
H  8.96000 48.11500 19.92600
H  10.62700 47.56800 19.64400
H  8.86900 44.36400 21.13700
H  7.64000 44.39200 22.32400
H  10.20000 44.97100 23.63900
H  10.17100 43.32100 22.79800
H  8.95600 43.85500 24.02700
H  4.46800 45.57700 24.74000
H  3.69000 46.98500 25.47800
H  4.26600 45.63900 26.51700
H  6.53700 48.31800 30.51900
H  7.92900 45.74500 33.33900
H  7.19500 44.39200 32.30500
H  6.24700 45.30400 33.57500

