158

Mg 25.30700 1.67000 30.66000
C  27.58500 1.73200 33.40800
C  22.68800 2.09500 32.86400
C  23.18100 1.45700 28.11000
C  27.91300 0.79900 28.60800
N  25.17600 2.04600 32.84800
C  26.23500 1.94600 33.77100
C  25.71900 2.24800 35.17700
C  24.11900 2.23000 35.02500
C  23.96100 2.03700 33.51900
C  23.45900 1.15800 35.87500
C  26.44800 3.54700 35.68500
C  27.51100 3.49300 36.76600
H  27.37900 4.30800 38.07500
N  23.22300 1.86000 30.49300
C  22.35200 2.04900 31.52600
C  21.04300 2.19300 30.99800
C  21.16200 2.06800 29.57900
C  22.56700 1.80600 29.27200
C  19.81900 2.63100 31.74900
C  20.14600 2.03100 28.51600
O  20.41800 1.99000 27.34800
C  18.67700 1.99800 28.92100
N  25.45200 0.80100 28.74300
C  24.42400 0.98100 27.86200
C  24.87000 0.77000 26.35700
C  26.44500 0.63700 26.55900
C  26.63500 0.65000 28.09400
C  24.22700 -0.35700 25.50700
C  27.12900 1.59200 25.58900
C  27.46600 3.04900 26.03500
N  27.37600 1.35800 30.79800
C  28.34200 0.97500 29.93900
C  29.63800 0.99500 30.53500
C  29.39500 1.19300 31.92100
C  27.99000 1.44000 32.09100
C  30.91100 0.68000 29.86800
C  30.06900 1.36700 33.23500
O  31.23700 1.20800 33.65000
C  28.90600 1.62400 34.24900
C  28.82200 0.44000 35.17900
O  28.18800 -0.61400 35.06600
O  29.67600 0.67600 36.20600
C  29.71500 -0.38400 37.30700
H  21.92200 2.24600 33.62700
H  22.60400 1.62300 27.19700
H  28.74700 0.67100 27.91500
H  25.97300 1.47900 35.90600
H  23.73300 3.19900 35.34400
H  22.64600 1.67400 36.38700
H  24.12200 0.70400 36.61200
H  23.03400 0.42100 35.19300
H  25.63200 4.18700 36.02100
H  26.76700 4.04100 34.76800
H  28.46900 3.76300 36.32100
H  27.64000 2.48600 37.16300
H  19.12100 1.79400 31.75800
H  19.42700 3.48400 31.19500
H  20.01500 2.75400 32.81500
H  18.53000 1.24100 29.69100
H  18.08500 1.76600 28.03600
H  18.33100 2.87500 29.46700
H  24.69700 1.72500 25.86200
H  26.86300 -0.36200 26.43500
H  24.74900 -1.31400 25.52400
H  24.15600 0.16600 24.55300
H  23.26100 -0.59100 25.95400
H  26.39100 1.71200 24.79500
H  28.05000 1.18200 25.17500
H  27.23500 3.68500 25.18100
H  28.53500 3.02500 26.24500
H  26.86600 3.28300 26.91400
H  30.79800 1.04800 28.84900
H  31.06200 -0.39900 29.89400
H  31.69600 1.19900 30.41800
H  29.23500 2.48200 34.83500
H  29.31700 0.06700 38.21600
H  30.77100 -0.54800 37.52200
H  29.34800 -1.40800 37.24600
Mg 48.64700 35.85200 27.85800
C  46.92400 34.14600 30.41400
C  49.03900 38.47000 29.98900
C  49.89700 37.66000 25.27800
C  47.65900 33.29300 25.66800
N  48.10800 36.15200 29.95800
C  47.60700 35.31800 30.88100
C  47.77400 35.89800 32.31400
C  48.03700 37.44000 32.06000
C  48.38700 37.35600 30.54700
C  46.90200 38.41100 32.43100
C  48.95200 35.22700 33.12500
C  48.68000 34.85200 34.54200
H  49.29100 35.94900 35.48400
N  49.40400 37.84000 27.72500
C  49.55400 38.75100 28.69100
C  50.31200 39.92900 28.27900
C  50.47900 39.71600 26.89600
C  49.86000 38.38600 26.51700
C  50.75900 41.06700 29.16100
C  51.29600 40.51500 25.81300
O  51.46700 40.10900 24.64800
C  51.87600 41.75700 26.22500
N  48.84000 35.38000 25.71500
C  49.46000 36.32600 24.88900
C  49.47700 35.69300 23.48000
C  48.95000 34.23100 23.65000
C  48.48100 34.30600 25.06000
C  48.63300 36.54000 22.39500
C  50.02100 33.10900 23.40500
C  49.46400 31.92500 22.57600
N  47.59500 34.05300 28.00400
C  47.25400 33.09100 27.00100
C  46.48400 32.06000 27.54100
C  46.46300 32.36200 28.92200
C  47.05500 33.60700 29.13100
C  45.84400 30.97500 26.80400
C  45.95000 31.89100 30.27700
O  45.40400 30.82600 30.64400
C  46.13500 33.16400 31.20400
C  46.62100 32.87100 32.60700
O  47.62500 32.32400 32.95200
O  45.60700 33.04300 33.41200
C  45.54700 32.30100 34.66900
H  49.43900 39.13000 30.76100
H  50.46800 38.07200 24.44300
H  47.22800 32.48400 25.07500
H  46.83600 35.80000 32.86000
H  48.98200 37.62400 32.57200
H  47.16400 39.18800 33.14800
H  46.00300 37.93900 32.82700
H  46.51900 38.87100 31.52000
H  49.76100 35.94900 33.01400
H  49.32000 34.30300 32.67800
H  49.15100 33.90600 34.80900
H  47.61200 34.93100 34.74500
H  50.43900 42.04500 28.80200
H  51.83500 41.05900 29.33800
H  50.33600 40.87200 30.14600
H  51.00300 42.35200 26.49200
H  52.38300 42.31400 25.43800
H  52.53800 41.56600 27.07000
H  50.52200 35.68000 23.16800
H  48.03700 34.04100 23.08600
H  48.05100 35.77400 21.88300
H  49.26500 37.02500 21.65100
H  48.07100 37.31100 22.92100
H  50.42900 32.66500 24.31200
H  50.85400 33.61900 22.92100
H  48.73500 32.25800 21.83700
H  48.86900 31.29500 23.23900
H  50.20700 31.26200 22.13400
H  46.53100 30.15200 26.60600
H  45.47900 31.43400 25.88500
H  44.88300 30.68300 27.22900
H  45.13900 33.57700 31.36400
H  46.08000 32.64500 35.55500
H  45.87200 31.27600 34.49000
H  44.48300 32.35900 34.89900

