158

Mg 46.32900 24.67900 29.23300
C  47.10800 27.06500 31.62300
C  45.68800 22.41300 31.78800
C  45.72500 22.38900 26.93600
C  47.29700 26.90600 26.72600
N  46.54900 24.76700 31.44200
C  46.76100 25.84400 32.16200
C  46.39700 25.60400 33.62400
C  45.97700 24.06600 33.64500
C  45.97300 23.75300 32.21400
C  46.85200 23.16200 34.44700
C  45.28000 26.55500 34.03600
C  45.51500 27.34800 35.33200
H  44.40700 27.22400 36.34500
N  45.80600 22.55700 29.32100
C  45.63600 21.81100 30.46800
C  45.22700 20.45000 30.10000
C  45.28200 20.38500 28.67600
C  45.64200 21.78200 28.21000
C  44.94900 19.47300 31.13100
C  44.87400 19.21600 27.77600
O  44.91000 19.33800 26.50500
C  44.48300 17.89800 28.35300
N  46.64400 24.66500 27.14900
C  46.22200 23.61300 26.39200
C  46.51400 23.79300 24.84900
C  46.70200 25.35900 24.79300
C  46.94200 25.64500 26.30500
C  47.75400 22.98500 24.45200
C  45.58000 26.21600 24.11800
C  44.20500 25.90900 24.69000
N  47.09800 26.69200 29.14700
C  47.36900 27.44500 28.02100
C  47.80100 28.71100 28.51400
C  47.68600 28.67100 29.91300
C  47.26800 27.37500 30.25100
C  48.40900 29.77700 27.65000
C  47.88100 29.39200 31.18600
O  48.24300 30.54100 31.36800
C  47.49900 28.42300 32.30200
C  48.68800 28.17900 33.14500
O  49.78400 27.83300 32.70000
O  48.39500 28.46300 34.48000
C  49.34900 28.07600 35.48800
H  45.48800 21.82000 32.68200
H  45.21100 21.88400 26.11600
H  47.74300 27.57000 25.98300
H  47.34600 25.67500 34.15500
H  44.97300 23.80400 33.97800
H  47.76400 23.05700 33.86000
H  46.34400 22.22000 34.65400
H  47.14000 23.61600 35.39600
H  44.33200 26.03100 34.15800
H  45.05800 27.28200 33.25500
H  45.58100 28.40800 35.08800
H  46.45000 26.99000 35.76300
H  45.56100 18.62000 30.84000
H  43.87800 19.32400 31.27100
H  45.35500 19.87000 32.06100
H  45.31900 17.61000 28.99100
H  44.29200 17.11900 27.61600
H  43.57200 17.98400 28.94600
H  45.56700 23.56600 24.35900
H  47.66700 25.51700 24.31300
H  47.65200 22.25300 23.65100
H  48.01900 22.43200 25.35300
H  48.59100 23.60300 24.12700
H  45.54100 25.95800 23.06000
H  45.74600 27.28500 24.25200
H  43.68800 25.22500 24.01700
H  43.58200 26.76500 24.95100
H  44.27000 25.33700 25.61500
H  47.80200 30.00900 26.77500
H  49.43000 29.52500 27.36100
H  48.39700 30.70700 28.21800
H  46.66600 28.86800 32.84600
H  48.87600 27.37200 36.17400
H  49.35500 28.91800 36.18000
H  50.34800 27.84500 35.12000
Mg 40.79500 40.98900 26.69900
C  40.38500 43.38000 29.18100
C  41.58000 38.71900 29.09400
C  41.58000 38.78200 24.32800
C  40.28600 43.43100 24.32900
N  41.09700 41.13400 28.90200
C  40.58300 42.09100 29.74800
C  40.57400 41.70000 31.27600
C  41.06800 40.23700 31.10300
C  41.25100 40.01300 29.56500
C  42.34500 39.96200 31.94100
C  39.11500 41.89600 31.93300
C  39.00000 41.26200 33.31300
H  39.19100 42.22600 34.48900
N  41.59700 39.02000 26.73200
C  41.83100 38.24700 27.80100
C  42.26700 36.95800 27.40200
C  42.35900 36.90700 26.01100
C  41.87100 38.30400 25.62700
C  42.58900 35.89900 28.48500
C  42.86200 35.87400 25.05500
O  42.75900 35.92600 23.77200
C  43.46500 34.66700 25.71200
N  40.85200 41.08500 24.64100
C  41.23200 40.00500 23.82600
C  41.07400 40.34700 22.30100
C  40.47100 41.85100 22.36000
C  40.49500 42.14700 23.83800
C  42.29500 40.17400 21.37400
C  39.12300 42.06100 21.58000
C  39.26400 42.15400 20.04700
N  40.37600 42.98900 26.67600
C  40.19600 43.86700 25.64000
C  40.00400 45.17800 26.12500
C  40.08000 45.03500 27.46400
C  40.28500 43.67800 27.79600
C  40.04300 46.38000 25.29700
C  39.92300 45.76100 28.70900
O  39.65900 46.91200 29.01400
C  40.06100 44.68100 29.87700
C  41.15900 45.19400 30.80800
O  42.32200 45.34400 30.47400
O  40.76600 45.45400 32.10400
C  41.76200 45.98300 33.06400
H  41.55200 38.00900 29.92400
H  41.63300 37.98600 23.58300
H  40.06000 44.15800 23.54600
H  41.26300 42.35900 31.80400
H  40.33100 39.51800 31.46100
H  42.45900 40.64300 32.78400
H  43.24300 40.11800 31.34300
H  42.24700 38.96700 32.37500
H  38.29500 41.54000 31.30900
H  38.99300 42.97200 32.06100
H  39.65100 40.41100 33.51500
H  38.02000 40.80600 33.17700
H  42.05000 35.05700 28.05200
H  42.10900 36.01700 29.45600
H  43.65700 35.68100 28.48600
H  42.69900 34.04400 26.17300
H  44.29900 35.02400 26.31700
H  43.92000 34.03400 24.95100
H  40.25900 39.74700 21.89800
H  41.16700 42.57500 21.93600
H  41.99600 39.48100 20.58800
H  43.02900 39.53800 21.86900
H  42.74400 40.99200 20.81100
H  38.58200 42.95100 21.90400
H  38.57400 41.14200 21.78700
H  38.63000 42.97300 19.70800
H  38.93300 41.23200 19.56900
H  40.25800 42.24900 19.60900
H  40.58000 47.08500 25.93300
H  39.10200 46.84100 24.99800
H  40.68400 46.28900 24.42000
H  39.15600 44.40900 30.42000
H  41.46100 45.44900 33.96500
H  41.71000 47.03800 33.33500
H  42.79600 45.75900 32.80500

