158

Mg 2.64100 -1.03900 43.89500
C  6.04800 -0.17500 43.53100
C  1.81200 1.95700 42.38800
C  -0.47700 -2.08300 43.85700
C  3.64800 -4.30000 44.88700
N  3.83900 0.66500 43.10400
C  5.19800 0.78700 42.96200
C  5.57600 2.07700 42.26800
C  4.20100 2.93000 42.37700
C  3.17000 1.83400 42.70600
C  4.19500 4.21000 43.26000
C  6.23800 1.91600 40.81700
C  6.04900 0.58900 40.14200
H  6.49900 0.58200 38.70600
N  0.88000 -0.15100 43.20000
C  0.69900 1.09000 42.61700
C  -0.70200 1.25600 42.28500
C  -1.35500 0.05400 42.65800
C  -0.33500 -0.78400 43.28600
C  -1.18700 2.51600 41.70500
C  -2.82400 -0.28100 42.23800
O  -3.50300 0.55400 41.79200
C  -3.45000 -1.70200 42.35600
N  1.71500 -2.91400 44.25800
C  0.40900 -3.08000 44.23300
C  -0.06100 -4.46500 44.71800
C  1.29400 -5.21300 44.70500
C  2.34400 -4.07200 44.58600
C  -0.75500 -4.44200 46.14300
C  1.51600 -6.17600 43.49400
C  1.89900 -7.65800 43.79100
N  4.46500 -1.99400 44.43300
C  4.69300 -3.31900 44.74100
C  6.11800 -3.56500 44.75400
C  6.72700 -2.28400 44.48900
C  5.64000 -1.44800 44.09500
C  6.87000 -4.78500 45.16300
C  7.94500 -1.59300 44.36400
O  9.07900 -1.89900 44.81500
C  7.60000 -0.26000 43.58800
C  8.36800 0.81200 44.34300
O  9.44600 1.30200 43.93900
O  7.72700 1.23000 45.46700
C  8.41000 2.33800 46.29000
H  1.56400 2.97600 42.08400
H  -1.49200 -2.48500 43.82900
H  4.11900 -5.27800 45.00900
H  6.32600 2.52200 42.92100
H  3.77600 3.23100 41.41900
H  3.84300 3.92600 44.25100
H  3.59500 5.01900 42.84300
H  5.22800 4.54000 43.36300
H  7.30900 2.11900 40.84400
H  5.74300 2.67300 40.20800
H  4.99000 0.33200 40.16900
H  6.70100 -0.15700 40.59500
H  -2.24600 2.75500 41.60800
H  -0.77200 2.69900 40.71400
H  -0.87000 3.36400 42.31300
H  -3.48900 -2.05100 43.38800
H  -2.95100 -2.49200 41.79400
H  -4.51100 -1.71600 42.10900
H  -0.73200 -4.76800 43.91500
H  1.51800 -5.75700 45.62200
H  -0.17900 -5.02200 46.86400
H  -1.78300 -4.79600 46.21600
H  -0.52200 -3.40800 46.39600
H  2.40200 -5.73600 43.03700
H  0.62400 -6.00500 42.89100
H  1.07300 -8.24200 43.38600
H  2.02100 -7.78900 44.86600
H  2.75300 -7.88000 43.15200
H  7.79800 -4.90400 44.60300
H  6.18100 -5.62700 45.10700
H  7.19200 -4.65800 46.19700
H  7.94600 -0.38200 42.56200
H  8.49000 2.14300 47.35900
H  7.78800 3.22300 46.15300
H  9.40400 2.62500 45.94800
Mg 46.58000 45.65400 44.42900
C  43.25900 45.05800 43.30700
C  47.41700 42.61100 42.98300
C  49.73400 46.48600 44.88200
C  45.58900 49.00500 44.88700
N  45.46500 44.06200 43.25700
C  44.14700 44.08900 42.91900
C  43.78400 42.86600 42.10700
C  45.04700 41.97900 42.21700
C  46.05200 42.94600 42.80400
C  44.85100 40.65500 43.00200
C  43.35400 43.13100 40.64900
C  42.14500 42.30500 40.08900
H  42.51400 41.28200 38.98600
N  48.36800 44.56300 44.17700
C  48.53900 43.36600 43.59800
C  49.88800 42.96800 43.75900
C  50.59300 44.14600 44.28900
C  49.55600 45.14800 44.51600
C  50.47200 41.54900 43.28400
C  52.07700 44.17000 44.43100
O  52.74100 43.16900 44.22900
C  52.89600 45.35900 44.81300
N  47.52100 47.46900 44.62100
C  48.84700 47.53100 44.93700
C  49.23700 49.00200 45.13100
C  47.98200 49.79300 45.17900
C  46.91800 48.72400 44.88200
C  50.16000 49.34300 46.39600
C  47.94600 51.10300 44.31500
C  47.98700 50.86100 42.70400
N  44.75900 46.78000 44.31900
C  44.52400 48.13100 44.56500
C  43.07400 48.37300 44.53500
C  42.57000 47.11100 44.12800
C  43.64800 46.17800 43.98200
C  42.31000 49.56200 44.96900
C  41.35300 46.37400 43.84800
O  40.15800 46.71800 44.01700
C  41.75900 45.01100 43.26700
C  41.12400 43.97000 44.13500
O  40.21900 43.24600 43.81600
O  41.61800 43.95400 45.43500
C  41.04500 42.92700 46.36600
H  47.62200 41.63900 42.53000
H  50.71700 46.75700 45.27100
H  45.19300 50.02100 44.95200
H  42.93500 42.45000 42.64900
H  45.37500 41.62600 41.23900
H  45.64800 40.56200 43.73900
H  44.87600 39.74900 42.39700
H  43.89500 40.49500 43.50000
H  44.26400 42.98200 40.06900
H  43.06700 44.18200 40.60800
H  41.44500 42.94000 39.54600
H  41.47200 41.88800 40.83900
H  51.39200 41.69700 42.72000
H  49.75500 40.96000 42.71100
H  50.65800 40.81900 44.07100
H  52.72900 46.24100 44.19400
H  53.96400 45.14400 44.84300
H  52.66400 45.74300 45.80600
H  49.78800 49.39300 44.27600
H  47.82000 50.13000 46.20300
H  51.20100 49.42800 46.08400
H  50.03700 48.44800 47.00600
H  49.81100 50.28300 46.82300
H  48.89900 51.56800 44.56800
H  47.09800 51.70300 44.64400
H  48.87700 51.38800 42.36200
H  47.07200 51.26600 42.27200
H  48.04700 49.79600 42.47600
H  42.54500 49.86000 45.99100
H  41.24500 49.33100 44.94800
H  42.48900 50.32500 44.21200
H  41.31900 44.89800 42.27700
H  41.63800 43.04300 47.27400
H  41.22900 41.88400 46.10900
H  40.05200 43.30000 46.62000

