158

Mg 26.20300 0.89700 28.98800
C  28.28600 0.74900 31.98600
C  23.48700 0.70200 31.24600
C  24.34600 0.93300 26.44300
C  29.02600 0.26900 27.11500
N  26.01900 0.80100 31.34900
C  26.93700 0.90900 32.31000
C  26.38100 0.98300 33.74700
C  24.81600 0.87700 33.48300
C  24.72000 0.91300 31.94800
C  24.04400 -0.32300 34.24200
C  26.83000 2.16300 34.60000
C  27.38400 1.93300 35.97100
H  27.05800 2.89100 37.13900
N  24.19200 0.86400 28.83400
C  23.22000 0.78200 29.87000
C  21.96700 1.02000 29.24900
C  22.13900 1.10200 27.84100
C  23.57600 0.91000 27.62800
C  20.66800 1.17900 30.00600
C  21.05300 1.44100 26.70100
O  21.42100 1.25500 25.57600
C  19.61700 1.76800 26.96500
N  26.65700 0.52400 27.09300
C  25.70400 0.72300 26.16200
C  26.27500 0.83700 24.73200
C  27.74000 0.51700 24.91800
C  27.84400 0.40600 26.45500
C  25.64800 -0.09800 23.61600
C  28.73900 1.55500 24.36100
C  28.76400 1.63000 22.88500
N  28.29700 0.55000 29.38000
C  29.30300 0.23800 28.50100
C  30.51400 0.13800 29.21500
C  30.25000 0.35100 30.56100
C  28.85700 0.64000 30.64000
C  31.79900 -0.25300 28.73900
C  30.79600 0.48000 31.91800
O  31.94900 0.31500 32.29200
C  29.53000 0.69800 32.93100
C  29.39500 -0.33400 33.96800
O  28.91800 -1.44000 33.85800
O  29.95100 0.08400 35.15800
C  29.97100 -0.81800 36.37400
H  22.59900 0.64300 31.87900
H  23.68800 0.94900 25.57200
H  29.90600 0.14600 26.48100
H  26.70500 0.13700 34.35400
H  24.30400 1.75200 33.88100
H  22.98500 -0.06900 34.27800
H  24.49000 -0.45500 35.22800
H  24.05100 -1.30400 33.76500
H  25.99000 2.82700 34.80200
H  27.53000 2.78300 34.04100
H  28.45500 1.74100 35.90400
H  26.91800 0.98000 36.22100
H  19.97200 0.37300 29.77300
H  20.20700 2.09300 29.63100
H  20.63800 1.34800 31.08300
H  19.46800 2.66200 27.57000
H  19.16300 0.86800 27.38000
H  19.10400 1.96400 26.02300
H  26.18900 1.88000 24.42600
H  27.95500 -0.45600 24.47700
H  24.96000 -0.69500 24.21500
H  26.32400 -0.83800 23.19000
H  25.07100 0.46800 22.88400
H  29.76700 1.39600 24.68700
H  28.45100 2.56600 24.65100
H  28.40000 2.59900 22.54600
H  28.13200 0.88300 22.40500
H  29.76700 1.42400 22.50900
H  31.68800 -1.32900 28.60400
H  32.56400 0.02800 29.46300
H  32.19600 0.22700 27.84500
H  29.67300 1.65100 33.44100
H  29.41000 -0.35100 37.18300
H  31.01200 -0.94900 36.67100
H  29.53200 -1.78800 36.13800
Mg 5.88500 54.52500 40.99100
C  5.54000 50.98100 40.95300
C  9.12500 53.97200 39.75200
C  6.32800 57.80100 40.44700
C  2.63000 54.85000 41.68000
N  7.06700 52.73300 40.14300
C  6.71800 51.38600 40.31600
C  7.91400 50.44600 39.95000
C  9.10300 51.50500 40.05800
C  8.39700 52.82100 39.96200
C  10.18100 51.22200 41.19100
C  7.68700 49.80100 38.53600
C  8.18000 50.62200 37.29200
H  7.44100 50.33400 35.97100
N  7.40800 55.69900 40.03500
C  8.69800 55.26500 39.66900
C  9.48900 56.38300 39.20700
C  8.69300 57.50800 39.49400
C  7.36400 57.03000 39.98900
C  10.97900 56.39900 38.79400
C  9.11900 59.02000 39.39400
O  10.23200 59.31500 38.94700
C  8.12500 60.19500 39.65900
N  4.63300 56.12500 40.94100
C  5.05800 57.35800 40.95000
C  4.10500 58.28400 41.79900
C  2.86500 57.39000 41.96500
C  3.37300 56.05800 41.48600
C  4.74600 58.73600 43.16000
C  1.61100 57.99400 41.29900
C  0.26300 57.49300 41.79600
N  4.32000 53.19700 41.22300
C  3.05400 53.52500 41.61500
C  2.39000 52.24800 42.00100
C  3.38900 51.21000 41.84200
C  4.47900 51.89500 41.33500
C  0.96100 52.18400 42.40500
C  3.63700 49.81100 41.94500
O  2.93700 48.89200 42.33300
C  5.07000 49.55600 41.29000
C  4.86300 48.70000 40.10800
O  4.25000 48.95900 39.06800
O  5.45200 47.47100 40.37300
C  5.38900 46.51500 39.27900
H  10.16300 53.77200 39.47700
H  6.36400 58.86500 40.69300
H  1.61300 55.09700 41.99200
H  7.98000 49.68500 40.72700
H  9.75500 51.51900 39.18400
H  11.14900 51.00700 40.73900
H  9.81900 50.40100 41.80900
H  10.47700 52.04600 41.84000
H  6.60600 49.88000 38.42100
H  7.93000 48.74200 38.61700
H  9.25500 50.51600 37.14400
H  7.97200 51.67300 37.49500
H  11.38100 55.42700 38.50700
H  11.47300 56.71100 39.71400
H  10.96500 56.99900 37.88300
H  8.62500 61.09900 39.31200
H  7.93300 60.35100 40.72100
H  7.20100 59.96500 39.12900
H  3.93700 59.21200 41.25200
H  2.60000 57.24600 43.01200
H  5.66700 58.22700 43.44300
H  3.95800 58.61300 43.90300
H  5.00300 59.79500 43.12400
H  1.73100 57.94800 40.21700
H  1.63700 59.03200 41.63100
H  -0.40100 58.28400 42.14500
H  0.37000 56.77300 42.60800
H  -0.27100 56.99300 40.98800
H  0.98100 52.37000 43.47900
H  0.61200 51.17300 42.19300
H  0.29500 52.87600 41.89100
H  5.82800 49.17600 41.97500
H  5.60200 45.57700 39.79300
H  6.05100 46.74900 38.44600
H  4.33900 46.43900 38.99900

