158

Mg 41.01900 7.80200 29.33700
C  42.79600 9.22600 31.94200
C  38.76400 6.48600 31.73000
C  39.58300 5.96000 26.86800
C  43.69700 8.53900 27.16900
N  40.81900 7.79400 31.57100
C  41.60600 8.61600 32.39100
C  41.09400 8.56400 33.92100
C  39.82000 7.61500 33.81900
C  39.77900 7.25500 32.26200
C  40.01000 6.36400 34.72600
C  40.80300 10.02000 34.47100
C  40.10600 10.05600 35.86500
H  40.42900 11.24300 36.80400
N  39.34000 6.54600 29.27300
C  38.52500 6.14800 30.36900
C  37.38900 5.42000 29.83000
C  37.62200 5.24200 28.40700
C  38.89300 5.93200 28.10300
C  36.17000 5.09800 30.63800
C  36.63700 4.64400 27.38200
O  36.78000 4.56500 26.16300
C  35.31500 4.12700 27.86700
N  41.63200 7.21200 27.24500
C  40.73900 6.59200 26.44100
C  41.28500 6.43400 25.04900
C  42.61600 7.28200 25.07100
C  42.68100 7.73500 26.52300
C  41.34600 5.02900 24.51800
C  42.61200 8.42600 24.05600
C  41.59200 9.59700 24.28500
N  42.89700 8.58300 29.48600
C  43.80100 8.92000 28.51000
C  44.89300 9.65200 29.14700
C  44.56200 9.78900 30.44900
C  43.31600 9.13800 30.60800
C  46.19100 10.29300 28.40900
C  44.91700 10.36100 31.69000
O  45.90300 11.10100 31.90300
C  43.85300 9.95400 32.76700
C  44.34800 9.10300 33.81400
O  44.59700 7.93400 33.76600
O  44.34600 9.79100 35.03100
C  44.91400 9.05300 36.20700
H  38.10600 6.05000 32.48400
H  39.13700 5.39300 26.04800
H  44.52500 8.82800 26.51800
H  41.86400 8.23700 34.62000
H  38.93900 8.11400 34.22200
H  40.99100 6.39500 35.20000
H  39.92700 5.40400 34.21700
H  39.19400 6.30400 35.44700
H  40.16800 10.49200 33.72200
H  41.68700 10.65100 34.56500
H  40.27000 9.13400 36.42300
H  39.03700 10.08600 35.65100
H  36.11300 4.05100 30.93700
H  35.18900 5.28500 30.20100
H  36.19400 5.61100 31.59900
H  35.36400 3.36500 28.64500
H  34.83400 3.57200 27.06200
H  34.66700 4.99300 28.00400
H  40.50100 6.91800 24.46700
H  43.47700 6.65200 24.84700
H  41.80900 5.13800 23.53800
H  40.38800 4.58600 24.24700
H  41.94500 4.24400 24.98000
H  42.40600 7.93600 23.10400
H  43.61500 8.76500 23.79500
H  41.29800 9.71800 25.32800
H  40.73600 9.54100 23.61200
H  42.01600 10.58000 24.08400
H  46.88100 9.46300 28.25300
H  46.58500 11.08500 29.04500
H  45.84400 10.72500 27.47000
H  43.54800 10.92700 33.15100
H  44.47200 8.06400 36.32200
H  44.60500 9.47800 37.16200
H  46.00300 8.99900 36.23000
Mg -0.72600 34.58700 26.73500
C  -2.58600 32.86900 29.28900
C  0.26100 36.78000 29.24100
C  0.41000 36.62400 24.41600
C  -2.48100 32.64500 24.42800
N  -0.98700 34.62800 28.98500
C  -1.74800 33.83500 29.77100
C  -1.57600 34.06900 31.23100
C  -0.74900 35.41200 31.29700
C  -0.36200 35.59200 29.81100
C  -1.31800 36.61200 31.97000
C  -0.79400 32.87200 31.97100
C  -1.29900 32.49500 33.28200
H  -0.19400 32.25400 34.43000
N  0.32000 36.42700 26.77300
C  0.64700 37.11100 27.90200
C  1.45300 38.30200 27.46300
C  1.46800 38.32400 26.06500
C  0.77600 37.05200 25.71500
C  2.03000 39.19400 28.54000
C  2.05200 39.37500 25.04700
O  2.10800 39.22800 23.88200
C  2.50400 40.60000 25.63300
N  -1.33000 34.83400 24.65800
C  -0.50900 35.66400 23.91600
C  -0.64200 35.35300 22.38400
C  -1.19300 33.88900 22.51600
C  -1.76500 33.75200 23.95600
C  -1.49000 36.31900 21.58600
C  -0.24700 32.69000 22.08600
C  0.73500 32.07600 23.17400
N  -2.23900 33.17600 26.76000
C  -2.76400 32.39800 25.75700
C  -3.56900 31.31100 26.26300
C  -3.55900 31.51900 27.66100
C  -2.72400 32.61300 27.90700
C  -4.43900 30.28400 25.56000
C  -4.13200 31.01200 28.86300
O  -4.93000 30.15500 29.11000
C  -3.43100 31.84600 30.01600
C  -4.55400 32.37200 30.79400
O  -5.18000 33.40200 30.54100
O  -4.85300 31.50000 31.84900
C  -5.77500 32.06100 32.90800
H  0.58600 37.50800 29.98700
H  0.84400 37.15700 23.56800
H  -2.81300 32.02400 23.59300
H  -2.50600 34.23700 31.77400
H  0.18000 35.34400 31.86300
H  -2.04400 36.41000 32.75700
H  -1.79800 37.34100 31.31600
H  -0.48500 37.09000 32.48600
H  0.25600 33.13700 32.09400
H  -0.75600 31.96500 31.36800
H  -1.68500 31.49500 33.08600
H  -2.05300 33.18600 33.65800
H  2.54100 40.08600 28.17700
H  2.74500 38.68000 29.18300
H  1.23600 39.70800 29.08200
H  3.47800 40.39300 26.07700
H  1.87800 41.07700 26.38700
H  2.59300 41.29700 24.80000
H  0.38300 35.48600 22.03600
H  -2.02900 33.78300 21.82500
H  -1.92800 37.06600 22.24900
H  -2.32900 35.77900 21.14800
H  -1.00900 36.83900 20.75700
H  0.28100 33.20500 21.28300
H  -0.78300 31.87700 21.59700
H  0.47800 32.48600 24.15100
H  1.79200 32.26800 22.99000
H  0.63300 30.99400 23.26100
H  -5.45000 30.67100 25.68500
H  -4.36300 29.29200 26.00500
H  -4.20700 30.28800 24.49500
H  -2.98200 31.13000 30.70500
H  -6.64900 32.60400 32.54700
H  -5.09700 32.68000 33.49400
H  -6.06600 31.23900 33.56200

