158

Mg 23.25300 -5.32400 45.50000
C  25.34300 -2.99800 44.01400
C  20.71000 -4.28300 43.69300
C  21.65700 -8.25700 46.14300
C  26.31100 -6.79600 47.06200
N  23.15300 -3.97000 43.97400
C  24.06100 -3.04900 43.60700
C  23.47900 -2.06200 42.62900
C  21.96500 -2.12300 42.96500
C  21.90600 -3.59800 43.53600
C  21.47200 -1.02600 43.97900
C  23.80100 -2.32000 41.09600
C  24.80300 -1.26900 40.48800
H  25.88700 -1.79100 39.49200
N  21.41200 -6.07500 45.05700
C  20.45000 -5.45700 44.32000
C  19.28700 -6.32900 44.16600
C  19.51900 -7.50300 44.95000
C  20.92600 -7.32500 45.42200
C  17.99300 -5.79500 43.36700
C  18.51900 -8.67600 45.27900
O  17.36200 -8.57600 44.78100
C  18.79100 -9.89600 46.12300
N  23.91800 -7.19100 46.52200
C  22.96200 -8.16600 46.69900
C  23.57800 -9.35600 47.53200
C  24.97800 -8.71700 48.00900
C  25.09000 -7.55200 47.21100
C  22.62000 -9.87300 48.62500
C  26.17400 -9.72700 47.87500
C  27.21200 -9.66300 48.96200
N  25.43800 -4.95800 45.63400
C  26.48900 -5.58900 46.23800
C  27.71500 -4.78300 46.10900
C  27.31000 -3.77800 45.18200
C  25.94900 -3.93500 44.97400
C  29.09400 -5.08200 46.69300
C  27.77400 -2.64600 44.33300
O  28.93100 -2.26900 44.11900
C  26.53400 -2.22800 43.56800
C  26.37200 -0.79600 43.92300
O  26.67000 0.13900 43.15200
O  25.77300 -0.66400 45.19200
C  25.70900 0.73700 45.58900
H  19.86300 -3.70100 43.32300
H  21.10700 -9.12000 46.52500
H  27.24800 -7.19800 47.45500
H  23.92200 -1.12500 42.96800
H  21.47200 -1.99700 42.00100
H  22.15900 -0.23800 44.28700
H  21.39100 -1.63500 44.87900
H  20.53700 -0.57000 43.65400
H  22.93100 -2.25400 40.44300
H  24.30200 -3.27300 40.92800
H  25.25200 -0.75700 41.34000
H  24.32000 -0.46600 39.93200
H  17.99200 -5.93900 42.28700
H  17.89300 -4.71900 43.51500
H  17.10200 -6.22400 43.82500
H  19.70600 -10.39400 45.80100
H  17.96500 -10.55100 45.84800
H  18.83100 -9.75200 47.20300
H  23.85600 -10.12100 46.80700
H  24.99200 -8.28000 49.00700
H  21.64500 -9.38600 48.66400
H  23.17700 -9.85000 49.56200
H  22.36400 -10.90400 48.38100
H  26.76800 -9.42600 47.01200
H  25.82700 -10.75900 47.81600
H  26.87500 -9.10600 49.83500
H  28.21700 -9.39200 48.64100
H  27.34400 -10.69400 49.29100
H  29.19700 -6.14300 46.91900
H  29.35200 -4.51300 47.58600
H  29.79100 -4.87100 45.88200
H  26.85600 -2.36100 42.53600
H  24.94600 0.89700 46.35100
H  25.41400 1.37600 44.75700
H  26.72200 0.87800 45.96500
Mg 25.93100 1.17800 29.84000
C  27.94600 0.88200 32.83400
C  23.23700 1.38600 31.85000
C  24.08600 1.05000 27.09400
C  28.73400 0.36100 28.00500
N  25.71200 1.24500 32.13500
C  26.62700 1.05100 33.14800
C  25.97100 1.14200 34.57500
C  24.47000 1.23900 34.15600
C  24.38700 1.17200 32.62100
C  23.55300 0.17200 34.84200
C  26.56000 2.31400 35.44800
C  26.74600 1.93500 36.94700
H  26.49700 3.10600 37.84200
N  23.89100 1.32100 29.54800
C  22.93300 1.37600 30.52500
C  21.61300 1.53800 29.93600
C  21.84300 1.37100 28.54200
C  23.33500 1.24600 28.32900
C  20.44900 1.74400 30.83000
C  20.82400 1.29100 27.42600
O  21.26500 1.02300 26.27700
C  19.41600 1.61100 27.66400
N  26.28100 0.65700 27.89900
C  25.37500 0.84600 26.88400
C  25.99700 0.62700 25.48600
C  27.52100 0.55500 25.85200
C  27.50500 0.53900 27.39500
C  25.51400 -0.73200 24.84600
C  28.41200 1.76600 25.39200
C  29.82900 1.32800 25.02700
N  27.92200 0.76200 30.28700
C  28.94400 0.45200 29.41900
C  30.15800 0.18500 30.13000
C  29.77500 0.38000 31.44300
C  28.43000 0.73300 31.51800
C  31.47500 -0.24700 29.67100
C  30.28000 0.30600 32.79500
O  31.43100 -0.04700 33.17500
C  29.08800 0.76400 33.70700
C  28.94700 -0.35000 34.68700
O  28.47200 -1.44800 34.47300
O  29.39000 0.07400 35.94200
C  29.25400 -1.02400 36.94600
H  22.34600 1.32300 32.47900
H  23.52900 0.98500 26.15700
H  29.58900 0.12500 27.36900
H  26.20200 0.21000 35.09100
H  24.06700 2.22900 34.37100
H  22.86500 -0.29300 34.13600
H  22.93100 0.65700 35.59400
H  24.17800 -0.60000 35.28900
H  25.74200 3.03400 35.49100
H  27.37700 2.86900 34.98800
H  27.79500 1.69300 37.11400
H  26.18100 1.02900 37.16900
H  20.64000 2.53300 31.55700
H  20.17500 0.87500 31.42900
H  19.52200 2.00800 30.32100
H  19.02900 0.85500 28.34700
H  18.94400 1.53200 26.68500
H  19.23200 2.61800 28.03900
H  25.86700 1.45800 24.79300
H  27.94700 -0.41800 25.60900
H  24.77200 -1.22300 25.47600
H  26.26800 -1.50700 24.70800
H  25.15400 -0.60600 23.82500
H  28.64400 2.49900 26.16600
H  27.85600 2.35100 24.65900
H  29.97800 1.48200 23.95900
H  30.05500 0.30200 25.31700
H  30.49800 1.98500 25.58500
H  32.07500 -0.18600 30.57900
H  31.90000 0.41100 28.91300
H  31.42500 -1.28900 29.35600
H  29.13400 1.72300 34.22200
H  29.75800 -0.62700 37.82700
H  29.73500 -1.92200 36.55800
H  28.22700 -1.27600 37.21100

