158

Mg -1.58000 17.30300 27.07600
C  -2.11300 15.22600 29.90700
C  -2.24800 19.95500 29.04200
C  -1.61100 19.08700 24.27000
C  -1.54700 14.26800 25.03600
N  -2.00600 17.51000 29.30900
C  -2.18900 16.57900 30.30900
C  -2.55000 17.23600 31.60800
C  -2.84100 18.72000 31.26200
C  -2.33300 18.77100 29.76900
C  -4.30300 19.12200 31.41300
C  -1.44100 16.92400 32.69100
C  -1.96400 16.36500 33.97800
H  -0.95400 16.08100 35.09900
N  -1.88500 19.20800 26.70900
C  -2.06000 20.23500 27.65400
C  -2.06800 21.50300 27.01300
C  -1.85800 21.25000 25.66100
C  -1.74000 19.82300 25.49600
C  -2.41200 22.79400 27.73700
C  -1.58000 22.28100 24.52400
O  -1.40300 21.91800 23.33700
C  -1.47600 23.88400 24.72400
N  -1.42000 16.69600 24.91200
C  -1.46500 17.71500 24.01700
C  -1.50900 17.07400 22.56000
C  -1.11800 15.58200 22.79500
C  -1.46400 15.46700 24.30200
C  -2.90000 17.27600 21.81600
C  0.33600 15.18300 22.52700
C  1.48500 16.24400 22.62300
N  -1.76400 15.23800 27.31500
C  -1.63000 14.13600 26.45900
C  -1.95700 12.94000 27.11500
C  -1.98700 13.27300 28.48600
C  -1.92500 14.67400 28.57400
C  -1.87800 11.59500 26.50700
C  -2.08500 12.72300 29.77600
O  -2.16400 11.52400 30.13200
C  -2.09200 13.91900 30.70200
C  -0.80800 13.69400 31.44300
O  0.30700 13.92700 31.00400
O  -1.01100 13.20500 32.73500
C  0.23700 13.17800 33.51100
H  -2.48000 20.83000 29.65400
H  -1.73000 19.60800 23.31700
H  -1.50000 13.29100 24.55000
H  -3.49800 16.80800 31.93200
H  -2.31700 19.37900 31.95300
H  -5.04100 18.45600 31.85800
H  -4.81000 19.21700 30.45300
H  -4.22600 19.99100 32.06700
H  -0.92500 17.86900 32.85700
H  -0.68300 16.30000 32.21800
H  -2.61400 15.50200 33.83400
H  -2.56100 17.18200 34.38100
H  -2.52100 22.66600 28.81400
H  -3.31500 23.23400 27.31400
H  -1.51200 23.38600 27.57600
H  -0.44800 24.17400 24.94200
H  -2.10900 24.28200 25.51600
H  -1.73200 24.27100 23.73800
H  -0.82400 17.64800 21.93700
H  -1.63400 15.05700 21.99100
H  -3.21500 16.38500 21.27300
H  -2.73400 18.00500 21.02300
H  -3.70500 17.74100 22.38600
H  0.31400 14.87300 21.48200
H  0.62400 14.34900 23.16700
H  1.00300 17.17200 22.93300
H  1.73300 16.51800 21.59800
H  2.35100 15.87400 23.17300
H  -0.84200 11.59200 26.16900
H  -2.55300 11.40900 25.67200
H  -2.12000 10.85600 27.27100
H  -2.91500 13.97000 31.41400
H  0.88100 14.02100 33.25900
H  0.81900 12.26100 33.41800
H  -0.10200 13.13600 34.54600
Mg 16.73400 51.68100 26.27400
C  18.79700 50.06900 28.43600
C  14.82200 52.55600 29.02700
C  14.69700 53.34600 24.16200
C  18.72000 50.59900 23.49100
N  16.97800 51.53200 28.51100
C  17.94500 50.82100 29.16800
C  17.78600 50.85300 30.68200
C  16.26600 51.28100 30.73100
C  15.97500 51.83800 29.33800
C  15.26200 50.18100 31.21600
C  18.74500 51.91200 31.28000
C  19.02800 51.76300 32.81300
H  18.19500 50.92500 33.74000
N  14.88900 52.66100 26.55700
C  14.31600 53.00200 27.76600
C  13.23100 53.76700 27.49200
C  13.09800 53.93900 26.07700
C  14.24900 53.26500 25.51500
C  12.19800 54.17800 28.56200
C  11.94500 54.61700 25.30600
O  11.84000 54.63500 24.11200
C  10.98800 55.44800 25.98900
N  16.79200 51.93600 24.16200
C  15.84100 52.67900 23.58100
C  16.00100 52.75900 22.01900
C  17.41100 52.04600 21.82800
C  17.69700 51.56100 23.24600
C  14.92500 52.00300 21.15600
C  18.44500 53.10000 21.40200
C  18.45500 53.46700 19.85000
N  18.43800 50.56300 25.97000
C  19.03700 50.08000 24.76200
C  19.95900 49.05700 25.06100
C  19.89400 48.98800 26.52400
C  19.03400 50.01000 27.02300
C  20.82600 48.35300 24.06300
C  20.49800 48.44400 27.69900
O  21.36500 47.60500 27.83400
C  19.78200 49.11200 29.03400
C  19.10200 48.10500 29.84000
O  18.02500 47.63400 29.57800
O  19.97200 47.76200 30.84600
C  19.38300 46.80700 31.83700
H  14.19400 52.76700 29.89600
H  14.00900 53.77900 23.43300
H  19.26600 50.21300 22.62800
H  18.02300 49.93300 31.21500
H  16.20100 52.08600 31.46300
H  14.54700 49.87900 30.45100
H  14.68500 50.59200 32.04400
H  15.87900 49.30800 31.43000
H  18.35500 52.91700 31.11700
H  19.72700 51.85700 30.81200
H  19.05500 52.73600 33.30400
H  20.08000 51.48700 32.88900
H  11.17400 53.86500 28.35600
H  12.29100 55.25200 28.72700
H  12.49400 53.69600 29.49400
H  10.76200 56.32400 25.38000
H  11.49300 55.87600 26.85500
H  10.11500 54.83300 26.20500
H  15.94100 53.80500 21.71900
H  17.44600 51.41500 20.93900
H  14.28300 51.46000 21.84800
H  15.45200 51.26400 20.55200
H  14.43400 52.80000 20.59800
H  19.45100 52.74500 21.62400
H  18.28600 53.97300 22.03600
H  19.47200 53.20000 19.56300
H  18.37300 54.53500 19.64700
H  17.67200 52.98000 19.27000
H  21.35700 47.55700 24.58500
H  21.46500 49.10500 23.60000
H  20.09000 47.93300 23.37600
H  20.57300 49.59000 29.61300
H  18.42900 46.34200 31.58700
H  19.38800 47.42500 32.73600
H  20.11500 46.00800 31.95000

