158

Mg 0.08400 7.88200 26.02000
C  0.50900 9.99100 28.88400
C  0.14600 5.24500 28.11700
C  -0.65600 5.95200 23.34700
C  0.31800 10.68400 24.03200
N  0.30800 7.75000 28.26000
C  0.27500 8.67000 29.21100
C  0.36100 8.00100 30.66200
C  0.63600 6.50300 30.32200
C  0.38200 6.47600 28.79300
C  1.98700 5.98800 30.70900
C  -0.97400 8.35600 31.40000
C  -1.12200 7.93900 32.87900
H  0.04300 7.11600 33.47200
N  -0.32300 5.86600 25.73500
C  -0.24900 4.92500 26.72700
C  -0.41600 3.57900 26.20700
C  -0.64600 3.76200 24.85700
C  -0.54700 5.23100 24.56200
C  -0.34400 2.33300 26.94300
C  -0.94800 2.80100 23.75800
O  -1.19200 3.14500 22.63700
C  -0.75800 1.34200 24.05400
N  -0.07800 8.25200 24.03000
C  -0.51900 7.31200 23.10100
C  -0.77100 7.91000 21.71200
C  -0.67000 9.48800 21.98800
C  -0.09900 9.48900 23.41900
C  0.16700 7.29900 20.66200
C  -2.04900 10.16800 21.96400
C  -2.13400 11.57700 21.60100
N  0.47800 9.94900 26.29500
C  0.56900 10.93000 25.39000
C  0.77400 12.21500 26.01200
C  0.84300 11.83100 27.40000
C  0.54000 10.53600 27.52300
C  0.94600 13.60800 25.37200
C  1.02400 12.34900 28.75400
O  1.23500 13.48800 29.12300
C  0.67700 11.14300 29.75900
C  1.91200 11.02300 30.59800
O  3.07200 10.98800 30.23100
O  1.63800 10.86600 31.89700
C  2.70900 10.77800 32.85000
H  0.21500 4.40600 28.81300
H  -0.95700 5.35200 22.48600
H  0.21500 11.59100 23.43200
H  1.21000 8.48500 31.14600
H  -0.11400 5.99000 30.92400
H  2.28100 5.16600 30.05600
H  2.05300 5.35200 31.59300
H  2.80200 6.70100 30.58700
H  -1.80600 7.93100 30.83700
H  -1.09100 9.43900 31.39000
H  -2.04700 7.36900 32.96000
H  -1.23100 8.85600 33.45900
H  -1.27000 1.78100 26.77900
H  -0.22500 2.32500 28.02700
H  0.48300 1.69900 26.62200
H  -0.74500 0.74800 23.14000
H  -1.56400 1.01400 24.71100
H  0.25700 1.22700 24.43500
H  -1.79100 7.61300 21.47000
H  0.01400 9.98900 21.30300
H  -0.32500 6.45700 20.17400
H  1.16900 7.09900 21.04000
H  0.34800 8.04200 19.88500
H  -2.53200 10.01200 22.92900
H  -2.73600 9.68200 21.27100
H  -2.53800 11.73200 20.60100
H  -1.16300 12.07200 21.62400
H  -2.80800 12.07400 22.29800
H  2.01500 13.77600 25.23700
H  0.67200 14.27300 26.19100
H  0.38100 13.88700 24.48300
H  -0.25200 11.24800 30.31900
H  2.60800 11.58500 33.57500
H  3.69900 10.79200 32.39500
H  2.67600 9.90400 33.50100
Mg 6.39700 53.81000 42.00700
C  3.92900 51.46200 41.69300
C  8.64300 51.49000 40.62400
C  8.67900 56.28300 41.66600
C  4.09400 56.06600 42.94200
N  6.21800 51.81500 41.06700
C  5.10000 51.04100 41.04600
C  5.32100 49.76000 40.20200
C  6.90700 49.59100 40.36400
C  7.33200 51.05800 40.64900
C  7.52700 48.47800 41.35100
C  4.90300 49.78400 38.74800
C  4.09300 48.51100 38.25400
H  4.56700 47.83100 37.01600
N  8.38800 53.91100 41.41200
C  9.08700 52.79700 40.93200
C  10.41800 53.21300 40.74600
C  10.44900 54.64600 40.77100
C  9.15100 55.03700 41.23500
C  11.45900 52.26100 40.24200
C  11.69500 55.49100 40.27300
O  12.64200 54.91000 39.73600
C  11.60200 57.01800 40.31400
N  6.39300 55.93400 42.17600
C  7.45800 56.72100 42.10500
C  7.16300 58.25300 42.44400
C  5.62500 58.13400 42.68200
C  5.34100 56.66900 42.63700
C  8.01200 58.83600 43.61900
C  4.79700 58.91300 41.66100
C  4.37700 60.31900 42.20500
N  4.37300 53.82400 42.25300
C  3.56200 54.79900 42.81600
C  2.24500 54.26900 43.04300
C  2.43900 52.91900 42.68400
C  3.67800 52.73500 42.16800
C  1.02100 55.03800 43.56700
C  1.76700 51.63500 42.65400
O  0.66000 51.35600 43.03900
C  2.76000 50.55300 42.17600
C  2.22700 49.66700 41.12900
O  1.70100 50.04600 40.05900
O  2.40300 48.33600 41.40400
C  1.62100 47.30600 40.59500
H  9.32200 50.69100 40.31800
H  9.35000 57.12900 41.50200
H  3.39700 56.78300 43.38100
H  4.82500 48.92100 40.69100
H  7.30500 49.29100 39.39400
H  8.10500 47.79900 40.72500
H  6.82300 47.76200 41.77500
H  8.22200 48.89300 42.08100
H  5.72300 49.89600 38.03900
H  4.24400 50.65200 38.70800
H  3.07500 48.86800 38.09600
H  4.16400 47.67800 38.95300
H  11.95100 52.63100 39.34200
H  11.19100 51.20500 40.20300
H  12.20200 52.38200 41.03000
H  10.70300 57.44200 39.86800
H  12.46700 57.45400 39.81500
H  11.68200 57.35700 41.34700
H  7.47900 58.90000 41.62600
H  5.39400 58.37600 43.71900
H  7.37400 59.03300 44.48000
H  8.53900 59.77600 43.45400
H  8.71300 58.06600 43.94100
H  3.87700 58.35700 41.48000
H  5.33000 58.95300 40.71100
H  4.66000 60.65400 43.20200
H  3.29200 60.22900 42.15200
H  4.67100 61.16000 41.57600
H  0.52300 54.50300 44.37600
H  0.19800 54.83700 42.88000
H  1.22200 56.08800 43.77900
H  3.13700 49.95300 43.00400
H  0.68600 47.05300 41.09500
H  2.20500 46.38900 40.51500
H  1.30900 47.60400 39.59500

