158

Mg 23.50200 -5.48100 45.86000
C  25.92500 -3.61600 44.11800
C  21.24100 -4.56500 43.42700
C  21.48000 -8.05800 46.88100
C  26.20100 -7.00600 47.69100
N  23.57900 -4.26400 44.01300
C  24.61900 -3.52100 43.54200
C  24.22200 -2.66100 42.36000
C  22.61000 -2.74600 42.54300
C  22.51700 -4.00600 43.34200
C  22.03000 -1.50200 43.25800
C  24.77600 -3.33300 41.07600
C  25.53400 -2.42100 40.02200
H  25.01900 -2.46300 38.58600
N  21.56700 -6.07700 45.30400
C  20.76100 -5.60500 44.24600
C  19.60500 -6.37800 44.19600
C  19.58700 -7.30900 45.27700
C  20.92400 -7.19700 45.87800
C  18.51200 -6.16400 43.13400
C  18.51300 -8.23300 45.65700
O  17.43000 -8.09200 45.09500
C  18.57400 -9.34200 46.73400
N  23.87300 -7.42400 46.90200
C  22.79000 -8.15700 47.29300
C  23.33600 -9.25500 48.28500
C  24.74700 -8.76100 48.71000
C  24.97800 -7.58600 47.74900
C  22.50500 -9.60100 49.52000
C  25.78600 -9.91700 48.67600
C  26.25100 -10.30200 47.23900
N  25.64600 -5.28500 46.04800
C  26.53600 -5.92400 46.88800
C  27.83900 -5.28600 46.60800
C  27.61600 -4.28700 45.61800
C  26.30200 -4.44300 45.25000
C  29.17300 -5.67000 47.35800
C  28.20100 -3.26900 44.83700
O  29.33400 -3.02200 44.82000
C  27.12300 -2.85700 43.72700
C  26.94600 -1.41000 43.99200
O  26.59500 -0.93500 45.09600
O  27.34200 -0.69500 42.92300
C  27.19700 0.75800 43.11800
H  20.46700 -4.18800 42.75700
H  20.92700 -8.87600 47.34800
H  26.90000 -7.37900 48.44300
H  24.69400 -1.69500 42.53800
H  22.08700 -2.89300 41.59700
H  22.77100 -0.89900 43.78400
H  21.22700 -1.78300 43.94000
H  21.48100 -0.81000 42.62000
H  24.00500 -3.80000 40.46200
H  25.31900 -4.25400 41.28900
H  26.58300 -2.71800 40.04400
H  25.54400 -1.39500 40.38900
H  18.02600 -7.11100 42.90200
H  19.09900 -5.88800 42.25800
H  17.86800 -5.30700 43.33400
H  17.74200 -10.00400 46.49400
H  18.54200 -8.84100 47.70100
H  19.46700 -9.95400 46.60800
H  23.50300 -10.17000 47.71600
H  24.75700 -8.34800 49.71900
H  21.76500 -8.83700 49.75800
H  23.07900 -9.72200 50.43900
H  21.96800 -10.51100 49.25400
H  25.44100 -10.83100 49.16000
H  26.72300 -9.64600 49.16200
H  27.27700 -9.96500 47.09000
H  25.68300 -9.73400 46.50200
H  26.11200 -11.37500 47.10000
H  29.95000 -6.01300 46.67500
H  28.93200 -6.51300 48.00600
H  29.42200 -4.77200 47.92300
H  27.45100 -3.08100 42.71200
H  26.22400 1.04100 43.52100
H  27.51700 1.49500 42.38100
H  27.97200 1.00400 43.84300
Mg -12.84700 16.17000 41.38100
C  -9.88400 14.37800 40.70100
C  -11.45600 18.81800 39.70700
C  -15.79800 17.62700 41.74200
C  -14.17200 13.02600 42.36800
N  -10.96900 16.47000 40.14500
C  -9.94400 15.63800 40.16300
C  -8.66000 16.31400 39.53700
C  -9.09600 17.80900 39.20500
C  -10.57200 17.75300 39.72700
C  -8.31400 18.92000 39.90900
C  -8.10700 15.63500 38.23300
C  -6.55500 15.36900 38.23500
H  -5.62600 16.06200 37.26100
N  -13.55900 17.99000 40.86100
C  -12.78800 18.98800 40.30700
C  -13.55100 20.16100 40.27000
C  -14.82000 19.81900 40.86700
C  -14.76800 18.43100 41.25200
C  -13.10300 21.47800 39.69500
C  -15.95100 20.84500 40.95600
O  -15.83800 21.91400 40.36500
C  -17.24600 20.65200 41.75000
N  -14.75300 15.37600 41.62400
C  -15.81400 16.25200 41.91400
C  -17.03900 15.46400 42.33600
C  -16.43200 14.09100 42.73800
C  -15.01700 14.14800 42.16900
C  -17.73500 16.16600 43.55100
C  -17.33200 12.87700 42.33100
C  -17.61000 11.86800 43.42800
N  -12.18000 14.03200 41.55500
C  -12.79200 12.91200 42.06900
C  -11.86300 11.82200 42.23000
C  -10.71000 12.34300 41.59700
C  -10.96300 13.69000 41.27000
C  -12.12400 10.50600 42.89900
C  -9.32600 12.05400 41.33900
O  -8.68300 11.08300 41.66800
C  -8.66600 13.33700 40.61600
C  -7.44000 13.78700 41.40400
O  -7.42100 14.52200 42.39900
O  -6.35500 12.96800 41.04800
C  -4.98700 13.03300 41.62400
H  -10.99500 19.66200 39.19000
H  -16.75100 18.15900 41.76800
H  -14.60500 12.08800 42.72300
H  -7.86300 16.29000 40.28100
H  -9.10900 18.06900 38.14600
H  -8.81000 19.81700 40.28100
H  -7.52700 19.30200 39.26000
H  -7.79200 18.37700 40.69700
H  -8.16300 16.27300 37.35100
H  -8.53300 14.66400 37.97900
H  -6.42900 14.30100 38.05900
H  -6.17400 15.41400 39.25500
H  -13.53100 21.58900 38.69900
H  -12.02600 21.52500 39.53000
H  -13.34900 22.22800 40.44700
H  -16.87900 20.40700 42.74700
H  -17.91200 19.89100 41.34200
H  -17.68600 21.65000 41.76800
H  -17.69500 15.37300 41.47000
H  -16.29500 14.20000 43.81400
H  -17.97600 15.43500 44.32200
H  -18.67200 16.62200 43.23300
H  -17.09500 17.01300 43.79800
H  -16.78800 12.43700 41.49500
H  -18.23800 13.26400 41.86400
H  -16.97400 10.99600 43.27600
H  -18.60900 11.45000 43.31100
H  -17.67000 12.32300 44.41700
H  -11.26100 10.33200 43.54100
H  -12.26400 9.65300 42.23400
H  -12.97800 10.56500 43.57400
H  -8.45600 13.14400 39.56400
H  -4.67300 12.02000 41.87700
H  -5.01800 13.61800 42.54400
H  -4.28800 13.49400 40.92600

