158

Mg 46.91800 24.92500 28.41400
C  47.55800 27.01600 31.08500
C  46.22200 22.25200 30.61100
C  47.06100 22.81000 25.82200
C  48.51300 27.36600 26.28100
N  47.01100 24.63100 30.54900
C  47.15600 25.70800 31.47300
C  46.72600 25.39500 32.86000
C  46.43900 23.91800 32.74900
C  46.60300 23.53500 31.20700
C  47.44700 22.97800 33.49900
C  45.47800 26.22800 33.30900
C  45.50500 27.04600 34.66200
H  44.43200 26.85700 35.75300
N  46.62600 22.86900 28.21400
C  46.20900 21.98600 29.23500
C  45.76800 20.69400 28.63100
C  46.04800 20.85000 27.23800
C  46.55700 22.20000 26.99700
C  45.27100 19.49200 29.40400
C  45.81900 19.84700 26.21500
O  46.16100 20.04400 25.06300
C  44.96600 18.63800 26.62000
N  47.70900 25.03600 26.32300
C  47.65700 23.95900 25.50300
C  48.13700 24.33400 24.07800
C  48.55200 25.88700 24.21800
C  48.23300 26.12000 25.68200
C  49.36500 23.45100 23.56600
C  47.83400 26.74000 23.11000
C  46.25400 26.95900 23.28000
N  47.69700 26.83100 28.58800
C  48.26200 27.66500 27.63900
C  48.53900 28.88600 28.33400
C  48.32400 28.70700 29.66900
C  47.86600 27.38500 29.76800
C  49.11000 30.15800 27.75400
C  48.34200 29.27100 30.92600
O  48.58700 30.42600 31.22000
C  48.02400 28.18500 31.99200
C  49.22400 27.97400 32.90400
O  50.23500 27.35600 32.55500
O  48.85900 28.35800 34.20200
C  49.90500 28.12300 35.23300
H  45.85000 21.52800 31.33800
H  47.08100 22.21600 24.90600
H  49.04900 28.18200 25.79300
H  47.49500 25.67700 33.57900
H  45.41900 23.75500 33.09900
H  48.26100 23.57400 33.91200
H  47.89000 22.32100 32.75000
H  46.80000 22.52500 34.25000
H  44.65900 25.52800 33.47300
H  45.16800 26.95600 32.56000
H  45.49500 28.11500 34.44700
H  46.46600 26.95400 35.16700
H  44.22400 19.40900 29.11100
H  45.29800 19.76700 30.45800
H  45.81900 18.56900 29.21200
H  45.34900 17.92500 27.35000
H  44.64700 18.13600 25.70600
H  43.96400 18.93200 26.93300
H  47.38800 24.20300 23.29800
H  49.62000 25.98300 24.02200
H  49.72800 22.80100 24.36100
H  50.16000 23.93000 22.99300
H  48.83300 22.78800 22.88400
H  48.01600 26.17300 22.19700
H  48.21000 27.74300 22.90600
H  45.95300 26.60400 24.26600
H  45.62400 26.47700 22.53300
H  45.92600 27.99800 23.25900
H  48.40200 30.97000 27.58700
H  49.62800 30.01800 26.80500
H  49.89200 30.53200 28.41400
H  47.17500 28.48800 32.60500
H  50.73600 27.46900 34.97100
H  49.40800 27.57500 36.03400
H  50.38300 29.00800 35.65500
Mg 46.67700 44.59700 43.36200
C  43.05700 44.32600 43.21700
C  46.81500 41.30400 42.32200
C  49.80000 45.12600 42.81400
C  46.00400 48.18500 43.47900
N  45.07500 43.11900 42.74400
C  43.69600 43.14500 42.74800
C  43.02400 41.83900 42.25000
C  44.26700 40.92000 42.09900
C  45.49800 41.82300 42.45300
C  44.12000 39.56200 42.98000
C  42.00300 41.90900 41.07000
C  42.72800 42.39900 39.80300
H  42.64800 41.52200 38.58400
N  48.19500 43.33400 42.67600
C  48.09400 42.02600 42.39300
C  49.42800 41.51100 42.20500
C  50.33000 42.57200 42.35900
C  49.49800 43.76000 42.62600
C  49.84400 40.06200 41.86400
C  51.90500 42.55700 42.23500
O  52.47000 41.48900 42.02400
C  52.66800 43.79000 42.47300
N  47.67300 46.47300 42.82700
C  49.06800 46.31800 42.99000
C  49.74700 47.69500 43.30500
C  48.51200 48.63800 43.03900
C  47.29400 47.68900 43.23000
C  50.29800 47.71400 44.72500
C  48.47200 49.45200 41.68400
C  48.35900 50.98900 41.83100
N  44.93900 46.01300 43.44400
C  44.91500 47.40500 43.57000
C  43.55300 47.84700 43.78600
C  42.75600 46.65400 43.62100
C  43.68900 45.54300 43.47700
C  43.13900 49.24000 43.94800
C  41.39700 46.18100 43.59100
O  40.34300 46.74700 43.82100
C  41.60700 44.61600 43.33900
C  40.82800 43.89600 44.39600
O  39.70800 43.41000 44.16600
O  41.48800 43.79400 45.59200
C  40.74400 42.95400 46.55600
H  46.75000 40.24600 42.05800
H  50.86400 45.35900 42.72700
H  45.90200 49.27200 43.51200
H  42.38500 41.46600 43.05000
H  44.26400 40.67100 41.03800
H  44.89100 39.35900 43.72300
H  43.99800 38.68800 42.34100
H  43.23800 39.54600 43.62100
H  41.14000 42.51300 41.35100
H  41.58300 40.91100 40.94300
H  43.80500 42.52700 39.90400
H  42.25200 43.34700 39.55300
H  50.60400 40.19700 41.09400
H  48.95400 39.59100 41.44700
H  50.24300 39.46600 42.68500
H  52.50200 44.20700 43.46600
H  52.40800 44.42000 41.62200
H  53.69600 43.48100 42.28800
H  50.50900 47.84700 42.54100
H  48.38200 49.30500 43.89200
H  51.21000 48.30600 44.80200
H  50.53000 46.72300 45.11600
H  49.48400 48.02200 45.38300
H  47.57700 49.23000 41.10300
H  49.32400 49.14700 41.07600
H  47.62300 51.40800 41.14400
H  49.35700 51.32700 41.55400
H  48.14300 51.23800 42.87000
H  42.06200 49.37800 44.04200
H  43.51300 49.88700 43.15400
H  43.65400 49.56900 44.85100
H  41.08200 44.41500 42.40500
H  40.20500 43.70600 47.13100
H  41.54800 42.56100 47.17900
H  39.93000 42.28700 46.27100

