158

Mg 47.35900 25.34000 28.67900
C  48.36700 27.58200 31.18500
C  46.45200 23.10000 31.04300
C  46.41600 23.29900 26.17000
C  48.58400 27.67100 26.27000
N  47.31700 25.47900 30.88600
C  47.79300 26.46800 31.73800
C  47.59000 26.09900 33.21100
C  47.16300 24.55600 33.09200
C  46.94100 24.32600 31.55000
C  48.18800 23.52300 33.80300
C  46.50100 27.03600 33.89100
C  47.02300 27.72700 35.20600
H  45.94200 27.86800 36.38900
N  46.58300 23.39600 28.62300
C  46.29000 22.64600 29.68200
C  45.81400 21.38600 29.25900
C  45.69700 21.42700 27.83700
C  46.25200 22.75400 27.47800
C  45.34000 20.30400 30.21100
C  45.19900 20.32600 26.85600
O  45.15500 20.49800 25.63800
C  44.62100 19.02200 27.30400
N  47.58000 25.43900 26.50800
C  47.02500 24.49400 25.67200
C  47.19900 24.84700 24.17500
C  47.68600 26.32000 24.27600
C  47.94300 26.50200 25.77700
C  48.06500 23.80300 23.46000
C  46.77500 27.37200 23.73800
C  45.34800 27.38300 24.37000
N  48.33700 27.18500 28.63000
C  48.73600 28.01000 27.60500
C  49.46900 29.14800 28.21800
C  49.21200 29.01200 29.60000
C  48.52400 27.81700 29.80400
C  50.18200 30.21900 27.52600
C  49.52900 29.61000 30.89700
O  50.19900 30.60600 31.11100
C  49.00200 28.66100 31.94600
C  50.18200 28.24800 32.84400
O  50.87000 27.23200 32.79900
O  50.40700 29.22100 33.80000
C  51.54200 28.91800 34.73100
H  46.18400 22.39000 31.82800
H  46.07600 22.55000 25.45200
H  48.93800 28.44700 25.58800
H  48.54200 26.12800 33.74100
H  46.13600 24.41200 33.42700
H  48.84800 23.05800 33.07200
H  47.62900 22.71500 34.27500
H  48.67300 24.09200 34.59700
H  45.55300 26.51700 34.03200
H  46.13400 27.75400 33.15800
H  47.49700 28.67100 34.93900
H  47.80000 27.09900 35.64300
H  44.41100 19.80900 29.92700
H  45.12700 20.72800 31.19300
H  46.08000 19.50900 30.29700
H  45.17500 18.59800 28.14200
H  44.68200 18.36700 26.43500
H  43.55200 19.04400 27.51800
H  46.18400 24.83500 23.77700
H  48.64300 26.46100 23.77300
H  48.37500 22.99100 24.11700
H  48.98300 24.28100 23.11900
H  47.54900 23.28100 22.65400
H  46.72900 27.31200 22.65100
H  47.19800 28.32900 24.04500
H  45.34900 28.23900 25.04600
H  45.15800 26.40500 24.81200
H  44.57000 27.52900 23.62200
H  51.23800 29.96400 27.42600
H  49.98300 31.17200 28.01400
H  49.77400 30.39400 26.53000
H  48.32700 29.19600 32.61500
H  51.20100 28.09900 35.36400
H  51.81900 29.76300 35.36000
H  52.49000 28.73200 34.22700
Mg 26.82700 50.66100 27.52100
C  24.61200 51.84600 29.92000
C  28.88500 49.68000 29.94000
C  28.87300 49.72200 25.09000
C  24.57300 52.03200 25.11200
N  26.69300 50.72500 29.61500
C  25.74300 51.29500 30.46000
C  26.00400 51.05200 31.90000
C  27.51200 50.49700 31.88700
C  27.71700 50.27200 30.37500
C  28.62700 51.48900 32.36700
C  25.07600 49.97200 32.54100
C  24.44700 50.34500 33.90400
H  25.42200 50.93700 35.01100
N  28.61000 49.86300 27.46500
C  29.30600 49.51300 28.61300
C  30.60700 48.98600 28.27000
C  30.71700 49.12300 26.85600
C  29.35700 49.56400 26.38400
C  31.60400 48.52700 29.21100
C  31.88500 48.77200 25.91300
O  31.80400 48.76000 24.67500
C  33.21400 48.27500 26.34100
N  26.76100 50.84400 25.31800
C  27.69400 50.32200 24.57200
C  27.26200 50.31200 23.14100
C  25.84700 50.91000 23.16900
C  25.71200 51.32000 24.62700
C  28.21000 51.07600 22.10400
C  24.71500 49.86800 22.84700
C  23.52900 50.40900 22.07000
N  24.97000 51.80400 27.44600
C  24.19100 52.36100 26.41600
C  23.08700 53.04800 26.94500
C  23.17200 52.91100 28.31200
C  24.35200 52.15400 28.57500
C  22.01300 53.72700 26.26500
C  22.56400 53.24600 29.55500
O  21.59600 53.95500 29.72000
C  23.52300 52.66900 30.69700
C  23.92700 53.86300 31.58300
O  24.94200 54.52400 31.33600
O  23.04700 54.02100 32.60400
C  23.46200 54.90400 33.70500
H  29.42300 49.26600 30.79600
H  29.55000 49.41800 24.28900
H  23.97700 52.34100 24.25100
H  25.85300 51.96700 32.47300
H  27.61800 49.54300 32.40400
H  29.29400 51.73700 31.54200
H  29.20000 50.97000 33.13500
H  28.27900 52.42700 32.79800
H  25.66300 49.06400 32.67800
H  24.26800 49.70800 31.85800
H  23.84500 49.49900 34.23700
H  23.76000 51.14100 33.61500
H  31.75000 47.44700 29.19600
H  31.36100 48.70500 30.25800
H  32.54800 49.07100 29.21300
H  33.62700 47.79400 25.45400
H  32.90300 47.40600 26.92100
H  33.59600 49.19200 26.79100
H  27.22300 49.24700 22.91100
H  25.78400 51.85600 22.63100
H  29.10100 51.55500 22.51200
H  27.65700 51.75900 21.46000
H  28.59000 50.27300 21.47200
H  24.40300 49.38800 23.77500
H  25.11500 49.00700 22.31000
H  22.55400 50.46200 22.55500
H  23.49200 49.63300 21.30600
H  23.69800 51.35600 21.55800
H  22.32700 54.09300 25.28700
H  21.69700 54.53700 26.92200
H  21.19200 53.02000 26.14900
H  22.90000 52.01800 31.31000
H  23.47800 55.93700 33.35800
H  24.40200 54.60400 34.16900
H  22.79700 54.85800 34.56800

