158

Mg 44.93800 4.51200 48.30700
C  43.04900 7.15500 47.27600
C  42.43900 2.43800 47.62700
C  47.05600 1.83800 48.85600
C  47.75600 6.56800 48.31100
N  43.04200 4.81200 47.43700
C  42.35600 5.94900 47.14800
C  40.90300 5.71000 46.59500
C  40.67300 4.24100 47.12200
C  42.14700 3.80200 47.49600
C  39.49700 4.08600 48.16000
C  40.82200 5.84000 45.03500
C  40.01400 7.01300 44.39100
H  39.05500 6.71900 43.27800
N  44.75200 2.44400 48.06000
C  43.64900 1.76100 47.82900
C  43.89500 0.39900 47.78500
C  45.24200 0.16900 48.18000
C  45.79000 1.48400 48.35900
C  42.73800 -0.60800 47.66900
C  45.87300 -1.15000 48.48600
O  45.31500 -2.18900 48.12400
C  47.23300 -1.38400 49.01500
N  47.16700 4.19000 48.42700
C  47.75400 3.06000 48.93200
C  49.15800 3.15000 49.24000
C  49.32900 4.69300 49.07200
C  48.02700 5.21600 48.44800
C  49.59600 2.59800 50.59500
C  50.56600 5.16300 48.24000
C  51.43900 6.20300 48.87600
N  45.34100 6.50100 47.99300
C  46.54500 7.19300 47.99900
C  46.23100 8.62300 47.77700
C  44.86100 8.63500 47.55900
C  44.42400 7.36800 47.59700
C  47.08200 9.79900 47.79300
C  43.74500 9.61700 47.27100
O  43.63900 10.81800 47.15000
C  42.49600 8.54300 47.08600
C  41.44700 8.84700 48.19300
O  41.15800 8.09300 49.11400
O  40.89100 10.05400 47.89700
C  39.82700 10.44800 48.83200
H  41.49600 1.88900 47.59800
H  47.77800 1.03100 49.00200
H  48.61100 7.23400 48.45000
H  40.26700 6.47600 47.03900
H  40.30000 3.67900 46.26600
H  39.20100 5.06900 48.52600
H  39.91000 3.57700 49.03100
H  38.57400 3.71100 47.71800
H  40.42800 4.87100 44.72900
H  41.84400 5.91900 44.66300
H  40.71000 7.76900 44.02800
H  39.55500 7.50100 45.25200
H  42.92500 -1.29400 46.84300
H  41.79600 -0.11800 47.42500
H  42.58500 -1.25500 48.53400
H  47.41100 -2.44600 49.18200
H  47.38700 -0.74500 49.88400
H  47.78800 -1.08300 48.12700
H  49.69300 2.59900 48.46700
H  49.38200 5.08700 50.08700
H  48.68800 2.47900 51.18700
H  50.33300 3.21300 51.11200
H  50.09100 1.64300 50.41800
H  50.36800 5.60900 47.26500
H  51.28900 4.35100 48.15400
H  51.56200 6.02200 49.94300
H  50.84000 7.10700 48.76700
H  52.41200 6.32800 48.40100
H  46.70100 10.49300 48.54200
H  47.03600 10.22700 46.79200
H  48.07300 9.38800 47.98200
H  41.93600 8.62200 46.15500
H  38.95500 10.96300 48.43000
H  40.15800 10.91800 49.75800
H  39.27700 9.61100 49.26100
Mg 41.53000 40.70700 26.67800
C  40.99300 43.11100 29.29600
C  42.62600 38.63800 29.07000
C  42.28700 38.53600 24.10500
C  40.84900 43.11000 24.32600
N  41.81400 40.88200 28.89100
C  41.40600 41.89500 29.77500
C  41.52700 41.51400 31.19800
C  42.35500 40.19700 31.08200
C  42.17100 39.83100 29.62000
C  43.88600 40.29000 31.62300
C  40.20600 41.46900 32.04900
C  40.21700 42.28600 33.39100
H  39.54500 41.62800 34.56000
N  42.26900 38.85900 26.57100
C  42.61600 38.14200 27.68900
C  43.22900 36.86200 27.27000
C  43.12700 36.81900 25.83000
C  42.54200 38.09800 25.40400
C  43.82600 35.79100 28.20400
C  43.59100 35.71700 24.85100
O  43.55700 35.90200 23.61000
C  44.17500 34.36100 25.34900
N  41.51900 40.80200 24.48000
C  41.87700 39.80500 23.64800
C  41.70900 40.18200 22.14300
C  41.18200 41.63900 22.28500
C  41.18800 41.88700 23.79700
C  42.98400 39.99600 21.32200
C  39.74600 41.93700 21.62400
C  39.75800 43.03900 20.52600
N  40.98300 42.64500 26.68500
C  40.76900 43.54100 25.72200
C  40.42400 44.84200 26.23700
C  40.39500 44.71500 27.66400
C  40.83300 43.37300 27.90800
C  40.08900 46.06300 25.42800
C  40.05100 45.35100 28.94500
O  39.50100 46.41700 29.09600
C  40.50700 44.36200 30.06100
C  41.69000 45.13100 30.69300
O  42.77400 45.31000 30.10800
O  41.33000 45.46000 31.95100
C  42.45900 46.02500 32.81300
H  43.00800 37.92400 29.80300
H  42.51300 38.04500 23.15600
H  40.49500 43.91200 23.67500
H  42.13500 42.32000 31.61100
H  41.73600 39.56000 31.71400
H  44.09000 41.13300 32.28400
H  44.53400 40.22000 30.74900
H  44.04100 39.35700 32.16400
H  39.91100 40.44500 32.27400
H  39.38900 41.81000 31.41300
H  39.59100 43.11400 33.06100
H  41.18700 42.75300 33.56000
H  43.93200 36.13700 29.23200
H  44.87200 35.61900 27.94800
H  43.19000 34.90600 28.20900
H  44.52600 33.75000 24.51700
H  43.38100 33.90900 25.94500
H  45.07300 34.41500 25.96300
H  40.97900 39.46200 21.77500
H  41.96800 42.22400 21.80700
H  43.80400 39.77000 22.00300
H  43.26000 40.83500 20.68400
H  42.97500 39.21300 20.56300
H  38.99800 42.18000 22.37900
H  39.31600 41.06300 21.13400
H  39.76100 42.46300 19.60100
H  40.72500 43.53600 20.60900
H  38.94700 43.76600 20.56600
H  39.02300 46.28800 25.45100
H  40.36200 46.00200 24.37500
H  40.64900 46.86500 25.90900
H  39.69300 44.26000 30.77800
H  41.95800 46.89800 33.23200
H  43.35900 46.32200 32.27400
H  42.69100 45.24100 33.53400

