158

Mg 16.37000 -2.00400 28.44100
C  15.33300 0.25100 30.97700
C  18.09400 -3.71700 30.70600
C  17.81500 -3.73600 25.83600
C  14.74800 0.02800 26.05700
N  16.76300 -1.69500 30.56900
C  16.20700 -0.72800 31.42800
C  16.48200 -1.10600 32.84500
C  17.43300 -2.34900 32.71700
C  17.46900 -2.59900 31.25200
C  18.91800 -2.24200 33.29000
C  15.21600 -1.25900 33.80100
C  15.15700 -0.39500 35.10600
H  16.47500 0.21800 35.65300
N  17.75000 -3.53500 28.30600
C  18.31500 -4.13600 29.36800
C  19.06000 -5.31400 28.97200
C  19.07200 -5.25000 27.57400
C  18.14100 -4.17000 27.14500
C  19.76900 -6.26700 29.90600
C  19.85100 -6.16900 26.48300
O  19.92000 -5.80200 25.33000
C  20.62700 -7.40500 26.88900
N  16.30000 -1.85100 26.27700
C  16.95100 -2.72600 25.44400
C  16.86100 -2.30900 24.00500
C  15.81200 -1.17000 24.02400
C  15.60300 -0.92600 25.52400
C  18.24000 -1.93000 23.37200
C  14.44200 -1.39600 23.33900
C  13.36500 -2.26000 24.12900
N  15.17800 -0.28300 28.40100
C  14.55700 0.37200 27.37900
C  13.65000 1.40800 27.93000
C  13.97800 1.45800 29.35500
C  14.87100 0.41100 29.58700
C  12.77000 2.32300 27.10500
C  13.74800 2.15500 30.65000
O  13.07600 3.11600 31.00500
C  14.56200 1.40700 31.76900
C  15.42300 2.42700 32.32500
O  16.38600 2.84200 31.72300
O  14.86700 2.92200 33.49900
C  15.56700 4.03700 34.13700
H  18.57800 -4.34600 31.45600
H  18.23200 -4.26100 24.97500
H  14.19500 0.57400 25.29000
H  17.15600 -0.28400 33.08600
H  16.88500 -3.19800 33.12500
H  19.10800 -1.32800 33.85300
H  19.67000 -2.25200 32.50100
H  19.06400 -3.07400 33.97800
H  15.20900 -2.28300 34.17400
H  14.30100 -0.93600 33.30500
H  14.65100 -0.99200 35.86500
H  14.54200 0.49500 34.96700
H  19.19700 -7.19500 29.91500
H  19.90100 -5.94700 30.94000
H  20.77100 -6.50900 29.55100
H  19.99400 -7.98800 27.55900
H  21.54700 -7.10300 27.39000
H  20.84100 -8.08900 26.06900
H  16.43700 -3.14300 23.44600
H  16.21200 -0.28000 23.53800
H  19.18300 -2.22400 23.83400
H  18.33100 -0.85200 23.23700
H  18.12800 -2.42100 22.40500
H  14.61700 -1.96000 22.42300
H  14.01900 -0.40400 23.18300
H  12.62900 -1.52100 24.44400
H  13.72500 -2.64600 25.08300
H  12.76600 -2.92300 23.50500
H  13.15100 2.66400 26.14200
H  12.53800 3.22800 27.66700
H  11.80700 1.83900 26.94900
H  13.84800 1.09500 32.53100
H  15.71900 4.01800 35.21600
H  15.10200 4.99200 33.89000
H  16.58500 3.95700 33.75500
Mg -11.77600 16.88900 40.41600
C  -8.70400 15.27200 40.24300
C  -10.18000 19.74000 39.22200
C  -14.78200 18.38300 40.01300
C  -13.36900 13.71900 40.51700
N  -9.64800 17.46900 39.91000
C  -8.63200 16.58400 39.80300
C  -7.34600 17.27600 39.30500
C  -7.74200 18.67600 39.18000
C  -9.29000 18.59500 39.35500
C  -7.12800 19.67800 40.21300
C  -6.75500 16.71900 37.89700
C  -5.17700 16.67300 37.87600
H  -4.52200 16.96100 36.54800
N  -12.37700 18.82200 39.90400
C  -11.54300 19.83300 39.49300
C  -12.32100 21.09100 39.23100
C  -13.65700 20.74300 39.42500
C  -13.68100 19.25900 39.77700
C  -11.68900 22.34700 38.81400
C  -14.82900 21.72200 39.27000
O  -14.54500 22.91200 39.13800
C  -16.32100 21.37100 39.39000
N  -13.73400 16.15100 40.20500
C  -14.87100 17.00600 40.15700
C  -16.20400 16.25800 40.24300
C  -15.67000 14.78200 40.46800
C  -14.15600 14.85100 40.31200
C  -17.26400 16.68000 41.34400
C  -16.27500 13.80200 39.48200
C  -17.41600 12.98300 39.99500
N  -11.20400 14.93700 40.59900
C  -11.99200 13.73300 40.65800
C  -11.08500 12.59200 40.75100
C  -9.79700 13.17200 40.56600
C  -9.87500 14.58100 40.44300
C  -11.38600 11.15300 40.81700
C  -8.35900 12.88600 40.59200
O  -7.79200 11.86500 40.74900
C  -7.58400 14.24700 40.30500
C  -6.59500 14.45600 41.43200
O  -6.81500 14.98300 42.47500
O  -5.44700 13.86500 41.06400
C  -4.29700 14.24700 41.88800
H  -9.57500 20.53300 38.77800
H  -15.75000 18.87100 39.88400
H  -13.85500 12.74100 40.53000
H  -6.50100 17.12600 39.97700
H  -7.68600 19.13900 38.19500
H  -7.95600 20.23000 40.65800
H  -6.33900 20.23300 39.70500
H  -6.53600 19.12900 40.94500
H  -7.00200 17.33200 37.03000
H  -7.17000 15.74100 37.65600
H  -4.94300 15.64400 38.14600
H  -4.84800 17.27800 38.72200
H  -12.13800 23.10900 39.45300
H  -12.00100 22.47600 37.77800
H  -10.61300 22.38700 38.98100
H  -16.84500 22.31600 39.24800
H  -16.58500 20.82800 40.29800
H  -16.56000 20.70600 38.56100
H  -16.65900 16.35600 39.25800
H  -15.93400 14.39300 41.45200
H  -17.65400 15.93500 42.03900
H  -18.18400 17.11200 40.95000
H  -16.75800 17.45000 41.92500
H  -15.62800 13.01500 39.09400
H  -16.69500 14.34700 38.63700
H  -17.42600 11.89600 39.91500
H  -18.35200 13.35000 39.57400
H  -17.57200 13.36900 41.00300
H  -12.41100 10.86300 40.58300
H  -11.32300 10.86800 41.86800
H  -10.70700 10.59700 40.17200
H  -7.08400 14.26400 39.33700
H  -4.10500 15.31100 42.02900
H  -3.46300 13.74700 41.39500
H  -4.36100 13.88600 42.91400

