158

Mg 1.86300 -1.75400 44.83900
C  5.15800 -0.80600 43.96900
C  0.78300 1.07400 43.07300
C  -1.38000 -2.91900 44.80800
C  3.06700 -4.77500 45.89300
N  2.85300 -0.23100 43.52300
C  4.24400 0.04600 43.47400
C  4.54000 1.40300 42.82200
C  3.09400 2.06900 42.86800
C  2.12700 0.90700 43.23400
C  2.86200 3.28200 43.76500
C  5.22600 1.31600 41.39900
C  6.32300 2.30900 41.05700
H  7.58200 1.81300 40.33500
N  -0.13400 -0.91700 44.30700
C  -0.27200 0.20400 43.45800
C  -1.67000 0.35900 43.24300
C  -2.39800 -0.70300 43.91900
C  -1.30400 -1.58900 44.37100
C  -2.23900 1.57400 42.41500
C  -3.90200 -0.92200 43.96700
O  -4.64600 -0.15900 43.35800
C  -4.45200 -2.07600 44.66300
N  0.93300 -3.55600 45.21800
C  -0.41900 -3.81800 45.23300
C  -0.64900 -5.23100 45.81200
C  0.80900 -5.75800 46.14900
C  1.66200 -4.58300 45.75000
C  -1.57100 -5.39500 46.99500
C  1.24200 -7.03200 45.32300
C  1.73900 -8.23000 46.05000
N  3.77400 -2.63800 45.06200
C  4.09100 -3.83200 45.54000
C  5.52400 -4.01500 45.50800
C  5.97600 -2.82200 44.89900
C  4.83400 -2.01600 44.59300
C  6.29200 -5.08800 46.21300
C  7.23700 -2.08500 44.59400
O  8.42200 -2.36800 44.72200
C  6.73300 -0.78100 43.89400
C  7.35600 0.38400 44.51200
O  7.00800 0.93800 45.58100
O  8.33600 0.88900 43.69900
C  8.94200 2.16500 44.14800
H  0.33700 1.95900 42.61400
H  -2.40600 -3.29100 44.86500
H  3.43300 -5.72900 46.27900
H  5.26500 1.88900 43.47600
H  2.80400 2.46500 41.89500
H  2.66400 4.24600 43.29700
H  3.79500 3.39000 44.31700
H  2.10800 3.19800 44.54800
H  4.49100 1.54800 40.62800
H  5.44700 0.26700 41.20600
H  6.59900 2.88400 41.94200
H  5.95100 3.11700 40.42700
H  -2.25400 1.48700 41.32800
H  -1.67100 2.46400 42.68100
H  -3.28200 1.80600 42.63200
H  -4.26700 -3.02200 44.15400
H  -5.49800 -1.94400 44.93600
H  -4.03600 -1.96200 45.66400
H  -1.02700 -5.88300 45.02400
H  0.96100 -5.82400 47.22600
H  -2.28500 -6.18500 46.76300
H  -2.15800 -4.48500 47.12200
H  -1.09600 -5.66600 47.93700
H  1.96800 -6.79600 44.54500
H  0.46000 -7.48500 44.71400
H  1.47100 -8.26300 47.10600
H  2.82500 -8.30500 46.00500
H  1.26400 -9.14800 45.70300
H  6.18500 -4.86800 47.27600
H  7.35200 -5.04400 45.96500
H  5.85100 -6.07300 46.06300
H  7.12100 -0.81100 42.87500
H  8.11900 2.80100 44.47400
H  9.50600 2.56000 43.30200
H  9.64100 1.97300 44.96100
Mg 24.38200 -5.43200 45.50400
C  26.56200 -3.33900 43.96800
C  21.86700 -4.29300 43.37300
C  22.34500 -7.97800 46.50700
C  27.00900 -7.00800 47.16700
N  24.30200 -4.15300 43.70300
C  25.27700 -3.25600 43.40800
C  24.87400 -2.32600 42.27500
C  23.29800 -2.40600 42.28600
C  23.13700 -3.74600 43.14000
C  22.52700 -1.23400 42.95800
C  25.45500 -2.74400 40.85300
C  26.00200 -1.48100 40.17100
H  25.83500 -1.45300 38.66200
N  22.33100 -6.08700 44.98700
C  21.43500 -5.38100 44.15200
C  20.23900 -6.09700 44.23000
C  20.32500 -7.15900 45.14200
C  21.70200 -7.14300 45.56900
C  19.15700 -5.67500 43.19000
C  19.22300 -8.08600 45.53600
O  18.06700 -7.83900 45.10100
C  19.33500 -9.17300 46.58300
N  24.65000 -7.23500 46.66400
C  23.67000 -8.10400 46.90400
C  24.11600 -9.24900 47.76100
C  25.63800 -8.88700 48.05900
C  25.81000 -7.69300 47.20800
C  23.34100 -9.67400 49.02200
C  26.59500 -10.04500 47.75300
C  27.56400 -10.49000 48.81400
N  26.34600 -5.27200 45.62300
C  27.32700 -5.87500 46.41200
C  28.62300 -5.16500 46.23800
C  28.30100 -4.08700 45.32800
C  26.94900 -4.26100 44.98900
C  29.99200 -5.52600 46.91700
C  28.82400 -2.93200 44.68600
O  29.98000 -2.48200 44.82600
C  27.70100 -2.42300 43.65300
C  27.57000 -0.96500 43.91400
O  27.05200 -0.44200 44.91100
O  28.26400 -0.18800 42.96400
C  28.46800 1.28600 43.21300
H  21.03900 -3.89800 42.78000
H  21.84600 -8.91100 46.78000
H  27.93900 -7.17600 47.71500
H  25.08000 -1.33100 42.67100
H  22.70400 -2.51000 41.37800
H  23.17500 -0.52600 43.47500
H  21.84700 -1.69200 43.67600
H  21.96000 -0.68600 42.20600
H  24.66800 -3.30500 40.34900
H  26.23700 -3.47800 41.04800
H  27.07900 -1.57300 40.31000
H  25.64300 -0.54600 40.60000
H  19.54900 -5.72500 42.17400
H  18.74200 -4.71300 43.48800
H  18.42100 -6.47900 43.21600
H  19.87300 -9.97100 46.07000
H  18.39600 -9.49300 47.03300
H  19.99100 -8.85700 47.39500
H  24.16100 -10.13100 47.12100
H  25.75800 -8.63900 49.11400
H  22.39000 -9.14100 49.02500
H  23.80700 -9.33500 49.94700
H  23.09600 -10.73400 49.07700
H  27.30600 -9.74800 46.98100
H  25.97900 -10.82200 47.30000
H  27.42900 -11.57000 48.87600
H  27.25800 -10.11300 49.79000
H  28.56500 -10.13000 48.57800
H  30.39700 -6.52200 46.74100
H  29.82900 -5.31600 47.97400
H  30.55400 -4.80600 46.32200
H  28.14900 -2.67400 42.69100
H  28.21800 1.86600 42.32400
H  29.50800 1.43000 43.50600
H  27.88400 1.72500 44.02200

