158

Mg 41.60100 41.20800 26.44200
C  40.91000 43.59700 28.83200
C  42.48800 39.07200 29.09900
C  42.11500 38.86200 24.19200
C  40.85700 43.51300 23.90200
N  41.87600 41.44300 28.70100
C  41.36500 42.41900 29.44700
C  41.48500 42.15100 30.93100
C  42.39000 40.87200 30.94000
C  42.28900 40.42800 29.49200
C  43.88300 41.07900 31.47100
C  40.19700 41.99800 31.77600
C  40.19200 42.75600 33.07200
H  39.47100 42.11300 34.34000
N  42.36500 39.32400 26.60800
C  42.51700 38.58600 27.77200
C  42.97200 37.29400 27.33800
C  43.02300 37.25500 25.91800
C  42.42000 38.51100 25.50300
C  43.31600 36.21200 28.35000
C  43.55000 36.15900 24.96200
O  43.70000 36.27500 23.75000
C  43.86700 34.79200 25.50600
N  41.60200 41.18100 24.32800
C  41.76800 40.01800 23.63400
C  41.46300 40.22400 22.11500
C  41.09000 41.77300 22.08600
C  41.24800 42.23600 23.52400
C  42.68700 39.76900 21.19200
C  39.70600 41.93500 21.53400
C  38.52700 41.91000 22.48700
N  41.03000 43.13700 26.33200
C  40.73100 43.97000 25.24700
C  40.35000 45.28100 25.69400
C  40.34300 45.22100 27.14200
C  40.76000 43.88400 27.45300
C  40.02400 46.56400 24.85800
C  39.93700 45.86100 28.36500
O  39.30600 46.90300 28.57400
C  40.33000 44.82200 29.55400
C  41.31600 45.52500 30.43200
O  42.39400 46.01700 30.14800
O  40.77000 45.68800 31.63300
C  41.50500 46.52700 32.57000
H  42.64700 38.32700 29.88100
H  42.01500 38.13400 23.38400
H  40.52300 44.25500 23.17400
H  42.07700 42.98800 31.30300
H  41.84900 40.13000 31.52700
H  44.00000 42.16200 31.44900
H  44.50400 40.54000 30.75600
H  44.01700 40.79500 32.51500
H  39.82900 40.97300 31.82500
H  39.40200 42.46000 31.19100
H  39.77400 43.75300 32.93600
H  41.21200 42.95400 33.40000
H  42.77000 36.33600 29.28600
H  44.37700 36.14900 28.58900
H  42.94600 35.22900 28.06000
H  44.83900 34.92600 25.98000
H  43.93600 34.09600 24.67100
H  43.03500 34.39600 26.08900
H  40.58600 39.60700 21.92200
H  41.82100 42.27500 21.45200
H  42.55900 38.74100 20.85300
H  43.61000 39.74000 21.77100
H  42.79600 40.49900 20.39000
H  39.47700 41.10400 20.86600
H  39.68500 42.89900 21.02500
H  38.90200 41.64900 23.47700
H  37.84500 41.07800 22.31200
H  38.07100 42.89900 22.52600
H  40.24100 47.46700 25.42800
H  38.96200 46.78100 24.74100
H  40.77200 46.60300 24.06600
H  39.40300 44.57000 30.06800
H  41.90800 47.45000 32.15200
H  42.36700 45.89400 32.78000
H  40.99300 46.70800 33.51500
Mg -9.92700 39.77300 39.75100
C  -8.61100 36.60400 38.98600
C  -6.91400 41.16100 38.94000
C  -11.44300 42.91600 39.61700
C  -13.01500 38.33900 39.90800
N  -8.00900 38.90700 39.04500
C  -7.67900 37.60100 38.86900
C  -6.20200 37.50200 38.49300
C  -5.61700 38.92200 38.70800
C  -6.92000 39.74800 38.84800
C  -4.56100 39.12400 39.84800
C  -6.02500 36.98400 37.02200
C  -6.69700 37.79700 35.79700
H  -7.45400 37.05500 34.71300
N  -9.19500 41.80700 39.38400
C  -7.94400 42.13600 39.06200
C  -7.86900 43.55700 38.87700
C  -9.11400 44.09500 39.14000
C  -10.01700 42.93500 39.39600
C  -6.65300 44.26000 38.23700
C  -9.45600 45.65400 38.99700
O  -8.63100 46.52100 38.72600
C  -10.90700 46.15700 39.24000
N  -11.89800 40.52800 39.85800
C  -12.31000 41.82500 39.85500
C  -13.85300 42.00900 40.01500
C  -14.31400 40.54200 39.99300
C  -12.99100 39.74600 39.90000
C  -14.34400 42.80100 41.23600
C  -15.28500 40.25800 38.76700
C  -16.34600 39.12100 38.93700
N  -10.70600 37.78700 39.78700
C  -12.02500 37.39500 39.72000
C  -12.04400 35.94700 39.70200
C  -10.74800 35.57900 39.38400
C  -9.98300 36.77300 39.41700
C  -13.32900 35.11500 39.82500
C  -9.88800 34.45200 39.05500
O  -10.13200 33.27400 38.92200
C  -8.47400 35.10200 38.85700
C  -7.42000 34.50500 39.82200
O  -7.55600 34.35400 41.01900
O  -6.42300 34.01500 39.04200
C  -5.42900 33.06700 39.70100
H  -5.88500 41.51700 38.85700
H  -12.09300 43.79300 39.63700
H  -14.00600 37.89000 39.99600
H  -5.77200 36.71300 39.11000
H  -5.13900 39.26000 37.78900
H  -4.71500 40.16000 40.14900
H  -3.54000 38.94600 39.51000
H  -4.80900 38.41900 40.64100
H  -6.35300 35.96700 36.80400
H  -4.95000 37.03100 36.84900
H  -5.86800 38.22300 35.23100
H  -7.31300 38.64900 36.08400
H  -6.69400 44.51000 37.17700
H  -5.72900 43.68500 38.28600
H  -6.54400 45.13900 38.87200
H  -11.33200 45.72400 40.14600
H  -11.53600 45.74000 38.45300
H  -11.09800 47.22600 39.14700
H  -14.11600 42.62800 39.15800
H  -14.82000 40.31500 40.93100
H  -14.87000 42.25100 42.01600
H  -14.96400 43.68200 41.07100
H  -13.46800 43.27100 41.68400
H  -14.69000 40.11400 37.86600
H  -15.86000 41.16600 38.58400
H  -17.32500 39.59900 38.91600
H  -16.21500 38.62400 39.89800
H  -16.32800 38.36500 38.15200
H  -14.05900 35.60700 39.18200
H  -13.68200 35.02300 40.85200
H  -13.25300 34.05400 39.58700
H  -8.14000 34.79100 37.86700
H  -5.80200 32.09800 39.36700
H  -5.30200 32.94700 40.77700
H  -4.52600 33.07000 39.09000

