158

Mg 25.19100 1.18700 29.87600
C  27.31000 1.05100 32.64400
C  22.41100 1.04300 31.89600
C  23.08200 0.99200 27.17300
C  27.82800 0.45600 27.83400
N  24.96400 1.21800 32.05900
C  25.93700 1.15600 33.00200
C  25.26000 1.25600 34.36200
C  23.71000 1.00200 34.09000
C  23.68100 1.07400 32.57200
C  23.15600 -0.25900 34.68200
C  25.67400 2.51000 35.15800
C  26.11400 2.22700 36.60500
H  25.49500 3.17000 37.68600
N  23.03700 1.18900 29.55100
C  22.09400 1.12100 30.53600
C  20.75200 1.09300 29.97000
C  20.93300 1.09100 28.56200
C  22.40400 1.05500 28.35900
C  19.46800 1.09400 30.83300
C  19.86600 1.03000 27.54900
O  20.07800 0.87100 26.35300
C  18.38900 0.74600 27.94400
N  25.38400 0.68700 27.86500
C  24.41100 0.85900 26.92600
C  24.95600 1.01000 25.49300
C  26.54300 0.94800 25.79300
C  26.60200 0.71000 27.24800
C  24.40200 -0.04500 24.58600
C  27.27400 2.24400 25.39400
C  26.93400 3.50100 26.15200
N  27.10400 0.72100 30.14500
C  28.03000 0.42400 29.20800
C  29.30800 0.24100 29.81100
C  29.09600 0.50900 31.23800
C  27.74700 0.84100 31.36400
C  30.60500 -0.24800 28.98600
C  29.71600 0.61400 32.53100
O  30.90900 0.38900 32.80800
C  28.62800 1.05500 33.49500
C  28.65000 0.03300 34.49100
O  28.30400 -1.12700 34.37600
O  29.09900 0.51700 35.72000
C  29.04300 -0.41800 36.86100
H  21.65700 0.89200 32.67200
H  22.43600 1.05700 26.29500
H  28.72500 0.55900 27.22000
H  25.74800 0.38300 34.79400
H  23.04500 1.80000 34.42400
H  22.99800 -1.00000 33.89800
H  22.29700 0.01100 35.29700
H  23.81000 -0.81100 35.35700
H  24.90700 3.28300 35.10400
H  26.47700 3.03100 34.63500
H  27.20000 2.31000 36.62900
H  26.03900 1.15100 36.75700
H  19.77900 0.81000 31.83800
H  18.67900 0.41800 30.50200
H  18.99200 2.07200 30.75600
H  18.53000 -0.08700 28.63200
H  17.87400 0.38900 27.05200
H  17.93700 1.64200 28.37100
H  24.68000 2.03200 25.23400
H  26.91500 0.03400 25.32900
H  23.31900 -0.12200 24.67600
H  24.74600 -1.04400 24.85400
H  24.64800 0.09800 23.53300
H  26.91800 2.43700 24.38200
H  28.36000 2.18200 25.32800
H  25.93300 3.43600 26.57900
H  26.88500 4.36500 25.49000
H  27.65400 3.53100 26.97000
H  31.25900 0.61300 28.84300
H  30.34300 -0.65200 28.00800
H  31.15600 -0.99200 29.56200
H  28.82100 1.98300 34.03400
H  29.91500 -0.17800 37.47000
H  28.94300 -1.48500 36.66300
H  28.17200 -0.19200 37.47600
Mg -1.64700 34.11600 26.83000
C  -3.39300 32.32900 29.29200
C  -0.48900 36.08400 29.38200
C  0.11200 35.90300 24.49500
C  -3.06700 32.24900 24.40400
N  -1.88400 34.12800 29.07000
C  -2.51600 33.17100 29.84000
C  -2.24000 33.39200 31.36900
C  -1.37700 34.70800 31.27500
C  -1.29400 35.04200 29.80300
C  -1.97700 35.94200 32.00800
C  -1.62900 32.20700 32.17500
C  -2.21600 31.95400 33.62000
H  -1.31400 32.03100 34.89600
N  -0.37600 35.80300 26.94500
C  -0.03900 36.42300 28.07400
C  0.91300 37.40800 27.78300
C  1.25800 37.33000 26.39400
C  0.26700 36.37500 25.85600
C  1.60100 38.19700 28.90000
C  2.36500 37.99200 25.58000
O  2.42700 37.89700 24.34900
C  3.41100 38.92600 26.21700
N  -1.62900 34.24300 24.80600
C  -0.72500 34.90900 23.97800
C  -0.55400 34.27700 22.59000
C  -1.71200 33.29200 22.57000
C  -2.14500 33.17500 24.05300
C  -0.57500 35.20100 21.31000
C  -1.29600 32.00900 21.77600
C  -2.21600 31.61400 20.59000
N  -3.08700 32.75800 26.74500
C  -3.56400 32.00900 25.66900
C  -4.40600 30.94900 26.10700
C  -4.36100 31.06500 27.47200
C  -3.56000 32.18100 27.87200
C  -4.97500 29.87000 25.22900
C  -4.78900 30.42300 28.71200
O  -5.56200 29.45600 28.96700
C  -4.11600 31.14400 29.86800
C  -5.20800 31.51300 30.88300
O  -6.25500 32.14700 30.75200
O  -4.87500 30.78500 32.03000
C  -5.77000 30.84300 33.19300
H  -0.06600 36.73800 30.14800
H  0.76800 36.36900 23.75700
H  -3.46400 31.57400 23.64200
H  -3.23400 33.65700 31.73000
H  -0.35100 34.50600 31.58500
H  -1.09500 36.29000 32.54500
H  -2.80500 35.66400 32.66000
H  -2.42300 36.72700 31.39700
H  -0.55100 32.36100 32.22200
H  -1.71600 31.33900 31.52200
H  -2.76400 31.02800 33.79700
H  -3.01000 32.69700 33.68700
H  2.30200 37.52800 29.40000
H  0.86900 38.65100 29.56700
H  2.14500 39.09000 28.59200
H  3.98100 38.28200 26.88700
H  2.87800 39.72900 26.72500
H  4.10400 39.20000 25.42200
H  0.39000 33.74000 22.67700
H  -2.55900 33.73400 22.04500
H  0.49000 35.39700 21.19300
H  -1.04000 36.16600 21.50800
H  -0.98400 34.69500 20.43400
H  -1.23100 31.16500 22.46200
H  -0.24700 32.00300 21.47900
H  -1.57100 31.41400 19.73500
H  -2.98200 32.36800 20.41000
H  -2.75500 30.69600 20.82600
H  -4.48300 29.77200 24.26000
H  -5.98600 30.16200 24.94500
H  -5.04500 28.95600 25.81700
H  -3.39700 30.49100 30.36200
H  -6.02000 31.87200 33.45300
H  -5.17300 30.52600 34.04800
H  -6.58600 30.12700 33.09600

