158

Mg 0.51500 8.00300 25.75400
C  1.23300 10.02600 28.33400
C  0.48800 5.30600 27.75200
C  0.17100 6.03200 22.94700
C  0.68500 10.78300 23.65700
N  0.99100 7.69600 27.87800
C  1.08100 8.70600 28.77200
C  1.14700 8.20400 30.19600
C  1.09000 6.62200 30.01300
C  0.74700 6.53400 28.42700
C  2.47900 5.84600 30.22700
C  0.04300 8.80500 31.03800
C  0.45400 8.97700 32.49800
H  1.60300 8.12000 33.11800
N  0.41100 5.99000 25.43700
C  0.36900 5.00600 26.38200
C  0.21800 3.71600 25.72900
C  0.08600 3.87300 24.36500
C  0.17500 5.33100 24.18000
C  0.14800 2.41500 26.56700
C  -0.13400 2.92400 23.21800
O  -0.16900 3.17800 21.97900
C  -0.16400 1.42900 23.56900
N  0.43800 8.31400 23.62000
C  0.26700 7.39900 22.65100
C  -0.05800 7.96400 21.30100
C  0.05400 9.44800 21.51700
C  0.52200 9.50400 23.04100
C  0.98000 7.52800 20.22800
C  -1.33500 10.20500 21.28700
C  -1.27400 11.13800 20.16300
N  0.88000 10.05200 25.93500
C  0.91700 11.03100 24.99600
C  1.23300 12.32500 25.59900
C  1.42800 11.96200 26.92400
C  1.13900 10.60000 27.04100
C  1.31100 13.65800 24.89800
C  1.88600 12.39900 28.19400
O  2.36600 13.45300 28.56700
C  1.60000 11.20900 29.17300
C  2.85300 11.08600 29.91700
O  3.94100 10.56400 29.51300
O  2.65200 11.54600 31.16400
C  3.90900 11.82800 31.92100
H  0.48100 4.45500 28.43600
H  -0.06900 5.36100 22.11900
H  0.89600 11.61600 22.98200
H  2.13400 8.51300 30.54000
H  0.29800 6.21400 30.64100
H  2.81200 5.40300 29.28800
H  2.57600 5.01800 30.92900
H  3.25400 6.56900 30.48200
H  -0.76300 8.07300 31.01200
H  -0.16100 9.78700 30.61000
H  -0.40200 8.72800 33.12600
H  0.62300 10.05300 32.54500
H  -0.90300 2.15100 26.44500
H  0.42300 2.53400 27.61500
H  0.80500 1.67200 26.11600
H  -0.87000 1.13900 24.34700
H  0.85500 1.10800 23.78700
H  -0.45900 0.79900 22.72900
H  -1.09900 7.67400 21.15800
H  0.89500 9.85700 20.95700
H  1.57700 6.69800 20.60500
H  1.72300 8.29000 19.99200
H  0.52800 7.21500 19.28700
H  -1.50400 10.70300 22.24200
H  -2.15300 9.49600 21.16400
H  -0.39000 11.02400 19.53600
H  -1.35500 12.11900 20.63100
H  -2.14600 11.03500 19.51700
H  1.63400 14.42500 25.60200
H  0.31400 13.88600 24.51800
H  2.10200 13.54300 24.15700
H  0.78800 11.51000 29.83400
H  4.53500 12.50600 31.34100
H  4.37200 10.85400 32.07800
H  3.60700 12.30700 32.85300
Mg 47.17200 25.23600 29.29700
C  47.80800 27.56000 31.84200
C  45.70600 23.21300 31.70300
C  46.57700 23.03800 26.82800
C  48.87600 27.28500 27.09500
N  46.71100 25.40200 31.50600
C  47.13000 26.42900 32.34700
C  46.59000 26.21200 33.76700
C  45.97400 24.79600 33.72400
C  46.20300 24.39800 32.22500
C  46.50900 23.82500 34.84200
C  45.53800 27.41900 34.05600
C  45.34100 27.85200 35.53000
H  45.83500 26.94700 36.68000
N  46.35700 23.36900 29.29300
C  45.64900 22.73500 30.34800
C  45.05000 21.55600 29.89400
C  45.40900 21.38400 28.49900
C  46.16200 22.62000 28.13500
C  44.32300 20.63100 30.84500
C  45.01200 20.24300 27.48800
O  45.32000 20.24800 26.28900
C  44.12900 19.17700 27.99100
N  47.66200 25.15400 27.21600
C  47.35800 24.07700 26.35500
C  47.63300 24.44200 24.87600
C  48.50200 25.74400 25.02300
C  48.33300 26.09700 26.48400
C  48.38300 23.23800 24.23900
C  48.10300 26.83300 24.04000
C  49.14500 27.88500 23.68900
N  48.10300 27.15200 29.29600
C  48.81300 27.74700 28.40200
C  49.33700 28.95700 28.92300
C  48.94200 28.98300 30.25700
C  48.22700 27.79900 30.42400
C  50.20100 29.93800 28.17900
C  48.92100 29.74300 31.47600
O  49.41600 30.86300 31.66400
C  48.17600 28.85600 32.53900
C  49.13600 28.61700 33.64800
O  50.21400 28.05200 33.47600
O  48.72000 29.17300 34.83700
C  49.61000 29.45000 35.95100
H  45.12100 22.60700 32.39900
H  46.20400 22.44300 25.99200
H  49.44700 27.93200 26.42600
H  47.39400 26.27000 34.50100
H  44.92900 24.86500 34.02600
H  45.69700 23.34600 35.38900
H  47.20400 24.19200 35.59800
H  46.96200 22.93800 34.39900
H  44.60400 26.92200 33.79400
H  45.67600 28.27000 33.38900
H  44.28700 28.05100 35.72200
H  45.89400 28.78600 35.63000
H  43.24600 20.54900 30.70500
H  44.41700 20.77100 31.92200
H  44.74200 19.63500 30.69600
H  43.21300 19.56600 28.43700
H  44.75400 18.47500 28.54300
H  43.88400 18.56800 27.12100
H  46.72900 24.56100 24.27900
H  49.53500 25.42000 24.89600
H  47.71600 22.45000 23.89100
H  49.00700 22.78600 25.01000
H  49.12500 23.64500 23.55200
H  47.26700 27.35800 24.50100
H  47.65600 26.26900 23.22200
H  50.04100 27.80500 24.30500
H  48.86700 28.92300 23.86900
H  49.45500 27.87500 22.64400
H  49.59400 30.78800 27.86700
H  50.52600 29.49400 27.23800
H  51.01200 30.36700 28.76700
H  47.33800 29.38600 32.99100
H  50.60100 29.02800 35.78300
H  49.44100 28.92900 36.89300
H  49.55300 30.52900 36.09900

