158

Mg 0.80100 7.48600 25.11100
C  1.24800 8.69200 28.38100
C  1.39500 4.25900 26.38900
C  0.67500 6.04800 21.94400
C  0.99800 10.60000 23.82300
N  1.26000 6.57500 27.10700
C  1.26500 7.28800 28.32200
C  1.52800 6.28200 29.47400
C  1.70200 4.94100 28.77400
C  1.54300 5.26000 27.33300
C  3.10400 4.26400 28.98400
C  0.46900 6.32900 30.58300
C  1.01300 6.32600 31.96400
H  2.07200 5.31500 32.37800
N  0.84900 5.49200 24.29200
C  1.04500 4.34700 24.99000
C  0.91400 3.20200 24.14400
C  0.66000 3.72300 22.86400
C  0.72500 5.17400 23.00600
C  0.84100 1.82700 24.61600
C  0.46000 2.88400 21.61500
O  0.29100 3.32300 20.46200
C  0.37300 1.31600 21.52900
N  0.93500 8.17500 23.15500
C  0.65800 7.47600 22.07200
C  0.31500 8.40700 20.86700
C  0.43400 9.78800 21.51600
C  0.80900 9.52100 22.90600
C  1.29700 8.17400 19.63300
C  -0.90600 10.62900 21.49300
C  -0.91300 11.96500 20.69800
N  1.16700 9.25800 25.88700
C  1.23700 10.51100 25.24000
C  1.43300 11.50600 26.21400
C  1.41400 10.87400 27.49400
C  1.23000 9.51800 27.22000
C  1.52000 13.02100 25.90700
C  1.41700 11.09000 28.91100
O  1.58500 12.09300 29.67700
C  1.34400 9.62900 29.48900
C  2.59600 9.47700 30.29000
O  3.61700 8.97300 29.93400
O  2.42300 9.99400 31.58700
C  3.56100 9.82200 32.52600
H  1.63300 3.23300 26.67500
H  0.58900 5.63000 20.93900
H  0.84800 11.58300 23.37000
H  2.47500 6.63100 29.88700
H  0.97800 4.21700 29.14800
H  3.57800 4.83900 29.77900
H  3.82200 4.38600 28.17300
H  3.07600 3.24000 29.35700
H  -0.18300 5.45700 30.53400
H  -0.11800 7.24500 30.51500
H  0.23100 6.24900 32.72000
H  1.35400 7.34600 32.13700
H  -0.09200 1.35800 24.30500
H  0.94100 1.61900 25.68100
H  1.70100 1.30300 24.19800
H  1.05500 0.77400 22.18400
H  0.47200 0.96600 20.50100
H  -0.65200 1.19400 21.87800
H  -0.67800 8.12200 20.52200
H  1.24900 10.32700 21.03100
H  2.09100 7.43600 19.74500
H  1.67600 9.14900 19.32500
H  0.73200 7.93100 18.73300
H  -1.11600 10.84500 22.54000
H  -1.70500 9.96500 21.16500
H  -1.38600 11.94600 19.71600
H  0.12800 12.25600 20.56100
H  -1.37900 12.73900 21.30700
H  1.25000 13.71000 26.70700
H  0.73000 13.17600 25.17200
H  2.48100 13.35700 25.51800
H  0.54200 9.58600 30.22600
H  3.50300 10.51700 33.36300
H  4.52100 9.94900 32.02500
H  3.54000 8.83600 32.99100
Mg 25.83800 -8.15200 47.36100
C  27.86400 -5.51400 46.23400
C  23.59800 -7.54900 44.89300
C  24.05200 -10.86900 48.52000
C  28.58200 -9.20300 49.33800
N  25.92400 -6.88100 45.56700
C  26.72700 -5.76700 45.40000
C  26.19500 -4.84200 44.28200
C  24.70900 -5.37100 44.07400
C  24.69200 -6.69400 44.85400
C  23.59700 -4.35200 44.43900
C  27.13800 -4.93200 43.03800
C  27.90300 -3.60900 42.60200
H  27.66000 -3.28100 41.13000
N  24.04400 -8.93100 46.89900
C  23.29900 -8.55200 45.83000
C  22.19500 -9.37300 45.74100
C  22.25500 -10.35400 46.81000
C  23.49200 -10.09100 47.47300
C  21.19100 -9.38200 44.64600
C  21.16600 -11.44400 47.05300
O  20.15700 -11.70400 46.39900
C  21.21300 -12.28900 48.21700
N  26.26400 -9.87400 48.64700
C  25.37600 -10.79800 49.05500
C  25.94200 -11.67400 50.25600
C  27.45500 -11.25800 50.27200
C  27.47800 -10.06500 49.35400
C  25.29900 -11.31700 51.67800
C  28.43300 -12.38600 49.83700
C  29.75300 -12.57300 50.73600
N  27.82800 -7.58100 47.73000
C  28.76100 -7.97800 48.63700
C  29.93600 -7.09100 48.57900
C  29.61500 -6.10800 47.70500
C  28.32200 -6.42700 47.17900
C  31.25100 -7.32900 49.29500
C  30.06200 -4.80100 47.26200
O  31.03300 -4.15700 47.63300
C  28.85700 -4.33400 46.27600
C  28.20600 -3.05700 46.54100
O  28.35200 -2.02700 45.98000
O  27.37100 -3.23000 47.64300
C  26.76100 -1.97700 48.11300
H  22.86600 -7.35600 44.10600
H  23.44300 -11.65900 48.96400
H  29.41500 -9.58600 49.93200
H  26.22600 -3.78500 44.54700
H  24.54400 -5.63200 43.02900
H  23.06600 -4.12300 43.51500
H  24.08700 -3.50500 44.92000
H  22.94600 -4.68100 45.24900
H  26.60500 -5.47600 42.25800
H  28.00200 -5.50800 43.36800
H  28.95100 -3.63300 42.90100
H  27.53300 -2.77000 43.19100
H  20.31500 -8.78500 44.90300
H  20.94700 -10.39900 44.34200
H  21.71400 -9.04800 43.75000
H  21.97500 -13.06700 48.17100
H  20.31400 -12.90000 48.29800
H  21.22200 -11.73700 49.15600
H  25.73800 -12.71600 50.01100
H  27.79000 -10.93900 51.26000
H  24.50600 -12.04100 51.86600
H  24.95200 -10.28400 51.71100
H  25.98200 -11.56700 52.49000
H  28.87800 -12.13200 48.87600
H  27.91700 -13.34700 49.85600
H  29.55000 -13.28400 51.53700
H  30.08600 -11.56300 50.97300
H  30.54000 -12.96600 50.09300
H  31.67200 -8.21200 48.81500
H  31.06900 -7.51500 50.35400
H  31.94700 -6.50400 49.14500
H  29.35900 -4.11600 45.33300
H  26.20000 -1.45500 47.33700
H  27.53400 -1.23600 48.31600
H  26.14600 -2.26100 48.96600

