158

Mg 46.42900 16.28300 28.21700
C  44.09800 15.80600 30.77900
C  48.48300 17.64600 30.57800
C  48.28200 17.26200 25.66700
C  44.06700 14.92700 25.93300
N  46.25400 16.71100 30.39900
C  45.25500 16.40300 31.18800
C  45.55400 16.82100 32.64800
C  46.86800 17.61300 32.53200
C  47.28700 17.26900 31.09000
C  46.70300 19.15500 32.80400
C  45.74500 15.55400 33.53000
C  46.45300 15.71400 34.91400
H  46.03400 16.83500 35.88500
N  48.18100 17.23500 28.12100
C  48.94700 17.61900 29.19100
C  50.19600 18.23300 28.70200
C  50.18800 18.12000 27.25500
C  48.86200 17.49000 26.93900
C  51.21400 18.78100 29.67600
C  51.24900 18.45500 26.29300
O  51.14400 18.16800 25.09400
C  52.50000 19.16800 26.73500
N  46.17300 16.16500 26.05600
C  47.10100 16.65600 25.25700
C  46.67300 16.46600 23.75100
C  45.44100 15.54700 23.90100
C  45.23600 15.46100 25.37100
C  46.44700 17.81300 23.09600
C  45.58400 14.11800 23.29200
C  44.55500 13.62500 22.38200
N  44.48900 15.54800 28.25800
C  43.65900 15.05300 27.28400
C  42.37300 14.75600 27.91600
C  42.46700 15.02400 29.29900
C  43.78200 15.47700 29.46300
C  41.25200 14.19700 27.12200
C  41.89300 14.97600 30.56600
O  40.83000 14.54700 30.93200
C  42.94400 15.54100 31.59000
C  42.31600 16.61400 32.35600
O  42.05600 17.75300 31.95700
O  42.14700 16.17800 33.64500
C  41.91000 17.26000 34.52200
H  49.08700 18.13300 31.34700
H  48.85700 17.48200 24.76500
H  43.33100 14.57200 25.20900
H  44.80700 17.53600 32.99400
H  47.69700 17.23600 33.13100
H  47.33700 19.35800 33.66700
H  45.65400 19.35100 33.02100
H  47.05500 19.70400 31.93000
H  46.02900 14.70800 32.90400
H  44.77300 15.40000 33.99900
H  47.51100 15.84900 34.69000
H  46.26400 14.74800 35.38300
H  51.85600 19.55200 29.25100
H  51.82800 17.93600 29.98700
H  50.66900 19.35800 30.42300
H  53.14100 18.73200 27.50200
H  52.05200 20.09000 27.10600
H  53.08800 19.35900 25.83800
H  47.53400 16.00300 23.27000
H  44.51200 15.89300 23.45000
H  45.48600 17.97800 22.61000
H  47.26800 17.97400 22.39700
H  46.60100 18.51300 23.91700
H  45.72500 13.37600 24.07800
H  46.59300 13.98400 22.90100
H  44.30700 12.61400 22.70200
H  44.85300 13.49500 21.34200
H  43.63300 14.19500 22.50400
H  40.28900 14.43000 27.57600
H  41.43500 13.12300 27.06900
H  41.27400 14.61100 26.11400
H  43.04100 14.72200 32.30300
H  42.72400 17.97700 34.62600
H  41.84400 16.78200 35.50000
H  40.94200 17.72000 34.32500
Mg -4.39600 25.12200 26.29700
C  -3.23800 26.90500 29.10800
C  -6.25900 23.25400 28.37400
C  -5.47600 23.38600 23.54700
C  -2.76100 27.27600 24.25600
N  -4.74600 25.15700 28.51200
C  -4.13600 25.88000 29.50900
C  -4.77400 25.61800 30.84200
C  -5.49400 24.23600 30.53600
C  -5.60600 24.26800 29.05900
C  -4.65000 23.09200 31.02700
C  -5.68900 26.82600 31.20600
C  -5.76300 27.00500 32.73400
H  -5.39900 25.86700 33.62900
N  -5.63100 23.42900 26.00200
C  -6.34600 22.91300 26.96900
C  -7.28700 21.91000 26.42000
C  -7.04600 21.90900 24.95600
C  -5.95200 22.91600 24.76600
C  -8.27500 21.21200 27.30900
C  -7.67100 21.00000 23.95800
O  -7.30500 20.85900 22.79400
C  -8.90300 20.23200 24.36800
N  -4.14500 25.25800 24.17000
C  -4.63400 24.43000 23.23100
C  -4.26000 24.79200 21.77700
C  -3.57700 26.18000 22.09500
C  -3.49100 26.27500 23.61400
C  -3.31400 23.72400 21.03300
C  -4.28100 27.42400 21.55100
C  -3.68600 28.13400 20.32700
N  -3.10200 26.62700 26.60300
C  -2.48700 27.39600 25.63800
C  -1.63500 28.39200 26.30000
C  -1.95500 28.27100 27.63800
C  -2.79500 27.17700 27.75000
C  -0.78200 29.40900 25.58800
C  -1.76600 28.84800 28.98100
O  -1.10900 29.89100 29.33100
C  -2.40800 27.79100 29.96000
C  -1.27600 27.11800 30.78600
O  -0.51000 26.20000 30.33500
O  -1.43700 27.44300 32.07200
C  -0.79000 26.59900 33.02300
H  -6.83900 22.66200 29.08600
H  -5.87200 22.85200 22.68100
H  -2.19900 27.93700 23.59300
H  -3.93000 25.47300 31.51600
H  -6.51700 24.13900 30.89900
H  -5.21700 22.42300 31.67400
H  -3.67200 23.33500 31.44300
H  -4.41300 22.39300 30.22500
H  -6.72600 26.66000 30.91300
H  -5.33800 27.72700 30.70300
H  -6.77600 27.29300 33.01300
H  -5.14500 27.87900 32.94100
H  -7.95600 21.00500 28.33100
H  -8.34000 20.17400 26.98200
H  -9.12200 21.89400 27.22600
H  -9.59300 20.69400 25.07300
H  -8.51800 19.26700 24.69900
H  -9.52200 19.91100 23.53000
H  -5.17800 24.88000 21.19600
H  -2.59900 26.13700 21.61600
H  -3.28600 22.83400 21.66200
H  -2.29100 24.09600 20.97400
H  -3.87300 23.57100 20.11000
H  -4.39400 28.23500 22.27100
H  -5.25600 27.23000 21.10500
H  -4.38000 28.55100 19.59700
H  -3.02700 27.39500 19.87100
H  -3.01400 28.93700 20.63000
H  0.20200 29.01200 25.83600
H  -0.85900 30.38700 26.06300
H  -1.07300 29.36400 24.53900
H  -2.97600 28.24300 30.77400
H  0.12300 27.07800 33.37800
H  -0.51500 25.61700 32.63700
H  -1.40500 26.46400 33.91200

