158

Mg 24.63700 0.92400 30.21200
C  26.42500 0.98500 33.25400
C  21.77100 1.16200 32.04000
C  22.91900 0.91200 27.38100
C  27.58400 0.54600 28.57400
N  24.24000 1.11000 32.40200
C  25.06000 1.10200 33.47200
C  24.28900 1.40000 34.78100
C  22.81700 1.10200 34.33900
C  22.94000 1.13200 32.81500
C  22.22500 -0.24000 34.90600
C  24.64400 2.78900 35.41000
C  25.40200 2.86700 36.71900
H  24.78200 3.67900 37.81800
N  22.63200 0.93400 29.77300
C  21.57100 0.99300 30.65400
C  20.32000 1.03000 29.94500
C  20.60300 0.84900 28.55200
C  22.12700 0.94800 28.51500
C  18.96300 1.18000 30.67000
C  19.67400 0.60200 27.39300
O  20.16700 0.35800 26.28300
C  18.13000 0.52000 27.59600
N  25.13200 0.74700 28.27000
C  24.34100 0.82700 27.22600
C  25.09200 1.18200 25.95500
C  26.56800 0.90500 26.36500
C  26.45000 0.69000 27.83500
C  24.63700 0.37800 24.72200
C  27.51500 2.15100 25.99600
C  27.43800 3.42800 26.88100
N  26.63000 0.74700 30.70400
C  27.72900 0.45600 29.94600
C  28.91200 0.27900 30.77700
C  28.44100 0.62500 32.06900
C  27.03600 0.74900 32.00700
C  30.37700 0.05400 30.32300
C  28.80900 0.85500 33.40700
O  29.95100 0.83700 33.94300
C  27.53300 1.13500 34.25500
C  27.64500 0.04600 35.27300
O  27.07700 -1.03400 35.26700
O  28.45300 0.49900 36.33500
C  28.41000 -0.48600 37.49400
H  20.85400 1.40200 32.58200
H  22.45300 1.00600 26.39800
H  28.56100 0.51600 28.08700
H  24.63400 0.57700 35.40700
H  22.10300 1.87100 34.63100
H  21.39000 -0.03800 35.57700
H  22.91000 -0.86000 35.48500
H  21.75700 -0.81900 34.11100
H  23.72500 3.36900 35.49700
H  25.25100 3.32500 34.68100
H  26.41500 3.25700 36.62400
H  25.67900 1.86400 37.04300
H  19.08400 0.91700 31.72100
H  18.07900 0.76100 30.19000
H  18.78800 2.25500 30.71800
H  17.61900 0.34800 26.64900
H  17.91100 1.54400 27.89900
H  17.90900 -0.18800 28.39500
H  24.99300 2.26000 25.83100
H  26.86000 0.05200 25.75300
H  24.36900 -0.62500 25.05200
H  25.42200 0.22900 23.98100
H  23.80500 0.90400 24.25400
H  27.06200 2.41600 25.04000
H  28.53500 1.79100 25.86000
H  28.42100 3.73500 27.23700
H  26.73600 3.44800 27.71500
H  27.19800 4.23600 26.18900
H  30.44800 0.59900 29.38200
H  30.64500 -1.00100 30.27100
H  30.96700 0.49000 31.12900
H  27.56800 2.08100 34.79400
H  29.26200 -0.23400 38.12500
H  28.51100 -1.49100 37.08500
H  27.52400 -0.20300 38.06200
Mg 48.61800 35.17200 27.44500
C  46.65600 33.87200 30.06900
C  49.30100 37.92100 29.34600
C  50.37800 36.28500 24.84700
C  47.55200 32.34600 25.49600
N  48.14900 35.70700 29.48900
C  47.40100 35.01100 30.42400
C  47.74500 35.58800 31.80600
C  47.94400 37.09400 31.46800
C  48.49500 36.95000 29.99100
C  46.80400 38.19100 31.64900
C  48.94500 34.78600 32.54900
C  48.98500 34.64900 34.09700
H  48.11800 35.56700 34.87300
N  49.56200 36.92100 27.10000
C  49.77600 37.88800 28.03000
C  50.64300 38.88600 27.40600
C  51.08600 38.39000 26.12300
C  50.36600 37.13300 25.97900
C  50.98100 40.25800 28.02600
C  52.16500 38.92300 25.22000
O  52.43900 38.40300 24.17700
C  52.97800 40.15500 25.63800
N  48.80100 34.45100 25.47600
C  49.63400 35.10700 24.62400
C  49.84200 34.37300 23.32500
C  48.92000 33.01900 23.51200
C  48.38400 33.29200 24.93700
C  49.34000 35.33100 22.24100
C  49.84200 31.65600 23.31900
C  49.50800 30.80600 22.06400
N  47.38300 33.50400 27.64700
C  47.05700 32.41900 26.84000
C  46.21100 31.52700 27.48900
C  46.04800 32.11100 28.75000
C  46.77700 33.27200 28.78100
C  45.60800 30.24600 26.98700
C  45.33000 31.89300 29.99500
O  44.49100 31.07500 30.27200
C  45.79400 33.01200 30.96700
C  46.56100 32.33200 32.06200
O  47.57000 31.66100 31.99900
O  45.72300 32.40600 33.16000
C  46.07400 31.48300 34.19500
H  49.57600 38.80700 29.92300
H  50.98000 36.60600 23.99400
H  47.23900 31.41500 25.01800
H  46.88100 35.53700 32.47000
H  48.75400 37.47600 32.08900
H  46.30000 38.42600 30.71100
H  47.07800 39.10200 32.18100
H  45.98500 37.75900 32.22400
H  49.89600 35.22200 32.24500
H  48.89000 33.77900 32.13500
H  49.99600 34.65100 34.50500
H  48.65800 33.63900 34.34300
H  50.18000 40.51900 28.71800
H  50.87900 40.92700 27.17100
H  51.89500 40.43500 28.59300
H  53.83100 40.21900 24.96200
H  53.20100 40.06500 26.70100
H  52.27800 40.96800 25.44800
H  50.90300 34.12900 23.29600
H  48.07100 33.17300 22.84600
H  48.64600 36.08600 22.61100
H  48.87000 34.84900 21.38400
H  50.15200 35.92300 21.82000
H  49.87700 30.93400 24.13400
H  50.84900 31.99900 23.08400
H  49.26400 29.82500 22.47200
H  50.37900 30.70100 21.41800
H  48.65100 31.22800 21.53900
H  45.39900 30.23700 25.91800
H  44.72000 30.02100 27.57700
H  46.37100 29.51100 27.24600
H  45.09900 33.71100 31.43100
H  45.51400 31.61800 35.12000
H  47.08500 31.55800 34.59500
H  46.01200 30.44200 33.87700

