158

Mg 8.40000 3.79100 27.76500
C  9.72800 2.33600 30.76400
C  6.51800 5.84100 29.96400
C  6.77400 4.93000 25.15700
C  9.43400 1.01300 26.02100
N  8.21600 4.11700 30.08000
C  8.90800 3.41100 31.05700
C  8.75200 4.08000 32.46800
C  7.66500 5.11300 32.10300
C  7.40800 5.00700 30.65400
C  6.47100 5.20400 33.03900
C  10.06400 4.67800 32.90900
C  10.01000 5.26500 34.30500
H  10.96100 4.81400 35.44000
N  6.88800 5.24700 27.62600
C  6.21000 5.94000 28.55700
C  5.40200 6.92700 27.97800
C  5.45500 6.74400 26.58700
C  6.36200 5.55100 26.40700
C  4.57500 7.96700 28.75300
C  4.94700 7.56200 25.48000
O  5.08500 7.32500 24.30600
C  4.20000 8.85800 25.73200
N  8.27500 3.20100 25.86100
C  7.63500 3.87900 24.91400
C  7.57000 3.17000 23.54600
C  8.25100 1.83900 23.92600
C  8.75100 2.01900 25.36300
C  6.22900 3.16300 22.81000
C  9.37900 1.51700 22.90600
C  9.11300 0.23900 22.22300
N  9.43700 2.03600 28.20400
C  9.76200 0.97300 27.44700
C  10.51800 -0.03900 28.17700
C  10.57500 0.48900 29.51200
C  9.89200 1.73000 29.46500
C  10.90600 -1.42700 27.65600
C  10.97800 0.17300 30.81100
O  11.63200 -0.75300 31.27100
C  10.51700 1.45600 31.69100
C  9.72100 0.91600 32.81500
O  8.60100 0.45900 32.77100
O  10.46600 1.16600 33.97800
C  9.81600 0.87100 35.23400
H  5.94100 6.46200 30.65300
H  6.40100 5.22300 24.17300
H  9.67600 0.14800 25.40000
H  8.35600 3.40100 33.22400
H  8.14500 6.08600 32.20700
H  6.16800 4.22400 33.40800
H  5.55800 5.33900 32.46100
H  6.45800 6.00600 33.77700
H  10.40300 5.38400 32.15000
H  10.85700 3.94000 32.79300
H  8.98300 5.15300 34.65200
H  10.13600 6.34700 34.28200
H  5.18800 8.86800 28.72200
H  4.53100 7.60900 29.78200
H  3.59600 8.11200 28.29600
H  4.22700 9.45500 24.82100
H  4.69800 9.41900 26.52300
H  3.21900 8.70800 26.18300
H  8.16700 3.68700 22.79400
H  7.62700 0.94600 23.97400
H  5.40700 3.45600 23.46300
H  6.05600 2.11300 22.57500
H  6.28900 3.76100 21.90100
H  10.38900 1.54300 23.31300
H  9.52600 2.27100 22.13400
H  9.32600 0.40700 21.16700
H  8.15100 -0.24900 22.37600
H  9.82600 -0.50800 22.57400
H  10.04200 -1.86700 27.15900
H  11.17700 -2.04600 28.51100
H  11.83800 -1.37200 27.09200
H  11.41200 1.94900 32.06900
H  10.65800 0.67800 35.89800
H  9.14700 0.01500 35.13900
H  9.25700 1.79900 35.35400
Mg -1.91400 34.03000 27.13700
C  -3.38100 32.37900 29.79300
C  -0.63800 36.37900 29.34800
C  -1.03900 35.88800 24.47400
C  -3.61900 31.84200 24.92100
N  -2.08700 34.42600 29.31200
C  -2.62500 33.50100 30.18700
C  -2.36900 33.98200 31.66100
C  -1.56800 35.30500 31.51300
C  -1.44800 35.44400 29.94000
C  -2.26600 36.51200 32.27700
C  -1.74700 33.00200 32.66200
C  -2.60300 32.36600 33.78800
H  -1.86000 32.08900 35.10600
N  -0.89900 35.82600 26.95900
C  -0.41600 36.60100 27.97000
C  0.22000 37.76100 27.41700
C  0.24500 37.61500 25.98000
C  -0.57300 36.45500 25.69700
C  0.79900 38.83600 28.20800
C  0.89500 38.42100 24.93400
O  0.74600 38.17500 23.74300
C  1.79900 39.66400 25.16100
N  -2.34300 33.92500 24.97300
C  -1.84600 34.82000 24.06500
C  -2.25800 34.42400 22.67500
C  -2.79500 33.00700 22.83400
C  -2.95700 32.89900 24.32100
C  -3.28600 35.54800 22.14000
C  -1.83400 31.85400 22.23000
C  -0.78400 31.14100 23.11800
N  -3.14900 32.44200 27.29600
C  -3.80600 31.62400 26.31500
C  -4.70000 30.65200 26.88600
C  -4.52300 30.87600 28.30600
C  -3.62900 31.96400 28.42900
C  -5.67600 29.73800 26.21700
C  -4.82000 30.43300 29.65900
O  -5.49000 29.48700 30.07500
C  -4.20800 31.42000 30.65200
C  -5.31400 32.06200 31.39800
O  -5.91500 33.07000 31.03300
O  -5.56800 31.39400 32.55200
C  -6.50800 32.07200 33.41600
H  -0.22500 37.05100 30.10200
H  -0.62100 36.40700 23.60900
H  -4.05500 31.26700 24.10100
H  -3.38900 34.15100 32.00700
H  -0.61500 35.12200 32.00800
H  -1.37600 37.08800 32.53200
H  -2.74300 36.19900 33.20500
H  -2.87500 37.07900 31.57300
H  -0.88700 33.46000 33.14900
H  -1.40500 32.14700 32.07900
H  -3.07600 31.42500 33.50600
H  -3.31400 33.15700 34.02700
H  1.85300 38.77600 27.93500
H  0.76800 38.62900 29.27800
H  0.25100 39.76100 28.02700
H  2.32300 39.96500 24.25300
H  2.51100 39.40400 25.94400
H  1.15500 40.45300 25.54700
H  -1.42600 34.53400 21.98000
H  -3.74700 32.80900 22.34100
H  -3.24700 36.45800 22.73900
H  -4.30300 35.16700 22.23400
H  -3.04700 35.87000 21.12600
H  -1.35100 32.40300 21.42200
H  -2.57500 31.18000 21.80000
H  -0.70400 31.39500 24.17500
H  0.22800 31.40600 22.81200
H  -0.92300 30.06200 23.18400
H  -5.53300 28.75700 26.67000
H  -5.48500 29.58900 25.15500
H  -6.64700 30.15600 26.48500
H  -3.68700 30.68400 31.26400
H  -7.40700 32.35600 32.87000
H  -6.06400 33.01200 33.74400
H  -6.73800 31.43300 34.26900

