158

Mg 0.86100 9.24900 27.06400
C  1.46800 11.27100 29.89300
C  1.18600 6.50500 29.22900
C  0.44800 7.36100 24.55300
C  1.09800 12.22200 25.09100
N  1.35600 8.98400 29.25100
C  1.44400 9.91400 30.25900
C  1.29600 9.40100 31.64800
C  1.49600 7.83600 31.40700
C  1.23100 7.72900 29.90400
C  2.82400 7.30500 31.87200
C  -0.10300 9.85100 32.23400
C  -0.41800 9.25900 33.67700
H  0.74200 8.69800 34.55900
N  0.84000 7.28500 26.86800
C  1.04300 6.28600 27.86600
C  0.84100 4.96000 27.26400
C  0.49400 5.20900 25.90400
C  0.55200 6.62900 25.72700
C  0.96400 3.67000 28.00900
C  -0.03800 4.26500 24.74100
O  -0.37100 4.66800 23.60700
C  -0.15000 2.75300 24.86300
N  0.71100 9.81800 25.15400
C  0.55200 8.80400 24.27100
C  0.65800 9.31500 22.75000
C  0.42900 10.86400 23.04800
C  0.75100 10.99300 24.54100
C  2.00700 9.02700 22.14700
C  -0.98700 11.36100 22.81400
C  -1.16200 11.89100 21.35100
N  1.20400 11.38500 27.35000
C  1.27300 12.42900 26.49700
C  1.48000 13.64400 27.24300
C  1.67000 13.25000 28.58800
C  1.34800 11.85200 28.58800
C  1.57600 15.02800 26.63600
C  1.97600 13.56500 29.93800
O  2.47600 14.60000 30.34800
C  1.73700 12.42800 30.81800
C  2.85400 12.18600 31.81400
O  3.96600 11.83100 31.45200
O  2.48700 12.52700 33.10500
C  3.40700 12.33500 34.18500
H  1.22700 5.58000 29.80800
H  0.33700 6.84100 23.59900
H  1.26600 13.02800 24.37300
H  2.04100 9.82100 32.32400
H  0.69700 7.28000 31.89800
H  3.25900 6.83100 30.99200
H  2.83100 6.56700 32.67400
H  3.41200 8.16300 32.19800
H  -0.92400 9.36400 31.70800
H  -0.19800 10.93500 32.30000
H  -1.05100 8.39600 33.46700
H  -0.89600 10.02100 34.29200
H  -0.02500 3.29100 28.26600
H  1.62100 3.76500 28.87500
H  1.53000 3.03000 27.33200
H  0.18500 2.26900 25.78000
H  0.41100 2.27700 24.05800
H  -1.21800 2.61800 24.69200
H  -0.12400 8.93000 22.09700
H  1.20400 11.47500 22.58500
H  2.58200 8.55500 22.94400
H  2.51600 9.92400 21.79400
H  1.80300 8.32300 21.34000
H  -1.17700 12.22900 23.44500
H  -1.76000 10.60500 22.95000
H  -0.30300 11.55000 20.77300
H  -1.16800 12.97900 21.29100
H  -2.07700 11.41600 20.99600
H  2.56600 15.26600 26.24800
H  1.14500 15.74300 27.33700
H  0.99900 15.04700 25.71200
H  0.85900 12.66000 31.42200
H  3.66200 13.37500 34.39300
H  4.23000 11.69700 33.86400
H  2.98000 11.86900 35.07300
Mg 55.61300 23.86000 45.23300
C  53.31400 26.28500 44.37800
C  53.32300 21.41000 44.37300
C  58.08100 21.52600 45.40400
C  58.04000 26.27000 45.82500
N  53.58700 23.90900 44.49500
C  52.80900 24.98000 44.19700
C  51.43500 24.53300 43.75200
C  51.43100 23.04000 44.14000
C  52.87700 22.73800 44.43000
C  50.61600 22.56800 45.34500
C  51.21800 24.82500 42.25400
C  49.81000 25.11300 41.74500
H  49.18800 24.33100 40.63400
N  55.66100 21.75400 44.91500
C  54.61400 20.95300 44.60600
C  55.05700 19.60200 44.52000
C  56.37600 19.53200 44.97400
C  56.79400 21.01100 45.11900
C  54.10800 18.46200 44.20800
C  57.22600 18.31400 45.03100
O  56.77000 17.15900 44.96200
C  58.69200 18.38700 44.91400
N  57.79100 23.88900 45.44100
C  58.57000 22.82200 45.59500
C  59.90500 23.21900 46.31000
C  59.99500 24.74700 46.09800
C  58.52100 25.02500 45.80900
C  59.83800 22.73300 47.75800
C  60.96000 25.09200 44.91300
C  62.45500 25.46000 45.31400
N  55.67000 25.90000 45.23100
C  56.66800 26.75000 45.58100
C  56.10900 28.12700 45.60000
C  54.75100 27.94900 45.15700
C  54.60900 26.63700 44.89600
C  56.74700 29.33800 46.09100
C  53.49600 28.66400 44.92400
O  53.18700 29.85600 44.97700
C  52.59500 27.60100 44.17400
C  52.48400 28.02900 42.72700
O  53.36300 28.18400 41.90500
O  51.14600 28.33200 42.49800
C  50.75100 28.87400 41.17200
H  52.63800 20.67800 43.94000
H  58.83400 20.86600 45.84100
H  58.76000 27.05100 46.07900
H  50.67400 25.07100 44.31800
H  51.14400 22.54200 43.21400
H  49.89900 23.36100 45.55900
H  51.24800 22.30100 46.19200
H  50.13900 21.66800 44.95800
H  51.59600 23.96400 41.70200
H  51.85200 25.66300 41.96700
H  49.89800 26.13700 41.38100
H  49.13000 25.17000 42.59500
H  54.66000 17.58700 43.86300
H  53.41300 18.92400 43.50800
H  53.36600 18.26400 44.98100
H  59.08200 17.44100 44.53900
H  59.13400 18.80100 45.82100
H  58.77000 19.12400 44.11500
H  60.71700 22.63900 45.87100
H  60.34700 25.27600 46.98400
H  60.40500 21.82700 47.97000
H  58.79700 22.49300 47.97800
H  60.16400 23.53500 48.42100
H  60.61900 25.99000 44.39600
H  60.95900 24.33300 44.13100
H  62.52500 25.43900 46.40200
H  62.75500 26.42300 44.90200
H  63.09800 24.66200 44.94200
H  57.63800 29.65800 45.55000
H  56.88200 29.13800 47.15400
H  56.07200 30.19400 46.09000
H  51.62400 27.60300 44.66900
H  50.75000 28.08100 40.42400
H  51.44100 29.62200 40.78100
H  49.76400 29.33700 41.15300

