158

Mg 24.38400 -5.63200 45.52600
C  26.43300 -3.27600 44.02300
C  21.76200 -4.43600 43.72000
C  22.55600 -8.58100 46.28400
C  27.15300 -7.28200 46.82200
N  24.19200 -4.01600 44.11100
C  25.10900 -3.10900 43.64300
C  24.50100 -2.12500 42.62900
C  22.94700 -2.27500 42.78400
C  22.90000 -3.59700 43.62100
C  22.12400 -1.04500 43.34400
C  25.09300 -2.25800 41.16400
C  25.39800 -0.97700 40.29500
H  25.34000 -1.05200 38.78400
N  22.29600 -6.36500 45.11200
C  21.39700 -5.65600 44.37000
C  20.19300 -6.45500 44.32800
C  20.43200 -7.61400 45.20500
C  21.80300 -7.54900 45.61500
C  18.98300 -5.96800 43.60200
C  19.29900 -8.62700 45.52300
O  18.25700 -8.56200 44.96900
C  19.44400 -9.62600 46.58900
N  24.77700 -7.67400 46.26500
C  23.86400 -8.66200 46.63200
C  24.47900 -9.90300 47.33700
C  25.88500 -9.33700 47.71200
C  25.95700 -7.99500 46.92000
C  23.62400 -10.43900 48.56000
C  27.11000 -10.34300 47.39000
C  28.08500 -10.54500 48.67000
N  26.38900 -5.38300 45.52500
C  27.40800 -6.08500 46.14600
C  28.70600 -5.39900 45.93900
C  28.30700 -4.24000 45.14900
C  26.93800 -4.35000 44.82700
C  29.96400 -5.73800 46.60900
C  28.86100 -3.06900 44.56700
O  29.96400 -2.59200 44.68300
C  27.73000 -2.51400 43.62900
C  27.41800 -1.03400 44.01700
O  27.38000 -0.54300 45.15100
O  27.25100 -0.36100 42.82000
C  26.92600 1.11200 42.90300
H  20.93100 -4.01800 43.14800
H  22.01700 -9.50000 46.51900
H  27.94900 -7.82500 47.33600
H  24.74900 -1.11700 42.96300
H  22.54100 -2.41900 41.78300
H  22.79400 -0.18600 43.38700
H  21.86600 -1.25900 44.38100
H  21.19200 -0.87500 42.80600
H  24.48800 -2.90700 40.53100
H  26.07300 -2.73300 41.22000
H  26.45700 -0.83600 40.51100
H  24.88400 -0.05200 40.55600
H  18.01800 -6.34700 43.94100
H  19.05100 -6.12100 42.52500
H  18.86700 -4.89000 43.71600
H  18.47300 -9.75100 47.06600
H  20.03900 -9.15800 47.37300
H  19.84600 -10.53900 46.15000
H  24.60800 -10.63400 46.53900
H  25.78100 -9.13100 48.77700
H  22.99600 -11.21400 48.12100
H  23.07500 -9.62200 49.02900
H  24.28000 -10.95600 49.26100
H  27.72200 -9.93700 46.58400
H  26.73400 -11.25000 46.91600
H  28.03500 -11.62300 48.82900
H  27.85500 -9.93100 49.54000
H  29.07800 -10.24100 48.34000
H  30.61800 -6.24700 45.90100
H  30.02300 -6.44900 47.43300
H  30.53500 -4.84200 46.85100
H  27.91800 -2.53600 42.55600
H  26.35600 1.37100 43.79500
H  26.34400 1.34200 42.01100
H  27.84100 1.70300 42.95000
Mg 6.80400 53.92800 39.52200
C  5.95100 50.51900 39.87100
C  9.89800 53.12600 38.69700
C  7.11100 57.07700 38.23700
C  3.37700 54.48700 39.91200
N  7.73200 52.01400 39.03400
C  7.23700 50.76900 39.30600
C  8.31300 49.73400 39.23800
C  9.71000 50.53800 39.13600
C  9.13100 51.98900 39.01500
C  10.60200 50.36800 40.44800
C  8.14600 48.93400 37.89200
C  7.87400 49.70200 36.60000
H  6.45600 49.71500 36.11300
N  8.29800 54.99300 38.68300
C  9.56400 54.48800 38.51100
C  10.46200 55.56800 38.23200
C  9.71200 56.72500 37.87000
C  8.29500 56.27600 38.22100
C  11.87600 55.28600 37.97500
C  10.22200 58.09800 37.34400
O  11.40100 58.39100 37.31200
C  9.33800 59.19500 37.11700
N  5.41200 55.46300 38.95000
C  5.81700 56.75300 38.66700
C  4.72200 57.79300 38.73000
C  3.50800 56.98300 39.23700
C  4.08900 55.53000 39.31800
C  5.11300 59.15000 39.53500
C  2.31200 57.09700 38.25900
C  1.12100 57.91200 38.79600
N  5.01400 52.77400 39.96900
C  3.72900 53.21100 40.22600
C  2.94600 52.16200 40.67500
C  3.82000 51.04200 40.73300
C  5.02200 51.49000 40.14400
C  1.48600 52.36700 41.05000
C  3.88500 49.59600 40.96100
O  3.05800 48.78200 41.40100
C  5.32300 49.21300 40.38100
C  5.00900 48.24900 39.26800
O  4.19700 48.34500 38.34100
O  5.70300 47.12400 39.56600
C  5.38300 45.96000 38.73700
H  10.89500 52.71000 38.53600
H  7.23900 58.12800 37.97100
H  2.33100 54.71900 40.12400
H  8.34500 49.15500 40.16100
H  10.21800 50.24100 38.21800
H  10.43100 49.36500 40.83800
H  10.37700 51.07100 41.24900
H  11.64000 50.54000 40.16400
H  7.46600 48.09000 38.01300
H  9.09200 48.40700 37.76900
H  8.55200 49.22100 35.89400
H  8.20100 50.73900 36.68100
H  12.26500 54.67800 38.79300
H  12.46900 56.19300 38.09300
H  12.11000 54.82400 37.01600
H  8.74600 58.91400 36.24600
H  9.95800 60.07400 36.94200
H  8.68300 59.41200 37.96100
H  4.49400 58.13800 37.72200
H  3.16600 57.20700 40.24700
H  5.23600 59.99900 38.86300
H  5.96600 58.79600 40.11400
H  4.29800 59.41800 40.20800
H  1.79500 56.17600 37.98700
H  2.60700 57.51500 37.29600
H  1.19100 57.98000 39.88200
H  0.15600 57.47700 38.53400
H  1.15900 58.95400 38.47700
H  1.22700 51.58100 41.76000
H  0.83000 52.25600 40.18600
H  1.24700 53.38100 41.36900
H  6.00200 48.71200 41.07100
H  4.31500 45.91300 38.52300
H  5.64500 45.05300 39.28200
H  5.91700 45.95400 37.78700

