158

Mg 24.23900 -5.64300 45.45600
C  26.61300 -3.81700 43.84200
C  21.84200 -4.39400 43.36100
C  22.25400 -8.31000 46.32800
C  26.79600 -7.03800 47.45000
N  24.32100 -4.38400 43.79100
C  25.34300 -3.57200 43.39600
C  24.93700 -2.58300 42.34300
C  23.34200 -2.58200 42.43300
C  23.14800 -3.85100 43.25600
C  22.65300 -1.33300 43.04800
C  25.51800 -3.00100 40.96000
C  26.15900 -1.86600 40.14900
H  25.89300 -1.88700 38.63500
N  22.23400 -6.11200 45.12700
C  21.43900 -5.50900 44.16300
C  20.13400 -6.17200 44.16700
C  20.24200 -7.38100 44.95200
C  21.61700 -7.36100 45.48400
C  18.97100 -5.72800 43.23200
C  19.19400 -8.37000 45.24900
O  18.07600 -8.24800 44.64400
C  19.29900 -9.57300 46.16200
N  24.55200 -7.50100 46.55200
C  23.56700 -8.39800 46.81300
C  24.04900 -9.51700 47.74000
C  25.45100 -9.03000 48.12000
C  25.67000 -7.80200 47.36200
C  23.19900 -9.79600 48.98800
C  26.54000 -10.07400 47.93000
C  27.60400 -10.46300 49.08800
N  26.27500 -5.44400 45.70800
C  27.14900 -5.98800 46.53500
C  28.38600 -5.31500 46.42500
C  28.25800 -4.42000 45.35000
C  26.91900 -4.60000 44.93600
C  29.58200 -5.48200 47.31400
C  28.94600 -3.48600 44.53400
O  30.09000 -3.06500 44.52500
C  27.89000 -3.07000 43.48400
C  27.75600 -1.60800 43.63700
O  27.32200 -1.04900 44.64900
O  28.34300 -0.93800 42.59900
C  28.46600 0.51300 42.94800
H  21.10900 -3.82100 42.78800
H  21.72000 -9.20400 46.66000
H  27.41700 -7.29400 48.31100
H  25.32800 -1.58000 42.51600
H  22.94900 -2.70700 41.42400
H  22.14400 -1.62300 43.96800
H  22.00500 -0.83000 42.33000
H  23.44000 -0.58500 43.13600
H  24.69800 -3.41800 40.37600
H  26.20200 -3.84400 41.05700
H  27.22100 -1.97300 40.37100
H  25.78400 -0.90100 40.49000
H  19.21500 -4.68000 43.05900
H  17.92000 -5.79900 43.51200
H  19.05600 -6.15300 42.23100
H  18.33700 -10.06200 46.31200
H  19.53600 -9.18000 47.15100
H  20.10000 -10.20700 45.78400
H  24.12500 -10.44600 47.17500
H  25.31700 -8.54300 49.08600
H  22.82900 -10.80500 48.80300
H  22.35100 -9.14900 49.21100
H  23.76100 -9.91200 49.91500
H  27.12600 -9.88200 47.03200
H  26.09700 -11.04100 47.69200
H  27.86600 -9.60600 49.70800
H  28.52700 -10.93500 48.75100
H  27.08800 -11.18000 49.72700
H  29.78500 -4.60500 47.92900
H  30.44600 -5.61500 46.66300
H  29.48100 -6.37100 47.93800
H  28.14000 -3.18700 42.43000
H  29.38500 0.63500 43.52200
H  27.65900 0.97700 43.51500
H  28.44300 1.02400 41.98600
Mg 48.96500 36.04200 26.39900
C  47.30800 34.47600 28.93100
C  49.26200 38.85500 28.09400
C  51.04900 37.35300 23.90200
C  48.46300 33.22900 24.43400
N  48.35600 36.57300 28.33000
C  47.79700 35.75500 29.26200
C  47.46900 36.55200 30.60200
C  47.76200 37.98800 30.18300
C  48.58500 37.85100 28.81400
C  46.57400 38.85900 30.13900
C  48.29000 36.07100 31.86800
C  47.34500 35.59600 33.11700
H  46.18400 36.58500 33.52000
N  50.04200 37.79400 26.12600
C  49.98600 38.89200 26.88300
C  50.86200 39.95600 26.47300
C  51.28600 39.60800 25.14100
C  50.72700 38.18000 24.97300
C  50.87700 41.29900 27.19000
C  52.06800 40.47700 24.13100
O  52.37900 40.09700 23.01100
C  52.46300 41.90400 24.63300
N  49.49600 35.46000 24.47400
C  50.47200 36.08500 23.69500
C  50.98800 35.17200 22.59600
C  50.17200 33.91500 22.74100
C  49.31800 34.19600 23.94700
C  50.93000 35.79200 21.20000
C  51.00300 32.63000 22.93500
C  50.81400 31.57100 21.78500
N  47.89900 34.27900 26.55500
C  47.76800 33.19600 25.67900
C  46.85400 32.21400 26.19900
C  46.59600 32.65200 27.49700
C  47.40400 33.87200 27.68000
C  46.55100 30.90000 25.54800
C  45.87800 32.42400 28.74200
O  45.05100 31.57400 29.01200
C  46.37900 33.55400 29.75600
C  47.19900 32.84200 30.81700
O  48.41200 32.78000 30.85600
O  46.32500 32.15100 31.55300
C  46.75500 31.53600 32.83200
H  49.34100 39.74900 28.71700
H  51.88000 37.51900 23.21200
H  48.28700 32.35700 23.80100
H  46.41000 36.34900 30.76400
H  48.44500 38.57300 30.79900
H  46.25000 38.87300 29.09900
H  46.85800 39.83200 30.54100
H  45.79700 38.31400 30.67600
H  48.89300 36.88600 32.26900
H  48.90400 35.20600 31.61700
H  48.02400 35.36300 33.93700
H  46.92600 34.59300 33.03900
H  51.83900 41.61800 27.59100
H  50.26800 41.33700 28.09400
H  50.39900 41.99700 26.50300
H  51.52800 42.46500 24.61400
H  53.07100 42.28700 23.81400
H  52.96900 41.96100 25.59700
H  52.02900 34.87100 22.71000
H  49.46600 33.78800 21.92000
H  50.24800 36.64000 21.26200
H  50.65400 35.08500 20.41700
H  51.90800 36.15400 20.88100
H  50.83600 32.04000 23.83700
H  52.08500 32.74000 23.00400
H  50.32800 32.00600 20.91200
H  50.01300 30.98100 22.23100
H  51.70800 30.99100 21.55800
H  45.46100 30.89200 25.53000
H  46.92600 30.04500 26.11000
H  46.85900 30.94800 24.50400
H  45.60800 34.05800 30.33900
H  47.82100 31.31300 32.78600
H  46.18700 30.61500 32.96500
H  46.50900 32.10400 33.72900

