158

Mg 39.90000 10.23600 29.54900
C  41.97200 11.36400 32.15500
C  37.73700 9.17400 31.93700
C  37.96100 8.94600 27.12100
C  42.37400 11.10800 27.32900
N  39.90600 10.30500 31.87200
C  40.74900 11.00700 32.68200
C  40.24600 11.00200 34.14200
C  39.00900 10.07000 34.02100
C  38.88300 9.81400 32.50800
C  39.28600 8.71200 34.80500
C  39.75200 12.44500 34.62600
C  39.43100 12.51000 36.12400
H  40.42200 13.18700 37.08600
N  38.19000 9.16700 29.49700
C  37.41500 8.79100 30.59800
C  36.27400 8.02100 30.23700
C  36.40700 7.88500 28.76800
C  37.51500 8.77900 28.39600
C  35.23000 7.46300 31.23000
C  35.59700 7.03500 27.79800
O  35.77800 6.93600 26.59000
C  34.41000 6.25500 28.35000
N  40.14000 10.03200 27.53000
C  39.12700 9.46600 26.67200
C  39.54500 9.59800 25.16400
C  40.92900 10.38900 25.30600
C  41.19500 10.50200 26.82100
C  39.61600 8.24800 24.28600
C  40.83100 11.81600 24.74000
C  41.76500 12.30000 23.67900
N  41.86200 10.90700 29.68800
C  42.71400 11.34200 28.68000
C  43.81500 12.07400 29.25300
C  43.57500 12.04500 30.62400
C  42.36100 11.38600 30.79900
C  44.91000 12.76600 28.42200
C  44.06700 12.42900 31.95100
O  45.11000 12.99000 32.28400
C  43.01300 12.04800 32.95800
C  43.59700 11.26600 34.08100
O  43.73400 10.07400 34.17700
O  44.05200 12.15000 35.04200
C  44.78800 11.66400 36.22200
H  37.06500 8.90600 32.75500
H  37.28500 8.55000 26.36000
H  43.05200 11.55700 26.59900
H  41.03500 10.59000 34.77100
H  38.12000 10.62100 34.32600
H  38.65600 8.62700 35.69100
H  40.32400 8.69200 35.13600
H  39.12100 7.86100 34.14400
H  38.88200 12.75500 34.04700
H  40.52200 13.20600 34.50200
H  39.29700 11.46900 36.41800
H  38.50400 13.08300 36.14500
H  34.22700 7.72600 30.89500
H  35.37800 7.71200 32.28100
H  35.33300 6.38900 31.07500
H  34.82100 5.47200 28.98900
H  34.03900 5.75200 27.45800
H  33.66700 6.92900 28.77600
H  38.74700 10.20400 24.73400
H  41.77500 9.90000 24.82400
H  40.59000 7.89500 23.94900
H  38.98800 8.34700 23.40100
H  39.35500 7.33500 24.82300
H  40.99900 12.58300 25.49700
H  39.88300 11.91300 24.21100
H  41.24900 12.47600 22.73500
H  42.47400 11.57600 23.27800
H  42.41000 13.12300 23.98600
H  45.49500 13.45400 29.03200
H  44.56500 13.39700 27.60300
H  45.60800 12.00000 28.08500
H  42.58900 12.95900 33.38100
H  45.83800 11.79900 35.96000
H  44.76900 10.59900 36.45600
H  44.60500 12.25100 37.12200
Mg 54.09400 24.68100 44.14900
C  51.26500 26.59100 43.25900
C  52.54000 21.96000 42.68000
C  57.10100 22.98400 44.15300
C  55.66700 27.57600 45.09700
N  52.22400 24.34200 42.99800
C  51.13300 25.25100 42.86600
C  49.89000 24.52300 42.40900
C  50.20400 23.03400 42.58200
C  51.75600 23.08500 42.74900
C  49.48900 22.25000 43.78800
C  49.44000 24.95700 40.95000
C  47.96900 25.09200 40.49300
H  47.64000 24.94100 38.98500
N  54.73300 22.68000 43.56400
C  53.88200 21.74500 43.14200
C  54.59100 20.48200 43.04700
C  55.94800 20.71700 43.47200
C  55.96400 22.14700 43.77900
C  53.97300 19.20500 42.51300
C  57.06100 19.69400 43.49700
O  56.77300 18.49000 43.31500
C  58.36700 20.04700 43.95800
N  56.21600 25.16400 44.39600
C  57.22900 24.33500 44.52200
C  58.50300 25.00900 45.10500
C  58.03800 26.51800 45.21900
C  56.51100 26.45100 44.89400
C  59.03600 24.34800 46.45500
C  58.65900 27.45700 44.14300
C  59.82300 28.34800 44.76100
N  53.63500 26.68400 44.24300
C  54.36900 27.72300 44.62000
C  53.52000 28.95300 44.69400
C  52.31400 28.52100 44.19200
C  52.43500 27.16400 43.88200
C  53.97000 30.33600 45.20500
C  50.96300 28.95000 43.90900
O  50.37100 30.02800 44.07600
C  50.20800 27.82700 43.13900
C  50.06400 28.49300 41.81400
O  50.99500 28.98900 41.17800
O  48.72900 28.35500 41.39200
C  48.58400 28.67000 40.00100
H  51.93100 21.07100 42.49800
H  58.06200 22.52100 44.38900
H  56.22800 28.46900 45.38200
H  49.21900 24.81300 43.21800
H  50.06400 22.49900 41.64200
H  48.78200 22.89100 44.31600
H  50.21900 21.81300 44.46900
H  48.95300 21.42400 43.32100
H  49.77900 24.22500 40.21500
H  50.00300 25.84400 40.66000
H  47.62500 26.09400 40.75000
H  47.43600 24.37300 41.11500
H  54.11700 18.47600 43.31100
H  54.52000 18.76900 41.67600
H  52.91800 19.25200 42.24300
H  58.84500 20.74100 43.26700
H  58.97100 19.14100 43.91300
H  58.17700 20.40600 44.96900
H  59.24500 25.09300 44.31100
H  58.12800 26.93000 46.22400
H  60.07300 24.04000 46.31700
H  58.40000 23.50000 46.70700
H  58.96200 24.98600 47.33500
H  57.93900 28.23200 43.88200
H  59.01400 26.89100 43.28200
H  60.82700 27.96400 44.57800
H  59.74600 28.33300 45.84800
H  59.76300 29.42300 44.59200
H  53.12600 30.91800 45.57400
H  54.47400 30.80600 44.36100
H  54.69600 30.26200 46.01500
H  49.20300 27.66500 43.52800
H  48.54200 29.75900 40.00700
H  47.65800 28.26800 39.58900
H  49.47600 28.38300 39.44400

