158

Mg 29.11500 57.21600 41.31400
C  26.33600 55.35400 40.24100
C  31.10500 55.10300 39.61200
C  31.47500 59.70100 41.29100
C  26.67800 59.77300 42.26800
N  28.80900 55.54600 40.03100
C  27.56900 54.94200 39.74500
C  27.75300 53.66200 38.88300
C  29.31200 53.40700 38.98400
C  29.77600 54.77700 39.45600
C  29.81900 52.19200 39.88300
C  27.18300 53.76800 37.49000
C  27.55300 55.13000 36.70900
H  27.62800 55.12000 35.25600
N  30.96400 57.33400 40.77800
C  31.69800 56.34000 40.15300
C  33.09800 56.63300 40.03700
C  33.23100 57.98400 40.54400
C  31.86200 58.36500 40.95100
C  34.18800 55.70600 39.45900
C  34.50800 58.65300 40.77400
O  35.55000 58.18900 40.34200
C  34.65200 59.97700 41.52900
N  29.03900 59.47600 41.64900
C  30.21300 60.24100 41.65100
C  29.93700 61.72100 41.97000
C  28.40200 61.68400 42.32500
C  28.01200 60.15200 42.13400
C  30.81800 62.28200 43.10400
C  27.53000 62.80900 41.68700
C  26.54800 63.55500 42.57200
N  26.93600 57.48300 41.50700
C  26.15200 58.55700 41.98900
C  24.77400 58.07000 41.95200
C  24.77500 56.84500 41.27400
C  26.11900 56.53600 41.01600
C  23.58700 58.67700 42.67700
C  23.87300 55.78600 40.80100
O  22.66400 55.59300 40.83800
C  24.81300 54.86100 40.03000
C  24.57200 53.39900 40.51000
O  24.54300 53.09700 41.68600
O  24.43700 52.63500 39.41700
C  24.31800 51.21700 39.76600
H  31.85800 54.44600 39.17100
H  32.27200 60.44700 41.26900
H  25.89700 60.44400 42.63100
H  27.44600 52.69900 39.29200
H  29.80900 53.34000 38.01600
H  29.63000 51.17900 39.52900
H  29.25700 52.43500 40.78500
H  30.86600 52.29800 40.16600
H  26.09600 53.69100 37.51000
H  27.53300 52.93100 36.88500
H  28.44400 55.64100 37.07400
H  26.70400 55.76600 36.95800
H  33.93700 55.39600 38.44500
H  34.33100 54.86800 40.14100
H  35.15500 56.14200 39.21000
H  34.27800 60.81700 40.94400
H  35.71900 60.13400 41.68800
H  34.05100 59.79500 42.42000
H  30.10700 62.30700 41.06700
H  28.42600 61.87400 43.39800
H  30.42700 62.47300 44.10400
H  31.43800 63.10900 42.75800
H  31.63500 61.56500 43.17500
H  26.95700 62.39200 40.85800
H  28.13800 63.61700 41.27900
H  26.62600 63.10100 43.56000
H  25.52900 63.28200 42.29600
H  26.77800 64.62000 42.56600
H  23.95600 59.17800 43.57200
H  22.92500 57.82800 42.84200
H  23.13400 59.44000 42.04300
H  24.52100 54.88000 38.98000
H  25.00300 50.91400 40.55800
H  24.45500 50.56500 38.90400
H  23.25000 51.10600 39.95700
Mg 36.43200 49.14800 25.59700
C  36.93300 47.30800 28.27600
C  34.98800 51.52200 27.52400
C  35.54900 50.84700 22.73300
C  37.67400 46.60800 23.45000
N  35.93000 49.30600 27.65800
C  36.23700 48.49300 28.66100
C  35.79800 48.93400 29.96000
C  35.03100 50.26400 29.72600
C  35.33100 50.36100 28.22900
C  33.52800 50.30700 30.09800
C  37.03700 49.06400 30.90600
C  36.69700 48.64400 32.34700
H  35.21100 48.80100 32.83000
N  35.40000 50.94000 25.21200
C  34.93700 51.80600 26.12000
C  34.31400 52.96100 25.50100
C  34.47200 52.78800 24.08800
C  35.12500 51.43500 23.91700
C  33.79100 54.13200 26.38200
C  34.08100 53.78300 22.99100
O  34.29100 53.45400 21.84700
C  33.51000 55.10700 23.27700
N  36.48900 48.74400 23.36900
C  36.13800 49.62200 22.46100
C  36.47800 49.17100 21.06900
C  37.22900 47.79100 21.28100
C  37.11400 47.67500 22.76800
C  35.31000 49.20700 20.03300
C  38.62000 47.76400 20.67900
C  39.73800 48.57400 21.41000
N  37.05500 47.17000 25.71900
C  37.61100 46.27900 24.81800
C  38.08700 45.10400 25.55500
C  37.81800 45.45300 26.96000
C  37.20100 46.68700 26.99200
C  38.74000 43.92800 25.03100
C  37.87700 45.05400 28.32600
O  38.30700 43.98500 28.73800
C  37.26300 46.17000 29.24500
C  36.07700 45.56400 29.93300
O  34.98100 45.53800 29.48600
O  36.48700 45.02700 31.15100
C  35.43200 44.70500 32.11400
H  34.51600 52.22500 28.21300
H  35.28200 51.33400 21.79300
H  38.09200 45.82000 22.82000
H  35.15700 48.21500 30.47000
H  35.62100 51.02700 30.23300
H  33.09000 49.46000 30.62600
H  32.87700 50.52000 29.25000
H  33.48800 51.17000 30.76300
H  37.41500 50.08500 30.87500
H  37.84900 48.45200 30.51300
H  37.33500 49.29100 32.94900
H  37.09100 47.62800 32.35700
H  32.74600 54.34100 26.15200
H  34.36600 55.01400 26.10000
H  33.87500 54.14600 27.46900
H  32.53100 54.86800 23.69400
H  33.38600 55.61500 22.32100
H  34.13700 55.70500 23.93800
H  37.18200 49.89900 20.66600
H  36.61900 47.03700 20.78400
H  34.45100 49.47300 20.64900
H  35.13000 48.30600 19.44600
H  35.55600 49.98900 19.31400
H  38.62600 48.29200 19.72500
H  39.09100 46.78100 20.67600
H  39.82300 48.44500 22.48900
H  39.70800 49.63200 21.15000
H  40.67500 48.21400 20.98400
H  39.67400 43.88300 25.59100
H  38.93100 44.07500 23.96800
H  38.07400 43.09000 25.23800
H  37.93700 46.36500 30.07900
H  35.98600 44.45800 33.02000
H  34.95600 43.75900 31.85700
H  34.65300 45.42000 32.38000

