158

Mg 47.08800 15.56500 28.13300
C  44.98600 15.67200 30.94800
C  49.39000 17.44700 29.79400
C  48.64600 16.16300 25.23400
C  44.39100 14.26900 26.31000
N  47.07900 16.51300 30.08200
C  46.22200 16.30400 31.16100
C  46.78400 16.84600 32.49000
C  48.06300 17.67600 32.01700
C  48.25700 17.08700 30.53700
C  47.89400 19.18800 32.02000
C  46.93200 15.70300 33.49100
C  46.21500 16.13700 34.83000
H  46.09300 17.59100 35.31600
N  48.85400 16.61400 27.56700
C  49.71500 17.24600 28.43200
C  50.87700 17.67800 27.63400
C  50.67000 17.31200 26.28400
C  49.32600 16.70100 26.30800
C  51.98300 18.40400 28.33500
C  51.57500 17.43300 25.04800
O  51.26500 17.01100 23.95300
C  52.92800 18.05500 25.26600
N  46.61300 15.21500 26.10200
C  47.42700 15.51100 25.09100
C  46.87200 15.08300 23.71700
C  45.59300 14.34100 24.09100
C  45.58100 14.48900 25.59800
C  46.68700 16.23800 22.78600
C  45.51300 12.87100 23.65000
C  44.45500 12.54400 22.58000
N  45.12800 14.96400 28.54200
C  44.14400 14.53600 27.65600
C  42.93800 14.25000 28.34400
C  43.15400 14.75000 29.64500
C  44.53900 15.12300 29.71100
C  41.66200 13.75600 27.77300
C  42.60200 14.88700 30.98600
O  41.49100 14.61500 31.45500
C  43.77300 15.40500 31.90000
C  43.19100 16.63600 32.45400
O  43.32200 17.73500 31.95100
O  42.49300 16.49600 33.67200
C  41.93600 17.68900 34.24900
H  50.14800 17.92500 30.41700
H  49.00300 16.07700 24.20500
H  43.56700 13.87700 25.71000
H  46.07000 17.56900 32.88400
H  48.92900 17.47700 32.64800
H  48.37500 19.63100 32.89300
H  46.85300 19.47700 32.16100
H  48.23500 19.63000 31.08400
H  47.97600 15.53600 33.75600
H  46.51400 14.81200 33.02300
H  46.62300 15.49500 35.61100
H  45.17000 15.86300 34.68200
H  52.87200 17.87300 27.99500
H  51.90300 18.29800 29.41700
H  52.15600 19.45500 28.10300
H  52.73300 19.06500 25.62800
H  53.45600 18.13600 24.31600
H  53.52900 17.49000 25.97800
H  47.50600 14.38900 23.16600
H  44.75200 14.91900 23.70800
H  45.71600 16.28200 22.29500
H  47.45800 16.19500 22.01700
H  46.77100 17.18700 23.31600
H  45.38200 12.21300 24.50900
H  46.47100 12.63100 23.18900
H  43.99400 11.62200 22.93500
H  44.95400 12.55400 21.61100
H  43.66700 13.29100 22.47600
H  41.69800 12.75700 27.33900
H  41.40600 14.45400 26.97600
H  40.83700 13.75900 28.48600
H  44.04300 14.79600 32.76300
H  41.31200 18.11900 33.46600
H  42.67700 18.47300 34.40200
H  41.34700 17.45000 35.13500
Mg -4.62600 25.50200 25.08100
C  -3.25200 27.00500 28.09700
C  -6.69600 23.66800 27.06600
C  -5.91700 24.18600 22.35200
C  -2.45900 27.47000 23.32300
N  -4.77200 25.30700 27.31400
C  -4.19900 25.99200 28.35500
C  -4.73500 25.60400 29.73200
C  -5.57000 24.27300 29.35300
C  -5.76700 24.40400 27.79500
C  -4.96700 22.91400 29.79300
C  -5.57500 26.77300 30.41700
C  -6.43700 26.39100 31.63400
H  -6.01800 25.32800 32.64600
N  -6.08400 24.05200 24.76000
C  -6.86000 23.39200 25.68000
C  -7.74700 22.47400 24.97600
C  -7.65600 22.75700 23.59100
C  -6.52200 23.71900 23.50600
C  -8.65400 21.52200 25.69400
C  -8.43000 22.17400 22.39500
O  -8.06900 22.45900 21.28900
C  -9.52200 21.28300 22.61000
N  -4.13300 25.70000 23.12600
C  -4.90200 25.15300 22.16600
C  -4.28800 25.50600 20.77600
C  -3.24400 26.59600 21.01100
C  -3.26400 26.60000 22.57700
C  -3.56400 24.25500 20.06200
C  -3.59000 27.98600 20.43700
C  -2.44400 28.87300 19.95900
N  -3.09100 26.91400 25.60700
C  -2.32800 27.64900 24.74100
C  -1.55800 28.60800 25.43300
C  -1.85000 28.44700 26.81200
C  -2.79200 27.35700 26.86000
C  -0.59700 29.64400 24.83500
C  -1.54400 28.74700 28.16800
O  -0.71200 29.58000 28.61600
C  -2.42400 27.74400 29.07000
C  -1.56900 26.93600 29.91200
O  -0.53400 26.41000 29.55400
O  -2.04900 27.00200 31.24500
C  -1.17100 26.25500 32.18300
H  -7.30600 23.03600 27.71500
H  -6.37900 23.89000 21.40800
H  -1.79500 28.07500 22.70300
H  -3.95700 25.55600 30.49400
H  -6.57600 24.30800 29.76900
H  -5.17000 22.15100 29.04100
H  -5.41500 22.55100 30.71800
H  -3.88100 22.96600 29.87600
H  -6.31300 27.05300 29.66500
H  -4.99200 27.68400 30.55200
H  -7.41000 26.02200 31.30900
H  -6.67200 27.31200 32.16700
H  -8.34200 20.52100 25.39800
H  -9.69000 21.64500 25.37500
H  -8.63500 21.66600 26.77400
H  -9.27300 20.42500 23.23400
H  -9.89900 21.02500 21.62100
H  -10.31700 21.80900 23.13800
H  -5.14700 25.76400 20.15600
H  -2.29600 26.24100 20.60800
H  -3.93200 23.26100 20.31700
H  -2.48700 24.32000 20.21500
H  -3.83600 24.36000 19.01200
H  -4.08100 28.60600 21.18800
H  -4.29700 27.86100 19.61600
H  -2.75900 29.22900 18.97800
H  -1.61600 28.17700 19.82000
H  -2.12000 29.62200 20.68100
H  -0.49600 29.60700 23.75000
H  0.44500 29.64500 25.15300
H  -0.96500 30.64200 25.07600
H  -3.04600 28.28000 29.78700
H  -0.64800 26.88000 32.90700
H  -0.52600 25.49100 31.74900
H  -1.95100 25.73600 32.74100

