158

Mg 5.67200 53.12800 41.76300
C  5.83400 49.76300 40.66400
C  8.59000 53.63300 40.15400
C  5.28800 56.36000 42.27900
C  2.47900 52.55800 42.95800
N  6.88600 51.87800 40.34400
C  6.78900 50.55200 40.07700
C  7.84800 50.08000 39.08800
C  8.96700 51.11600 39.47900
C  8.09800 52.31300 39.99900
C  9.98500 50.55400 40.49200
C  7.33300 50.29500 37.63600
C  7.81300 49.22000 36.71800
H  6.83300 48.75200 35.55700
N  6.85300 54.81500 41.28100
C  8.06800 54.80500 40.73100
C  8.68200 56.08200 40.90200
C  7.70200 56.91400 41.41200
C  6.51100 56.03500 41.70000
C  9.97300 56.46400 40.38200
C  7.85100 58.42500 41.57400
O  8.84900 59.01000 41.17000
C  6.80300 59.25000 42.05400
N  3.96700 54.33200 42.25900
C  4.18900 55.62600 42.56100
C  2.96200 56.25100 43.22500
C  1.92800 55.01100 43.20200
C  2.87900 53.87100 42.87200
C  3.10900 56.72500 44.71600
C  0.72500 55.19100 42.20100
C  -0.67400 55.05200 42.88100
N  4.38300 51.47300 41.83500
C  3.19100 51.39400 42.54200
C  2.74300 49.97500 42.50100
C  3.80000 49.23200 41.84600
C  4.76700 50.21000 41.43900
C  1.46800 49.41300 43.10300
C  4.38200 47.92300 41.47400
O  3.89400 46.76600 41.60800
C  5.68600 48.22900 40.69700
C  5.57100 47.72600 39.38400
O  4.83900 48.13100 38.46900
O  6.44500 46.61400 39.34500
C  6.32400 45.75900 38.17200
H  9.65400 53.75600 39.94300
H  5.06400 57.39300 42.55300
H  1.50600 52.41100 43.43100
H  8.08300 49.04800 39.35000
H  9.60300 51.48100 38.67300
H  10.28400 51.38600 41.12900
H  10.81300 50.11000 39.93800
H  9.59700 49.67200 41.00200
H  7.79000 51.22600 37.30100
H  6.25900 50.40000 37.48300
H  7.98100 48.25600 37.19800
H  8.80600 49.40200 36.30600
H  9.82200 56.93500 39.41000
H  10.71000 55.66100 40.37800
H  10.48700 57.19600 41.00600
H  6.99400 60.32200 42.10100
H  6.64500 58.87000 43.06300
H  6.00700 59.08100 41.32900
H  2.61400 57.13800 42.69600
H  1.49200 54.98900 44.20100
H  3.97600 56.17700 45.08300
H  2.22200 56.42500 45.27400
H  3.41900 57.76900 44.68500
H  0.94200 54.65200 41.27800
H  0.67100 56.23800 41.90500
H  -0.77100 55.70100 43.75100
H  -0.90200 53.99600 43.02900
H  -1.37300 55.41000 42.12600
H  1.11200 48.55500 42.53300
H  0.73600 50.21700 43.17800
H  1.77200 49.11200 44.10600
H  6.60500 47.86500 41.15700
H  7.26500 45.61000 37.64200
H  5.60000 46.10200 37.43200
H  5.86700 44.85700 38.57700
Mg -2.40400 34.22200 27.74500
C  -4.20300 32.37600 30.02300
C  -0.86100 35.84500 30.38500
C  -0.90500 36.12300 25.45800
C  -4.29400 32.74800 25.14500
N  -2.61700 34.21500 29.94200
C  -3.34500 33.32300 30.63800
C  -2.96900 33.24700 32.10200
C  -2.01700 34.47500 32.20800
C  -1.84900 34.92700 30.72800
C  -2.49000 35.63900 33.06600
C  -2.36200 31.89100 32.68800
C  -3.08400 31.13900 33.91800
H  -2.32100 31.18300 35.27600
N  -1.09200 35.73200 27.87500
C  -0.53600 36.28500 29.06300
C  0.36600 37.36700 28.70800
C  0.37600 37.40200 27.30400
C  -0.56300 36.40500 26.79900
C  1.13300 38.13900 29.80400
C  1.27900 38.26000 26.43000
O  1.26200 38.12500 25.23600
C  2.23000 39.08400 27.04500
N  -2.74500 34.44100 25.67300
C  -1.98000 35.35200 24.95200
C  -2.28400 35.31500 23.45000
C  -3.30500 34.14100 23.33600
C  -3.45800 33.75600 24.80300
C  -2.88200 36.67600 22.96200
C  -2.90000 32.96200 22.37900
C  -1.98400 31.86300 22.84600
N  -3.92300 32.85000 27.61900
C  -4.52700 32.26600 26.48800
C  -5.39100 31.14000 26.94300
C  -5.34100 31.16100 28.35700
C  -4.45200 32.31900 28.66600
C  -6.22300 30.19800 26.04900
C  -5.66900 30.55300 29.62400
O  -6.33600 29.53200 29.92300
C  -5.04500 31.34400 30.72000
C  -6.09200 31.83800 31.66300
O  -6.81600 32.75600 31.49200
O  -6.19000 30.98800 32.79000
C  -7.21600 31.36300 33.72400
H  -0.41400 36.37800 31.22700
H  -0.53600 36.74700 24.64100
H  -4.78000 32.18200 24.34700
H  -3.94500 33.47300 32.53300
H  -1.05000 34.11100 32.55700
H  -1.74100 36.30300 33.49800
H  -3.02200 35.18700 33.90200
H  -3.15500 36.26100 32.46700
H  -1.36300 32.16800 33.02400
H  -2.25500 31.09900 31.94700
H  -3.17500 30.11100 33.56900
H  -4.04300 31.61500 34.12400
H  2.16100 37.78600 29.72800
H  0.80800 38.05500 30.84100
H  0.99300 39.16800 29.47200
H  2.74000 38.57600 27.86400
H  1.86400 40.01500 27.47900
H  3.04000 39.14200 26.31800
H  -1.38800 35.14400 22.85400
H  -4.26400 34.50500 22.96700
H  -2.59600 37.49800 23.61800
H  -3.97100 36.64400 23.01100
H  -2.51400 36.90500 21.96200
H  -2.39100 33.47300 21.56200
H  -3.77600 32.53000 21.89600
H  -1.14400 31.60700 22.19900
H  -2.53000 30.92100 22.88100
H  -1.53100 32.05900 23.81700
H  -5.74700 30.00500 25.08700
H  -7.22700 30.52000 25.77300
H  -6.31200 29.24100 26.56300
H  -4.44800 30.71700 31.38200
H  -8.01500 31.88300 33.19700
H  -6.79800 31.91600 34.56600
H  -7.68500 30.50900 34.21300

