158

Mg 48.18900 35.60400 28.06600
C  46.40000 34.13700 30.46200
C  48.59400 38.44800 29.94700
C  49.82600 37.11100 25.35800
C  48.00600 32.70900 26.01700
N  47.39600 36.24800 29.92900
C  46.91500 35.35800 30.84900
C  47.16400 35.84000 32.29400
C  47.53900 37.35800 31.97300
C  47.89600 37.34900 30.56500
C  46.44200 38.39300 32.22700
C  48.42200 35.16100 32.90900
C  48.83500 35.43500 34.29400
H  47.91600 36.34700 35.19800
N  49.10800 37.44300 27.72400
C  49.25200 38.45700 28.69200
C  50.18900 39.53500 28.14700
C  50.46200 39.14200 26.79500
C  49.81500 37.81400 26.55900
C  50.55900 40.74200 28.97800
C  51.23900 40.01100 25.81100
O  51.35400 39.66000 24.66700
C  51.76600 41.27600 26.22500
N  48.80000 34.94900 25.95900
C  49.43100 35.79700 25.08400
C  49.60900 35.03200 23.68200
C  49.17500 33.56900 23.94600
C  48.66400 33.74300 25.41800
C  48.95400 35.81400 22.56300
C  50.27700 32.47600 23.74000
C  51.14400 32.70400 22.47300
N  47.29300 33.76600 28.11400
C  47.28500 32.65700 27.29400
C  46.50500 31.59000 27.85100
C  46.13800 32.14900 29.08100
C  46.64400 33.45800 29.21700
C  45.96100 30.36200 27.21700
C  45.35900 31.91000 30.29800
O  44.56600 30.98600 30.51000
C  45.47900 33.19400 31.25300
C  45.84900 32.74800 32.64200
O  46.78900 32.02700 32.93100
O  44.94800 33.25900 33.54200
C  45.09500 32.63500 34.84900
H  48.74200 39.29700 30.61700
H  50.23900 37.59500 24.47000
H  48.21800 31.77400 25.49300
H  46.30400 35.92100 32.95900
H  48.41800 37.70300 32.51700
H  46.69000 39.40800 31.91600
H  46.29600 38.47900 33.30400
H  45.43800 38.28700 31.81500
H  49.30200 35.22400 32.27000
H  48.19700 34.09800 33.00400
H  49.85300 35.82300 34.31400
H  48.94300 34.45800 34.76400
H  50.04800 41.67500 28.73800
H  51.64100 40.85500 28.90800
H  50.18400 40.60900 29.99300
H  52.31300 41.72300 25.39500
H  52.52100 41.21600 27.00900
H  50.99300 41.95200 26.59000
H  50.65300 35.11100 23.37700
H  48.28400 33.30600 23.37500
H  49.42700 36.78100 22.39300
H  47.88100 35.93400 22.70900
H  49.12900 35.32900 21.60300
H  49.79600 31.50300 23.64300
H  50.98700 32.43000 24.56600
H  50.57200 33.34900 21.80600
H  51.48200 31.77500 22.01400
H  52.05700 33.26700 22.67000
H  46.45300 30.08500 26.28400
H  44.92100 30.46200 26.90800
H  46.08000 29.59400 27.98200
H  44.59000 33.82400 31.29000
H  45.06900 31.54600 34.83800
H  44.22700 32.89600 35.45500
H  45.96600 33.03700 35.36600
Mg 26.89600 50.39800 26.73900
C  24.64300 51.43700 29.22700
C  29.31900 49.71900 29.25600
C  29.24300 49.92100 24.24200
C  24.64600 51.41000 24.32300
N  26.98700 50.74000 29.01200
C  25.88800 50.89300 29.79500
C  26.19300 50.62600 31.25800
C  27.67200 50.10200 31.24400
C  28.04800 50.16100 29.73700
C  28.63800 50.84000 32.16800
C  25.17800 49.68300 31.88900
C  24.64000 49.97800 33.31200
H  24.72700 48.96400 34.42700
N  28.92900 49.88600 26.73300
C  29.71300 49.58600 27.86700
C  31.00000 49.08800 27.43700
C  31.06500 49.24600 26.01100
C  29.73900 49.72600 25.56500
C  32.02800 48.71400 28.48600
C  32.19000 48.86300 25.09500
O  32.13800 49.03400 23.87300
C  33.50000 48.19200 25.60200
N  26.97800 50.69000 24.60100
C  27.95600 50.23800 23.77500
C  27.60500 50.42000 22.27100
C  26.05100 50.63900 22.38100
C  25.87600 50.97100 23.87000
C  28.42200 51.60100 21.60800
C  25.16700 49.47600 21.90100
C  24.11700 49.84000 20.83400
N  25.12200 51.38300 26.71500
C  24.29000 51.67000 25.67300
C  23.11700 52.32000 26.10500
C  23.19500 52.19700 27.51900
C  24.38300 51.56000 27.83900
C  21.96900 52.96400 25.26900
C  22.44400 52.46000 28.76100
O  21.35000 53.02800 28.90100
C  23.39700 51.95400 29.97100
C  23.79200 53.10400 30.74400
O  24.14500 54.16900 30.34700
O  23.75300 52.79800 32.03500
C  24.33800 53.83700 32.96400
H  29.88600 49.30200 30.09200
H  29.97200 49.75200 23.44700
H  24.02200 51.73500 23.48800
H  26.07000 51.53200 31.85100
H  27.59300 49.05300 31.52900
H  28.56600 50.55500 33.21800
H  28.22600 51.84200 32.28600
H  29.63300 51.04400 31.77300
H  25.71600 48.74600 32.02600
H  24.31300 49.59800 31.23000
H  23.57200 50.16300 33.19900
H  24.97500 50.94500 33.68700
H  32.77200 49.50900 28.43400
H  32.37500 47.69900 28.28700
H  31.63100 48.66400 29.49900
H  34.09600 49.01200 26.00200
H  33.85900 47.70800 24.69400
H  33.24800 47.39000 26.29600
H  27.85700 49.51900 21.71300
H  25.83300 51.59500 21.90600
H  28.98400 51.23800 20.74800
H  29.12800 51.82700 22.40700
H  27.68000 52.35800 21.35700
H  24.73400 48.96300 22.76000
H  25.84300 48.78700 21.39500
H  24.53400 49.80000 19.82800
H  23.77900 50.86900 20.95500
H  23.17600 49.29300 20.89200
H  21.13500 53.13800 25.94900
H  21.51100 52.16600 24.68300
H  22.22800 53.85500 24.69700
H  22.84500 51.24200 30.58500
H  24.76300 53.22600 33.76100
H  23.60300 54.50800 33.41000
H  25.11500 54.54700 32.68200

