158

Mg 40.96600 41.09500 27.87000
C  40.25800 43.41300 30.42300
C  41.52400 38.69400 30.28700
C  42.22100 39.05200 25.39500
C  40.93500 43.74100 25.69600
N  40.85200 41.10100 30.12500
C  40.36000 42.09800 30.90400
C  40.16500 41.59200 32.33200
C  40.71800 40.09400 32.28200
C  41.12900 39.95800 30.81800
C  41.90500 39.77900 33.28300
C  38.68200 41.61500 32.80500
C  38.46300 40.94000 34.20000
H  37.95700 41.76500 35.38800
N  41.56200 39.04700 27.82600
C  41.70500 38.26500 28.91900
C  42.20800 36.98800 28.43700
C  42.35600 37.01300 27.05500
C  42.03000 38.46200 26.66400
C  42.51900 35.86100 29.46800
C  42.85300 35.96200 26.06100
O  43.10500 36.18300 24.87600
C  42.99700 34.54400 26.52500
N  41.41200 41.30100 25.89600
C  41.87600 40.35400 24.98900
C  41.87400 40.83300 23.49200
C  41.54500 42.34200 23.68300
C  41.20700 42.48200 25.23200
C  43.15400 40.53300 22.70800
C  40.51100 42.97700 22.70000
C  39.17100 42.25700 22.44600
N  40.83700 43.16700 28.01400
C  40.77800 44.08900 27.04200
C  40.46300 45.36800 27.56100
C  40.22500 45.16100 28.94400
C  40.44400 43.82000 29.10200
C  40.30400 46.60200 26.74400
C  39.71600 45.78000 30.08100
O  39.23000 46.89300 30.25600
C  39.86400 44.67700 31.15700
C  40.91800 45.15700 32.13700
O  42.09700 45.25900 31.90400
O  40.30800 45.07700 33.38100
C  41.34400 45.33600 34.43900
H  41.64100 37.89500 31.02200
H  42.78800 38.47700 24.66000
H  40.91200 44.61600 25.04300
H  40.73000 42.24700 32.99500
H  40.00800 39.32600 32.58900
H  41.54200 38.95400 33.89700
H  42.18500 40.67500 33.83700
H  42.84400 39.43300 32.85200
H  37.98700 41.22200 32.06400
H  38.34000 42.65000 32.77700
H  39.37500 40.45900 34.55400
H  37.73200 40.13200 34.17800
H  41.58400 35.33400 29.65500
H  42.91000 36.21800 30.42100
H  43.24300 35.11600 29.13600
H  42.05300 34.17600 26.92800
H  43.78700 34.35000 27.25100
H  43.09300 33.96600 25.60600
H  40.96500 40.43100 23.04500
H  42.51400 42.83400 23.60300
H  43.94900 40.13900 23.34100
H  43.39700 41.38600 22.07500
H  42.90500 39.72300 22.02200
H  41.03500 43.13700 21.75700
H  40.27900 43.99700 23.00700
H  39.03700 41.58400 21.60000
H  38.43200 43.05800 22.47500
H  38.90600 41.57900 23.25700
H  39.24600 46.85100 26.66200
H  40.81100 46.51600 25.78300
H  40.74100 47.43900 27.28700
H  38.85600 44.53800 31.54800
H  40.88600 45.05200 35.38600
H  41.49000 46.41600 34.48600
H  42.21000 44.68500 34.32200
Mg 35.90900 49.69200 26.01200
C  35.77000 47.96200 29.02200
C  34.74600 52.43400 27.56200
C  35.62800 51.13900 22.95800
C  36.71800 46.66300 24.44300
N  35.33500 50.07900 28.06000
C  35.42400 49.32500 29.22500
C  35.07000 50.04300 30.53200
C  34.59100 51.41000 29.94500
C  34.89800 51.33700 28.37400
C  33.14100 51.84000 30.38000
C  36.19400 50.04100 31.56300
C  35.84300 49.89800 32.96300
H  34.36100 50.10000 33.51100
N  35.31100 51.50300 25.32600
C  34.94800 52.54300 26.20400
C  34.79600 53.71800 25.40500
C  34.89100 53.36500 24.04300
C  35.26800 51.91500 24.05200
C  34.51800 55.14800 25.90900
C  34.45300 54.17700 22.86600
O  34.47600 53.74100 21.68700
C  34.06500 55.59400 23.09300
N  36.08800 48.90300 24.02500
C  35.93700 49.73700 22.89800
C  36.22400 49.01200 21.62500
C  36.72800 47.67000 22.16200
C  36.51900 47.77100 23.66300
C  34.99900 48.95400 20.68100
C  38.19500 47.33800 21.78600
C  39.31600 47.91100 22.72100
N  36.24600 47.67300 26.58400
C  36.59500 46.53300 25.86400
C  36.64000 45.47400 26.73000
C  36.35700 45.95200 27.98500
C  36.06400 47.31000 27.85400
C  37.06900 43.99900 26.39600
C  36.24000 45.57500 29.40600
O  36.47000 44.50200 29.93500
C  35.73900 46.89600 30.09900
C  34.43900 46.53300 30.66100
O  33.42700 46.50800 30.00900
O  34.57300 46.12700 31.99200
C  33.38400 45.69200 32.75600
H  34.40000 53.32900 28.08500
H  35.59600 51.67400 22.00600
H  37.02800 45.78900 23.86700
H  34.24800 49.48100 30.97700
H  35.25100 52.21200 30.27500
H  32.61300 50.93100 30.66700
H  32.69300 52.17000 29.44300
H  33.12700 52.65300 31.10700
H  36.71800 50.98400 31.40600
H  37.00900 49.32700 31.44100
H  36.45800 50.67000 33.42600
H  36.26300 48.95400 33.31000
H  34.75000 55.05700 26.97100
H  33.47400 55.45500 25.83700
H  35.23700 55.89000 25.56300
H  33.81400 56.01200 22.11800
H  34.84400 56.30000 23.37900
H  33.17200 55.61800 23.71800
H  37.06700 49.56000 21.20300
H  36.16200 46.81600 21.78900
H  34.22500 49.55100 21.16300
H  34.60300 47.95200 20.51900
H  35.20800 49.51600 19.77100
H  38.58100 47.67200 20.82300
H  38.34600 46.26400 21.67600
H  40.10600 48.43600 22.18300
H  39.77800 47.13200 23.32800
H  38.90500 48.60700 23.45200
H  36.21200 43.33900 26.26300
H  37.73400 43.62100 27.17200
H  37.39800 43.89500 25.36100
H  36.50300 47.14900 30.83300
H  33.67300 45.69800 33.80700
H  33.05100 44.70000 32.44900
H  32.48600 46.28000 32.56600

