158

Mg 30.05100 57.38600 41.13600
C  27.33200 55.76800 39.55900
C  31.98500 54.72100 40.06000
C  32.77300 59.36000 41.55900
C  28.01700 60.27600 41.56600
N  29.69700 55.53300 39.73600
C  28.51100 55.08000 39.33000
C  28.63900 53.63300 38.81000
C  30.18500 53.33700 38.98100
C  30.63500 54.55700 39.69600
C  30.53300 51.99500 39.73400
C  28.11700 53.42400 37.38400
C  28.31100 54.47600 36.30100
H  27.10800 54.52100 35.29100
N  32.10100 57.08900 40.97300
C  32.67500 55.89900 40.52200
C  34.16200 56.01900 40.51600
C  34.41300 57.36600 40.87100
C  33.10500 58.03700 41.23500
C  35.20500 54.94100 40.10200
C  35.74500 57.96400 41.12800
O  36.79300 57.39000 40.90100
C  35.87100 59.28500 41.84600
N  30.28300 59.38000 41.66700
C  31.53700 59.96000 41.74600
C  31.47100 61.49500 41.97800
C  30.00500 61.71600 42.15700
C  29.37000 60.38900 41.83300
C  32.33600 62.03000 43.15900
C  29.41200 63.00800 41.42700
C  30.32200 64.24000 41.39700
N  28.09900 57.87400 40.90100
C  27.40500 59.01200 41.20700
C  26.00300 58.80700 40.89700
C  25.93100 57.59300 40.20800
C  27.21500 57.00000 40.28900
C  24.89300 59.83200 40.99900
C  25.02400 56.68200 39.45000
O  23.88400 56.73500 39.15900
C  25.94100 55.43900 39.19400
C  25.31900 54.31100 39.94200
O  25.81800 53.67000 40.87800
O  24.16700 53.93700 39.25800
C  23.38700 52.76500 39.63600
H  32.55800 53.82400 39.81400
H  33.59600 60.06800 41.67800
H  27.25100 61.05400 41.59500
H  28.06200 53.07600 39.54800
H  30.60000 53.24100 37.97700
H  31.12100 52.15800 40.63700
H  31.06500 51.23400 39.16300
H  29.57600 51.50100 39.89800
H  27.05200 53.22600 37.50800
H  28.53700 52.53700 36.91100
H  29.12100 54.07800 35.68800
H  28.64200 55.36600 36.83600
H  35.86300 55.28200 39.30300
H  34.66700 54.03400 39.82600
H  35.80600 54.79500 41.00000
H  35.58400 60.03600 41.11000
H  36.87700 59.49000 42.21400
H  35.12100 59.19200 42.63100
H  31.90900 61.99800 41.11600
H  29.81500 61.70500 43.23100
H  33.01800 61.24600 43.48900
H  31.73200 62.42400 43.97600
H  32.91000 62.82300 42.68000
H  28.47700 63.24800 41.93400
H  29.08300 62.70200 40.43400
H  30.93800 64.29000 42.29500
H  29.68700 65.12500 41.43400
H  30.88700 64.29800 40.46700
H  25.21100 60.82700 40.68500
H  24.48900 59.80500 42.01100
H  24.08900 59.46800 40.36000
H  25.92400 55.16100 38.14000
H  22.41100 53.10900 39.98000
H  23.82300 52.29200 40.51600
H  23.27700 52.03100 38.83800
Mg -10.93600 17.16100 40.54300
C  -7.41500 16.78600 40.59700
C  -10.46700 20.50200 40.12700
C  -14.25200 17.39200 40.06400
C  -11.21900 13.68400 40.84900
N  -9.10200 18.46800 40.26900
C  -7.77200 18.12500 40.39100
C  -6.92400 19.35100 40.34600
C  -7.96600 20.54500 40.61100
C  -9.25100 19.82400 40.20900
C  -7.97900 21.00500 42.05900
C  -6.30900 19.50600 38.90100
C  -4.79000 19.18000 38.79900
H  -4.33900 18.33500 37.56900
N  -12.18900 18.76400 40.04100
C  -11.82300 20.08600 40.04100
C  -12.93500 20.89800 39.85700
C  -14.08600 20.06800 39.82400
C  -13.56300 18.69000 39.98200
C  -12.81300 22.35900 39.68400
C  -15.55700 20.48600 39.79900
O  -15.90900 21.67700 39.81500
C  -16.66500 19.50600 39.62100
N  -12.45200 15.69400 40.41200
C  -13.75600 16.07600 40.37400
C  -14.70600 14.86700 40.38400
C  -13.74400 13.71200 40.74000
C  -12.38600 14.40300 40.70500
C  -15.85400 15.16000 41.46100
C  -13.90800 12.53400 39.83000
C  -14.02800 11.23200 40.48600
N  -9.63400 15.50200 40.57300
C  -9.87000 14.15600 40.74700
C  -8.65000 13.37600 40.81700
C  -7.71700 14.40000 40.83500
C  -8.29000 15.65700 40.67700
C  -8.46800 11.91400 41.02300
C  -6.24500 14.61900 40.91700
O  -5.27100 13.83300 41.02700
C  -6.00100 16.16600 40.82200
C  -5.29600 16.63300 42.01100
O  -4.15300 17.07900 42.02400
O  -6.09900 16.40400 43.14600
C  -5.49900 16.86400 44.36900
H  -10.39000 21.58200 40.26900
H  -15.33400 17.32400 39.93100
H  -11.35500 12.64600 41.15800
H  -6.11600 19.30100 41.07600
H  -7.76100 21.40700 39.97600
H  -8.90400 20.66900 42.52500
H  -8.03500 22.09100 42.13800
H  -7.07300 20.68900 42.57700
H  -6.57700 20.49900 38.54000
H  -6.88200 18.90200 38.19800
H  -4.52400 18.74200 39.76100
H  -4.26100 20.12600 38.68100
H  -12.60700 22.58100 38.63600
H  -12.08600 22.77300 40.38300
H  -13.76500 22.85600 39.86700
H  -16.66500 18.85700 38.74500
H  -17.58900 20.08400 39.60800
H  -16.86700 18.92000 40.51800
H  -15.22600 14.80800 39.42800
H  -13.77500 13.55900 41.81900
H  -16.66600 15.35900 40.76200
H  -15.67600 16.03700 42.08400
H  -16.00900 14.26400 42.06300
H  -13.08700 12.30400 39.15200
H  -14.78000 12.70700 39.20000
H  -13.38900 10.46000 40.05700
H  -14.99600 10.73000 40.50300
H  -13.72300 11.35300 41.52600
H  -7.98900 11.51900 40.12700
H  -9.43800 11.43500 41.16100
H  -7.91800 11.71800 41.94300
H  -5.42300 16.25200 39.90200
H  -4.77500 16.14100 44.74600
H  -6.31400 17.05500 45.06700
H  -4.95000 17.80500 44.35600

