158

Mg 8.46100 4.50500 27.99800
C  9.77000 2.89300 30.74000
C  6.61500 6.45200 30.12700
C  7.05100 5.90700 25.27400
C  10.15600 2.24500 25.92200
N  8.12600 4.55300 30.25000
C  8.87500 3.91500 31.18400
C  8.58900 4.41500 32.61900
C  7.41400 5.51400 32.34100
C  7.37200 5.51900 30.77400
C  6.09400 5.15400 33.08300
C  9.88000 5.07000 33.25800
C  9.54200 5.77000 34.55700
H  10.37400 5.24700 35.81400
N  6.98700 5.94700 27.79100
C  6.40900 6.67300 28.79200
C  5.41800 7.61100 28.20200
C  5.65900 7.56700 26.76500
C  6.61000 6.46200 26.53900
C  4.53800 8.55500 29.06000
C  4.90900 8.27600 25.67300
O  5.12300 8.13900 24.47700
C  3.68600 9.10100 25.98800
N  8.43900 3.99200 25.89400
C  7.85100 4.80900 24.97200
C  8.20700 4.37500 23.52700
C  9.33900 3.35400 23.71700
C  9.31400 3.09500 25.26500
C  7.02000 3.98400 22.64000
C  10.69600 3.82100 23.23400
C  11.66200 2.61400 22.85900
N  9.71100 2.92300 28.24000
C  10.31600 2.06100 27.33800
C  11.08600 1.05400 27.97700
C  10.96700 1.35200 29.40300
C  10.12900 2.55300 29.43300
C  11.85900 -0.01100 27.27100
C  11.33900 0.99500 30.62300
O  12.17800 0.14100 30.96600
C  10.64000 1.95200 31.57300
C  9.88000 1.15800 32.60300
O  8.92300 0.42000 32.41000
O  10.45900 1.48900 33.82800
C  9.82600 0.98800 35.04000
H  6.19500 7.18300 30.82200
H  6.68000 6.37100 24.35700
H  10.74800 1.67600 25.20300
H  8.34300 3.55500 33.24200
H  7.73300 6.53500 32.54800
H  5.34400 4.92800 32.32400
H  5.85400 6.10300 33.56100
H  6.20800 4.31100 33.76500
H  10.37500 5.74600 32.56200
H  10.51100 4.19800 33.43100
H  8.48900 5.67200 34.81900
H  9.58300 6.85800 34.51900
H  4.79000 8.68700 30.11200
H  3.52000 8.17600 28.97000
H  4.60500 9.51000 28.53900
H  2.90200 8.55200 26.51000
H  3.27100 9.57500 25.09900
H  3.94600 9.94200 26.63100
H  8.58900 5.31000 23.11700
H  9.00200 2.41300 23.28200
H  6.17400 4.12800 23.31200
H  7.10700 2.89800 22.68400
H  6.95900 4.27900 21.59300
H  11.26900 4.41000 23.95000
H  10.63500 4.51000 22.39200
H  11.72900 2.74300 21.77900
H  11.27500 1.62400 23.09900
H  12.65900 2.80500 23.25600
H  12.78700 0.45800 26.94600
H  11.26600 -0.38300 26.43500
H  12.11900 -0.79600 27.98100
H  11.40600 2.49600 32.12500
H  10.63400 0.82300 35.75300
H  9.15800 0.12700 34.99400
H  9.21800 1.80800 35.42400
Mg 0.55300 43.55800 26.28300
C  2.78500 43.85900 28.81200
C  -1.83300 42.59600 28.59300
C  -1.53600 42.79700 23.73400
C  3.03300 44.33100 23.95800
N  0.47800 43.19300 28.43300
C  1.52100 43.46400 29.31800
C  1.03300 43.45600 30.78700
C  -0.43700 42.84100 30.64400
C  -0.63800 42.90800 29.11600
C  -0.59800 41.43400 31.25100
C  1.10500 44.85400 31.39500
C  1.07100 44.95300 32.91900
H  0.69700 43.75900 33.75400
N  -1.49900 42.99900 26.15300
C  -2.25100 42.65300 27.22500
C  -3.58800 42.36300 26.72700
C  -3.54400 42.55400 25.29900
C  -2.15800 42.67400 25.00400
C  -4.70800 41.81200 27.63900
C  -4.64400 42.47400 24.28100
O  -4.42500 42.56100 23.10100
C  -6.00200 42.52500 24.83100
N  0.88300 43.26700 24.18500
C  -0.20400 42.97600 23.39200
C  0.18200 43.19700 21.95300
C  1.59800 43.83900 21.95500
C  1.90800 43.80500 23.45200
C  0.05400 41.81000 21.18500
C  1.65400 45.31300 21.35400
C  1.17900 46.53600 22.13100
N  2.55900 44.00400 26.28400
C  3.45600 44.26900 25.31500
C  4.75600 44.44200 25.84500
C  4.56800 44.26100 27.23800
C  3.17900 44.06800 27.45600
C  6.10600 44.67600 25.09100
C  5.19600 44.24000 28.58400
O  6.36500 44.33200 28.96100
C  4.02900 44.00800 29.65900
C  4.33800 42.71500 30.24300
O  4.15600 41.58700 29.81400
O  4.82000 43.00800 31.45100
C  4.98400 41.94800 32.41200
H  -2.65700 42.40500 29.28300
H  -2.20700 42.79600 22.87200
H  3.79800 44.64400 23.24500
H  1.69500 42.88500 31.43800
H  -1.24300 43.41200 31.10600
H  0.05000 41.38600 32.12700
H  -0.35400 40.61600 30.57400
H  -1.58200 41.31000 31.70300
H  0.49000 45.59200 30.88100
H  2.12500 45.19300 31.21500
H  0.30900 45.70600 33.11800
H  2.07300 45.16600 33.29100
H  -5.41500 41.23200 27.04500
H  -5.30500 42.65200 27.99400
H  -4.33100 41.39700 28.57300
H  -6.04000 42.90200 25.85300
H  -6.35800 41.49400 24.82500
H  -6.60100 43.16400 24.18200
H  -0.50100 43.98000 21.62500
H  2.27800 43.21300 21.37900
H  0.99700 41.56900 20.69400
H  -0.71800 41.95700 20.43100
H  -0.16100 40.94400 21.81200
H  1.32200 45.23800 20.31800
H  2.70900 45.46000 21.12500
H  0.46900 47.02600 21.46500
H  1.98500 47.17700 22.48900
H  0.73400 46.16400 23.05400
H  5.91400 45.03500 24.08000
H  6.89700 43.92700 25.09300
H  6.54400 45.51600 25.62900
H  4.04000 44.72500 30.48000
H  4.01700 41.85600 32.90600
H  5.77300 42.26900 33.09200
H  5.07000 40.97400 31.93100

