158

Mg 26.77500 51.02400 26.49200
C  24.76400 51.93100 29.18500
C  29.19700 50.00500 28.72900
C  28.38800 49.88400 23.91400
C  24.15700 52.11600 24.27400
N  26.91800 50.97400 28.76400
C  25.97200 51.36100 29.68200
C  26.41400 51.24700 31.09500
C  27.86800 50.68600 30.90900
C  28.06600 50.54100 29.35800
C  28.89600 51.61200 31.51100
C  25.43800 50.25500 31.87300
C  26.01100 49.41500 32.96300
H  25.31000 49.37300 34.27600
N  28.61300 50.19100 26.36400
C  29.43700 49.78000 27.32800
C  30.64900 49.15000 26.70100
C  30.45200 49.13400 25.27800
C  29.09900 49.76600 25.13400
C  31.73900 48.50400 27.48100
C  31.41700 48.60800 24.23900
O  31.21500 48.83700 23.01800
C  32.81900 48.01900 24.58400
N  26.26600 51.07700 24.33100
C  27.16000 50.40800 23.51900
C  26.64500 50.40200 22.10000
C  25.30100 51.09700 22.23600
C  25.15000 51.43800 23.67500
C  27.66700 51.06500 21.16600
C  24.04900 50.25900 21.83200
C  23.29800 50.77200 20.51000
N  24.94300 51.98400 26.60100
C  24.04000 52.41600 25.67000
C  22.90800 53.05300 26.33300
C  23.18600 52.90600 27.67200
C  24.39100 52.19400 27.81300
C  21.82400 53.71800 25.70800
C  22.56600 53.15600 28.94500
O  21.48900 53.69300 29.20400
C  23.56500 52.43500 30.02500
C  23.89900 53.36900 31.18600
O  24.90300 54.12300 31.27400
O  23.00800 53.26700 32.17200
C  23.37500 54.02700 33.42000
H  29.98100 49.69900 29.42500
H  28.89400 49.40200 23.07500
H  23.46600 52.57500 23.56400
H  26.36400 52.27400 31.45600
H  28.00300 49.66900 31.27600
H  29.02800 52.53800 30.95200
H  29.80400 51.04900 31.29500
H  28.85800 51.64300 32.59900
H  24.93200 49.62100 31.14500
H  24.69200 50.92800 32.29600
H  26.90600 49.98000 33.22500
H  26.28600 48.45500 32.52700
H  31.54600 48.53200 28.55400
H  32.66300 48.96300 27.13000
H  31.70600 47.46200 27.16600
H  33.17300 47.66200 23.61700
H  32.87400 47.22500 25.32900
H  33.44200 48.88500 24.80700
H  26.60200 49.32500 21.93800
H  25.34200 52.07700 21.76100
H  28.30400 51.81700 21.63200
H  27.07700 51.58600 20.41200
H  28.27200 50.27400 20.72200
H  23.28700 50.19800 22.60800
H  24.46900 49.30100 21.52500
H  22.92500 49.94000 19.91200
H  24.03900 51.31600 19.92400
H  22.54400 51.49300 20.82800
H  21.47600 53.15700 24.84100
H  22.10500 54.64700 25.21100
H  21.00300 53.99100 26.37100
H  22.99100 51.61900 30.46400
H  23.53600 55.09400 33.26700
H  24.23000 53.56900 33.91700
H  22.45000 53.76400 33.93300
Mg -1.37300 34.64100 26.79800
C  -3.14500 33.06700 29.19900
C  -0.42600 37.06300 29.10700
C  -0.45600 36.70700 24.27600
C  -2.66900 32.28700 24.49700
N  -1.80000 35.05600 28.87500
C  -2.45300 34.14800 29.69500
C  -2.30000 34.54300 31.20600
C  -1.66000 35.92500 31.13500
C  -1.28300 36.00600 29.63900
C  -2.62400 37.14900 31.60000
C  -1.44200 33.50200 32.01000
C  -2.21700 32.73200 33.10800
H  -1.34400 32.62900 34.47200
N  -0.49500 36.55500 26.75300
C  -0.05000 37.34900 27.76700
C  0.64100 38.42400 27.26500
C  0.61300 38.45300 25.84200
C  -0.14000 37.16900 25.54000
C  1.38100 39.37600 28.25200
C  1.05700 39.45600 24.84300
O  0.99700 39.40900 23.62100
C  1.70400 40.65700 25.41100
N  -1.51900 34.52700 24.71000
C  -0.98500 35.44600 23.82600
C  -1.05600 34.96600 22.32600
C  -1.57600 33.42900 22.48100
C  -2.03200 33.41100 23.97200
C  -1.99900 35.98700 21.52100
C  -0.56600 32.29500 22.05500
C  0.50100 31.95600 23.02100
N  -2.54800 32.97700 26.82400
C  -3.02100 32.11600 25.80300
C  -3.83500 31.06600 26.34200
C  -3.90700 31.34100 27.72800
C  -3.18400 32.59800 27.92500
C  -4.60500 30.07000 25.54800
C  -4.41300 31.02400 28.97500
O  -5.04300 29.98000 29.27300
C  -3.99600 32.07200 29.94200
C  -5.17100 32.66300 30.68800
O  -5.91900 33.51200 30.26200
O  -5.30300 32.11600 31.91500
C  -6.53100 32.39800 32.65400
H  -0.07500 37.75400 29.87600
H  -0.06500 37.21000 23.38900
H  -3.18200 31.64100 23.78200
H  -3.29800 34.62000 31.63800
H  -0.79900 36.04400 31.79300
H  -3.67800 36.97700 31.81800
H  -2.58300 37.93300 30.84300
H  -2.19700 37.64900 32.46900
H  -0.52500 33.85900 32.47900
H  -1.01700 32.71800 31.38300
H  -2.43600 31.69200 32.86500
H  -3.13400 33.28900 33.29600
H  2.32000 39.66200 27.77700
H  1.58000 39.14800 29.30000
H  0.77300 40.27900 28.28300
H  1.64900 41.34800 24.57000
H  2.72600 40.33400 25.61300
H  1.15400 40.96700 26.30000
H  -0.09800 35.08300 21.82000
H  -2.43500 33.27900 21.82700
H  -2.90900 35.39400 21.43600
H  -1.57400 36.09300 20.52300
H  -2.21800 36.90600 22.06700
H  -0.11200 32.70300 21.15200
H  -1.13700 31.39000 21.84500
H  0.38000 32.50700 23.95400
H  1.43600 32.29000 22.57200
H  0.55000 30.88200 23.19700
H  -4.13000 29.76100 24.61700
H  -5.52800 30.55700 25.23500
H  -4.88100 29.24400 26.20300
H  -3.34300 31.70800 30.73500
H  -6.28400 32.94100 33.56600
H  -6.97700 31.53900 33.15500
H  -7.31300 32.78000 31.99700

