158

Mg 17.59200 51.36300 25.99200
C  19.40200 49.97900 28.58400
C  15.13500 52.22100 28.22800
C  15.54200 52.22400 23.32900
C  19.66500 49.59800 23.72000
N  17.31500 51.02400 28.22000
C  18.23300 50.52600 29.05500
C  17.62600 50.66100 30.50300
C  16.17400 51.09900 30.33100
C  16.21900 51.46700 28.86500
C  15.15400 49.93000 30.67200
C  18.34900 51.71200 31.42500
C  18.47600 51.45500 32.98100
H  17.30600 52.10500 33.81600
N  15.81800 52.40700 25.80900
C  14.97700 52.69500 26.90300
C  13.95700 53.54900 26.37700
C  14.09200 53.57600 24.94600
C  15.18800 52.72600 24.62900
C  13.01900 54.19900 27.32000
C  13.21600 54.37200 23.87400
O  13.54200 54.48700 22.71200
C  11.98100 55.10900 24.35800
N  17.50300 50.80500 23.82000
C  16.61700 51.39300 22.98300
C  16.93100 50.99500 21.50900
C  18.33900 50.33700 21.62700
C  18.57800 50.28900 23.14900
C  15.87200 50.21300 20.83300
C  19.49300 50.99500 20.80900
C  20.38800 52.17400 21.33900
N  19.19000 50.06500 26.09900
C  19.93500 49.48200 25.09300
C  20.99500 48.73000 25.72000
C  20.83900 48.89900 27.08600
C  19.66600 49.73400 27.28200
C  22.09700 47.93200 24.97100
C  21.37500 48.51400 28.31700
O  22.37500 47.87200 28.50900
C  20.41600 49.22500 29.34600
C  19.82400 48.12800 30.16700
O  18.73300 47.58200 29.94100
O  20.44200 48.11500 31.32700
C  19.88000 47.33000 32.43600
H  14.36800 52.36500 28.99200
H  14.88800 52.52500 22.50800
H  20.40100 49.16300 23.04100
H  17.69600 49.72300 31.05400
H  15.89800 51.99700 30.88300
H  14.92000 49.25400 29.85000
H  14.16600 50.27800 30.97300
H  15.60100 49.30900 31.44900
H  17.88400 52.67900 31.23700
H  19.34600 51.85400 31.00900
H  19.37800 51.91700 33.38300
H  18.41100 50.37000 33.06500
H  13.50900 54.40900 28.27100
H  12.09600 53.62000 27.31700
H  12.70300 55.17100 26.94200
H  11.29600 55.40600 23.56500
H  12.29700 56.03000 24.84700
H  11.49000 54.36800 24.98900
H  17.05100 51.88600 20.89300
H  18.22600 49.30100 21.30800
H  15.18500 50.93800 20.39600
H  15.40600 49.50000 21.51300
H  16.27500 49.64000 19.99700
H  18.99000 51.41400 19.93700
H  20.12200 50.19400 20.41900
H  21.46600 52.05600 21.22900
H  20.11700 52.35900 22.37800
H  20.13300 53.09000 20.80600
H  22.99300 48.55200 24.93200
H  21.84000 47.66900 23.94500
H  22.34400 47.01700 25.50900
H  20.92900 49.87300 30.05600
H  20.11100 46.30400 32.14800
H  18.82700 47.56300 32.59300
H  20.33000 47.54100 33.40500
Mg -6.15700 24.70800 26.74000
C  -4.63100 25.92700 29.79200
C  -8.20800 22.72200 28.68800
C  -7.10900 22.97300 23.98000
C  -3.60400 26.26600 25.00600
N  -6.39500 24.39600 28.97800
C  -5.68700 25.00900 29.97500
C  -6.29700 24.64000 31.34100
C  -7.43600 23.57100 30.97100
C  -7.41000 23.57600 29.45700
C  -7.08300 22.17600 31.62400
C  -6.90800 25.96300 32.03000
C  -7.14300 25.96600 33.56100
H  -6.47600 24.83900 34.34500
N  -7.55800 23.18700 26.40800
C  -8.34700 22.56500 27.34200
C  -9.36000 21.80600 26.59700
C  -9.02700 21.82900 25.20100
C  -7.85300 22.73400 25.11600
C  -10.51600 21.03700 27.17400
C  -9.61500 21.01100 24.02300
O  -9.01500 20.90500 22.93600
C  -10.95500 20.29400 24.10700
N  -5.40000 24.54600 24.76500
C  -5.98100 23.76600 23.81300
C  -5.34500 24.11200 22.40100
C  -4.39700 25.26900 22.75100
C  -4.41900 25.35500 24.23800
C  -4.68900 22.88800 21.75800
C  -4.84500 26.65800 22.23500
C  -4.36600 26.95200 20.77700
N  -4.42500 25.82500 27.23400
C  -3.51100 26.44600 26.41300
C  -2.49200 27.17500 27.19000
C  -2.83600 26.91400 28.51100
C  -4.05300 26.19700 28.49700
C  -1.25600 27.91500 26.73900
C  -2.43300 27.18500 29.85300
O  -1.40500 27.71000 30.30500
C  -3.63000 26.68800 30.82200
C  -2.83400 25.93200 31.82100
O  -2.42600 24.77900 31.73600
O  -2.63300 26.70900 32.94800
C  -2.09100 25.99000 34.08800
H  -8.92100 22.12500 29.26200
H  -7.56600 22.59100 23.06500
H  -2.92300 26.87900 24.41200
H  -5.49900 24.31300 32.00700
H  -8.44800 23.80300 31.30200
H  -7.14600 21.42200 30.83900
H  -7.69700 21.87200 32.47200
H  -6.08700 22.19100 32.06700
H  -7.87700 26.05000 31.53900
H  -6.45600 26.87700 31.64400
H  -8.22400 25.83700 33.61000
H  -6.93500 26.96600 33.94000
H  -10.46300 19.96700 26.97300
H  -11.47200 21.44300 26.84200
H  -10.39600 21.22000 28.24200
H  -10.93900 19.43500 23.43600
H  -11.76600 20.95200 23.79700
H  -11.27900 19.92300 25.07900
H  -6.09800 24.42700 21.68000
H  -3.39200 25.03600 22.39800
H  -5.29600 22.61400 20.89500
H  -4.84200 22.11500 22.51100
H  -3.64700 22.98000 21.45300
H  -4.36600 27.45400 22.80600
H  -5.93300 26.71100 22.25600
H  -4.31200 25.98500 20.27600
H  -3.35300 27.35300 20.75300
H  -5.07200 27.59700 20.25400
H  -0.81700 28.30400 27.65800
H  -1.41000 28.67000 25.96800
H  -0.52800 27.27300 26.24300
H  -4.08200 27.56600 31.28400
H  -1.11600 26.43500 34.28700
H  -2.18000 24.90800 33.98700
H  -2.73200 26.28000 34.92000

