158

Mg 6.59200 54.03900 41.64700
C  5.53300 50.59700 41.05400
C  9.76200 53.04600 40.54500
C  7.35500 57.27700 41.65600
C  3.26700 54.67500 42.55200
N  7.44600 52.17600 40.63000
C  6.84600 50.93400 40.61800
C  7.73200 49.85900 40.08200
C  9.08500 50.51800 40.26600
C  8.76300 52.02700 40.44600
C  10.05300 49.97300 41.35900
C  7.53100 49.37400 38.55600
C  6.82400 50.35400 37.65100
H  7.66000 51.03100 36.52900
N  8.33800 55.04000 41.08400
C  9.57100 54.41300 40.72200
C  10.52100 55.47900 40.57700
C  9.84200 56.76200 40.76800
C  8.45800 56.41800 41.15600
C  11.93800 55.22400 40.13600
C  10.55300 58.08500 40.59400
O  11.72600 58.18600 40.30400
C  9.78200 59.39200 40.65800
N  5.38400 55.75800 41.85400
C  6.00900 56.95900 42.08300
C  4.91800 58.00100 42.40400
C  3.65400 57.19000 42.71600
C  4.07300 55.77900 42.38900
C  5.44700 59.08300 43.51000
C  2.36100 57.58300 41.94000
C  1.08400 57.75900 42.73300
N  4.76900 52.87000 41.78100
C  3.54100 53.29100 42.25300
C  2.57000 52.22800 42.34600
C  3.33600 51.13600 41.90400
C  4.66100 51.57500 41.53200
C  1.21900 52.33000 42.94200
C  3.40200 49.67400 41.69500
O  2.56100 48.78700 41.97700
C  4.81300 49.29600 41.16700
C  4.64900 48.43900 39.93800
O  4.24000 48.71100 38.86400
O  5.20600 47.21500 40.31200
C  5.23900 46.16600 39.36800
H  10.75100 52.89200 40.11000
H  7.61900 58.33700 41.66000
H  2.20500 54.79600 42.77900
H  7.72700 48.98500 40.73300
H  9.66300 50.46700 39.34200
H  9.69000 49.14500 41.96900
H  10.31800 50.69900 42.12700
H  10.93300 49.59800 40.83800
H  6.99500 48.42500 38.56100
H  8.49500 49.05700 38.15900
H  6.29900 51.18800 38.11600
H  6.06700 49.73400 37.17000
H  12.00100 55.80400 39.21500
H  12.16100 54.18500 39.89700
H  12.61300 55.68400 40.85800
H  10.48000 60.20400 40.45800
H  9.27600 59.48100 41.62000
H  9.02900 59.31400 39.87400
H  4.85800 58.64400 41.52600
H  3.40500 57.13100 43.77600
H  5.59900 60.05400 43.03800
H  6.38100 58.67900 43.90000
H  4.70900 59.13900 44.31000
H  2.08100 56.75400 41.28900
H  2.49900 58.48400 41.34300
H  1.34500 57.74500 43.79100
H  0.35100 56.96500 42.58600
H  0.63100 58.73300 42.54900
H  0.65700 53.04500 42.34000
H  1.25500 52.63500 43.98800
H  0.77400 51.35200 43.12100
H  5.36300 48.76600 41.94500
H  5.87600 45.44700 39.88500
H  5.56900 46.43700 38.36600
H  4.20400 45.82300 39.34300
Mg -12.04400 38.10100 41.35500
C  -9.79400 35.53000 40.55200
C  -9.92400 40.31600 39.73300
C  -14.60500 40.28600 41.29200
C  -14.33900 35.73800 42.58000
N  -10.19200 37.94900 40.10700
C  -9.39800 36.78100 40.06300
C  -8.05400 37.01800 39.34800
C  -8.02800 38.66100 39.38700
C  -9.49300 39.00700 39.76900
C  -6.97700 39.07200 40.50500
C  -8.02600 36.31600 37.93300
C  -6.76400 35.39500 37.68900
H  -5.69400 35.90300 36.70400
N  -12.25100 40.06300 40.68600
C  -11.23200 40.81800 40.12400
C  -11.66600 42.18100 40.18900
C  -13.09600 42.17100 40.45900
C  -13.34500 40.83400 40.81400
C  -10.79600 43.41400 39.67300
C  -14.10200 43.33100 40.43300
O  -13.73200 44.49300 40.36100
C  -15.61400 43.20400 40.60100
N  -14.10500 38.08700 41.97100
C  -14.93100 39.08800 41.84700
C  -16.36300 38.86100 42.35800
C  -16.22600 37.39500 42.88200
C  -14.81500 37.04000 42.49300
C  -16.90800 39.83800 43.47000
C  -17.30400 36.40000 42.25000
C  -17.91800 35.38700 43.20500
N  -12.09300 35.98800 41.65200
C  -13.06600 35.19300 42.21600
C  -12.59100 33.81500 42.21900
C  -11.26600 33.89800 41.65200
C  -11.04000 35.22200 41.27500
C  -13.31400 32.68000 42.80500
C  -10.00700 33.22100 41.22500
O  -9.66800 32.06800 41.32800
C  -9.09200 34.20400 40.51300
C  -7.76500 34.24900 41.18600
O  -6.89400 33.47000 40.86700
O  -7.65300 35.25400 42.08100
C  -6.39400 35.25400 42.85700
H  -9.22200 41.05600 39.34500
H  -15.51000 40.88100 41.42900
H  -15.14500 35.12900 42.99200
H  -7.26600 36.55700 39.94400
H  -7.78100 39.09500 38.41800
H  -6.78000 38.24500 41.18800
H  -7.39200 39.88700 41.09800
H  -6.03500 39.44800 40.10500
H  -7.90900 37.03300 37.12000
H  -8.96200 35.79900 37.72100
H  -6.98200 34.39100 37.32300
H  -6.31200 35.12100 38.64200
H  -11.03100 43.51500 38.61400
H  -9.73400 43.20100 39.79300
H  -11.19200 44.30200 40.16600
H  -16.05400 44.14400 40.26600
H  -15.79700 42.98400 41.65300
H  -15.86200 42.35900 39.95900
H  -17.06500 38.92100 41.52600
H  -16.31300 37.21000 43.95200
H  -16.11800 40.45700 43.89400
H  -17.33800 39.28400 44.30400
H  -17.66200 40.45000 42.97300
H  -16.92700 35.95100 41.33200
H  -18.12000 36.98900 41.83100
H  -17.35400 35.34500 44.13700
H  -17.95200 34.36100 42.84000
H  -18.90400 35.80200 43.41600
H  -13.25300 31.79100 42.17800
H  -14.36400 32.93800 42.94700
H  -12.77200 32.53400 43.73900
H  -8.81000 33.91900 39.49900
H  -6.47800 35.89000 43.73800
H  -5.56300 35.62600 42.25700
H  -6.28400 34.26300 43.29800

