158

Mg 54.63000 24.84300 44.07900
C  51.87900 26.97100 43.73300
C  52.44200 22.17500 43.62200
C  57.30300 22.95200 43.89100
C  56.75800 27.72400 43.95700
N  52.38200 24.63200 43.54900
C  51.46200 25.64400 43.64800
C  50.07900 25.05000 43.76400
C  50.32600 23.57100 43.95700
C  51.78000 23.42800 43.64100
C  49.90600 22.98500 45.35600
C  49.03500 25.45400 42.76500
C  49.31800 24.87700 41.33200
H  49.49100 25.88400 40.20100
N  54.85500 22.85200 43.69500
C  53.81500 21.89700 43.62600
C  54.39800 20.57700 43.36200
C  55.81400 20.80000 43.37900
C  56.04200 22.23100 43.61600
C  53.53400 19.33400 43.04000
C  56.80600 19.59300 43.30800
O  56.44600 18.43200 43.17000
C  58.30200 19.85900 43.36300
N  56.67500 25.23700 43.96200
C  57.61500 24.23800 44.00000
C  59.05800 24.73900 44.09300
C  58.88500 26.28000 44.14200
C  57.30900 26.44300 44.00600
C  59.84400 24.16400 45.34300
C  59.82000 26.95200 43.06800
C  60.77400 28.05000 43.61500
N  54.43900 26.92400 43.95900
C  55.38800 27.94400 44.08500
C  54.59900 29.17600 44.37000
C  53.24800 28.88000 44.25300
C  53.19500 27.49000 43.92800
C  55.24100 30.45700 44.81500
C  51.86700 29.38000 44.30100
O  51.46600 30.50200 44.55400
C  50.89500 28.16900 43.92000
C  50.24400 28.53000 42.68300
O  50.76200 28.44400 41.58400
O  48.94100 28.91500 43.00200
C  47.98800 29.13900 41.92100
H  51.71300 21.36200 43.62600
H  58.16800 22.28700 43.83400
H  57.52700 28.49700 44.01000
H  49.72200 25.35100 44.74900
H  49.75100 22.96900 43.25300
H  49.53800 23.64000 46.14600
H  50.75200 22.51300 45.85600
H  49.20600 22.16600 45.19200
H  48.86700 26.53000 42.74500
H  48.14200 25.01900 43.21500
H  48.52800 24.21000 40.98600
H  50.17900 24.21000 41.38700
H  54.09400 18.39900 43.03000
H  53.33000 19.32600 41.96900
H  52.61500 19.29100 43.62400
H  58.59000 20.44100 42.48800
H  58.78900 18.88600 43.30000
H  58.66900 20.30500 44.28700
H  59.60500 24.39900 43.21300
H  59.17800 26.63600 45.13000
H  59.13500 23.87000 46.11700
H  60.61500 24.76300 45.82700
H  60.28600 23.25500 44.93500
H  59.26000 27.47300 42.29200
H  60.49400 26.21200 42.63600
H  60.70800 28.03400 44.70300
H  60.43800 29.03100 43.27900
H  61.82300 27.93100 43.34400
H  54.53400 31.28100 44.72000
H  56.05100 30.64800 44.11000
H  55.65700 30.58300 45.81400
H  50.18700 28.05100 44.74000
H  47.24000 29.83000 42.31000
H  47.39100 28.28600 41.60000
H  48.54800 29.47700 41.04900
Mg -11.33700 38.29500 41.98300
C  -8.88400 35.70400 41.61000
C  -9.29600 40.15000 39.88200
C  -13.89500 40.44100 41.58400
C  -13.41400 35.90900 43.35400
N  -9.30700 37.91200 40.77000
C  -8.44900 36.90900 41.00300
C  -7.12200 37.17100 40.30200
C  -7.23000 38.64400 39.78900
C  -8.69600 38.96000 40.18700
C  -6.31400 39.67700 40.38200
C  -6.76400 36.15100 39.12400
C  -5.29500 35.80800 38.82600
H  -4.50200 36.28200 37.57500
N  -11.52700 40.08900 41.01100
C  -10.56900 40.71600 40.22600
C  -11.06400 42.01700 39.99100
C  -12.35600 42.17300 40.51400
C  -12.67400 40.85200 41.04900
C  -10.31600 43.10900 39.21300
C  -13.24500 43.48500 40.49700
O  -12.81600 44.52400 40.06000
C  -14.66800 43.60600 41.08300
N  -13.37500 38.19300 42.25600
C  -14.25400 39.21400 42.16600
C  -15.65500 38.86000 42.61600
C  -15.55700 37.31200 42.89700
C  -13.99500 37.10900 42.84400
C  -16.16200 39.65200 43.88100
C  -16.34900 36.38300 42.00500
C  -17.74900 35.96100 42.53500
N  -11.20600 36.23500 42.51200
C  -12.10200 35.46600 43.14800
C  -11.50300 34.13500 43.38300
C  -10.21300 34.21200 42.77900
C  -10.09100 35.52100 42.23700
C  -12.18300 33.10400 44.18800
C  -8.99200 33.47200 42.59300
O  -8.64300 32.32600 42.97900
C  -8.09800 34.42100 41.75300
C  -6.77400 34.56500 42.36900
O  -5.95400 33.63000 42.36000
O  -6.66200 35.62400 43.15000
C  -5.45700 35.71600 43.97300
H  -8.80000 40.87800 39.23600
H  -14.76600 41.09700 41.54100
H  -14.14700 35.26400 43.84400
H  -6.44400 37.16600 41.15600
H  -7.13500 38.78700 38.71300
H  -5.56900 39.81700 39.59800
H  -5.76800 39.29400 41.24400
H  -6.72700 40.68400 40.42900
H  -7.01400 36.66400 38.19500
H  -7.50800 35.35600 39.08100
H  -5.23300 34.72500 38.93300
H  -4.81200 36.23200 39.70600
H  -9.55400 42.72000 38.53800
H  -9.78400 43.86300 39.79300
H  -11.01800 43.66000 38.58600
H  -14.69800 43.08200 42.03800
H  -15.16500 42.94400 40.37400
H  -15.11400 44.59300 40.95600
H  -16.37100 39.10600 41.83200
H  -15.93400 37.01200 43.87500
H  -16.84900 40.47900 43.70200
H  -15.26700 40.00500 44.39300
H  -16.58000 38.97900 44.62900
H  -15.71400 35.55300 41.69600
H  -16.59600 36.92000 41.08900
H  -18.33900 36.87200 42.43200
H  -17.84200 35.58700 43.55400
H  -18.04800 35.10200 41.93400
H  -12.32500 32.17400 43.63800
H  -13.12400 33.48300 44.58800
H  -11.71200 32.83700 45.13300
H  -7.95200 33.98500 40.76500
H  -4.71200 35.08100 43.49400
H  -5.67900 35.30600 44.95800
H  -5.25100 36.78100 44.07300

