158

Mg 40.15900 10.59900 29.59800
C  42.12100 11.63900 32.25300
C  38.12400 8.93300 31.75600
C  38.56500 9.19300 26.89700
C  42.75300 11.63400 27.46900
N  40.18000 10.28800 31.80000
C  40.88000 11.06100 32.68900
C  40.32600 10.83600 34.12400
C  39.18500 9.78800 33.95200
C  39.21100 9.61500 32.39700
C  39.28400 8.46500 34.78700
C  39.87400 12.26500 34.72200
C  39.26500 12.34800 36.18100
H  39.95800 13.22800 37.24900
N  38.62500 9.19700 29.36400
C  37.87000 8.65300 30.41600
C  36.78200 7.83200 29.85400
C  36.83400 8.03600 28.40800
C  38.02000 8.82700 28.17500
C  35.88300 7.08700 30.76000
C  35.84300 7.54200 27.42300
O  35.92900 7.67800 26.21700
C  34.66200 6.77400 27.90200
N  40.68800 10.30700 27.53200
C  39.77700 9.87500 26.59800
C  40.17100 10.28000 25.17700
C  41.39200 11.24300 25.39700
C  41.62400 11.05900 26.93300
C  40.49600 8.91300 24.45000
C  41.23200 12.81200 25.10800
C  39.82700 13.50900 25.25400
N  42.07600 11.54400 29.73900
C  43.07500 11.82000 28.81100
C  44.26100 12.34300 29.45600
C  43.90600 12.37000 30.77500
C  42.64600 11.71300 30.92200
C  45.56800 12.71300 28.96600
C  44.38200 12.66800 32.13800
O  45.43300 13.11600 32.62000
C  43.23300 12.32600 33.12100
C  43.81800 11.51600 34.24300
O  44.74400 10.76000 34.23100
O  43.01300 11.71400 35.36000
C  43.30200 10.93300 36.52600
H  37.39000 8.58300 32.48500
H  37.98700 8.80300 26.05700
H  43.52400 12.07400 26.83300
H  41.24000 10.42500 34.55300
H  38.26400 10.28700 34.25300
H  40.19500 8.26900 35.35100
H  39.29000 7.64300 34.07100
H  38.41900 8.35200 35.44100
H  39.18800 12.70100 33.99600
H  40.76900 12.88700 34.69200
H  39.17900 11.32300 36.54200
H  38.23400 12.63900 35.98000
H  36.28600 6.88300 31.75200
H  35.72900 6.09100 30.34600
H  34.88300 7.51800 30.71600
H  34.00700 7.34100 28.56400
H  35.01500 5.89700 28.44500
H  34.04700 6.37300 27.09700
H  39.29000 10.74600 24.73400
H  42.29200 10.81300 24.95800
H  39.60700 8.60400 23.90100
H  40.66700 8.10200 25.15700
H  41.33100 9.10100 23.77400
H  41.61800 12.97700 24.10200
H  41.95500 13.30500 25.75800
H  39.14500 12.82500 25.75900
H  39.47200 13.82700 24.27400
H  39.97400 14.34700 25.93400
H  45.53000 12.63900 27.87900
H  46.26200 11.93600 29.28700
H  45.81500 13.73700 29.24700
H  42.87400 13.24900 33.57800
H  43.94600 11.45200 37.23600
H  43.67100 9.95300 36.22200
H  42.36300 10.66200 37.00900
Mg -1.96000 33.35900 26.69500
C  -3.63200 31.76700 29.20800
C  -0.75200 35.68100 28.96300
C  -0.75100 35.11900 24.17300
C  -3.62700 31.25400 24.39400
N  -2.21000 33.76600 28.86300
C  -2.84100 32.87400 29.65500
C  -2.76800 33.34500 31.16500
C  -1.84800 34.67400 31.09400
C  -1.69100 34.84100 29.52000
C  -2.46400 35.92400 31.76400
C  -2.31300 32.19400 32.06600
C  -1.61000 32.53400 33.39600
H  -1.93200 31.62000 34.54300
N  -0.66200 35.05200 26.53200
C  -0.30300 35.83900 27.58700
C  0.63000 36.83400 27.03700
C  0.59000 36.74900 25.66100
C  -0.31800 35.58800 25.39700
C  1.34200 37.71700 28.01600
C  1.26300 37.58700 24.58700
O  1.16700 37.39100 23.35900
C  2.10000 38.81200 25.02300
N  -2.47800 33.43400 24.65100
C  -1.60500 34.14000 23.82300
C  -1.71000 33.70500 22.37000
C  -2.23500 32.21000 22.58000
C  -2.80900 32.27600 23.97300
C  -2.35300 34.66600 21.36400
C  -1.24900 31.03900 22.27600
C  -0.59300 30.25200 23.40500
N  -3.40300 31.78600 26.73900
C  -3.97000 31.03800 25.72700
C  -4.82600 30.09700 26.26900
C  -4.74100 30.29800 27.66200
C  -3.88100 31.41500 27.85200
C  -5.68100 29.07400 25.48200
C  -5.22900 29.94300 28.98800
O  -5.85500 28.98200 29.31900
C  -4.38100 30.79700 30.02300
C  -5.34700 31.45900 30.92600
O  -5.97000 32.47500 30.74500
O  -5.69100 30.57900 31.93600
C  -6.69300 31.19300 32.85200
H  -0.38400 36.48800 29.59900
H  -0.31100 35.67100 23.34000
H  -3.80900 30.42600 23.70600
H  -3.75000 33.72700 31.44400
H  -0.83900 34.37800 31.38300
H  -1.63700 36.35500 32.32800
H  -3.23500 35.47700 32.39200
H  -2.93300 36.59100 31.04100
H  -1.82500 31.34600 31.58600
H  -3.30200 31.85700 32.37800
H  -1.70900 33.55800 33.75500
H  -0.55100 32.37100 33.19500
H  2.35500 37.81800 27.62700
H  1.20800 37.37600 29.04300
H  0.82600 38.67500 27.95900
H  1.39600 39.43000 25.58000
H  2.54400 39.27800 24.14400
H  2.98300 38.49600 25.57900
H  -0.72100 33.66900 21.91300
H  -3.06800 32.22100 21.87700
H  -2.58800 35.57500 21.91700
H  -3.23100 34.27000 20.85300
H  -1.62500 34.83500 20.57100
H  -0.49100 31.40700 21.58500
H  -1.87800 30.29900 21.78000
H  0.49200 30.20400 23.30700
H  -0.85100 29.19600 23.32800
H  -0.84800 30.62500 24.39600
H  -5.20000 28.70500 24.57600
H  -6.59200 29.63400 25.27000
H  -5.79500 28.24400 26.17900
H  -3.64500 30.21800 30.58100
H  -7.24600 30.45000 33.42500
H  -7.55800 31.62900 32.35300
H  -6.29400 31.91100 33.57000

