158

Mg 24.36600 0.55600 29.69800
C  26.46100 0.55400 32.56200
C  21.68700 0.55100 31.75100
C  22.45500 0.53100 26.97300
C  27.31300 -0.10600 27.76100
N  24.15000 0.69100 31.90500
C  25.09600 0.74600 32.88100
C  24.44200 1.00700 34.28000
C  22.92100 0.67000 33.88900
C  22.85700 0.63600 32.45500
C  22.52400 -0.74600 34.36200
C  24.83100 2.42100 34.78100
C  24.50900 2.58300 36.27200
H  25.55100 2.23300 37.28500
N  22.32200 0.65200 29.39200
C  21.35000 0.59400 30.38400
C  19.99600 0.67700 29.71600
C  20.25300 0.67800 28.28500
C  21.70300 0.61200 28.18800
C  18.67300 0.66000 30.43500
C  19.33000 0.77300 27.15200
O  19.54200 0.53300 25.97500
C  17.94800 1.09400 27.56900
N  24.84900 0.15000 27.66400
C  23.89800 0.40800 26.73000
C  24.48800 0.19000 25.29100
C  26.02500 0.10600 25.55400
C  26.06000 0.09100 27.10700
C  23.92200 -1.08100 24.60500
C  26.93900 1.20300 24.98600
C  27.15200 2.45600 25.78700
N  26.44500 0.22200 29.98700
C  27.53100 0.02100 29.11600
C  28.76500 0.03200 29.86300
C  28.41300 0.26800 31.13000
C  27.02000 0.28800 31.23300
C  30.13100 -0.20500 29.20400
C  28.93900 0.53700 32.46800
O  30.10700 0.65100 32.87400
C  27.65800 0.70600 33.45400
C  27.79500 -0.41100 34.43400
O  27.09000 -1.36400 34.46100
O  28.82200 -0.08700 35.27500
C  28.91300 -0.90000 36.43200
H  20.73600 0.67300 32.27500
H  21.88300 0.57700 26.04300
H  28.12900 -0.19400 27.04000
H  24.90000 0.38100 35.04600
H  22.24400 1.40500 34.32400
H  23.22600 -0.84300 35.19000
H  22.56400 -1.62600 33.72000
H  21.56000 -0.72700 34.87200
H  24.24100 3.16100 34.24100
H  25.89300 2.43100 34.53300
H  23.53700 2.12000 36.44500
H  24.27500 3.64700 36.29700
H  18.03500 1.46800 30.07800
H  18.76800 0.74100 31.51800
H  18.17800 -0.30200 30.29900
H  17.99200 2.05400 28.08200
H  17.58000 0.28400 28.19900
H  17.31600 1.36200 26.72200
H  24.24000 0.99500 24.60000
H  26.34300 -0.89800 25.27600
H  22.85200 -1.26800 24.70300
H  24.42000 -1.97900 24.97000
H  24.08600 -0.93700 23.53700
H  26.37400 1.57300 24.13000
H  27.86500 0.76300 24.61700
H  26.66000 2.59700 26.75000
H  27.14100 3.38400 25.21700
H  28.21400 2.34000 26.00300
H  30.12100 -0.12600 28.11700
H  30.43400 -1.21500 29.47800
H  30.98600 0.41600 29.46900
H  27.85500 1.68000 33.90200
H  28.82300 -1.95400 36.17100
H  28.12200 -0.73800 37.16500
H  29.85800 -0.65900 36.92000
Mg 48.45600 35.86400 27.45400
C  46.20900 34.18600 29.51900
C  49.07200 38.00300 29.97100
C  50.29500 37.81900 25.28200
C  47.68500 33.61400 24.86700
N  47.85500 36.01100 29.47500
C  46.98600 35.20500 30.12000
C  47.07200 35.38900 31.64100
C  47.48500 36.87900 31.63700
C  48.23500 36.96600 30.29100
C  46.31600 37.83800 31.80000
C  48.16300 34.38600 32.25200
C  48.16100 34.29700 33.80500
H  47.18600 35.21800 34.62600
N  49.56000 37.69600 27.61600
C  49.72400 38.41400 28.76200
C  50.49200 39.60300 28.48400
C  50.76000 39.66800 27.10000
C  50.19500 38.40500 26.59300
C  50.72900 40.69900 29.52200
C  51.43500 40.66200 26.22800
O  51.56000 40.59500 25.00900
C  51.93300 41.91600 26.92500
N  48.84700 35.80700 25.37500
C  49.70700 36.67300 24.70300
C  49.92600 36.29900 23.20600
C  49.26000 34.84800 23.17400
C  48.54600 34.71200 24.55500
C  49.16400 37.32300 22.30300
C  50.29600 33.65000 22.88700
C  49.82000 32.73400 21.69600
N  47.20900 34.21200 27.20000
C  47.03300 33.34300 26.14300
C  46.05900 32.24800 26.49800
C  45.64400 32.63000 27.80000
C  46.41200 33.80100 28.16900
C  45.55800 31.09500 25.71900
C  44.74200 32.20200 29.00900
O  44.01600 31.22900 29.19200
C  44.99200 33.33700 30.04100
C  45.04400 32.66000 31.44700
O  46.03000 32.08500 31.85400
O  43.88400 32.93700 32.13300
C  43.95600 32.77800 33.55100
H  49.23900 38.68900 30.80400
H  50.83400 38.38200 24.51800
H  47.53500 32.82900 24.12200
H  46.09600 35.27100 32.11300
H  48.26200 37.14300 32.35300
H  45.38300 37.32600 32.03200
H  46.28300 38.40700 30.87000
H  46.52700 38.63400 32.51400
H  49.11000 34.88300 32.04100
H  48.17400 33.44000 31.71100
H  49.15800 34.44700 34.22000
H  47.80900 33.28000 33.98200
H  51.79500 40.92500 29.53900
H  50.39900 40.21100 30.44000
H  50.05600 41.52400 29.29000
H  52.23300 42.71700 26.25000
H  52.70400 41.66700 27.65400
H  51.07600 42.27200 27.49800
H  50.95900 36.18200 22.87800
H  48.50800 34.81200 22.38600
H  48.42500 36.86900 21.64300
H  49.97400 37.68500 21.66900
H  48.71900 38.11100 22.91100
H  50.43500 33.01900 23.76500
H  51.32200 33.97100 22.70500
H  48.73200 32.71900 21.64900
H  50.29000 31.76700 21.87700
H  50.22500 33.08400 20.74600
H  44.83600 30.49800 26.27600
H  46.36600 30.45700 25.36300
H  45.12600 31.44100 24.78000
H  44.17900 34.06000 30.10800
H  43.84000 31.70200 33.68000
H  43.21300 33.28800 34.16500
H  44.91000 33.10500 33.96300

