158

Mg 40.89100 9.34400 29.74600
C  42.59300 10.58700 32.74200
C  38.63200 8.06800 31.83200
C  39.32300 8.43200 27.12000
C  43.73400 10.06900 27.91600
N  40.61900 9.45700 32.16200
C  41.40300 9.97900 33.11700
C  40.79400 9.87700 34.46100
C  39.71000 8.77700 34.18300
C  39.64800 8.74600 32.60800
C  39.85700 7.44100 34.98400
C  40.28900 11.25200 35.04500
C  40.05300 11.23900 36.57800
H  40.67600 12.28400 37.55800
N  39.22300 8.46000 29.47400
C  38.36400 8.07300 30.46800
C  37.19000 7.38200 29.89600
C  37.41700 7.52900 28.46300
C  38.68400 8.13800 28.30400
C  35.99900 6.83300 30.66500
C  36.49500 7.03800 27.34300
O  36.79200 7.02800 26.17600
C  35.08900 6.65100 27.65500
N  41.44200 9.30300 27.75100
C  40.55900 9.01400 26.82900
C  41.21000 8.94800 25.40400
C  42.64100 9.47300 25.71000
C  42.66200 9.60000 27.18000
C  41.10500 7.70400 24.52200
C  43.06700 10.76300 24.96100
C  42.35800 12.05100 25.32600
N  42.78500 10.15400 30.13800
C  43.72100 10.57500 29.26400
C  44.67600 11.35500 29.92000
C  44.28500 11.40000 31.27600
C  43.09000 10.61400 31.37400
C  45.84800 11.92000 29.32000
C  44.71900 11.85800 32.59900
O  45.64700 12.51000 33.07300
C  43.60200 11.44800 33.52700
C  44.07800 10.69100 34.77400
O  44.49600 9.54600 34.65100
O  44.16800 11.38700 35.88100
C  44.56100 10.80500 37.14700
H  37.91600 7.45400 32.38200
H  38.75800 8.08300 26.25400
H  44.65000 10.26900 27.35600
H  41.48700 9.45700 35.19000
H  38.75900 9.23400 34.45600
H  39.94400 6.58400 34.31600
H  38.95100 7.46000 35.58900
H  40.77100 7.68600 35.52500
H  39.43700 11.58400 34.45100
H  41.01000 12.04800 34.86300
H  40.42600 10.32100 37.03100
H  38.99300 11.16800 36.82000
H  36.07400 7.15600 31.70300
H  35.88800 5.75100 30.58700
H  35.03900 7.19500 30.29800
H  34.36700 7.46000 27.76700
H  35.05700 5.86900 28.41400
H  34.83500 6.14400 26.72400
H  40.82100 9.78500 24.82500
H  43.45400 8.77000 25.52500
H  40.54700 6.88100 24.96800
H  42.08700 7.26900 24.33700
H  40.62500 7.97900 23.58300
H  42.96100 10.65200 23.88100
H  44.12800 10.81400 25.20100
H  43.18900 12.72700 25.52300
H  41.79500 11.92600 26.25100
H  41.74300 12.44700 24.51800
H  45.91300 11.94200 28.23300
H  46.73400 11.40400 29.69100
H  45.94200 12.97600 29.57500
H  43.20400 12.43800 33.75100
H  44.19500 11.57700 37.82500
H  45.63400 10.68900 37.30100
H  43.93600 9.91500 37.21500
Mg 6.57200 54.24300 41.36800
C  5.89000 50.89100 40.60200
C  9.58100 53.89800 39.79500
C  6.68700 57.65500 41.33900
C  3.24100 54.50200 42.67600
N  7.59200 52.59600 40.29300
C  7.10400 51.35800 40.04200
C  8.19900 50.61300 39.25200
C  9.50500 51.37000 39.48500
C  8.87600 52.72300 39.93000
C  10.40400 50.86300 40.68500
C  7.79900 50.59900 37.73700
C  8.09300 49.25700 37.02700
H  7.36400 49.20100 35.68900
N  8.02400 55.61100 40.83600
C  9.20600 55.22200 40.18600
C  9.95600 56.47400 40.09900
C  9.04500 57.56200 40.36200
C  7.87100 56.95400 40.87000
C  11.40600 56.49000 39.55700
C  9.40700 59.03800 40.11700
O  10.54600 59.37200 39.78900
C  8.41000 60.10900 40.17200
N  5.12000 55.85400 42.12100
C  5.46900 57.12400 41.89400
C  4.34600 58.05500 42.26400
C  3.28400 57.10500 42.81200
C  3.84700 55.73100 42.46700
C  4.83600 59.13400 43.26900
C  1.87800 57.31900 42.27300
C  0.73700 56.97600 43.18300
N  4.93500 53.01300 41.57100
C  3.69700 53.23100 42.20200
C  3.02500 51.97500 42.43200
C  3.85900 51.02800 41.74800
C  4.97100 51.65800 41.27900
C  1.84900 51.72800 43.25600
C  4.05600 49.60100 41.47200
O  3.30700 48.68100 41.78400
C  5.37800 49.43300 40.52900
C  4.90900 48.93400 39.13600
O  4.25700 49.65100 38.36800
O  5.20800 47.58800 39.03800
C  4.55600 46.98500 37.86700
H  10.60900 53.84300 39.43000
H  6.53900 58.72600 41.18700
H  2.25500 54.49700 43.14600
H  8.34000 49.57200 39.54000
H  10.10400 51.38100 38.57500
H  10.12500 49.86800 41.03200
H  10.37000 51.40300 41.63100
H  11.42700 50.89200 40.31100
H  8.42400 51.31700 37.20700
H  6.76700 50.92000 37.60000
H  7.71500 48.57000 37.78400
H  9.14000 49.07400 36.78500
H  12.05500 57.14700 40.13700
H  11.58900 56.99800 38.61000
H  11.81500 55.48000 39.56900
H  8.88000 61.05500 39.90300
H  7.98800 60.23500 41.16900
H  7.53400 59.99300 39.53400
H  3.98100 58.60800 41.39800
H  3.33200 57.22100 43.89500
H  4.25800 59.21900 44.18900
H  4.70200 60.12100 42.82700
H  5.88600 59.14000 43.55900
H  1.60600 56.72800 41.39800
H  1.81900 58.36600 41.97400
H  1.05700 56.58700 44.15000
H  0.18600 56.16900 42.70000
H  0.00500 57.77200 43.04500
H  0.95500 52.20700 42.85700
H  2.01200 52.04000 44.28800
H  1.50600 50.69500 43.31500
H  6.10600 48.71100 40.89700
H  3.60800 47.44900 37.59400
H  4.49100 45.90600 38.01200
H  5.26900 47.19300 37.06900

