158

Mg -1.54800 17.31300 26.54000
C  -1.85100 15.22500 29.41900
C  -1.97600 20.02900 28.48300
C  -1.37400 19.09300 23.78000
C  -1.57000 14.39800 24.56400
N  -1.68100 17.56000 28.62300
C  -1.82900 16.63100 29.66200
C  -1.85600 17.20000 31.04000
C  -2.28800 18.73500 30.74500
C  -1.96000 18.81900 29.20000
C  -3.76900 19.11000 31.31500
C  -0.47300 17.00100 31.62900
C  -0.32700 17.60500 33.01000
H  -0.40400 16.61200 34.19400
N  -1.58700 19.27600 26.17200
C  -1.78700 20.22600 27.07500
C  -1.81300 21.54900 26.35400
C  -1.40600 21.27600 25.00300
C  -1.35000 19.82300 24.95100
C  -2.10000 22.90100 26.93200
C  -1.11500 22.22500 23.82200
O  -0.95200 21.83000 22.70600
C  -0.94400 23.65800 24.14300
N  -1.53400 16.81000 24.43800
C  -1.42800 17.73700 23.48600
C  -1.64300 17.24200 22.08600
C  -1.34800 15.72700 22.41700
C  -1.52900 15.63300 23.90400
C  -3.02200 17.63200 21.43100
C  -0.04300 15.08200 21.96300
C  -0.27300 13.80800 21.05900
N  -1.80400 15.24700 26.83200
C  -1.73800 14.19500 25.94400
C  -1.93500 12.95200 26.64500
C  -1.97600 13.30000 27.99400
C  -1.91000 14.69800 28.04100
C  -1.88400 11.59700 26.07900
C  -2.09700 12.73700 29.35300
O  -2.17200 11.59200 29.73600
C  -2.08700 14.03100 30.29700
C  -1.04300 13.68100 31.32000
O  0.16100 13.52100 31.07100
O  -1.72100 13.49400 32.56400
C  -0.85900 13.08600 33.64800
H  -2.11000 20.91300 29.11000
H  -1.33300 19.56600 22.79600
H  -1.57800 13.58200 23.83800
H  -2.52700 16.67000 31.71600
H  -1.48900 19.27500 31.25300
H  -3.79800 19.73400 32.20900
H  -4.25700 18.15700 31.51800
H  -4.27700 19.63800 30.50800
H  0.20300 17.62900 31.05000
H  -0.08500 15.98300 31.65700
H  -1.21000 18.21800 33.19500
H  0.56300 18.18000 33.26400
H  -2.30100 22.87900 28.00300
H  -2.90200 23.46300 26.45400
H  -1.16600 23.46200 26.92300
H  -0.19400 23.63000 24.93400
H  -1.91800 24.08900 24.37200
H  -0.52500 24.16400 23.27300
H  -0.81400 17.74900 21.59200
H  -2.11900 15.13200 21.92800
H  -2.88600 18.57700 20.90500
H  -3.76000 17.83000 22.20800
H  -3.41600 16.91500 20.71000
H  0.56200 14.81800 22.83100
H  0.53000 15.81300 21.39300
H  0.40300 13.83000 20.20300
H  -1.26400 13.55000 20.68700
H  0.13200 13.03400 21.71100
H  -0.89600 11.14800 26.17500
H  -2.17100 11.65500 25.02900
H  -2.57900 10.98400 26.65300
H  -3.06200 14.12800 30.77300
H  -1.50500 12.97000 34.51800
H  -0.01400 13.74300 33.85000
H  -0.28600 12.19500 33.39300
Mg 1.39400 -0.30500 44.31100
C  4.78000 0.15700 43.65600
C  0.80100 2.52800 42.55800
C  -1.80100 -1.20900 44.31800
C  2.17900 -3.45000 45.69300
N  2.71300 1.13400 43.18100
C  4.02200 1.17500 43.11300
C  4.49600 2.52200 42.41700
C  3.17300 3.38500 42.41400
C  2.16600 2.28600 42.71400
C  3.16800 4.54800 43.40400
C  4.98400 2.19000 40.90900
C  6.44100 2.62400 40.57000
H  6.47600 3.53200 39.30200
N  -0.28800 0.49800 43.44000
C  -0.37300 1.73500 42.82300
C  -1.77700 2.00500 42.57200
C  -2.47400 0.79800 42.87700
C  -1.48900 -0.10700 43.56100
C  -2.30900 3.29800 42.05000
C  -3.89000 0.48500 42.48800
O  -4.65500 1.34100 42.04500
C  -4.33000 -0.92200 42.42700
N  0.29600 -1.99800 45.21200
C  -1.04200 -2.13600 45.04100
C  -1.59600 -3.53000 45.53000
C  -0.22400 -4.22200 45.92000
C  0.82800 -3.14600 45.67500
C  -2.66600 -3.35600 46.64900
C  0.13100 -5.60400 45.15100
C  0.34600 -6.75200 46.16600
N  3.11600 -1.37400 44.76800
C  3.30600 -2.66900 45.22700
C  4.72400 -2.99200 45.26400
C  5.34200 -1.87300 44.71600
C  4.32500 -0.97500 44.33800
C  5.22900 -4.28500 45.84500
C  6.65000 -1.38500 44.38200
O  7.80500 -1.85400 44.49200
C  6.32000 0.05600 43.79900
C  6.93800 1.12100 44.63600
O  6.32100 1.83100 45.41500
O  8.32200 1.14600 44.43000
C  8.98300 2.24900 45.16600
H  0.69900 3.54100 42.16400
H  -2.83600 -1.52400 44.47000
H  2.39100 -4.47500 46.00400
H  5.35200 2.94800 42.94000
H  2.94700 3.81800 41.44000
H  2.93400 5.45600 42.84900
H  4.13100 4.70600 43.89000
H  2.54500 4.53200 44.29800
H  4.33800 2.68900 40.18700
H  4.98200 1.13300 40.64500
H  7.03300 1.71800 40.43700
H  7.01300 3.15200 41.33400
H  -1.56100 4.05800 42.27500
H  -3.20100 3.50200 42.64300
H  -2.48400 3.23500 40.97600
H  -5.25400 -0.93300 41.84900
H  -4.50400 -1.17300 43.47400
H  -3.52200 -1.51400 41.99800
H  -2.17900 -4.03700 44.76100
H  -0.11500 -4.37800 46.99300
H  -2.34800 -3.91800 47.52700
H  -3.67400 -3.72200 46.45200
H  -2.78300 -2.36400 47.08500
H  1.04200 -5.64000 44.55400
H  -0.64400 -5.85200 44.42600
H  -0.34500 -6.60600 46.99600
H  1.39100 -6.84400 46.46200
H  -0.09200 -7.67700 45.79100
H  6.31400 -4.29700 45.94100
H  4.78400 -5.06600 45.22800
H  4.85800 -4.26400 46.87000
H  6.80700 0.12800 42.82600
H  8.85200 2.13100 46.24100
H  8.67100 3.23400 44.81700
H  10.04600 2.05900 45.01600

