158

Mg -1.62400 16.66700 26.13000
C  -1.83800 14.50200 28.93000
C  -2.20100 19.31400 28.28500
C  -1.20400 18.75100 23.54700
C  -1.84400 13.97100 24.14400
N  -2.16500 16.87700 28.31700
C  -2.09200 15.89500 29.27100
C  -2.28400 16.55900 30.60100
C  -2.77500 17.93400 30.39700
C  -2.40600 18.05500 28.87500
C  -4.28200 18.11900 30.61700
C  -1.10300 16.44200 31.56800
C  -1.48300 15.76300 32.90000
H  -2.13000 16.53700 34.06000
N  -1.51400 18.82400 25.92100
C  -1.83800 19.64100 26.95500
C  -1.64300 20.98100 26.44000
C  -1.26900 20.87600 25.06200
C  -1.33000 19.45100 24.75100
C  -1.81400 22.25400 27.20600
C  -0.82200 21.97000 24.15800
O  -0.40800 21.64400 23.04200
C  -0.86200 23.44500 24.57500
N  -1.91000 16.40700 24.08600
C  -1.54700 17.36200 23.19500
C  -1.57600 16.86100 21.75900
C  -1.65400 15.33000 22.07400
C  -1.70700 15.19100 23.55800
C  -2.82600 17.23000 20.88800
C  -0.35800 14.58500 21.48400
C  0.74400 14.17800 22.35600
N  -1.83100 14.69300 26.39800
C  -1.87500 13.66700 25.45800
C  -1.93800 12.44000 26.09100
C  -1.88600 12.69800 27.44900
C  -1.77400 14.08600 27.55900
C  -2.00900 11.17400 25.45800
C  -1.82500 12.04400 28.78200
O  -1.71500 10.86200 29.15100
C  -1.95000 13.27400 29.80700
C  -0.99400 13.17800 31.00300
O  0.20000 13.42400 30.91300
O  -1.59700 12.49000 31.99800
C  -0.73000 12.14900 33.09000
H  -2.47500 20.23300 28.80700
H  -1.07100 19.43800 22.70800
H  -1.95200 13.04900 23.56900
H  -3.09900 15.94500 30.98500
H  -2.38200 18.75000 31.00400
H  -4.46000 19.17200 30.83500
H  -4.64900 17.36500 31.31400
H  -4.77200 17.92000 29.66400
H  -0.80600 17.45900 31.82500
H  -0.23200 16.00500 31.07900
H  -0.56400 15.32200 33.28700
H  -2.15100 14.91300 32.76100
H  -2.60600 22.78600 26.67900
H  -0.88300 22.81700 27.26700
H  -2.22800 22.04900 28.19300
H  -1.89900 23.65800 24.83400
H  -0.61600 23.91200 23.62200
H  -0.09300 23.40600 25.34700
H  -0.61900 17.12900 21.31100
H  -2.46500 14.84100 21.53500
H  -2.65200 17.02500 19.83100
H  -3.07200 18.28700 20.98700
H  -3.71700 16.75300 21.29500
H  0.01000 15.24600 20.70000
H  -0.78200 13.77800 20.88500
H  0.60000 14.62400 23.34100
H  1.64100 14.68100 21.99600
H  0.81100 13.09800 22.48900
H  -0.98200 10.83200 25.33500
H  -2.46500 11.07300 24.47300
H  -2.50600 10.43000 26.08100
H  -2.94100 13.20000 30.25500
H  0.24800 11.75200 32.81800
H  -1.17000 11.42000 33.77000
H  -0.57900 13.04200 33.69800
Mg -1.50800 34.35000 26.62900
C  -2.89300 32.66600 29.31600
C  0.12000 36.35900 28.69900
C  -0.67500 36.26300 23.87300
C  -3.54800 32.37500 24.35600
N  -1.46200 34.55900 28.77500
C  -2.07500 33.72600 29.69100
C  -1.66900 34.00100 31.12200
C  -0.75500 35.26900 30.93500
C  -0.65400 35.44300 29.40100
C  -1.24200 36.64000 31.60600
C  -1.02200 32.83900 31.97200
C  -1.51200 32.69400 33.42500
H  -0.46200 32.56500 34.51100
N  -0.33100 36.03900 26.32700
C  0.22700 36.70700 27.35800
C  1.20300 37.66000 26.75000
C  1.05600 37.63700 25.32200
C  -0.06600 36.64100 25.12300
C  2.04900 38.58900 27.55000
C  1.79900 38.30000 24.21100
O  1.48400 38.14900 23.05800
C  3.01200 39.21500 24.57500
N  -1.98200 34.31200 24.40200
C  -1.58700 35.24500 23.50100
C  -2.23300 35.04000 22.14600
C  -3.03600 33.70900 22.35300
C  -2.82700 33.44800 23.82100
C  -3.08200 36.29000 21.73200
C  -2.68500 32.48600 21.45900
C  -1.44900 31.68500 21.85700
N  -2.91800 32.80600 26.73300
C  -3.51100 32.02200 25.75700
C  -4.29700 30.97400 26.37200
C  -4.05300 31.19100 27.71400
C  -3.22000 32.32000 27.91600
C  -5.14800 29.90100 25.73100
C  -4.38700 30.74900 28.96600
O  -5.15300 29.87300 29.30100
C  -3.58800 31.57200 30.11200
C  -4.54300 32.11000 31.07500
O  -4.99000 33.20900 30.99600
O  -4.77300 31.23100 32.09000
C  -5.51700 31.68000 33.24600
H  0.76000 36.89500 29.40300
H  -0.63500 36.98300 23.05300
H  -4.18200 31.83700 23.64800
H  -2.52100 34.39700 31.67400
H  0.21600 35.01300 31.35900
H  -2.09000 36.45300 32.26400
H  -1.51400 37.33600 30.81200
H  -0.40700 36.93300 32.24300
H  0.05400 32.93600 32.11600
H  -1.25700 32.01600 31.29700
H  -2.23800 31.88800 33.53500
H  -2.00100 33.65600 33.57900
H  3.04500 38.14700 27.58500
H  1.63200 38.75100 28.54300
H  1.99500 39.53900 27.01900
H  3.66100 38.50700 25.09100
H  2.75500 40.11200 25.13900
H  3.42800 39.44900 23.59600
H  -1.45200 34.83700 21.41400
H  -4.10200 33.83600 22.16300
H  -2.91300 37.03200 22.51200
H  -4.16000 36.13300 21.70000
H  -2.63300 36.74800 20.85100
H  -2.44300 33.05200 20.55900
H  -3.64100 31.99100 21.28700
H  -1.70900 30.64100 22.03200
H  -1.06300 32.04200 22.81200
H  -0.74400 31.74200 21.02700
H  -4.56800 29.58500 24.86400
H  -6.19200 30.21000 25.67600
H  -5.13400 29.13900 26.51000
H  -2.94200 30.89200 30.66600
H  -4.95700 32.41200 33.82800
H  -5.77300 30.86500 33.92300
H  -6.40800 32.28100 33.06400

