158

Mg 0. 0. 0.
C -0.217 -2.218  2.801
C -1.255  2.442  2.026
C -0.245  1.85  -2.564
C  0.146 -2.824 -2.037
N -0.617 -0.009  2.126
C -0.594 -0.908  3.105
C -0.936 -0.309  4.502
C -1.773  0.964  4.032
C -1.155  1.168  2.66 
C -3.263  0.685  3.863
C 0.345 0.11  5.299
C 0.124 0.397 6.787
H 1.168 0.033 7.733
N -0.185  1.961 -0.152
C -0.703  2.8    0.777
C -0.62   4.156  0.193
C -0.187  4.015 -1.225
C -0.214  2.583 -1.38 
C -0.887  5.406  0.974
C  0.181  5.013 -2.277
O  0.303  4.69  -3.508
C  0.31   6.414 -1.837
N -0.265 -0.413 -2.029
C -0.279  0.569 -2.937
C -0.196  0.024 -4.332
C  0.124 -1.533 -4.18 
C  0.086 -1.632 -2.635
C -1.451  0.205 -5.197
C  1.373 -2.07  -4.923
C  2.626 -1.49  -4.306
N  0.15  -2.144  0.303
C  0.173 -3.136 -0.688
C  1.730e-01 -4.438e+00  4.000e-03
C  0.133 -4.111  1.358
C  0.083 -2.695  1.502
C  0.149 -5.715 -0.623
C  0.096 -4.629  2.716
O  0.208 -5.747  3.221
C -0.255 -3.428  3.701
C  0.717 -3.482  4.848
O  1.931 -3.255  4.669
O  0.038 -3.556  6.003
C  0.943 -3.583  7.183
H -1.859  3.22   2.497
H -0.218  2.453 -3.474
H  0.276 -3.747 -2.605
H -1.554 -0.949  5.132
H -1.585  1.831  4.665
H -3.484 -0.377  3.969
H -3.511  1.027  2.858
H -3.852  1.301  4.543
H 0.669 1.096 4.966
H  1.13  -0.639  5.189
H -0.844  0.026  7.125
H 0.062 1.477 6.921
H -1.344  5.186  1.938
H -1.651  5.963  0.432
H 0.007 6.02  1.084
H -0.635  6.744 -1.405
H  0.665  6.97  -2.704
H  1.048  6.466 -1.036
H  0.608  0.501 -4.891
H -0.692 -2.156 -4.547
H -1.267  0.74  -6.129
H -2.204  0.714 -4.596
H -1.967 -0.72  -5.453
H  1.356 -1.759 -5.967
H  1.452 -3.157 -4.902
H  2.714 -0.522 -4.798
H  3.487 -2.121 -4.529
H  2.495 -1.303 -3.24 
H  0.867 -6.333 -0.084
H  0.404 -5.642 -1.68 
H -0.891 -5.999 -0.463
H -1.283 -3.581  4.028
H  0.698 -4.478  7.755
H  0.833 -2.619  7.68 
H  2.    -3.754  6.976
Mg 7.88313926 0.70970039 0.59883178
C 7.39542479 4.22898154 0.16408032
C  7.28678484  0.36503807 -2.74311889
C  7.85933775 -2.43093481  1.03754016
C 7.31736319 1.20129443 4.00234376
N  7.41421599  2.18503085 -0.98362107
C  7.31494058  3.50983972 -1.03049171
C  7.19268204  4.06935202 -2.47941297
C  6.60597974  2.77417529 -3.20072819
C  7.16390039  1.70714204 -2.27547763
C  5.08274664  2.69953271 -3.17443358
C  8.58050201  4.47905945 -3.07759903
C  8.51831469  5.33041771 -4.34908471
H  9.52375561  6.36283822 -4.55044124
N  8.09446746 -0.76655265 -0.69687935
C  7.81963176 -0.72587941 -2.02281187
C  8.14124067 -2.07061623 -2.54715108
C  8.44486279 -2.9514235  -1.385219  
C  8.11526282 -2.08050461 -0.28601831
C  8.1863174  -2.39468554 -4.00889564
C  8.94165926 -4.35878839 -1.28202332
O  8.91616349 -5.01016324 -0.18218934
C  9.38270525 -4.99346288 -2.53729569
N  7.41033822 -0.49141066  2.23938853
C  7.53993359 -1.82136846  2.18106797
C  7.42041256 -2.44179229  3.54148261
C  7.4237004  -1.23030232  4.58169136
C  7.46481382 -0.0546173   3.57454469
C  6.1765618  -3.31060428  3.77388749
C  8.48623846 -1.27378944  5.70843034
C  9.86821461 -1.10702439  5.11730486
N 7.60976613 2.41703905 1.91081763
C 7.36583298 2.38884363 3.29153325
C 7.14323934 3.78219451 3.7194274 
C 7.25748754 4.52726893 2.54739649
C 7.50790154 3.6519506  1.45222406
C 6.81822676 4.20728607 5.03779685
C 7.20182224 5.85676526 1.96156556
O 7.11439005 6.99994202 2.41211579
C 7.16782428 5.70495976 0.37675446
C  8.17926112  6.66170756 -0.19327901
O 9.40008044e+00 6.49495170e+00 4.60645271e-03
O  7.57455559  7.4772978  -1.07059639
C  8.5281876   8.43268899 -1.69507031
H  6.88625387  0.10987332 -3.72617885
H  7.95121255 -3.49763725  1.2523492 
H 7.21904352 1.44030295 5.06284419
H  6.49813686  4.90259415 -2.5877575 
H  7.00756733  2.65138729 -4.20639837
H  4.65610005  3.48479056 -2.55052348
H  4.84650183  1.71727184 -2.76474472
H  4.67700639  2.70759214 -4.18640537
H  9.07770808  3.59282758 -3.47185808
H  9.1867762   4.99154927 -2.32986125
H  7.51840642  5.73453224 -4.5096584 
H  8.68754075  4.67786421 -5.2056689 
H  7.75635619 -1.59444357 -4.60997064
H  7.51965158 -3.24202894 -4.16787631
H  9.19229183 -2.65091838 -4.34159998
H  8.55485503 -5.00169712 -3.24662298
H  9.78805606 -5.9649866  -2.25679188
H 10.16524422 -4.38127164 -2.9865213 
H  8.26776292 -3.09374155  3.7497745 
H  6.47567979 -1.14514224  5.11336672
H  6.40644821 -4.33107678  4.0812848 
H  5.58368438 -3.30172521  2.85971655
H  5.46676798 -2.9086718   4.4964247 
H  8.46677768 -2.24029799  6.21085296
H  8.34206535 -0.50327845  6.46591165
H 10.12109098 -2.1182063   4.8004505 
H 10.5656866  -0.7495859   5.87558024
H  9.84653993 -0.4816554   4.22459559
H 7.42727656 5.08995535 5.2325333 
H 7.01484899 3.42161077 5.76694499
H 5.75446782 4.41651747 4.92601517
H 6.1532692  5.94536689 0.06051973
H  8.14202194  9.43591968 -1.51440972
H  8.64991349  8.11635529 -2.7311788 
H  9.512347    8.50428823 -1.23069672
