158

Mg 0.00000 0.00000 0.00000
C -0.21700 -2.21800 2.80100
C -1.25500 2.44200 2.02600
C -0.24500 1.85000 -2.56400
C 0.14600 -2.82400 -2.03700
N -0.61700 -0.00900 2.12600
C -0.59400 -0.90800 3.10500
C -0.93600 -0.30900 4.50200
C -1.77300 0.96400 4.03200
C -1.15500 1.16800 2.66000
C -3.26300 0.68500 3.86300
C 0.34500 0.11000 5.29900
C 0.12400 0.39700 6.78700
H 1.16800 0.03300 7.73300
N -0.18500 1.96100 -0.15200
C -0.70300 2.80000 0.77700
C -0.62000 4.15600 0.19300
C -0.18700 4.01500 -1.22500
C -0.21400 2.58300 -1.38000
C -0.88700 5.40600 0.97400
C 0.18100 5.01300 -2.27700
O 0.30300 4.69000 -3.50800
C 0.31000 6.41400 -1.83700
N -0.26500 -0.41300 -2.02900
C -0.27900 0.56900 -2.93700
C -0.19600 0.02400 -4.33200
C 0.12400 -1.53300 -4.18000
C 0.08600 -1.63200 -2.63500
C -1.45100 0.20500 -5.19700
C 1.37300 -2.07000 -4.92300
C 2.62600 -1.49000 -4.30600
N 0.15000 -2.14400 0.30300
C 0.17300 -3.13600 -0.68800
C 0.17300 -4.43800 0.00400
C 0.13300 -4.11100 1.35800
C 0.08300 -2.69500 1.50200
C 0.14900 -5.71500 -0.62300
C 0.09600 -4.62900 2.71600
O 0.20800 -5.74700 3.22100
C -0.25500 -3.42800 3.70100
C 0.71700 -3.48200 4.84800
O 1.93100 -3.25500 4.66900
O 0.03800 -3.55600 6.00300
C 0.94300 -3.58300 7.18300
H -1.85900 3.22000 2.49700
H -0.21800 2.45300 -3.47400
H 0.27600 -3.74700 -2.60500
H -1.55400 -0.94900 5.13200
H -1.58500 1.83100 4.66500
H -3.48400 -0.37700 3.96900
H -3.51100 1.02700 2.85800
H -3.85200 1.30100 4.54300
H 0.66900 1.09600 4.96600
H 1.13000 -0.63900 5.18900
H -0.84400 0.02600 7.12500
H 0.06200 1.47700 6.92100
H -1.34400 5.18600 1.93800
H -1.65100 5.96300 0.43200
H 0.00700 6.02000 1.08400
H -0.63500 6.74400 -1.40500
H 0.66500 6.97000 -2.70400
H 1.04800 6.46600 -1.03600
H 0.60800 0.50100 -4.89100
H -0.69200 -2.15600 -4.54700
H -1.26700 0.74000 -6.12900
H -2.20400 0.71400 -4.59600
H -1.96700 -0.72000 -5.45300
H 1.35600 -1.75900 -5.96700
H 1.45200 -3.15700 -4.90200
H 2.71400 -0.52200 -4.79800
H 3.48700 -2.12100 -4.52900
H 2.49500 -1.30300 -3.24000
H 0.86700 -6.33300 -0.08400
H 0.40400 -5.64200 -1.68000
H -0.89100 -5.99900 -0.46300
H -1.28300 -3.58100 4.02800
H 0.69800 -4.47800 7.75500
H 0.83300 -2.61900 7.68000
H 2.00000 -3.75400 6.97600
Mg 15.76628 1.41940 1.19766
C 15.98094 -1.05528 -1.37956
C 14.94894 -1.10284 3.34552
C 15.12825 3.63059 3.37945
C 15.47982 3.80795 -1.32393
N 15.52879 -0.76159 0.90180
C 15.69781 -1.59264 -0.12189
C 15.62038 -3.09517 0.28282
C 14.74871 -2.95371 1.61029
C 15.12366 -1.53391 1.99694
C 13.24511 -3.01413 1.36117
C 17.03131 -3.70271 0.58596
C 17.08049 -5.23113 0.66886
H 18.26311 -5.92145 0.17671
N 15.61018 1.27390 3.16167
C 15.28446 0.16486 3.86823
C 15.30078 0.56847 5.29073
C 15.47638 2.04651 5.34236
C 15.38450 2.38364 3.94477
C 15.20736 -0.40676 6.42385
C 15.68219 3.00443 6.47291
O 15.57934 4.26955 6.31974
C 15.92326 2.41142 7.80079
N 15.14115 3.40666 1.06483
C 14.99557 4.15900 2.16109
C 14.81984 5.60677 1.81036
C 15.11964 5.72224 0.24621
C 15.34855 4.22187 -0.06159
C 13.43872 6.20530 2.11081
C 16.20540 6.73838 -0.18854
C 17.56174 6.28003 0.29864
N 15.90931 1.43584 -0.96805
C 15.73289 2.53855 -1.81633
C 15.81852 2.03703 -3.20024
C 16.02360 0.66585 -3.06005
C 16.03734 0.32802 -1.67659
C 15.65157 2.81441 -4.38018
C 16.20973 -0.59616 -3.75758
O 16.37798 -0.92007 -4.93412
C 16.06783 -1.77861 -2.70046
C 17.22287 -2.71894 -2.91257
O 18.39280 -2.36079 -2.66690
O 16.75357 -3.95515 -3.14077
C 17.84912 -4.94306 -3.33042
H 14.45720 -1.77220 4.05410
H 15.01255 4.44257 4.10038
H 15.48421 4.50775 -2.16161
H 15.10459 -3.73322 -0.43501
H 15.06716 -3.65345 2.38274
H 13.01760 -3.01499 0.29526
H 12.83519 -2.12315 1.83722
H 12.80018 -3.86311 1.88082
H 17.31866 -3.45219 1.60711
H 17.76485 -3.35743 -0.14344
H 16.17653 -5.68185 0.25821
H 17.07168 -5.51658 1.72083
H 14.91944 -1.39814 6.07630
H 14.37585 -0.08686 7.05152
H 16.12296 -0.43838 7.01462
H 15.07707 1.77971 8.07182
H 16.13666 3.24549 8.46836
H 16.79056 1.75323 7.74138
H 15.52672 6.23004 2.35651
H 14.23584 6.01946 -0.31879
H 13.47191 7.07545 2.76689
H 12.81574 5.41874 2.53566
H 12.86147 6.48731 1.23066
H 16.01524 7.71220 0.26142
H 16.25773 6.87658 -1.26854
H 17.58862 6.64646 1.32423
H 18.35357 6.73319 -0.29873
H 17.62337 5.19236 0.33951
H 16.43564 2.49746 -5.06775
H 15.72053 3.88050 -4.16505
H 14.64808 2.51303 -4.68025
H 15.10873 -2.25820 -2.89346
H 17.68358 -5.42489 -4.29409
H 17.85316 -5.57555 -2.44253
H 18.84899 -4.53225 -3.47480
