158

Mg 0. 0. 0.
C -0.217 -2.218  2.801
C -1.255  2.442  2.026
C -0.245  1.85  -2.564
C  0.146 -2.824 -2.037
N -0.617 -0.009  2.126
C -0.594 -0.908  3.105
C -0.936 -0.309  4.502
C -1.773  0.964  4.032
C -1.155  1.168  2.66 
C -3.263  0.685  3.863
C 0.345 0.11  5.299
C 0.124 0.397 6.787
H 1.168 0.033 7.733
N -0.185  1.961 -0.152
C -0.703  2.8    0.777
C -0.62   4.156  0.193
C -0.187  4.015 -1.225
C -0.214  2.583 -1.38 
C -0.887  5.406  0.974
C  0.181  5.013 -2.277
O  0.303  4.69  -3.508
C  0.31   6.414 -1.837
N -0.265 -0.413 -2.029
C -0.279  0.569 -2.937
C -0.196  0.024 -4.332
C  0.124 -1.533 -4.18 
C  0.086 -1.632 -2.635
C -1.451  0.205 -5.197
C  1.373 -2.07  -4.923
C  2.626 -1.49  -4.306
N  0.15  -2.144  0.303
C  0.173 -3.136 -0.688
C  1.730e-01 -4.438e+00  4.000e-03
C  0.133 -4.111  1.358
C  0.083 -2.695  1.502
C  0.149 -5.715 -0.623
C  0.096 -4.629  2.716
O  0.208 -5.747  3.221
C -0.255 -3.428  3.701
C  0.717 -3.482  4.848
O  1.931 -3.255  4.669
O  0.038 -3.556  6.003
C  0.943 -3.583  7.183
H -1.859  3.22   2.497
H -0.218  2.453 -3.474
H  0.276 -3.747 -2.605
H -1.554 -0.949  5.132
H -1.585  1.831  4.665
H -3.484 -0.377  3.969
H -3.511  1.027  2.858
H -3.852  1.301  4.543
H 0.669 1.096 4.966
H  1.13  -0.639  5.189
H -0.844  0.026  7.125
H 0.062 1.477 6.921
H -1.344  5.186  1.938
H -1.651  5.963  0.432
H 0.007 6.02  1.084
H -0.635  6.744 -1.405
H  0.665  6.97  -2.704
H  1.048  6.466 -1.036
H  0.608  0.501 -4.891
H -0.692 -2.156 -4.547
H -1.267  0.74  -6.129
H -2.204  0.714 -4.596
H -1.967 -0.72  -5.453
H  1.356 -1.759 -5.967
H  1.452 -3.157 -4.902
H  2.714 -0.522 -4.798
H  3.487 -2.121 -4.529
H  2.495 -1.303 -3.24 
H  0.867 -6.333 -0.084
H  0.404 -5.642 -1.68 
H -0.891 -5.999 -0.463
H -1.283 -3.581  4.028
H  0.698 -4.478  7.755
H  0.833 -2.619  7.68 
H  2.    -3.754  6.976
Mg 49.76231656  4.47998373  3.78012563
C 49.54531656  2.26198373  6.58112563
C 48.50731656  6.92198373  5.80612563
C 49.51731656  6.32998373  1.21612563
C 49.90831656  1.65598373  1.74312563
N 49.14531656  4.47098373  5.90612563
C 49.16831656  3.57198373  6.88512563
C 48.82631656  4.17098373  8.28212563
C 47.98931656  5.44398373  7.81212563
C 48.60731656  5.64798373  6.44012563
C 46.49931656  5.16498373  7.64312563
C 50.10731656  4.58998373  9.07912563
C 49.88631656  4.87698373 10.56712563
H 50.93031656  4.51298373 11.51312563
N 49.57731656  6.44098373  3.62812563
C 49.05931656  7.27998373  4.55712563
C 49.14231656  8.63598373  3.97312563
C 49.57531656  8.49498373  2.55512563
C 49.54831656  7.06298373  2.40012563
C 48.87531656  9.88598373  4.75412563
C 49.94331656  9.49298373  1.50312563
O 50.06531656  9.16998373  0.27212563
C 50.07231656 10.89398373  1.94312563
N 49.49731656  4.06698373  1.75112563
C 49.48331656  5.04898373  0.84312563
C 49.56631656  4.50398373 -0.55187437
C 49.88631656  2.94698373 -0.39987437
C 49.84831656  2.84798373  1.14512563
C 48.31131656  4.68498373 -1.41687437
C 51.13531656  2.40998373 -1.14287437
C 52.38831656  2.98998373 -0.52587437
N 49.91231656  2.33598373  4.08312563
C 49.93531656  1.34398373  3.09212563
C 4.99353166e+01 4.19837297e-02 3.78412563e+00
C 49.89531656  0.36898373  5.13812563
C 49.84531656  1.78498373  5.28212563
C 49.91131656 -1.23501627  3.15712563
C 49.85831656 -0.14901627  6.49612563
O 49.97031656 -1.26701627  7.00112563
C 49.50731656  1.05198373  7.48112563
C 50.47931656  0.99798373  8.62812563
O 51.69331656  1.22498373  8.44912563
O 49.80031656  0.92398373  9.78312563
C 50.70531656  0.89698373 10.96312563
H 47.90331656  7.69998373  6.27712563
H 49.54431656  6.93298373  0.30612563
H 50.03831656  0.73298373  1.17512563
H 48.20831656  3.53098373  8.91212563
H 48.17731656  6.31098373  8.44512563
H 46.27831656  4.10298373  7.74912563
H 46.25131656  5.50698373  6.63812563
H 45.91031656  5.78098373  8.32312563
H 50.43131656  5.57598373  8.74612563
H 50.89231656  3.84098373  8.96912563
H 48.91831656  4.50598373 10.90512563
H 49.82431656  5.95698373 10.70112563
H 48.41831656  9.66598373  5.71812563
H 48.11131656 10.44298373  4.21212563
H 49.76931656 10.49998373  4.86412563
H 49.12731656 11.22398373  2.37512563
H 50.42731656 11.44998373  1.07612563
H 50.81031656 10.94598373  2.74412563
H 50.37031656  4.98098373 -1.11087437
H 49.07031656  2.32398373 -0.76687437
H 48.49531656  5.21998373 -2.34887437
H 47.55831656  5.19398373 -0.81587437
H 47.79531656  3.75998373 -1.67287437
H 51.11831656  2.72098373 -2.18687437
H 51.21431656  1.32298373 -1.12187437
H 52.47631656  3.95798373 -1.01787437
H 53.24931656  2.35898373 -0.74887437
H 52.25731656  3.17698373  0.54012563
H 50.62931656 -1.85301627  3.69612563
H 50.16631656 -1.16201627  2.10012563
H 48.87131656 -1.51901627  3.31712563
H 48.47931656  0.89898373  7.80812563
H 5.04603166e+01 1.98372975e-03 1.15351256e+01
H 50.59531656  1.86098373 11.46012563
H 51.76231656  0.72598373 10.75612563
