158

Mg 0.00000 0.00000 0.00000
C -0.21700 -2.21800 2.80100
C -1.25500 2.44200 2.02600
C -0.24500 1.85000 -2.56400
C 0.14600 -2.82400 -2.03700
N -0.61700 -0.00900 2.12600
C -0.59400 -0.90800 3.10500
C -0.93600 -0.30900 4.50200
C -1.77300 0.96400 4.03200
C -1.15500 1.16800 2.66000
C -3.26300 0.68500 3.86300
C 0.34500 0.11000 5.29900
C 0.12400 0.39700 6.78700
H 1.16800 0.03300 7.73300
N -0.18500 1.96100 -0.15200
C -0.70300 2.80000 0.77700
C -0.62000 4.15600 0.19300
C -0.18700 4.01500 -1.22500
C -0.21400 2.58300 -1.38000
C -0.88700 5.40600 0.97400
C 0.18100 5.01300 -2.27700
O 0.30300 4.69000 -3.50800
C 0.31000 6.41400 -1.83700
N -0.26500 -0.41300 -2.02900
C -0.27900 0.56900 -2.93700
C -0.19600 0.02400 -4.33200
C 0.12400 -1.53300 -4.18000
C 0.08600 -1.63200 -2.63500
C -1.45100 0.20500 -5.19700
C 1.37300 -2.07000 -4.92300
C 2.62600 -1.49000 -4.30600
N 0.15000 -2.14400 0.30300
C 0.17300 -3.13600 -0.68800
C 0.17300 -4.43800 0.00400
C 0.13300 -4.11100 1.35800
C 0.08300 -2.69500 1.50200
C 0.14900 -5.71500 -0.62300
C 0.09600 -4.62900 2.71600
O 0.20800 -5.74700 3.22100
C -0.25500 -3.42800 3.70100
C 0.71700 -3.48200 4.84800
O 1.93100 -3.25500 4.66900
O 0.03800 -3.55600 6.00300
C 0.94300 -3.58300 7.18300
H -1.85900 3.22000 2.49700
H -0.21800 2.45300 -3.47400
H 0.27600 -3.74700 -2.60500
H -1.55400 -0.94900 5.13200
H -1.58500 1.83100 4.66500
H -3.48400 -0.37700 3.96900
H -3.51100 1.02700 2.85800
H -3.85200 1.30100 4.54300
H 0.66900 1.09600 4.96600
H 1.13000 -0.63900 5.18900
H -0.84400 0.02600 7.12500
H 0.06200 1.47700 6.92100
H -1.34400 5.18600 1.93800
H -1.65100 5.96300 0.43200
H 0.00700 6.02000 1.08400
H -0.63500 6.74400 -1.40500
H 0.66500 6.97000 -2.70400
H 1.04800 6.46600 -1.03600
H 0.60800 0.50100 -4.89100
H -0.69200 -2.15600 -4.54700
H -1.26700 0.74000 -6.12900
H -2.20400 0.71400 -4.59600
H -1.96700 -0.72000 -5.45300
H 1.35600 -1.75900 -5.96700
H 1.45200 -3.15700 -4.90200
H 2.71400 -0.52200 -4.79800
H 3.48700 -2.12100 -4.52900
H 2.49500 -1.30300 -3.24000
H 0.86700 -6.33300 -0.08400
H 0.40400 -5.64200 -1.68000
H -0.89100 -5.99900 -0.46300
H -1.28300 -3.58100 4.02800
H 0.69800 -4.47800 7.75500
H 0.83300 -2.61900 7.68000
H 2.00000 -3.75400 6.97600
Mg 35.80892 3.22813 2.72663
C 35.58808 1.00541 5.53551
C 34.55223 5.66970 4.75001
C 35.56707 5.08697 0.16662
C 35.94888 0.40848 0.68318
N 35.18967 3.21683 4.84999
C 35.20866 2.33065 5.83420
C 34.87501 2.91552 7.23283
C 34.03035 4.19763 6.76207
C 34.64805 4.40344 5.38049
C 32.54869 3.91022 6.58482
C 36.16121 3.33521 8.02754
C 35.93357 3.62457 9.51287
H 36.98318 3.26244 10.46137
N 35.62612 5.19907 2.58328
C 35.11499 6.03830 3.50833
C 35.18476 7.38239 2.91443
C 35.62636 7.24774 1.49966
C 35.60310 5.80627 1.35231
C 34.92594 8.63419 3.70147
C 35.99472 8.25090 0.44886
O 36.11897 7.92056 -0.78332
C 36.11413 9.64834 0.88976
N 35.55111 2.81712 0.70501
C 35.53136 3.80706 -0.20469
C 35.61255 3.25875 -1.60938
C 35.93600 1.70125 -1.44459
C 35.89581 1.59604 0.09577
C 34.35680 3.42985 -2.46390
C 37.18631 1.15939 -2.19010
C 38.44201 1.74373 -1.58417
N 35.96251 1.09432 3.02882
C 35.97963 0.09115 2.03512
C 35.97936 -1.21165 2.73164
C 35.93853 -0.87355 4.09271
C 35.89462 0.53982 4.23397
C 35.96566 -2.48980 2.10533
C 35.91186 -1.39113 5.44182
O 36.01644 -2.50866 5.94573
C 35.55608 -0.20052 6.43291
C 36.52719 -0.24569 7.58070
O 37.73756 -0.02996 7.39342
O 35.84107 -0.31996 8.73573
C 36.76067 -0.35603 9.90400
H 33.95408 6.44452 5.23038
H 35.59487 5.68382 -0.74797
H 36.09062 -0.51593 0.11922
H 34.26331 2.27647 7.85830
H 34.22696 5.05588 7.39934
H 32.32675 2.85873 6.69090
H 32.30017 4.25068 5.58814
H 31.96037 4.52765 7.26965
H 36.48257 4.32884 7.68965
H 36.93427 2.59983 7.91699
H 34.95943 3.25873 9.85951
H 35.87793 4.70709 9.65097
H 34.46149 8.41157 4.67004
H 34.16247 9.20141 3.15811
H 35.81750 9.25552 3.80981
H 35.17109 9.97189 1.32387
H 36.47080 10.20035 0.01801
H 36.86254 9.70049 1.68837
H 36.41719 3.72823 -2.16187
H 35.11700 1.07265 -1.82398
H 34.54264 3.97490 -3.40860
H 33.60795 3.93919 -1.87201
H 33.85002 2.50398 -2.73062
H 37.17020 1.47560 -3.23600
H 37.25862 0.07694 -2.18200
H 38.52424 2.71690 -2.07739
H 39.30234 1.11524 -1.80524
H 38.31247 1.92781 -0.51133
H 36.67653 -3.10597 2.63965
H 36.21599 -2.41762 1.04897
H 34.92106 -2.77222 2.26127
H 34.52630 -0.34484 6.76200
H 36.51208 -1.25360 10.47868
H 36.63585 0.61837 10.41264
H 37.81442 -0.51573 9.70764
