158

Mg 0.00000 0.00000 0.00000
C -0.21700 -2.21800 2.80100
C -1.25500 2.44200 2.02600
C -0.24500 1.85000 -2.56400
C 0.14600 -2.82400 -2.03700
N -0.61700 -0.00900 2.12600
C -0.59400 -0.90800 3.10500
C -0.93600 -0.30900 4.50200
C -1.77300 0.96400 4.03200
C -1.15500 1.16800 2.66000
C -3.26300 0.68500 3.86300
C 0.34500 0.11000 5.29900
C 0.12400 0.39700 6.78700
H 1.16800 0.03300 7.73300
N -0.18500 1.96100 -0.15200
C -0.70300 2.80000 0.77700
C -0.62000 4.15600 0.19300
C -0.18700 4.01500 -1.22500
C -0.21400 2.58300 -1.38000
C -0.88700 5.40600 0.97400
C 0.18100 5.01300 -2.27700
O 0.30300 4.69000 -3.50800
C 0.31000 6.41400 -1.83700
N -0.26500 -0.41300 -2.02900
C -0.27900 0.56900 -2.93700
C -0.19600 0.02400 -4.33200
C 0.12400 -1.53300 -4.18000
C 0.08600 -1.63200 -2.63500
C -1.45100 0.20500 -5.19700
C 1.37300 -2.07000 -4.92300
C 2.62600 -1.49000 -4.30600
N 0.15000 -2.14400 0.30300
C 0.17300 -3.13600 -0.68800
C 0.17300 -4.43800 0.00400
C 0.13300 -4.11100 1.35800
C 0.08300 -2.69500 1.50200
C 0.14900 -5.71500 -0.62300
C 0.09600 -4.62900 2.71600
O 0.20800 -5.74700 3.22100
C -0.25500 -3.42800 3.70100
C 0.71700 -3.48200 4.84800
O 1.93100 -3.25500 4.66900
O 0.03800 -3.55600 6.00300
C 0.94300 -3.58300 7.18300
H -1.85900 3.22000 2.49700
H -0.21800 2.45300 -3.47400
H 0.27600 -3.74700 -2.60500
H -1.55400 -0.94900 5.13200
H -1.58500 1.83100 4.66500
H -3.48400 -0.37700 3.96900
H -3.51100 1.02700 2.85800
H -3.85200 1.30100 4.54300
H 0.66900 1.09600 4.96600
H 1.13000 -0.63900 5.18900
H -0.84400 0.02600 7.12500
H 0.06200 1.47700 6.92100
H -1.34400 5.18600 1.93800
H -1.65100 5.96300 0.43200
H 0.00700 6.02000 1.08400
H -0.63500 6.74400 -1.40500
H 0.66500 6.97000 -2.70400
H 1.04800 6.46600 -1.03600
H 0.60800 0.50100 -4.89100
H -0.69200 -2.15600 -4.54700
H -1.26700 0.74000 -6.12900
H -2.20400 0.71400 -4.59600
H -1.96700 -0.72000 -5.45300
H 1.35600 -1.75900 -5.96700
H 1.45200 -3.15700 -4.90200
H 2.71400 -0.52200 -4.79800
H 3.48700 -2.12100 -4.52900
H 2.49500 -1.30300 -3.24000
H 0.86700 -6.33300 -0.08400
H 0.40400 -5.64200 -1.68000
H -0.89100 -5.99900 -0.46300
H -1.28300 -3.58100 4.02800
H 0.69800 -4.47800 7.75500
H 0.83300 -2.61900 7.68000
H 2.00000 -3.75400 6.97600
Mg 21.84287 1.96646 1.65926
C 21.62587 -0.25154 4.46026
C 20.58787 4.40846 3.68526
C 21.59787 3.81646 -0.90474
C 21.98887 -0.85754 -0.37774
N 21.22587 1.95746 3.78526
C 21.24887 1.05846 4.76426
C 20.90687 1.65746 6.16126
C 20.06987 2.93046 5.69126
C 20.68787 3.13446 4.31926
C 18.57987 2.65146 5.52226
C 22.18787 2.07646 6.95826
C 21.96687 2.36346 8.44626
H 23.01087 1.99946 9.39226
N 21.65787 3.92746 1.50726
C 21.13987 4.76646 2.43626
C 21.22287 6.12246 1.85226
C 21.65587 5.98146 0.43426
C 21.62887 4.54946 0.27926
C 20.95587 7.37246 2.63326
C 22.02387 6.97946 -0.61774
O 22.14587 6.65646 -1.84874
C 22.15287 8.38046 -0.17774
N 21.57787 1.55346 -0.36974
C 21.56387 2.53546 -1.27774
C 21.64687 1.99046 -2.67274
C 21.96687 0.43346 -2.52074
C 21.92887 0.33446 -0.97574
C 20.39187 2.17146 -3.53774
C 23.21587 -0.10354 -3.26374
C 24.46887 0.47646 -2.64674
N 21.99287 -0.17754 1.96226
C 22.01587 -1.16954 0.97126
C 22.01587 -2.47154 1.66326
C 21.97587 -2.14454 3.01726
C 21.92587 -0.72854 3.16126
C 21.99187 -3.74854 1.03626
C 21.93887 -2.66254 4.37526
O 22.05087 -3.78054 4.88026
C 21.58787 -1.46154 5.36026
C 22.55987 -1.51554 6.50726
O 23.77387 -1.28854 6.32826
O 21.88087 -1.58954 7.66226
C 22.78587 -1.61654 8.84226
H 19.98387 5.18646 4.15626
H 21.62487 4.41946 -1.81474
H 22.11887 -1.78054 -0.94574
H 20.28887 1.01746 6.79126
H 20.25787 3.79746 6.32426
H 18.35887 1.58946 5.62826
H 18.33187 2.99346 4.51726
H 17.99087 3.26746 6.20226
H 22.51187 3.06246 6.62526
H 22.97287 1.32746 6.84826
H 20.99887 1.99246 8.78426
H 21.90487 3.44346 8.58026
H 20.49887 7.15246 3.59726
H 20.19187 7.92946 2.09126
H 21.84987 7.98646 2.74326
H 21.20787 8.71046 0.25426
H 22.50787 8.93646 -1.04474
H 22.89087 8.43246 0.62326
H 22.45087 2.46746 -3.23174
H 21.15087 -0.18954 -2.88774
H 20.57587 2.70646 -4.46974
H 19.63887 2.68046 -2.93674
H 19.87587 1.24646 -3.79374
H 23.19887 0.20746 -4.30774
H 23.29487 -1.19054 -3.24274
H 24.55687 1.44446 -3.13874
H 25.32987 -0.15454 -2.86974
H 24.33787 0.66346 -1.58074
H 22.70987 -4.36654 1.57526
H 22.24687 -3.67554 -0.02074
H 20.95187 -4.03254 1.19626
H 20.55987 -1.61454 5.68726
H 22.54087 -2.51154 9.41426
H 22.67587 -0.65254 9.33926
H 23.84287 -1.78754 8.63526
