158

Mg 0.00000 0.00000 0.00000
C -0.21700 -2.21800 2.80100
C -1.25500 2.44200 2.02600
C -0.24500 1.85000 -2.56400
C 0.14600 -2.82400 -2.03700
N -0.61700 -0.00900 2.12600
C -0.59400 -0.90800 3.10500
C -0.93600 -0.30900 4.50200
C -1.77300 0.96400 4.03200
C -1.15500 1.16800 2.66000
C -3.26300 0.68500 3.86300
C 0.34500 0.11000 5.29900
C 0.12400 0.39700 6.78700
H 1.16800 0.03300 7.73300
N -0.18500 1.96100 -0.15200
C -0.70300 2.80000 0.77700
C -0.62000 4.15600 0.19300
C -0.18700 4.01500 -1.22500
C -0.21400 2.58300 -1.38000
C -0.88700 5.40600 0.97400
C 0.18100 5.01300 -2.27700
O 0.30300 4.69000 -3.50800
C 0.31000 6.41400 -1.83700
N -0.26500 -0.41300 -2.02900
C -0.27900 0.56900 -2.93700
C -0.19600 0.02400 -4.33200
C 0.12400 -1.53300 -4.18000
C 0.08600 -1.63200 -2.63500
C -1.45100 0.20500 -5.19700
C 1.37300 -2.07000 -4.92300
C 2.62600 -1.49000 -4.30600
N 0.15000 -2.14400 0.30300
C 0.17300 -3.13600 -0.68800
C 0.17300 -4.43800 0.00400
C 0.13300 -4.11100 1.35800
C 0.08300 -2.69500 1.50200
C 0.14900 -5.71500 -0.62300
C 0.09600 -4.62900 2.71600
O 0.20800 -5.74700 3.22100
C -0.25500 -3.42800 3.70100
C 0.71700 -3.48200 4.84800
O 1.93100 -3.25500 4.66900
O 0.03800 -3.55600 6.00300
C 0.94300 -3.58300 7.18300
H -1.85900 3.22000 2.49700
H -0.21800 2.45300 -3.47400
H 0.27600 -3.74700 -2.60500
H -1.55400 -0.94900 5.13200
H -1.58500 1.83100 4.66500
H -3.48400 -0.37700 3.96900
H -3.51100 1.02700 2.85800
H -3.85200 1.30100 4.54300
H 0.66900 1.09600 4.96600
H 1.13000 -0.63900 5.18900
H -0.84400 0.02600 7.12500
H 0.06200 1.47700 6.92100
H -1.34400 5.18600 1.93800
H -1.65100 5.96300 0.43200
H 0.00700 6.02000 1.08400
H -0.63500 6.74400 -1.40500
H 0.66500 6.97000 -2.70400
H 1.04800 6.46600 -1.03600
H 0.60800 0.50100 -4.89100
H -0.69200 -2.15600 -4.54700
H -1.26700 0.74000 -6.12900
H -2.20400 0.71400 -4.59600
H -1.96700 -0.72000 -5.45300
H 1.35600 -1.75900 -5.96700
H 1.45200 -3.15700 -4.90200
H 2.71400 -0.52200 -4.79800
H 3.48700 -2.12100 -4.52900
H 2.49500 -1.30300 -3.24000
H 0.86700 -6.33300 -0.08400
H 0.40400 -5.64200 -1.68000
H -0.89100 -5.99900 -0.46300
H -1.28300 -3.58100 4.02800
H 0.69800 -4.47800 7.75500
H 0.83300 -2.61900 7.68000
H 2.00000 -3.75400 6.97600
Mg 10.67508 0.96105 0.81092
C 10.45808 -1.25695 3.61192
C 9.42008 3.40305 2.83692
C 10.43008 2.81105 -1.75308
C 10.82108 -1.86295 -1.22608
N 10.05808 0.95205 2.93692
C 10.08108 0.05305 3.91592
C 9.73908 0.65205 5.31292
C 8.90208 1.92505 4.84292
C 9.52008 2.12905 3.47092
C 7.41208 1.64605 4.67392
C 11.02008 1.07105 6.10992
C 10.79908 1.35805 7.59792
H 11.84308 0.99405 8.54392
N 10.49008 2.92205 0.65892
C 9.97208 3.76105 1.58792
C 10.05508 5.11705 1.00392
C 10.48808 4.97605 -0.41408
C 10.46108 3.54405 -0.56908
C 9.78808 6.36705 1.78492
C 10.85608 5.97405 -1.46608
O 10.97808 5.65105 -2.69708
C 10.98508 7.37505 -1.02608
N 10.41008 0.54805 -1.21808
C 10.39608 1.53005 -2.12608
C 10.47908 0.98505 -3.52108
C 10.79908 -0.57195 -3.36908
C 10.76108 -0.67095 -1.82408
C 9.22408 1.16605 -4.38608
C 12.04808 -1.10895 -4.11208
C 13.30108 -0.52895 -3.49508
N 10.82508 -1.18295 1.11392
C 10.84808 -2.17495 0.12292
C 10.84808 -3.47695 0.81492
C 10.80808 -3.14995 2.16892
C 10.75808 -1.73395 2.31292
C 10.82408 -4.75395 0.18792
C 10.77108 -3.66795 3.52692
O 10.88308 -4.78595 4.03192
C 10.42008 -2.46695 4.51192
C 11.39208 -2.52095 5.65892
O 12.60608 -2.29395 5.47992
O 10.71308 -2.59495 6.81392
C 11.61808 -2.62195 7.99392
H 8.81608 4.18105 3.30792
H 10.45708 3.41405 -2.66308
H 10.95108 -2.78595 -1.79408
H 9.12108 0.01205 5.94292
H 9.09008 2.79205 5.47592
H 7.19108 0.58405 4.77992
H 7.16408 1.98805 3.66892
H 6.82308 2.26205 5.35392
H 11.34408 2.05705 5.77692
H 11.80508 0.32205 5.99992
H 9.83108 0.98705 7.93592
H 10.73708 2.43805 7.73192
H 9.33108 6.14705 2.74892
H 9.02408 6.92405 1.24292
H 10.68208 6.98105 1.89492
H 10.04008 7.70505 -0.59408
H 11.34008 7.93105 -1.89308
H 11.72308 7.42705 -0.22508
H 11.28308 1.46205 -4.08008
H 9.98308 -1.19495 -3.73608
H 9.40808 1.70105 -5.31808
H 8.47108 1.67505 -3.78508
H 8.70808 0.24105 -4.64208
H 12.03108 -0.79795 -5.15608
H 12.12708 -2.19595 -4.09108
H 13.38908 0.43905 -3.98708
H 14.16208 -1.15995 -3.71808
H 13.17008 -0.34195 -2.42908
H 11.54208 -5.37195 0.72692
H 11.07908 -4.68095 -0.86908
H 9.78408 -5.03795 0.34792
H 9.39208 -2.61995 4.83892
H 11.37308 -3.51695 8.56592
H 11.50808 -1.65795 8.49092
H 12.67508 -2.79295 7.78692
