158

Mg 0.00000 0.00000 0.00000
C -0.21700 -2.21800 2.80100
C -1.25500 2.44200 2.02600
C -0.24500 1.85000 -2.56400
C 0.14600 -2.82400 -2.03700
N -0.61700 -0.00900 2.12600
C -0.59400 -0.90800 3.10500
C -0.93600 -0.30900 4.50200
C -1.77300 0.96400 4.03200
C -1.15500 1.16800 2.66000
C -3.26300 0.68500 3.86300
C 0.34500 0.11000 5.29900
C 0.12400 0.39700 6.78700
H 1.16800 0.03300 7.73300
N -0.18500 1.96100 -0.15200
C -0.70300 2.80000 0.77700
C -0.62000 4.15600 0.19300
C -0.18700 4.01500 -1.22500
C -0.21400 2.58300 -1.38000
C -0.88700 5.40600 0.97400
C 0.18100 5.01300 -2.27700
O 0.30300 4.69000 -3.50800
C 0.31000 6.41400 -1.83700
N -0.26500 -0.41300 -2.02900
C -0.27900 0.56900 -2.93700
C -0.19600 0.02400 -4.33200
C 0.12400 -1.53300 -4.18000
C 0.08600 -1.63200 -2.63500
C -1.45100 0.20500 -5.19700
C 1.37300 -2.07000 -4.92300
C 2.62600 -1.49000 -4.30600
N 0.15000 -2.14400 0.30300
C 0.17300 -3.13600 -0.68800
C 0.17300 -4.43800 0.00400
C 0.13300 -4.11100 1.35800
C 0.08300 -2.69500 1.50200
C 0.14900 -5.71500 -0.62300
C 0.09600 -4.62900 2.71600
O 0.20800 -5.74700 3.22100
C -0.25500 -3.42800 3.70100
C 0.71700 -3.48200 4.84800
O 1.93100 -3.25500 4.66900
O 0.03800 -3.55600 6.00300
C 0.94300 -3.58300 7.18300
H -1.85900 3.22000 2.49700
H -0.21800 2.45300 -3.47400
H 0.27600 -3.74700 -2.60500
H -1.55400 -0.94900 5.13200
H -1.58500 1.83100 4.66500
H -3.48400 -0.37700 3.96900
H -3.51100 1.02700 2.85800
H -3.85200 1.30100 4.54300
H 0.66900 1.09600 4.96600
H 1.13000 -0.63900 5.18900
H -0.84400 0.02600 7.12500
H 0.06200 1.47700 6.92100
H -1.34400 5.18600 1.93800
H -1.65100 5.96300 0.43200
H 0.00700 6.02000 1.08400
H -0.63500 6.74400 -1.40500
H 0.66500 6.97000 -2.70400
H 1.04800 6.46600 -1.03600
H 0.60800 0.50100 -4.89100
H -0.69200 -2.15600 -4.54700
H -1.26700 0.74000 -6.12900
H -2.20400 0.71400 -4.59600
H -1.96700 -0.72000 -5.45300
H 1.35600 -1.75900 -5.96700
H 1.45200 -3.15700 -4.90200
H 2.71400 -0.52200 -4.79800
H 3.48700 -2.12100 -4.52900
H 2.49500 -1.30300 -3.24000
H 0.86700 -6.33300 -0.08400
H 0.40400 -5.64200 -1.68000
H -0.89100 -5.99900 -0.46300
H -1.28300 -3.58100 4.02800
H 0.69800 -4.47800 7.75500
H 0.83300 -2.61900 7.68000
H 2.00000 -3.75400 6.97600
Mg 52.55426 4.73134 3.99221
C 52.33726 2.51334 6.79321
C 51.29926 7.17334 6.01821
C 52.30926 6.58134 1.42821
C 52.70026 1.90734 1.95521
N 51.93726 4.72234 6.11821
C 51.96026 3.82334 7.09721
C 51.61826 4.42234 8.49421
C 50.78126 5.69534 8.02421
C 51.39926 5.89934 6.65221
C 49.29126 5.41634 7.85521
C 52.89926 4.84134 9.29121
C 52.67826 5.12834 10.77921
H 53.72226 4.76434 11.72521
N 52.36926 6.69234 3.84021
C 51.85126 7.53134 4.76921
C 51.93426 8.88734 4.18521
C 52.36726 8.74634 2.76721
C 52.34026 7.31434 2.61221
C 51.66726 10.13734 4.96621
C 52.73526 9.74434 1.71521
O 52.85726 9.42134 0.48421
C 52.86426 11.14534 2.15521
N 52.28926 4.31834 1.96321
C 52.27526 5.30034 1.05521
C 52.35826 4.75534 -0.33979
C 52.67826 3.19834 -0.18779
C 52.64026 3.09934 1.35721
C 51.10326 4.93634 -1.20479
C 53.92726 2.66134 -0.93079
C 55.18026 3.24134 -0.31379
N 52.70426 2.58734 4.29521
C 52.72726 1.59534 3.30421
C 52.72726 0.29334 3.99621
C 52.68726 0.62034 5.35021
C 52.63726 2.03634 5.49421
C 52.70326 -0.98366 3.36921
C 52.65026 0.10234 6.70821
O 52.76226 -1.01566 7.21321
C 52.29926 1.30334 7.69321
C 53.27126 1.24934 8.84021
O 54.48526 1.47634 8.66121
O 52.59226 1.17534 9.99521
C 53.49726 1.14834 11.17521
H 50.69526 7.95134 6.48921
H 52.33626 7.18434 0.51821
H 52.83026 0.98434 1.38721
H 51.00026 3.78234 9.12421
H 50.96926 6.56234 8.65721
H 49.07026 4.35434 7.96121
H 49.04326 5.75834 6.85021
H 48.70226 6.03234 8.53521
H 53.22326 5.82734 8.95821
H 53.68426 4.09234 9.18121
H 51.71026 4.75734 11.11721
H 52.61626 6.20834 10.91321
H 51.21026 9.91734 5.93021
H 50.90326 10.69434 4.42421
H 52.56126 10.75134 5.07621
H 51.91926 11.47534 2.58721
H 53.21926 11.70134 1.28821
H 53.60226 11.19734 2.95621
H 53.16226 5.23234 -0.89879
H 51.86226 2.57534 -0.55479
H 51.28726 5.47134 -2.13679
H 50.35026 5.44534 -0.60379
H 50.58726 4.01134 -1.46079
H 53.91026 2.97234 -1.97479
H 54.00626 1.57434 -0.90979
H 55.26826 4.20934 -0.80579
H 56.04126 2.61034 -0.53679
H 55.04926 3.42834 0.75221
H 53.42126 -1.60166 3.90821
H 52.95826 -0.91066 2.31221
H 51.66326 -1.26766 3.52921
H 51.27126 1.15034 8.02021
H 53.25226 0.25334 11.74721
H 53.38726 2.11234 11.67221
H 54.55426 0.97734 10.96821
