158

Mg 0.00000 0.00000 0.00000
C -0.21700 -2.21800 2.80100
C -1.25500 2.44200 2.02600
C -0.24500 1.85000 -2.56400
C 0.14600 -2.82400 -2.03700
N -0.61700 -0.00900 2.12600
C -0.59400 -0.90800 3.10500
C -0.93600 -0.30900 4.50200
C -1.77300 0.96400 4.03200
C -1.15500 1.16800 2.66000
C -3.26300 0.68500 3.86300
C 0.34500 0.11000 5.29900
C 0.12400 0.39700 6.78700
H 1.16800 0.03300 7.73300
N -0.18500 1.96100 -0.15200
C -0.70300 2.80000 0.77700
C -0.62000 4.15600 0.19300
C -0.18700 4.01500 -1.22500
C -0.21400 2.58300 -1.38000
C -0.88700 5.40600 0.97400
C 0.18100 5.01300 -2.27700
O 0.30300 4.69000 -3.50800
C 0.31000 6.41400 -1.83700
N -0.26500 -0.41300 -2.02900
C -0.27900 0.56900 -2.93700
C -0.19600 0.02400 -4.33200
C 0.12400 -1.53300 -4.18000
C 0.08600 -1.63200 -2.63500
C -1.45100 0.20500 -5.19700
C 1.37300 -2.07000 -4.92300
C 2.62600 -1.49000 -4.30600
N 0.15000 -2.14400 0.30300
C 0.17300 -3.13600 -0.68800
C 0.17300 -4.43800 0.00400
C 0.13300 -4.11100 1.35800
C 0.08300 -2.69500 1.50200
C 0.14900 -5.71500 -0.62300
C 0.09600 -4.62900 2.71600
O 0.20800 -5.74700 3.22100
C -0.25500 -3.42800 3.70100
C 0.71700 -3.48200 4.84800
O 1.93100 -3.25500 4.66900
O 0.03800 -3.55600 6.00300
C 0.94300 -3.58300 7.18300
H -1.85900 3.22000 2.49700
H -0.21800 2.45300 -3.47400
H 0.27600 -3.74700 -2.60500
H -1.55400 -0.94900 5.13200
H -1.58500 1.83100 4.66500
H -3.48400 -0.37700 3.96900
H -3.51100 1.02700 2.85800
H -3.85200 1.30100 4.54300
H 0.66900 1.09600 4.96600
H 1.13000 -0.63900 5.18900
H -0.84400 0.02600 7.12500
H 0.06200 1.47700 6.92100
H -1.34400 5.18600 1.93800
H -1.65100 5.96300 0.43200
H 0.00700 6.02000 1.08400
H -0.63500 6.74400 -1.40500
H 0.66500 6.97000 -2.70400
H 1.04800 6.46600 -1.03600
H 0.60800 0.50100 -4.89100
H -0.69200 -2.15600 -4.54700
H -1.26700 0.74000 -6.12900
H -2.20400 0.71400 -4.59600
H -1.96700 -0.72000 -5.45300
H 1.35600 -1.75900 -5.96700
H 1.45200 -3.15700 -4.90200
H 2.71400 -0.52200 -4.79800
H 3.48700 -2.12100 -4.52900
H 2.49500 -1.30300 -3.24000
H 0.86700 -6.33300 -0.08400
H 0.40400 -5.64200 -1.68000
H -0.89100 -5.99900 -0.46300
H -1.28300 -3.58100 4.02800
H 0.69800 -4.47800 7.75500
H 0.83300 -2.61900 7.68000
H 2.00000 -3.75400 6.97600
Mg 13.47336 1.21731 1.02994
C 13.25252 -1.00541 3.83882
C 12.21667 3.65888 3.05332
C 13.23151 3.07615 -1.53007
C 13.61332 -1.60234 -1.01351
N 12.85411 1.20601 3.15330
C 12.87310 0.31983 4.13751
C 12.53945 0.90470 5.53614
C 11.69479 2.18681 5.06538
C 12.31249 2.39262 3.68380
C 10.21313 1.89940 4.88813
C 13.82565 1.32439 6.33085
C 13.59801 1.61375 7.81618
H 14.64762 1.25162 8.76468
N 13.29056 3.18825 0.88659
C 12.77943 4.02748 1.81164
C 12.84920 5.37157 1.21774
C 13.29080 5.23692 -0.19703
C 13.26754 3.79545 -0.34438
C 12.59038 6.62337 2.00478
C 13.65916 6.24008 -1.24783
O 13.78341 5.90974 -2.48001
C 13.77857 7.63752 -0.80693
N 13.21555 0.80630 -0.99168
C 13.19580 1.79624 -1.90138
C 13.27699 1.24793 -3.30607
C 13.60044 -0.30957 -3.14128
C 13.56025 -0.41478 -1.60092
C 12.02124 1.41903 -4.16059
C 14.85075 -0.85143 -3.88679
C 16.10645 -0.26709 -3.28086
N 13.62695 -0.91650 1.33213
C 13.64407 -1.91967 0.33843
C 13.64380 -3.22247 1.03495
C 13.60297 -2.88437 2.39602
C 13.55906 -1.47100 2.53728
C 13.63010 -4.50062 0.40864
C 13.57630 -3.40195 3.74513
O 13.68088 -4.51948 4.24904
C 13.22052 -2.21134 4.73622
C 14.19163 -2.25651 5.88401
O 15.40200 -2.04078 5.69673
O 13.50551 -2.33078 7.03904
C 14.42511 -2.36685 8.20731
H 11.61852 4.43370 3.53369
H 13.25931 3.67300 -2.44466
H 13.75506 -2.52675 -1.57747
H 11.92775 0.26565 6.16161
H 11.89140 3.04506 5.70265
H 9.99119 0.84791 4.99421
H 9.96461 2.23986 3.89145
H 9.62481 2.51683 5.57296
H 14.14701 2.31802 5.99296
H 14.59871 0.58901 6.22030
H 12.62387 1.24791 8.16282
H 13.54237 2.69627 7.95428
H 12.12593 6.40075 2.97335
H 11.82691 7.19059 1.46142
H 13.48194 7.24470 2.11312
H 12.83553 7.96107 -0.37282
H 14.13524 8.18953 -1.67868
H 14.52698 7.68967 -0.00832
H 14.08163 1.71741 -3.85856
H 12.78144 -0.93817 -3.52067
H 12.20708 1.96408 -5.10529
H 11.27239 1.92837 -3.56870
H 11.51446 0.49316 -4.42731
H 14.83464 -0.53522 -4.93269
H 14.92306 -1.93388 -3.87869
H 16.18868 0.70608 -3.77408
H 16.96678 -0.89558 -3.50193
H 15.97691 -0.08301 -2.20802
H 14.34097 -5.11679 0.94296
H 13.88043 -4.42844 -0.64772
H 12.58550 -4.78304 0.56458
H 12.19074 -2.35566 5.06531
H 14.17652 -3.26442 8.78199
H 14.30029 -1.39245 8.71595
H 15.47886 -2.52655 8.01095
