158

Mg 0.00000 0.00000 0.00000
C -0.21700 -2.21800 2.80100
C -1.25500 2.44200 2.02600
C -0.24500 1.85000 -2.56400
C 0.14600 -2.82400 -2.03700
N -0.61700 -0.00900 2.12600
C -0.59400 -0.90800 3.10500
C -0.93600 -0.30900 4.50200
C -1.77300 0.96400 4.03200
C -1.15500 1.16800 2.66000
C -3.26300 0.68500 3.86300
C 0.34500 0.11000 5.29900
C 0.12400 0.39700 6.78700
H 1.16800 0.03300 7.73300
N -0.18500 1.96100 -0.15200
C -0.70300 2.80000 0.77700
C -0.62000 4.15600 0.19300
C -0.18700 4.01500 -1.22500
C -0.21400 2.58300 -1.38000
C -0.88700 5.40600 0.97400
C 0.18100 5.01300 -2.27700
O 0.30300 4.69000 -3.50800
C 0.31000 6.41400 -1.83700
N -0.26500 -0.41300 -2.02900
C -0.27900 0.56900 -2.93700
C -0.19600 0.02400 -4.33200
C 0.12400 -1.53300 -4.18000
C 0.08600 -1.63200 -2.63500
C -1.45100 0.20500 -5.19700
C 1.37300 -2.07000 -4.92300
C 2.62600 -1.49000 -4.30600
N 0.15000 -2.14400 0.30300
C 0.17300 -3.13600 -0.68800
C 0.17300 -4.43800 0.00400
C 0.13300 -4.11100 1.35800
C 0.08300 -2.69500 1.50200
C 0.14900 -5.71500 -0.62300
C 0.09600 -4.62900 2.71600
O 0.20800 -5.74700 3.22100
C -0.25500 -3.42800 3.70100
C 0.71700 -3.48200 4.84800
O 1.93100 -3.25500 4.66900
O 0.03800 -3.55600 6.00300
C 0.94300 -3.58300 7.18300
H -1.85900 3.22000 2.49700
H -0.21800 2.45300 -3.47400
H 0.27600 -3.74700 -2.60500
H -1.55400 -0.94900 5.13200
H -1.58500 1.83100 4.66500
H -3.48400 -0.37700 3.96900
H -3.51100 1.02700 2.85800
H -3.85200 1.30100 4.54300
H 0.66900 1.09600 4.96600
H 1.13000 -0.63900 5.18900
H -0.84400 0.02600 7.12500
H 0.06200 1.47700 6.92100
H -1.34400 5.18600 1.93800
H -1.65100 5.96300 0.43200
H 0.00700 6.02000 1.08400
H -0.63500 6.74400 -1.40500
H 0.66500 6.97000 -2.70400
H 1.04800 6.46600 -1.03600
H 0.60800 0.50100 -4.89100
H -0.69200 -2.15600 -4.54700
H -1.26700 0.74000 -6.12900
H -2.20400 0.71400 -4.59600
H -1.96700 -0.72000 -5.45300
H 1.35600 -1.75900 -5.96700
H 1.45200 -3.15700 -4.90200
H 2.71400 -0.52200 -4.79800
H 3.48700 -2.12100 -4.52900
H 2.49500 -1.30300 -3.24000
H 0.86700 -6.33300 -0.08400
H 0.40400 -5.64200 -1.68000
H -0.89100 -5.99900 -0.46300
H -1.28300 -3.58100 4.02800
H 0.69800 -4.47800 7.75500
H 0.83300 -2.61900 7.68000
H 2.00000 -3.75400 6.97600
Mg 46.97670 4.23354 3.57498
C 46.75586 2.01082 6.38386
C 45.72001 6.67511 5.59836
C 46.73485 6.09238 1.01497
C 47.11666 1.41389 1.53153
N 46.35745 4.22224 5.69834
C 46.37644 3.33606 6.68255
C 46.04279 3.92093 8.08118
C 45.19813 5.20304 7.61042
C 45.81583 5.40885 6.22884
C 43.71647 4.91563 7.43317
C 47.32899 4.34062 8.87589
C 47.10135 4.62998 10.36122
H 48.15096 4.26785 11.30972
N 46.79390 6.20448 3.43163
C 46.28277 7.04371 4.35668
C 46.35254 8.38780 3.76278
C 46.79414 8.25315 2.34801
C 46.77088 6.81168 2.20066
C 46.09372 9.63960 4.54982
C 47.16250 9.25631 1.29721
O 47.28675 8.92597 0.06503
C 47.28191 10.65375 1.73811
N 46.71889 3.82253 1.55336
C 46.69914 4.81247 0.64366
C 46.78033 4.26416 -0.76103
C 47.10378 2.70666 -0.59624
C 47.06359 2.60145 0.94412
C 45.52458 4.43526 -1.61555
C 48.35409 2.16480 -1.34175
C 49.60979 2.74914 -0.73582
N 47.13029 2.09973 3.87717
C 47.14741 1.09656 2.88347
C 47.14714 -0.20624 3.57999
C 47.10631 0.13186 4.94106
C 47.06240 1.54523 5.08232
C 47.13344 -1.48439 2.95368
C 47.07964 -0.38572 6.29017
O 47.18422 -1.50325 6.79408
C 46.72386 0.80489 7.28126
C 47.69497 0.75972 8.42905
O 48.90534 0.97545 8.24177
O 47.00885 0.68545 9.58408
C 47.92845 0.64938 10.75235
H 45.12186 7.44993 6.07873
H 46.76265 6.68923 0.10038
H 47.25840 0.48948 0.96757
H 45.43109 3.28188 8.70665
H 45.39474 6.06129 8.24769
H 43.49453 3.86414 7.53925
H 43.46795 5.25609 6.43649
H 43.12815 5.53306 8.11800
H 47.65035 5.33425 8.53800
H 48.10205 3.60524 8.76534
H 46.12721 4.26414 10.70786
H 47.04571 5.71250 10.49932
H 45.62927 9.41698 5.51839
H 45.33025 10.20682 4.00646
H 46.98528 10.26093 4.65816
H 46.33887 10.97730 2.17222
H 47.63858 11.20576 0.86636
H 48.03032 10.70590 2.53672
H 47.58497 4.73364 -1.31352
H 46.28478 2.07806 -0.97563
H 45.71042 4.98031 -2.56025
H 44.77573 4.94460 -1.02366
H 45.01780 3.50939 -1.88227
H 48.33798 2.48101 -2.38765
H 48.42640 1.08235 -1.33365
H 49.69202 3.72231 -1.22904
H 50.47012 2.12065 -0.95689
H 49.48025 2.93322 0.33702
H 47.84431 -2.10056 3.48800
H 47.38377 -1.41221 1.89732
H 46.08884 -1.76681 3.10962
H 45.69408 0.66057 7.61035
H 47.67986 -0.24819 11.32703
H 47.80363 1.62378 11.26099
H 48.98220 0.48968 10.55599
