158

Mg 0.00000 0.00000 0.00000
C -0.21700 -2.21800 2.80100
C -1.25500 2.44200 2.02600
C -0.24500 1.85000 -2.56400
C 0.14600 -2.82400 -2.03700
N -0.61700 -0.00900 2.12600
C -0.59400 -0.90800 3.10500
C -0.93600 -0.30900 4.50200
C -1.77300 0.96400 4.03200
C -1.15500 1.16800 2.66000
C -3.26300 0.68500 3.86300
C 0.34500 0.11000 5.29900
C 0.12400 0.39700 6.78700
H 1.16800 0.03300 7.73300
N -0.18500 1.96100 -0.15200
C -0.70300 2.80000 0.77700
C -0.62000 4.15600 0.19300
C -0.18700 4.01500 -1.22500
C -0.21400 2.58300 -1.38000
C -0.88700 5.40600 0.97400
C 0.18100 5.01300 -2.27700
O 0.30300 4.69000 -3.50800
C 0.31000 6.41400 -1.83700
N -0.26500 -0.41300 -2.02900
C -0.27900 0.56900 -2.93700
C -0.19600 0.02400 -4.33200
C 0.12400 -1.53300 -4.18000
C 0.08600 -1.63200 -2.63500
C -1.45100 0.20500 -5.19700
C 1.37300 -2.07000 -4.92300
C 2.62600 -1.49000 -4.30600
N 0.15000 -2.14400 0.30300
C 0.17300 -3.13600 -0.68800
C 0.17300 -4.43800 0.00400
C 0.13300 -4.11100 1.35800
C 0.08300 -2.69500 1.50200
C 0.14900 -5.71500 -0.62300
C 0.09600 -4.62900 2.71600
O 0.20800 -5.74700 3.22100
C -0.25500 -3.42800 3.70100
C 0.71700 -3.48200 4.84800
O 1.93100 -3.25500 4.66900
O 0.03800 -3.55600 6.00300
C 0.94300 -3.58300 7.18300
H -1.85900 3.22000 2.49700
H -0.21800 2.45300 -3.47400
H 0.27600 -3.74700 -2.60500
H -1.55400 -0.94900 5.13200
H -1.58500 1.83100 4.66500
H -3.48400 -0.37700 3.96900
H -3.51100 1.02700 2.85800
H -3.85200 1.30100 4.54300
H 0.66900 1.09600 4.96600
H 1.13000 -0.63900 5.18900
H -0.84400 0.02600 7.12500
H 0.06200 1.47700 6.92100
H -1.34400 5.18600 1.93800
H -1.65100 5.96300 0.43200
H 0.00700 6.02000 1.08400
H -0.63500 6.74400 -1.40500
H 0.66500 6.97000 -2.70400
H 1.04800 6.46600 -1.03600
H 0.60800 0.50100 -4.89100
H -0.69200 -2.15600 -4.54700
H -1.26700 0.74000 -6.12900
H -2.20400 0.71400 -4.59600
H -1.96700 -0.72000 -5.45300
H 1.35600 -1.75900 -5.96700
H 1.45200 -3.15700 -4.90200
H 2.71400 -0.52200 -4.79800
H 3.48700 -2.12100 -4.52900
H 2.49500 -1.30300 -3.24000
H 0.86700 -6.33300 -0.08400
H 0.40400 -5.64200 -1.68000
H -0.89100 -5.99900 -0.46300
H -1.28300 -3.58100 4.02800
H 0.69800 -4.47800 7.75500
H 0.83300 -2.61900 7.68000
H 2.00000 -3.75400 6.97600
Mg 49.76865 4.48489 3.78707
C 49.54781 2.26217 6.59595
C 48.51196 6.92646 5.81045
C 49.52680 6.34373 1.22706
C 49.90861 1.66524 1.74362
N 49.14940 4.47359 5.91043
C 49.16839 3.58741 6.89464
C 48.83474 4.17228 8.29327
C 47.99008 5.45439 7.82251
C 48.60778 5.66020 6.44093
C 46.50842 5.16698 7.64526
C 50.12094 4.59197 9.08798
C 49.89330 4.88133 10.57331
H 50.94291 4.51920 11.52181
N 49.58585 6.45583 3.64372
C 49.07472 7.29506 4.56877
C 49.14449 8.63915 3.97487
C 49.58609 8.50450 2.56010
C 49.56283 7.06303 2.41275
C 48.88567 9.89095 4.76191
C 49.95445 9.50766 1.50930
O 50.07870 9.17732 0.27712
C 50.07386 10.90510 1.95020
N 49.51084 4.07388 1.76545
C 49.49109 5.06382 0.85575
C 49.57228 4.51551 -0.54894
C 49.89573 2.95801 -0.38415
C 49.85554 2.85280 1.15621
C 48.31653 4.68661 -1.40346
C 51.14604 2.41615 -1.12966
C 52.40174 3.00049 -0.52373
N 49.92224 2.35108 4.08926
C 49.93936 1.34791 3.09556
C 49.93909 0.04511 3.79208
C 49.89826 0.38321 5.15315
C 49.85435 1.79658 5.29441
C 49.92539 -1.23304 3.16577
C 49.87159 -0.13437 6.50226
O 49.97617 -1.25190 7.00617
C 49.51581 1.05624 7.49335
C 50.48692 1.01107 8.64114
O 51.69729 1.22680 8.45386
O 49.80080 0.93680 9.79617
C 50.72040 0.90073 10.96444
H 47.91381 7.70128 6.29082
H 49.55460 6.94058 0.31247
H 50.05035 0.74083 1.17966
H 48.22304 3.53323 8.91874
H 48.18669 6.31264 8.45978
H 46.28648 4.11549 7.75134
H 46.25990 5.50744 6.64858
H 45.92010 5.78441 8.33009
H 50.44230 5.58560 8.75009
H 50.89400 3.85659 8.97743
H 48.91916 4.51549 10.91995
H 49.83766 5.96385 10.71141
H 48.42122 9.66833 5.73048
H 48.12220 10.45817 4.21855
H 49.77723 10.51228 4.87025
H 49.13082 11.22865 2.38431
H 50.43053 11.45711 1.07845
H 50.82227 10.95725 2.74881
H 50.37692 4.98499 -1.10143
H 49.07673 2.32941 -0.76354
H 48.50237 5.23166 -2.34816
H 47.56768 5.19595 -0.81157
H 47.80975 3.76074 -1.67018
H 51.12993 2.73236 -2.17556
H 51.21835 1.33370 -1.12156
H 52.48397 3.97366 -1.01695
H 53.26207 2.37200 -0.74480
H 52.27220 3.18457 0.54911
H 50.63626 -1.84921 3.70009
H 50.17572 -1.16086 2.10941
H 48.88079 -1.51546 3.32171
H 48.48603 0.91192 7.82244
H 50.47181 0.00316 11.53912
H 50.59558 1.87513 11.47308
H 51.77415 0.74103 10.76808
