158

Mg 0. 0. 0.
C -0.217 -2.218  2.801
C -1.255  2.442  2.026
C -0.245  1.85  -2.564
C  0.146 -2.824 -2.037
N -0.617 -0.009  2.126
C -0.594 -0.908  3.105
C -0.936 -0.309  4.502
C -1.773  0.964  4.032
C -1.155  1.168  2.66 
C -3.263  0.685  3.863
C 0.345 0.11  5.299
C 0.124 0.397 6.787
H 1.168 0.033 7.733
N -0.185  1.961 -0.152
C -0.703  2.8    0.777
C -0.62   4.156  0.193
C -0.187  4.015 -1.225
C -0.214  2.583 -1.38 
C -0.887  5.406  0.974
C  0.181  5.013 -2.277
O  0.303  4.69  -3.508
C  0.31   6.414 -1.837
N -0.265 -0.413 -2.029
C -0.279  0.569 -2.937
C -0.196  0.024 -4.332
C  0.124 -1.533 -4.18 
C  0.086 -1.632 -2.635
C -1.451  0.205 -5.197
C  1.373 -2.07  -4.923
C  2.626 -1.49  -4.306
N  0.15  -2.144  0.303
C  0.173 -3.136 -0.688
C  1.730e-01 -4.438e+00  4.000e-03
C  0.133 -4.111  1.358
C  0.083 -2.695  1.502
C  0.149 -5.715 -0.623
C  0.096 -4.629  2.716
O  0.208 -5.747  3.221
C -0.255 -3.428  3.701
C  0.717 -3.482  4.848
O  1.931 -3.255  4.669
O  0.038 -3.556  6.003
C  0.943 -3.583  7.183
H -1.859  3.22   2.497
H -0.218  2.453 -3.474
H  0.276 -3.747 -2.605
H -1.554 -0.949  5.132
H -1.585  1.831  4.665
H -3.484 -0.377  3.969
H -3.511  1.027  2.858
H -3.852  1.301  4.543
H 0.669 1.096 4.966
H  1.13  -0.639  5.189
H -0.844  0.026  7.125
H 0.062 1.477 6.921
H -1.344  5.186  1.938
H -1.651  5.963  0.432
H 0.007 6.02  1.084
H -0.635  6.744 -1.405
H  0.665  6.97  -2.704
H  1.048  6.466 -1.036
H  0.608  0.501 -4.891
H -0.692 -2.156 -4.547
H -1.267  0.74  -6.129
H -2.204  0.714 -4.596
H -1.967 -0.72  -5.453
H  1.356 -1.759 -5.967
H  1.452 -3.157 -4.902
H  2.714 -0.522 -4.798
H  3.487 -2.121 -4.529
H  2.495 -1.303 -3.24 
H  0.867 -6.333 -0.084
H  0.404 -5.642 -1.68 
H -0.891 -5.999 -0.463
H -1.283 -3.581  4.028
H  0.698 -4.478  7.755
H  0.833 -2.619  7.68 
H  2.    -3.754  6.976
Mg 27.42675533  2.46916595  2.08343558
C 27.20975533  0.25116595  4.88443558
C 26.17175533  4.91116595  4.10943558
C 27.18175533  4.31916595 -0.48056442
C 27.57275533 -0.35483405  0.04643558
N 26.80975533  2.46016595  4.20943558
C 26.83275533  1.56116595  5.18843558
C 26.49075533  2.16016595  6.58543558
C 25.65375533  3.43316595  6.11543558
C 26.27175533  3.63716595  4.74343558
C 24.16375533  3.15416595  5.94643558
C 27.77175533  2.57916595  7.38243558
C 27.55075533  2.86616595  8.87043558
H 28.59475533  2.50216595  9.81643558
N 27.24175533  4.43016595  1.93143558
C 26.72375533  5.26916595  2.86043558
C 26.80675533  6.62516595  2.27643558
C 27.23975533  6.48416595  0.85843558
C 27.21275533  5.05216595  0.70343558
C 26.53975533  7.87516595  3.05743558
C 27.60775533  7.48216595 -0.19356442
O 27.72975533  7.15916595 -1.42456442
C 27.73675533  8.88316595  0.24643558
N 27.16175533  2.05616595  0.05443558
C 27.14775533  3.03816595 -0.85356442
C 27.23075533  2.49316595 -2.24856442
C 27.55075533  0.93616595 -2.09656442
C 27.51275533  0.83716595 -0.55156442
C 25.97575533  2.67416595 -3.11356442
C 28.79975533  0.39916595 -2.83956442
C 30.05275533  0.97916595 -2.22256442
N 27.57675533  0.32516595  2.38643558
C 27.59975533 -0.66683405  1.39543558
C 27.59975533 -1.96883405  2.08743558
C 27.55975533 -1.64183405  3.44143558
C 27.50975533 -0.22583405  3.58543558
C 27.57575533 -3.24583405  1.46043558
C 27.52275533 -2.15983405  4.79943558
O 27.63475533 -3.27783405  5.30443558
C 27.17175533 -0.95883405  5.78443558
C 28.14375533 -1.01283405  6.93143558
O 29.35775533 -0.78583405  6.75243558
O 27.46475533 -1.08683405  8.08643558
C 28.36975533 -1.11383405  9.26643558
H 25.56775533  5.68916595  4.58043558
H 27.20875533  4.92216595 -1.39056442
H 27.70275533 -1.27783405 -0.52156442
H 25.87275533  1.52016595  7.21543558
H 25.84175533  4.30016595  6.74843558
H 23.94275533  2.09216595  6.05243558
H 23.91575533  3.49616595  4.94143558
H 23.57475533  3.77016595  6.62643558
H 28.09575533  3.56516595  7.04943558
H 28.55675533  1.83016595  7.27243558
H 26.58275533  2.49516595  9.20843558
H 27.48875533  3.94616595  9.00443558
H 26.08275533  7.65516595  4.02143558
H 25.77575533  8.43216595  2.51543558
H 27.43375533  8.48916595  3.16743558
H 26.79175533  9.21316595  0.67843558
H 28.09175533  9.43916595 -0.62056442
H 28.47475533  8.93516595  1.04743558
H 28.03475533  2.97016595 -2.80756442
H 26.73475533  0.31316595 -2.46356442
H 26.15975533  3.20916595 -4.04556442
H 25.22275533  3.18316595 -2.51256442
H 25.45975533  1.74916595 -3.36956442
H 28.78275533  0.71016595 -3.88356442
H 28.87875533 -0.68783405 -2.81856442
H 30.14075533  1.94716595 -2.71456442
H 30.91375533  0.34816595 -2.44556442
H 29.92175533  1.16616595 -1.15656442
H 28.29375533 -3.86383405  1.99943558
H 27.83075533 -3.17283405  0.40343558
H 26.53575533 -3.52983405  1.62043558
H 26.14375533 -1.11183405  6.11143558
H 28.12475533 -2.00883405  9.83843558
H 28.25975533 -0.14983405  9.76343558
H 29.42675533 -1.28483405  9.05943558
