79

Mg 21.84286503  1.96646151  1.65926307
C 21.62586503 -0.25153849  4.46026307
C 20.58786503  4.40846151  3.68526307
C 21.59786503  3.81646151 -0.90473693
C 21.98886503 -0.85753849 -0.37773693
N 21.22586503  1.95746151  3.78526307
C 21.24886503  1.05846151  4.76426307
C 20.90686503  1.65746151  6.16126307
C 20.06986503  2.93046151  5.69126307
C 20.68786503  3.13446151  4.31926307
C 18.57986503  2.65146151  5.52226307
C 22.18786503  2.07646151  6.95826307
C 21.96686503  2.36346151  8.44626307
H 23.01086503  1.99946151  9.39226307
N 21.65786503  3.92746151  1.50726307
C 21.13986503  4.76646151  2.43626307
C 21.22286503  6.12246151  1.85226307
C 21.65586503  5.98146151  0.43426307
C 21.62886503  4.54946151  0.27926307
C 20.95586503  7.37246151  2.63326307
C 22.02386503  6.97946151 -0.61773693
O 22.14586503  6.65646151 -1.84873693
C 22.15286503  8.38046151 -0.17773693
N 21.57786503  1.55346151 -0.36973693
C 21.56386503  2.53546151 -1.27773693
C 21.64686503  1.99046151 -2.67273693
C 21.96686503  0.43346151 -2.52073693
C 21.92886503  0.33446151 -0.97573693
C 20.39186503  2.17146151 -3.53773693
C 23.21586503 -0.10353849 -3.26373693
C 24.46886503  0.47646151 -2.64673693
N 21.99286503 -0.17753849  1.96226307
C 22.01586503 -1.16953849  0.97126307
C 22.01586503 -2.47153849  1.66326307
C 21.97586503 -2.14453849  3.01726307
C 21.92586503 -0.72853849  3.16126307
C 21.99186503 -3.74853849  1.03626307
C 21.93886503 -2.66253849  4.37526307
O 22.05086503 -3.78053849  4.88026307
C 21.58786503 -1.46153849  5.36026307
C 22.55986503 -1.51553849  6.50726307
O 23.77386503 -1.28853849  6.32826307
O 21.88086503 -1.58953849  7.66226307
C 22.78586503 -1.61653849  8.84226307
H 19.98386503  5.18646151  4.15626307
H 21.62486503  4.41946151 -1.81473693
H 22.11886503 -1.78053849 -0.94573693
H 20.28886503  1.01746151  6.79126307
H 20.25786503  3.79746151  6.32426307
H 18.35886503  1.58946151  5.62826307
H 18.33186503  2.99346151  4.51726307
H 17.99086503  3.26746151  6.20226307
H 22.51186503  3.06246151  6.62526307
H 22.97286503  1.32746151  6.84826307
H 20.99886503  1.99246151  8.78426307
H 21.90486503  3.44346151  8.58026307
H 20.49886503  7.15246151  3.59726307
H 20.19186503  7.92946151  2.09126307
H 21.84986503  7.98646151  2.74326307
H 21.20786503  8.71046151  0.25426307
H 22.50786503  8.93646151 -1.04473693
H 22.89086503  8.43246151  0.62326307
H 22.45086503  2.46746151 -3.23173693
H 21.15086503 -0.18953849 -2.88773693
H 20.57586503  2.70646151 -4.46973693
H 19.63886503  2.68046151 -2.93673693
H 19.87586503  1.24646151 -3.79373693
H 23.19886503  0.20746151 -4.30773693
H 23.29486503 -1.19053849 -3.24273693
H 24.55686503  1.44446151 -3.13873693
H 25.32986503 -0.15453849 -2.86973693
H 24.33786503  0.66346151 -1.58073693
H 22.70986503 -4.36653849  1.57526307
H  2.22468650e+01 -3.67553849e+00 -2.07369336e-02
H 20.95186503 -4.03253849  1.19626307
H 20.55986503 -1.61453849  5.68726307
H 22.54086503 -2.51153849  9.41426307
H 22.67586503 -0.65253849  9.33926307
H 23.84286503 -1.78753849  8.63526307
