79

Mg 52.55426171  4.73133595  3.99221189
C 52.33726171  2.51333595  6.79321189
C 51.29926171  7.17333595  6.01821189
C 52.30926171  6.58133595  1.42821189
C 52.70026171  1.90733595  1.95521189
N 51.93726171  4.72233595  6.11821189
C 51.96026171  3.82333595  7.09721189
C 51.61826171  4.42233595  8.49421189
C 50.78126171  5.69533595  8.02421189
C 51.39926171  5.89933595  6.65221189
C 49.29126171  5.41633595  7.85521189
C 52.89926171  4.84133595  9.29121189
C 52.67826171  5.12833595 10.77921189
H 53.72226171  4.76433595 11.72521189
N 52.36926171  6.69233595  3.84021189
C 51.85126171  7.53133595  4.76921189
C 51.93426171  8.88733595  4.18521189
C 52.36726171  8.74633595  2.76721189
C 52.34026171  7.31433595  2.61221189
C 51.66726171 10.13733595  4.96621189
C 52.73526171  9.74433595  1.71521189
O 52.85726171  9.42133595  0.48421189
C 52.86426171 11.14533595  2.15521189
N 52.28926171  4.31833595  1.96321189
C 52.27526171  5.30033595  1.05521189
C 52.35826171  4.75533595 -0.33978811
C 52.67826171  3.19833595 -0.18778811
C 52.64026171  3.09933595  1.35721189
C 51.10326171  4.93633595 -1.20478811
C 53.92726171  2.66133595 -0.93078811
C 55.18026171  3.24133595 -0.31378811
N 52.70426171  2.58733595  4.29521189
C 52.72726171  1.59533595  3.30421189
C 52.72726171  0.29333595  3.99621189
C 52.68726171  0.62033595  5.35021189
C 52.63726171  2.03633595  5.49421189
C 52.70326171 -0.98366405  3.36921189
C 52.65026171  0.10233595  6.70821189
O 52.76226171 -1.01566405  7.21321189
C 52.29926171  1.30333595  7.69321189
C 53.27126171  1.24933595  8.84021189
O 54.48526171  1.47633595  8.66121189
O 52.59226171  1.17533595  9.99521189
C 53.49726171  1.14833595 11.17521189
H 50.69526171  7.95133595  6.48921189
H 52.33626171  7.18433595  0.51821189
H 52.83026171  0.98433595  1.38721189
H 51.00026171  3.78233595  9.12421189
H 50.96926171  6.56233595  8.65721189
H 49.07026171  4.35433595  7.96121189
H 49.04326171  5.75833595  6.85021189
H 48.70226171  6.03233595  8.53521189
H 53.22326171  5.82733595  8.95821189
H 53.68426171  4.09233595  9.18121189
H 51.71026171  4.75733595 11.11721189
H 52.61626171  6.20833595 10.91321189
H 51.21026171  9.91733595  5.93021189
H 50.90326171 10.69433595  4.42421189
H 52.56126171 10.75133595  5.07621189
H 51.91926171 11.47533595  2.58721189
H 53.21926171 11.70133595  1.28821189
H 53.60226171 11.19733595  2.95621189
H 53.16226171  5.23233595 -0.89878811
H 51.86226171  2.57533595 -0.55478811
H 51.28726171  5.47133595 -2.13678811
H 50.35026171  5.44533595 -0.60378811
H 50.58726171  4.01133595 -1.46078811
H 53.91026171  2.97233595 -1.97478811
H 54.00626171  1.57433595 -0.90978811
H 55.26826171  4.20933595 -0.80578811
H 56.04126171  2.61033595 -0.53678811
H 55.04926171  3.42833595  0.75221189
H 53.42126171 -1.60166405  3.90821189
H 52.95826171 -0.91066405  2.31221189
H 51.66326171 -1.26766405  3.52921189
H 51.27126171  1.15033595  8.02021189
H 53.25226171  0.25333595 11.74721189
H 53.38726171  2.11233595 11.67221189
H 54.55426171  0.97733595 10.96821189
