79

Mg 7.88313926 0.70970039 0.59883178
C  7.66613926 -1.50829961  3.39983178
C 6.62813926 3.15170039 2.62483178
C  7.63813926  2.55970039 -1.96516822
C  8.02913926 -2.11429961 -1.43816822
N 7.26613926 0.70070039 2.72483178
C  7.28913926 -0.19829961  3.70383178
C 6.94713926 0.40070039 5.10083178
C 6.11013926 1.67370039 4.63083178
C 6.72813926 1.87770039 3.25883178
C 4.62013926 1.39470039 4.46183178
C 8.22813926 0.81970039 5.89783178
C 8.00713926 1.10670039 7.38583178
H 9.05113926 0.74270039 8.33183178
N 7.69813926 2.67070039 0.44683178
C 7.18013926 3.50970039 1.37583178
C 7.26313926 4.86570039 0.79183178
C  7.69613926  4.72470039 -0.62616822
C  7.66913926  3.29270039 -0.78116822
C 6.99613926 6.11570039 1.57283178
C  8.06413926  5.72270039 -1.67816822
O  8.18613926  5.39970039 -2.90916822
C  8.19313926  7.12370039 -1.23816822
N  7.61813926  0.29670039 -1.43016822
C  7.60413926  1.27870039 -2.33816822
C  7.68713926  0.73370039 -3.73316822
C  8.00713926 -0.82329961 -3.58116822
C  7.96913926 -0.92229961 -2.03616822
C  6.43213926  0.91470039 -4.59816822
C  9.25613926 -1.36029961 -4.32416822
C 10.50913926 -0.78029961 -3.70716822
N  8.03313926 -1.43429961  0.90183178
C  8.05613926 -2.42629961 -0.08916822
C  8.05613926 -3.72829961  0.60283178
C  8.01613926 -3.40129961  1.95683178
C  7.96613926 -1.98529961  2.10083178
C  8.03213926 -5.00529961 -0.02416822
C  7.97913926 -3.91929961  3.31483178
O  8.09113926 -5.03729961  3.81983178
C  7.62813926 -2.71829961  4.29983178
C  8.60013926 -2.77229961  5.44683178
O  9.81413926 -2.54529961  5.26783178
O  7.92113926 -2.84629961  6.60183178
C  8.82613926 -2.87329961  7.78183178
H 6.02413926 3.92970039 3.09583178
H  7.66513926  3.16270039 -2.87516822
H  8.15913926 -3.03729961 -2.00616822
H  6.32913926 -0.23929961  5.73083178
H 6.29813926 2.54070039 5.26383178
H 4.39913926 0.33270039 4.56783178
H 4.37213926 1.73670039 3.45683178
H 4.03113926 2.01070039 5.14183178
H 8.55213926 1.80570039 5.56483178
H 9.01313926 0.07070039 5.78783178
H 7.03913926 0.73570039 7.72383178
H 7.94513926 2.18670039 7.51983178
H 6.53913926 5.89570039 2.53683178
H 6.23213926 6.67270039 1.03083178
H 7.89013926 6.72970039 1.68283178
H  7.24813926  7.45370039 -0.80616822
H  8.54813926  7.67970039 -2.10516822
H  8.93113926  7.17570039 -0.43716822
H  8.49113926  1.21070039 -4.29216822
H  7.19113926 -1.44629961 -3.94816822
H  6.61613926  1.44970039 -5.53016822
H  5.67913926  1.42370039 -3.99716822
H  5.91613926 -0.01029961 -4.85416822
H  9.23913926 -1.04929961 -5.36816822
H  9.33513926 -2.44729961 -4.30316822
H 10.59713926  0.18770039 -4.19916822
H 11.37013926 -1.41129961 -3.93016822
H 10.37813926 -0.59329961 -2.64116822
H  8.75013926 -5.62329961  0.51483178
H  8.28713926 -4.93229961 -1.08116822
H  6.99213926 -5.28929961  0.13583178
H  6.60013926 -2.87129961  4.62683178
H  8.58113926 -3.76829961  8.35383178
H  8.71613926 -1.90929961  8.27883178
H  9.88313926 -3.04429961  7.57483178
