79

Mg 46.97670 4.23354 3.57498
C 46.75586 2.01082 6.38386
C 45.72001 6.67511 5.59836
C 46.73485 6.09238 1.01497
C 47.11666 1.41389 1.53153
N 46.35745 4.22224 5.69834
C 46.37644 3.33606 6.68255
C 46.04279 3.92093 8.08118
C 45.19813 5.20304 7.61042
C 45.81583 5.40885 6.22884
C 43.71647 4.91563 7.43317
C 47.32899 4.34062 8.87589
C 47.10135 4.62998 10.36122
H 48.15096 4.26785 11.30972
N 46.79390 6.20448 3.43163
C 46.28277 7.04371 4.35668
C 46.35254 8.38780 3.76278
C 46.79414 8.25315 2.34801
C 46.77088 6.81168 2.20066
C 46.09372 9.63960 4.54982
C 47.16250 9.25631 1.29721
O 47.28675 8.92597 0.06503
C 47.28191 10.65375 1.73811
N 46.71889 3.82253 1.55336
C 46.69914 4.81247 0.64366
C 46.78033 4.26416 -0.76103
C 47.10378 2.70666 -0.59624
C 47.06359 2.60145 0.94412
C 45.52458 4.43526 -1.61555
C 48.35409 2.16480 -1.34175
C 49.60979 2.74914 -0.73582
N 47.13029 2.09973 3.87717
C 47.14741 1.09656 2.88347
C 47.14714 -0.20624 3.57999
C 47.10631 0.13186 4.94106
C 47.06240 1.54523 5.08232
C 47.13344 -1.48439 2.95368
C 47.07964 -0.38572 6.29017
O 47.18422 -1.50325 6.79408
C 46.72386 0.80489 7.28126
C 47.69497 0.75972 8.42905
O 48.90534 0.97545 8.24177
O 47.00885 0.68545 9.58408
C 47.92845 0.64938 10.75235
H 45.12186 7.44993 6.07873
H 46.76265 6.68923 0.10038
H 47.25840 0.48948 0.96757
H 45.43109 3.28188 8.70665
H 45.39474 6.06129 8.24769
H 43.49453 3.86414 7.53925
H 43.46795 5.25609 6.43649
H 43.12815 5.53306 8.11800
H 47.65035 5.33425 8.53800
H 48.10205 3.60524 8.76534
H 46.12721 4.26414 10.70786
H 47.04571 5.71250 10.49932
H 45.62927 9.41698 5.51839
H 45.33025 10.20682 4.00646
H 46.98528 10.26093 4.65816
H 46.33887 10.97730 2.17222
H 47.63858 11.20576 0.86636
H 48.03032 10.70590 2.53672
H 47.58497 4.73364 -1.31352
H 46.28478 2.07806 -0.97563
H 45.71042 4.98031 -2.56025
H 44.77573 4.94460 -1.02366
H 45.01780 3.50939 -1.88227
H 48.33798 2.48101 -2.38765
H 48.42640 1.08235 -1.33365
H 49.69202 3.72231 -1.22904
H 50.47012 2.12065 -0.95689
H 49.48025 2.93322 0.33702
H 47.84431 -2.10056 3.48800
H 47.38377 -1.41221 1.89732
H 46.08884 -1.76681 3.10962
H 45.69408 0.66057 7.61035
H 47.67986 -0.24819 11.32703
H 47.80363 1.62378 11.26099
H 48.98220 0.48968 10.55599
