79

Mg 16.26530 1.46867 1.24203
C 16.04446 -0.75405 4.05091
C 15.00861 3.91024 3.26541
C 16.02345 3.32751 -1.31798
C 16.40526 -1.35098 -0.80142
N 15.64605 1.45737 3.36539
C 15.66504 0.57119 4.34960
C 15.33139 1.15606 5.74823
C 14.48673 2.43817 5.27747
C 15.10443 2.64398 3.89589
C 13.00507 2.15076 5.10022
C 16.61759 1.57575 6.54294
C 16.38995 1.86511 8.02827
H 17.43956 1.50298 8.97677
N 16.08250 3.43961 1.09868
C 15.57137 4.27884 2.02373
C 15.64114 5.62293 1.42983
C 16.08274 5.48828 0.01506
C 16.05948 4.04681 -0.13229
C 15.38232 6.87473 2.21687
C 16.45110 6.49144 -1.03574
O 16.57535 6.16110 -2.26792
C 16.57051 7.88888 -0.59484
N 16.00749 1.05766 -0.77959
C 15.98774 2.04760 -1.68929
C 16.06893 1.49929 -3.09398
C 16.39238 -0.05821 -2.92919
C 16.35219 -0.16342 -1.38883
C 14.81318 1.67039 -3.94850
C 17.64269 -0.60007 -3.67470
C 18.89839 -0.01573 -3.06877
N 16.41889 -0.66514 1.54422
C 16.43601 -1.66831 0.55052
C 16.43574 -2.97111 1.24704
C 16.39491 -2.63301 2.60811
C 16.35100 -1.21964 2.74937
C 16.42204 -4.24926 0.62073
C 16.36824 -3.15059 3.95722
O 16.47282 -4.26812 4.46113
C 16.01246 -1.95998 4.94831
C 16.98357 -2.00515 6.09610
O 18.19394 -1.78942 5.90882
O 16.29745 -2.07942 7.25113
C 17.21705 -2.11549 8.41940
H 14.41046 4.68506 3.74578
H 16.05125 3.92436 -2.23257
H 16.54700 -2.27539 -1.36538
H 14.71969 0.51701 6.37370
H 14.68334 3.29642 5.91474
H 12.78313 1.09927 5.20630
H 12.75655 2.49122 4.10354
H 12.41675 2.76819 5.78505
H 16.93895 2.56938 6.20505
H 17.39065 0.84037 6.43239
H 15.41581 1.49927 8.37491
H 16.33431 2.94763 8.16637
H 14.91787 6.65211 3.18544
H 14.61885 7.44195 1.67351
H 16.27388 7.49606 2.32521
H 15.62747 8.21243 -0.16073
H 16.92718 8.44089 -1.46659
H 17.31892 7.94103 0.20377
H 16.87357 1.96877 -3.64647
H 15.57338 -0.68681 -3.30858
H 14.99902 2.21544 -4.89320
H 14.06433 2.17973 -3.35661
H 14.30640 0.74452 -4.21522
H 17.62658 -0.28386 -4.72060
H 17.71500 -1.68252 -3.66660
H 18.98062 0.95744 -3.56199
H 19.75872 -0.64422 -3.28984
H 18.76885 0.16835 -1.99593
H 17.13291 -4.86543 1.15505
H 16.67237 -4.17708 -0.43563
H 15.37744 -4.53168 0.77667
H 14.98268 -2.10430 5.27740
H 16.96846 -3.01306 8.99408
H 17.09223 -1.14109 8.92804
H 18.27080 -2.27519 8.22304
