79

Mg 52.56059 4.73625 3.99915
C 52.33975 2.51353 6.80803
C 51.30390 7.17782 6.02253
C 52.31874 6.59509 1.43914
C 52.70055 1.91660 1.95570
N 51.94134 4.72495 6.12251
C 51.96033 3.83877 7.10672
C 51.62668 4.42364 8.50535
C 50.78202 5.70575 8.03459
C 51.39972 5.91156 6.65301
C 49.30036 5.41834 7.85734
C 52.91288 4.84333 9.30006
C 52.68524 5.13269 10.78539
H 53.73485 4.77056 11.73389
N 52.37779 6.70719 3.85580
C 51.86666 7.54642 4.78085
C 51.93643 8.89051 4.18695
C 52.37803 8.75586 2.77218
C 52.35477 7.31439 2.62483
C 51.67761 10.14231 4.97399
C 52.74639 9.75902 1.72138
O 52.87064 9.42868 0.48920
C 52.86580 11.15646 2.16228
N 52.30278 4.32524 1.97753
C 52.28303 5.31518 1.06783
C 52.36422 4.76687 -0.33686
C 52.68767 3.20937 -0.17207
C 52.64748 3.10416 1.36829
C 51.10847 4.93797 -1.19138
C 53.93798 2.66751 -0.91758
C 55.19368 3.25185 -0.31165
N 52.71418 2.60244 4.30134
C 52.73130 1.59927 3.30764
C 52.73103 0.29647 4.00416
C 52.69020 0.63457 5.36523
C 52.64629 2.04794 5.50649
C 52.71733 -0.98168 3.37785
C 52.66353 0.11699 6.71434
O 52.76811 -1.00054 7.21825
C 52.30775 1.30760 7.70543
C 53.27886 1.26243 8.85322
O 54.48923 1.47816 8.66594
O 52.59274 1.18816 10.00825
C 53.51234 1.15209 11.17652
H 50.70575 7.95264 6.50290
H 52.34654 7.19194 0.52455
H 52.84229 0.99219 1.39174
H 51.01498 3.78459 9.13082
H 50.97863 6.56400 8.67186
H 49.07842 4.36685 7.96342
H 49.05184 5.75880 6.86066
H 48.71204 6.03577 8.54217
H 53.23424 5.83696 8.96217
H 53.68594 4.10795 9.18951
H 51.71110 4.76685 11.13203
H 52.62960 6.21521 10.92349
H 51.21316 9.91969 5.94256
H 50.91414 10.70953 4.43063
H 52.56917 10.76364 5.08233
H 51.92276 11.48001 2.59639
H 53.22247 11.70847 1.29053
H 53.61421 11.20861 2.96089
H 53.16886 5.23635 -0.88935
H 51.86867 2.58077 -0.55146
H 51.29431 5.48302 -2.13608
H 50.35962 5.44731 -0.59949
H 50.60169 4.01210 -1.45810
H 53.92187 2.98372 -1.96348
H 54.01029 1.58506 -0.90948
H 55.27591 4.22502 -0.80487
H 56.05401 2.62336 -0.53272
H 55.06414 3.43593 0.76119
H 53.42820 -1.59785 3.91217
H 52.96766 -0.90950 2.32149
H 51.67273 -1.26410 3.53379
H 51.27797 1.16328 8.03452
H 53.26375 0.25452 11.75120
H 53.38752 2.12649 11.68516
H 54.56609 0.99239 10.98016
