79

Mg 38.60087 3.47948 2.93872
C 38.38003 1.25676 5.74760
C 37.34418 5.92105 4.96210
C 38.35902 5.33832 0.37871
C 38.74083 0.65983 0.89527
N 37.98162 3.46818 5.06208
C 38.00061 2.58200 6.04629
C 37.66696 3.16687 7.44492
C 36.82230 4.44898 6.97416
C 37.44000 4.65479 5.59258
C 35.34064 4.16157 6.79691
C 38.95316 3.58656 8.23963
C 38.72552 3.87592 9.72496
H 39.77513 3.51379 10.67346
N 38.41807 5.45042 2.79537
C 37.90694 6.28965 3.72042
C 37.97671 7.63374 3.12652
C 38.41831 7.49909 1.71175
C 38.39505 6.05762 1.56440
C 37.71789 8.88554 3.91356
C 38.78667 8.50225 0.66095
O 38.91092 8.17191 -0.57123
C 38.90608 9.89969 1.10185
N 38.34306 3.06847 0.91710
C 38.32331 4.05841 0.00740
C 38.40450 3.51010 -1.39729
C 38.72795 1.95260 -1.23250
C 38.68776 1.84739 0.30786
C 37.14875 3.68120 -2.25181
C 39.97826 1.41074 -1.97801
C 41.23396 1.99508 -1.37208
N 38.75446 1.34567 3.24091
C 38.77158 0.34250 2.24721
C 38.77131 -0.96030 2.94373
C 38.73048 -0.62220 4.30480
C 38.68657 0.79117 4.44606
C 38.75761 -2.23845 2.31742
C 38.70381 -1.13978 5.65391
O 38.80839 -2.25731 6.15782
C 38.34803 0.05083 6.64500
C 39.31914 0.00566 7.79279
O 40.52951 0.22139 7.60551
O 38.63302 -0.06861 8.94782
C 39.55262 -0.10468 10.11609
H 36.74603 6.69587 5.44247
H 38.38682 5.93517 -0.53588
H 38.88257 -0.26458 0.33131
H 37.05526 2.52782 8.07039
H 37.01891 5.30723 7.61143
H 35.11870 3.11008 6.90299
H 35.09212 4.50203 5.80023
H 34.75232 4.77900 7.48174
H 39.27452 4.58019 7.90174
H 39.72622 2.85118 8.12908
H 37.75138 3.51008 10.07160
H 38.66988 4.95844 9.86306
H 37.25344 8.66292 4.88213
H 36.95442 9.45276 3.37020
H 38.60945 9.50687 4.02190
H 37.96304 10.22324 1.53596
H 39.26275 10.45170 0.23010
H 39.65449 9.95184 1.90046
H 39.20914 3.97958 -1.94978
H 37.90895 1.32400 -1.61189
H 37.33459 4.22625 -3.19651
H 36.39990 4.19054 -1.65992
H 36.64197 2.75533 -2.51853
H 39.96215 1.72695 -3.02391
H 40.05057 0.32829 -1.96991
H 41.31619 2.96825 -1.86530
H 42.09429 1.36659 -1.59315
H 41.10442 2.17916 -0.29924
H 39.46848 -2.85462 2.85174
H 39.00794 -2.16627 1.26106
H 37.71301 -2.52087 2.47336
H 37.31825 -0.09349 6.97409
H 39.30403 -1.00225 10.69077
H 39.42780 0.86972 10.62473
H 40.60637 -0.26438 9.91973
