79

Mg 44.17843 3.97728 3.35595
C 43.96143 1.75928 6.15695
C 42.92343 6.41928 5.38195
C 43.93343 5.82728 0.79195
C 44.32443 1.15328 1.31895
N 43.56143 3.96828 5.48195
C 43.58443 3.06928 6.46095
C 43.24243 3.66828 7.85795
C 42.40543 4.94128 7.38795
C 43.02343 5.14528 6.01595
C 40.91543 4.66228 7.21895
C 44.52343 4.08728 8.65495
C 44.30243 4.37428 10.14295
H 45.34643 4.01028 11.08895
N 43.99343 5.93828 3.20395
C 43.47543 6.77728 4.13295
C 43.55843 8.13328 3.54895
C 43.99143 7.99228 2.13095
C 43.96443 6.56028 1.97595
C 43.29143 9.38328 4.32995
C 44.35943 8.99028 1.07895
O 44.48143 8.66728 -0.15205
C 44.48843 10.39128 1.51895
N 43.91343 3.56428 1.32695
C 43.89943 4.54628 0.41895
C 43.98243 4.00128 -0.97605
C 44.30243 2.44428 -0.82405
C 44.26443 2.34528 0.72095
C 42.72743 4.18228 -1.84105
C 45.55143 1.90728 -1.56705
C 46.80443 2.48728 -0.95005
N 44.32843 1.83328 3.65895
C 44.35143 0.84128 2.66795
C 44.35143 -0.46072 3.35995
C 44.31143 -0.13372 4.71395
C 44.26143 1.28228 4.85795
C 44.32743 -1.73772 2.73295
C 44.27443 -0.65172 6.07195
O 44.38643 -1.76972 6.57695
C 43.92343 0.54928 7.05695
C 44.89543 0.49528 8.20395
O 46.10943 0.72228 8.02495
O 44.21643 0.42128 9.35895
C 45.12143 0.39428 10.53895
H 42.31943 7.19728 5.85295
H 43.96043 6.43028 -0.11805
H 44.45443 0.23028 0.75095
H 42.62443 3.02828 8.48795
H 42.59343 5.80828 8.02095
H 40.69443 3.60028 7.32495
H 40.66743 5.00428 6.21395
H 40.32643 5.27828 7.89895
H 44.84743 5.07328 8.32195
H 45.30843 3.33828 8.54495
H 43.33443 4.00328 10.48095
H 44.24043 5.45428 10.27695
H 42.83443 9.16328 5.29395
H 42.52743 9.94028 3.78795
H 44.18543 9.99728 4.43995
H 43.54343 10.72128 1.95095
H 44.84343 10.94728 0.65195
H 45.22643 10.44328 2.31995
H 44.78643 4.47828 -1.53505
H 43.48643 1.82128 -1.19105
H 42.91143 4.71728 -2.77305
H 41.97443 4.69128 -1.24005
H 42.21143 3.25728 -2.09705
H 45.53443 2.21828 -2.61105
H 45.63043 0.82028 -1.54605
H 46.89243 3.45528 -1.44205
H 47.66543 1.85628 -1.17305
H 46.67343 2.67428 0.11595
H 45.04543 -2.35572 3.27195
H 44.58243 -1.66472 1.67595
H 43.28743 -2.02172 2.89295
H 42.89543 0.39628 7.38395
H 44.87643 -0.50072 11.11095
H 45.01143 1.35828 11.03595
H 46.17843 0.22328 10.33195
