79

Mg 16.25897472  1.46375706  1.23509055
C 16.04197472 -0.75424294  4.03609055
C 15.00397472  3.90575706  3.26109055
C 16.01397472  3.31375706 -1.32890945
C 16.40497472 -1.36024294 -0.80190945
N 15.64197472  1.45475706  3.36109055
C 15.66497472  0.55575706  4.34009055
C 15.32297472  1.15475706  5.73709055
C 14.48597472  2.42775706  5.26709055
C 15.10397472  2.63175706  3.89509055
C 12.99597472  2.14875706  5.09809055
C 16.60397472  1.57375706  6.53409055
C 16.38297472  1.86075706  8.02209055
H 17.42697472  1.49675706  8.96809055
N 16.07397472  3.42475706  1.08309055
C 15.55597472  4.26375706  2.01209055
C 15.63897472  5.61975706  1.42809055
C 1.60719747e+01 5.47875706e+00 1.00905532e-02
C 16.04497472  4.04675706 -0.14490945
C 15.37197472  6.86975706  2.20909055
C 16.43997472  6.47675706 -1.04190945
O 16.56197472  6.15375706 -2.27290945
C 16.56897472  7.87775706 -0.60190945
N 15.99397472  1.05075706 -0.79390945
C 15.97997472  2.03275706 -1.70190945
C 16.06297472  1.48775706 -3.09690945
C 16.38297472 -0.06924294 -2.94490945
C 16.34497472 -0.16824294 -1.39990945
C 14.80797472  1.66875706 -3.96190945
C 17.63197472 -0.60624294 -3.68790945
C 18.88497472 -0.02624294 -3.07090945
N 16.40897472 -0.68024294  1.53809055
C 16.43197472 -1.67224294  0.54709055
C 16.43197472 -2.97424294  1.23909055
C 16.39197472 -2.64724294  2.59309055
C 16.34197472 -1.23124294  2.73709055
C 16.40797472 -4.25124294  0.61209055
C 16.35497472 -3.16524294  3.95109055
O 16.46697472 -4.28324294  4.45609055
C 16.00397472 -1.96424294  4.93609055
C 16.97597472 -2.01824294  6.08309055
O 18.18997472 -1.79124294  5.90409055
O 16.29697472 -2.09224294  7.23809055
C 17.20197472 -2.11924294  8.41809055
H 14.39997472  4.68375706  3.73209055
H 16.04097472  3.91675706 -2.23890945
H 16.53497472 -2.28324294 -1.36990945
H 14.70497472  0.51475706  6.36709055
H 14.67397472  3.29475706  5.90009055
H 12.77497472  1.08675706  5.20409055
H 12.74797472  2.49075706  4.09309055
H 12.40697472  2.76475706  5.77809055
H 16.92797472  2.55975706  6.20109055
H 17.38897472  0.82475706  6.42409055
H 15.41497472  1.48975706  8.36009055
H 16.32097472  2.94075706  8.15609055
H 14.91497472  6.64975706  3.17309055
H 14.60797472  7.42675706  1.66709055
H 16.26597472  7.48375706  2.31909055
H 15.62397472  8.20775706 -0.16990945
H 16.92397472  8.43375706 -1.46890945
H 17.30697472  7.92975706  0.19909055
H 16.86697472  1.96475706 -3.65590945
H 15.56697472 -0.69224294 -3.31190945
H 14.99197472  2.20375706 -4.89390945
H 14.05497472  2.17775706 -3.36090945
H 14.29197472  0.74375706 -4.21790945
H 17.61497472 -0.29524294 -4.73190945
H 17.71097472 -1.69324294 -3.66690945
H 18.97297472  0.94175706 -3.56290945
H 19.74597472 -0.65724294 -3.29390945
H 18.75397472  0.16075706 -2.00490945
H 17.12597472 -4.86924294  1.15109055
H 16.66297472 -4.17824294 -0.44490945
H 15.36797472 -4.53524294  0.77209055
H 14.97597472 -2.11724294  5.26309055
H 16.95697472 -3.01424294  8.99009055
H 17.09197472 -1.15524294  8.91509055
H 18.25897472 -2.29024294  8.21109055
