79

Mg 30.21870 2.72052 2.29552
C 30.00170 0.50252 5.09652
C 28.96370 5.16252 4.32152
C 29.97370 4.57052 -0.26848
C 30.36470 -0.10348 0.25852
N 29.60170 2.71152 4.42152
C 29.62470 1.81252 5.40052
C 29.28270 2.41152 6.79752
C 28.44570 3.68452 6.32752
C 29.06370 3.88852 4.95552
C 26.95570 3.40552 6.15852
C 30.56370 2.83052 7.59452
C 30.34270 3.11752 9.08252
H 31.38670 2.75352 10.02852
N 30.03370 4.68152 2.14352
C 29.51570 5.52052 3.07252
C 29.59870 6.87652 2.48852
C 30.03170 6.73552 1.07052
C 30.00470 5.30352 0.91552
C 29.33170 8.12652 3.26952
C 30.39970 7.73352 0.01852
O 30.52170 7.41052 -1.21248
C 30.52870 9.13452 0.45852
N 29.95370 2.30752 0.26652
C 29.93970 3.28952 -0.64148
C 30.02270 2.74452 -2.03648
C 30.34270 1.18752 -1.88448
C 30.30470 1.08852 -0.33948
C 28.76770 2.92552 -2.90148
C 31.59170 0.65052 -2.62748
C 32.84470 1.23052 -2.01048
N 30.36870 0.57652 2.59852
C 30.39170 -0.41548 1.60752
C 30.39170 -1.71748 2.29952
C 30.35170 -1.39048 3.65352
C 30.30170 0.02552 3.79752
C 30.36770 -2.99448 1.67252
C 30.31470 -1.90848 5.01152
O 30.42670 -3.02648 5.51652
C 29.96370 -0.70748 5.99652
C 30.93570 -0.76148 7.14352
O 32.14970 -0.53448 6.96452
O 30.25670 -0.83548 8.29852
C 31.16170 -0.86248 9.47852
H 28.35970 5.94052 4.79252
H 30.00070 5.17352 -1.17848
H 30.49470 -1.02648 -0.30948
H 28.66470 1.77152 7.42752
H 28.63370 4.55152 6.96052
H 26.73470 2.34352 6.26452
H 26.70770 3.74752 5.15352
H 26.36670 4.02152 6.83852
H 30.88770 3.81652 7.26152
H 31.34870 2.08152 7.48452
H 29.37470 2.74652 9.42052
H 30.28070 4.19752 9.21652
H 28.87470 7.90652 4.23352
H 28.56770 8.68352 2.72752
H 30.22570 8.74052 3.37952
H 29.58370 9.46452 0.89052
H 30.88370 9.69052 -0.40848
H 31.26670 9.18652 1.25952
H 30.82670 3.22152 -2.59548
H 29.52670 0.56452 -2.25148
H 28.95170 3.46052 -3.83348
H 28.01470 3.43452 -2.30048
H 28.25170 2.00052 -3.15748
H 31.57470 0.96152 -3.67148
H 31.67070 -0.43648 -2.60648
H 32.93270 2.19852 -2.50248
H 33.70570 0.59952 -2.23348
H 32.71370 1.41752 -0.94448
H 31.08570 -3.61248 2.21152
H 30.62270 -2.92148 0.61552
H 29.32770 -3.27848 1.83252
H 28.93570 -0.86048 6.32352
H 30.91670 -1.75748 10.05052
H 31.05170 0.10152 9.97552
H 32.21870 -1.03348 9.27152
