79

Mg 44.18476 3.98219 3.36289
C 43.96392 1.75947 6.17177
C 42.92807 6.42376 5.38627
C 43.94291 5.84103 0.80288
C 44.32472 1.16254 1.31944
N 43.56551 3.97089 5.48625
C 43.58450 3.08471 6.47046
C 43.25085 3.66958 7.86909
C 42.40619 4.95169 7.39833
C 43.02389 5.15750 6.01675
C 40.92453 4.66428 7.22108
C 44.53705 4.08927 8.66380
C 44.30941 4.37863 10.14913
H 45.35902 4.01650 11.09763
N 44.00196 5.95313 3.21954
C 43.49083 6.79236 4.14459
C 43.56060 8.13645 3.55069
C 44.00220 8.00180 2.13592
C 43.97894 6.56033 1.98857
C 43.30178 9.38825 4.33773
C 44.37056 9.00496 1.08512
O 44.49481 8.67462 -0.14706
C 44.48997 10.40240 1.52602
N 43.92695 3.57118 1.34127
C 43.90720 4.56112 0.43157
C 43.98839 4.01281 -0.97312
C 44.31184 2.45531 -0.80833
C 44.27165 2.35010 0.73203
C 42.73264 4.18391 -1.82764
C 45.56215 1.91345 -1.55384
C 46.81785 2.49779 -0.94791
N 44.33835 1.84838 3.66508
C 44.35547 0.84521 2.67138
C 44.35520 -0.45759 3.36790
C 44.31437 -0.11949 4.72897
C 44.27046 1.29388 4.87023
C 44.34150 -1.73574 2.74159
C 44.28770 -0.63707 6.07808
O 44.39228 -1.75460 6.58199
C 43.93192 0.55354 7.06917
C 44.90303 0.50837 8.21696
O 46.11340 0.72410 8.02968
O 44.21691 0.43410 9.37199
C 45.13651 0.39803 10.54026
H 42.32992 7.19858 5.86664
H 43.97071 6.43788 -0.11171
H 44.46646 0.23813 0.75548
H 42.63915 3.03053 8.49456
H 42.60280 5.80994 8.03560
H 40.70259 3.61279 7.32716
H 40.67601 5.00474 6.22440
H 40.33621 5.28171 7.90591
H 44.85841 5.08290 8.32591
H 45.31011 3.35389 8.55325
H 43.33527 4.01279 10.49577
H 44.25377 5.46115 10.28723
H 42.83733 9.16563 5.30630
H 42.53831 9.95547 3.79437
H 44.19334 10.00958 4.44607
H 43.54693 10.72595 1.96013
H 44.84664 10.95441 0.65427
H 45.23838 10.45455 2.32463
H 44.79303 4.48229 -1.52561
H 43.49284 1.82671 -1.18772
H 42.91848 4.72896 -2.77234
H 41.98379 4.69325 -1.23575
H 42.22586 3.25804 -2.09436
H 45.54604 2.22966 -2.59974
H 45.63446 0.83100 -1.54574
H 46.90008 3.47096 -1.44113
H 47.67818 1.86930 -1.16898
H 46.68831 2.68187 0.12493
H 45.05237 -2.35191 3.27591
H 44.59183 -1.66356 1.68523
H 43.29690 -2.01816 2.89753
H 42.90214 0.40922 7.39826
H 44.88792 -0.49954 11.11494
H 45.01169 1.37243 11.04890
H 46.19026 0.23833 10.34390
