79

Mg 16.25897 1.46376 1.23509
C 16.04197 -0.75424 4.03609
C 15.00397 3.90576 3.26109
C 16.01397 3.31376 -1.32891
C 16.40497 -1.36024 -0.80191
N 15.64197 1.45476 3.36109
C 15.66497 0.55576 4.34009
C 15.32297 1.15476 5.73709
C 14.48597 2.42776 5.26709
C 15.10397 2.63176 3.89509
C 12.99597 2.14876 5.09809
C 16.60397 1.57376 6.53409
C 16.38297 1.86076 8.02209
H 17.42697 1.49676 8.96809
N 16.07397 3.42476 1.08309
C 15.55597 4.26376 2.01209
C 15.63897 5.61976 1.42809
C 16.07197 5.47876 0.01009
C 16.04497 4.04676 -0.14491
C 15.37197 6.86976 2.20909
C 16.43997 6.47676 -1.04191
O 16.56197 6.15376 -2.27291
C 16.56897 7.87776 -0.60191
N 15.99397 1.05076 -0.79391
C 15.97997 2.03276 -1.70191
C 16.06297 1.48776 -3.09691
C 16.38297 -0.06924 -2.94491
C 16.34497 -0.16824 -1.39991
C 14.80797 1.66876 -3.96191
C 17.63197 -0.60624 -3.68791
C 18.88497 -0.02624 -3.07091
N 16.40897 -0.68024 1.53809
C 16.43197 -1.67224 0.54709
C 16.43197 -2.97424 1.23909
C 16.39197 -2.64724 2.59309
C 16.34197 -1.23124 2.73709
C 16.40797 -4.25124 0.61209
C 16.35497 -3.16524 3.95109
O 16.46697 -4.28324 4.45609
C 16.00397 -1.96424 4.93609
C 16.97597 -2.01824 6.08309
O 18.18997 -1.79124 5.90409
O 16.29697 -2.09224 7.23809
C 17.20197 -2.11924 8.41809
H 14.39997 4.68376 3.73209
H 16.04097 3.91676 -2.23891
H 16.53497 -2.28324 -1.36991
H 14.70497 0.51476 6.36709
H 14.67397 3.29476 5.90009
H 12.77497 1.08676 5.20409
H 12.74797 2.49076 4.09309
H 12.40697 2.76476 5.77809
H 16.92797 2.55976 6.20109
H 17.38897 0.82476 6.42409
H 15.41497 1.48976 8.36009
H 16.32097 2.94076 8.15609
H 14.91497 6.64976 3.17309
H 14.60797 7.42676 1.66709
H 16.26597 7.48376 2.31909
H 15.62397 8.20776 -0.16991
H 16.92397 8.43376 -1.46891
H 17.30697 7.92976 0.19909
H 16.86697 1.96476 -3.65591
H 15.56697 -0.69224 -3.31191
H 14.99197 2.20376 -4.89391
H 14.05497 2.17776 -3.36091
H 14.29197 0.74376 -4.21791
H 17.61497 -0.29524 -4.73191
H 17.71097 -1.69324 -3.66691
H 18.97297 0.94176 -3.56291
H 19.74597 -0.65724 -3.29391
H 18.75397 0.16076 -2.00491
H 17.12597 -4.86924 1.15109
H 16.66297 -4.17824 -0.44491
H 15.36797 -4.53524 0.77209
H 14.97597 -2.11724 5.26309
H 16.95697 -3.01424 8.99009
H 17.09197 -1.15524 8.91509
H 18.25897 -2.29024 8.21109
