158

Mg 0. 0. 0.
C -0.217 -2.218  2.801
C -1.255  2.442  2.026
C -0.245  1.85  -2.564
C  0.146 -2.824 -2.037
N -0.617 -0.009  2.126
C -0.594 -0.908  3.105
C -0.936 -0.309  4.502
C -1.773  0.964  4.032
C -1.155  1.168  2.66 
C -3.263  0.685  3.863
C 0.345 0.11  5.299
C 0.124 0.397 6.787
H 1.168 0.033 7.733
N -0.185  1.961 -0.152
C -0.703  2.8    0.777
C -0.62   4.156  0.193
C -0.187  4.015 -1.225
C -0.214  2.583 -1.38 
C -0.887  5.406  0.974
C  0.181  5.013 -2.277
O  0.303  4.69  -3.508
C  0.31   6.414 -1.837
N -0.265 -0.413 -2.029
C -0.279  0.569 -2.937
C -0.196  0.024 -4.332
C  0.124 -1.533 -4.18 
C  0.086 -1.632 -2.635
C -1.451  0.205 -5.197
C  1.373 -2.07  -4.923
C  2.626 -1.49  -4.306
N  0.15  -2.144  0.303
C  0.173 -3.136 -0.688
C  1.730e-01 -4.438e+00  4.000e-03
C  0.133 -4.111  1.358
C  0.083 -2.695  1.502
C  0.149 -5.715 -0.623
C  0.096 -4.629  2.716
O  0.208 -5.747  3.221
C -0.255 -3.428  3.701
C  0.717 -3.482  4.848
O  1.931 -3.255  4.669
O  0.038 -3.556  6.003
C  0.943 -3.583  7.183
H -1.859  3.22   2.497
H -0.218  2.453 -3.474
H  0.276 -3.747 -2.605
H -1.554 -0.949  5.132
H -1.585  1.831  4.665
H -3.484 -0.377  3.969
H -3.511  1.027  2.858
H -3.852  1.301  4.543
H 0.669 1.096 4.966
H  1.13  -0.639  5.189
H -0.844  0.026  7.125
H 0.062 1.477 6.921
H -1.344  5.186  1.938
H -1.651  5.963  0.432
H 0.007 6.02  1.084
H -0.635  6.744 -1.405
H  0.665  6.97  -2.704
H  1.048  6.466 -1.036
H  0.608  0.501 -4.891
H -0.692 -2.156 -4.547
H -1.267  0.74  -6.129
H -2.204  0.714 -4.596
H -1.967 -0.72  -5.453
H  1.356 -1.759 -5.967
H  1.452 -3.157 -4.902
H  2.714 -0.522 -4.798
H  3.487 -2.121 -4.529
H  2.495 -1.303 -3.24 
H  0.867 -6.333 -0.084
H  0.404 -5.642 -1.68 
H -0.891 -5.999 -0.463
H -1.283 -3.581  4.028
H  0.698 -4.478  7.755
H  0.833 -2.619  7.68 
H  2.    -3.754  6.976
Mg 16.25897472  1.46375706  1.23509055
C 16.04197472 -0.75424294  4.03609055
C 15.00397472  3.90575706  3.26109055
C 16.01397472  3.31375706 -1.32890945
C 16.40497472 -1.36024294 -0.80190945
N 15.64197472  1.45475706  3.36109055
C 15.66497472  0.55575706  4.34009055
C 15.32297472  1.15475706  5.73709055
C 14.48597472  2.42775706  5.26709055
C 15.10397472  2.63175706  3.89509055
C 12.99597472  2.14875706  5.09809055
C 16.60397472  1.57375706  6.53409055
C 16.38297472  1.86075706  8.02209055
H 17.42697472  1.49675706  8.96809055
N 16.07397472  3.42475706  1.08309055
C 15.55597472  4.26375706  2.01209055
C 15.63897472  5.61975706  1.42809055
C 1.60719747e+01 5.47875706e+00 1.00905532e-02
C 16.04497472  4.04675706 -0.14490945
C 15.37197472  6.86975706  2.20909055
C 16.43997472  6.47675706 -1.04190945
O 16.56197472  6.15375706 -2.27290945
C 16.56897472  7.87775706 -0.60190945
N 15.99397472  1.05075706 -0.79390945
C 15.97997472  2.03275706 -1.70190945
C 16.06297472  1.48775706 -3.09690945
C 16.38297472 -0.06924294 -2.94490945
C 16.34497472 -0.16824294 -1.39990945
C 14.80797472  1.66875706 -3.96190945
C 17.63197472 -0.60624294 -3.68790945
C 18.88497472 -0.02624294 -3.07090945
N 16.40897472 -0.68024294  1.53809055
C 16.43197472 -1.67224294  0.54709055
C 16.43197472 -2.97424294  1.23909055
C 16.39197472 -2.64724294  2.59309055
C 16.34197472 -1.23124294  2.73709055
C 16.40797472 -4.25124294  0.61209055
C 16.35497472 -3.16524294  3.95109055
O 16.46697472 -4.28324294  4.45609055
C 16.00397472 -1.96424294  4.93609055
C 16.97597472 -2.01824294  6.08309055
O 18.18997472 -1.79124294  5.90409055
O 16.29697472 -2.09224294  7.23809055
C 17.20197472 -2.11924294  8.41809055
H 14.39997472  4.68375706  3.73209055
H 16.04097472  3.91675706 -2.23890945
H 16.53497472 -2.28324294 -1.36990945
H 14.70497472  0.51475706  6.36709055
H 14.67397472  3.29475706  5.90009055
H 12.77497472  1.08675706  5.20409055
H 12.74797472  2.49075706  4.09309055
H 12.40697472  2.76475706  5.77809055
H 16.92797472  2.55975706  6.20109055
H 17.38897472  0.82475706  6.42409055
H 15.41497472  1.48975706  8.36009055
H 16.32097472  2.94075706  8.15609055
H 14.91497472  6.64975706  3.17309055
H 14.60797472  7.42675706  1.66709055
H 16.26597472  7.48375706  2.31909055
H 15.62397472  8.20775706 -0.16990945
H 16.92397472  8.43375706 -1.46890945
H 17.30697472  7.92975706  0.19909055
H 16.86697472  1.96475706 -3.65590945
H 15.56697472 -0.69224294 -3.31190945
H 14.99197472  2.20375706 -4.89390945
H 14.05497472  2.17775706 -3.36090945
H 14.29197472  0.74375706 -4.21790945
H 17.61497472 -0.29524294 -4.73190945
H 17.71097472 -1.69324294 -3.66690945
H 18.97297472  0.94175706 -3.56290945
H 19.74597472 -0.65724294 -3.29390945
H 18.75397472  0.16075706 -2.00490945
H 17.12597472 -4.86924294  1.15109055
H 16.66297472 -4.17824294 -0.44490945
H 15.36797472 -4.53524294  0.77209055
H 14.97597472 -2.11724294  5.26309055
H 16.95697472 -3.01424294  8.99009055
H 17.09197472 -1.15524294  8.91509055
H 18.25897472 -2.29024294  8.21109055
