158

Mg 0. 0. 0.
C -0.217 -2.218  2.801
C -1.255  2.442  2.026
C -0.245  1.85  -2.564
C  0.146 -2.824 -2.037
N -0.617 -0.009  2.126
C -0.594 -0.908  3.105
C -0.936 -0.309  4.502
C -1.773  0.964  4.032
C -1.155  1.168  2.66 
C -3.263  0.685  3.863
C 0.345 0.11  5.299
C 0.124 0.397 6.787
H 1.168 0.033 7.733
N -0.185  1.961 -0.152
C -0.703  2.8    0.777
C -0.62   4.156  0.193
C -0.187  4.015 -1.225
C -0.214  2.583 -1.38 
C -0.887  5.406  0.974
C  0.181  5.013 -2.277
O  0.303  4.69  -3.508
C  0.31   6.414 -1.837
N -0.265 -0.413 -2.029
C -0.279  0.569 -2.937
C -0.196  0.024 -4.332
C  0.124 -1.533 -4.18 
C  0.086 -1.632 -2.635
C -1.451  0.205 -5.197
C  1.373 -2.07  -4.923
C  2.626 -1.49  -4.306
N  0.15  -2.144  0.303
C  0.173 -3.136 -0.688
C  1.730e-01 -4.438e+00  4.000e-03
C  0.133 -4.111  1.358
C  0.083 -2.695  1.502
C  0.149 -5.715 -0.623
C  0.096 -4.629  2.716
O  0.208 -5.747  3.221
C -0.255 -3.428  3.701
C  0.717 -3.482  4.848
O  1.931 -3.255  4.669
O  0.038 -3.556  6.003
C  0.943 -3.583  7.183
H -1.859  3.22   2.497
H -0.218  2.453 -3.474
H  0.276 -3.747 -2.605
H -1.554 -0.949  5.132
H -1.585  1.831  4.665
H -3.484 -0.377  3.969
H -3.511  1.027  2.858
H -3.852  1.301  4.543
H 0.669 1.096 4.966
H  1.13  -0.639  5.189
H -0.844  0.026  7.125
H 0.062 1.477 6.921
H -1.344  5.186  1.938
H -1.651  5.963  0.432
H 0.007 6.02  1.084
H -0.635  6.744 -1.405
H  0.665  6.97  -2.704
H  1.048  6.466 -1.036
H  0.608  0.501 -4.891
H -0.692 -2.156 -4.547
H -1.267  0.74  -6.129
H -2.204  0.714 -4.596
H -1.967 -0.72  -5.453
H  1.356 -1.759 -5.967
H  1.452 -3.157 -4.902
H  2.714 -0.522 -4.798
H  3.487 -2.121 -4.529
H  2.495 -1.303 -3.24 
H  0.867 -6.333 -0.084
H  0.404 -5.642 -1.68 
H -0.891 -5.999 -0.463
H -1.283 -3.581  4.028
H  0.698 -4.478  7.755
H  0.833 -2.619  7.68 
H  2.    -3.754  6.976
Mg 13.46702956  1.21240484  1.0230043 
C 13.25002956 -1.00559516  3.8240043 
C 12.21202956  3.65440484  3.0490043 
C 13.22202956  3.06240484 -1.5409957 
C 13.61302956 -1.61159516 -1.0139957 
N 12.85002956  1.20340484  3.1490043 
C 12.87302956  0.30440484  4.1280043 
C 12.53102956  0.90340484  5.5250043 
C 11.69402956  2.17640484  5.0550043 
C 12.31202956  2.38040484  3.6830043 
C 10.20402956  1.89740484  4.8860043 
C 13.81202956  1.32240484  6.3220043 
C 13.59102956  1.60940484  7.8100043 
H 14.63502956  1.24540484  8.7560043 
N 13.28202956  3.17340484  0.8710043 
C 12.76402956  4.01240484  1.8000043 
C 12.84702956  5.36840484  1.2160043 
C 13.28002956  5.22740484 -0.2019957 
C 13.25302956  3.79540484 -0.3569957 
C 12.58002956  6.61840484  1.9970043 
C 13.64802956  6.22540484 -1.2539957 
O 13.77002956  5.90240484 -2.4849957 
C 13.77702956  7.62640484 -0.8139957 
N 13.20202956  0.79940484 -1.0059957 
C 13.18802956  1.78140484 -1.9139957 
C 13.27102956  1.23640484 -3.3089957 
C 13.59102956 -0.32059516 -3.1569957 
C 13.55302956 -0.41959516 -1.6119957 
C 12.01602956  1.41740484 -4.1739957 
C 14.84002956 -0.85759516 -3.8999957 
C 16.09302956 -0.27759516 -3.2829957 
N 13.61702956 -0.93159516  1.3260043 
C 13.64002956 -1.92359516  0.3350043 
C 13.64002956 -3.22559516  1.0270043 
C 13.60002956 -2.89859516  2.3810043 
C 13.55002956 -1.48259516  2.5250043 
C 13.61602956 -4.50259516  0.4000043 
C 13.56302956 -3.41659516  3.7390043 
O 13.67502956 -4.53459516  4.2440043 
C 13.21202956 -2.21559516  4.7240043 
C 14.18402956 -2.26959516  5.8710043 
O 15.39802956 -2.04259516  5.6920043 
O 13.50502956 -2.34359516  7.0260043 
C 14.41002956 -2.37059516  8.2060043 
H 11.60802956  4.43240484  3.5200043 
H 13.24902956  3.66540484 -2.4509957 
H 13.74302956 -2.53459516 -1.5819957 
H 11.91302956  0.26340484  6.1550043 
H 11.88202956  3.04340484  5.6880043 
H 9.98302956 0.83540484 4.9920043 
H 9.95602956 2.23940484 3.8810043 
H 9.61502956 2.51340484 5.5660043 
H 14.13602956  2.30840484  5.9890043 
H 14.59702956  0.57340484  6.2120043 
H 12.62302956  1.23840484  8.1480043 
H 13.52902956  2.68940484  7.9440043 
H 12.12302956  6.39840484  2.9610043 
H 11.81602956  7.17540484  1.4550043 
H 13.47402956  7.23240484  2.1070043 
H 12.83202956  7.95640484 -0.3819957 
H 14.13202956  8.18240484 -1.6809957 
H  1.45150296e+01  7.67840484e+00 -1.29957034e-02
H 14.07502956  1.71340484 -3.8679957 
H 12.77502956 -0.94359516 -3.5239957 
H 12.20002956  1.95240484 -5.1059957 
H 11.26302956  1.92640484 -3.5729957 
H 11.50002956  0.49240484 -4.4299957 
H 14.82302956 -0.54659516 -4.9439957 
H 14.91902956 -1.94459516 -3.8789957 
H 16.18102956  0.69040484 -3.7749957 
H 16.95402956 -0.90859516 -3.5059957 
H 15.96202956 -0.09059516 -2.2169957 
H 14.33402956 -5.12059516  0.9390043 
H 13.87102956 -4.42959516 -0.6569957 
H 12.57602956 -4.78659516  0.5600043 
H 12.18402956 -2.36859516  5.0510043 
H 14.16502956 -3.26559516  8.7780043 
H 14.30002956 -1.40659516  8.7030043 
H 15.46702956 -2.54159516  7.9990043 
