158

Mg 0. 0. 0.
C -0.217 -2.218  2.801
C -1.255  2.442  2.026
C -0.245  1.85  -2.564
C  0.146 -2.824 -2.037
N -0.617 -0.009  2.126
C -0.594 -0.908  3.105
C -0.936 -0.309  4.502
C -1.773  0.964  4.032
C -1.155  1.168  2.66 
C -3.263  0.685  3.863
C 0.345 0.11  5.299
C 0.124 0.397 6.787
H 1.168 0.033 7.733
N -0.185  1.961 -0.152
C -0.703  2.8    0.777
C -0.62   4.156  0.193
C -0.187  4.015 -1.225
C -0.214  2.583 -1.38 
C -0.887  5.406  0.974
C  0.181  5.013 -2.277
O  0.303  4.69  -3.508
C  0.31   6.414 -1.837
N -0.265 -0.413 -2.029
C -0.279  0.569 -2.937
C -0.196  0.024 -4.332
C  0.124 -1.533 -4.18 
C  0.086 -1.632 -2.635
C -1.451  0.205 -5.197
C  1.373 -2.07  -4.923
C  2.626 -1.49  -4.306
N  0.15  -2.144  0.303
C  0.173 -3.136 -0.688
C  1.730e-01 -4.438e+00  4.000e-03
C  0.133 -4.111  1.358
C  0.083 -2.695  1.502
C  0.149 -5.715 -0.623
C  0.096 -4.629  2.716
O  0.208 -5.747  3.221
C -0.255 -3.428  3.701
C  0.717 -3.482  4.848
O  1.931 -3.255  4.669
O  0.038 -3.556  6.003
C  0.943 -3.583  7.183
H -1.859  3.22   2.497
H -0.218  2.453 -3.474
H  0.276 -3.747 -2.605
H -1.554 -0.949  5.132
H -1.585  1.831  4.665
H -3.484 -0.377  3.969
H -3.511  1.027  2.858
H -3.852  1.301  4.543
H 0.669 1.096 4.966
H  1.13  -0.639  5.189
H -0.844  0.026  7.125
H 0.062 1.477 6.921
H -1.344  5.186  1.938
H -1.651  5.963  0.432
H 0.007 6.02  1.084
H -0.635  6.744 -1.405
H  0.665  6.97  -2.704
H  1.048  6.466 -1.036
H  0.608  0.501 -4.891
H -0.692 -2.156 -4.547
H -1.267  0.74  -6.129
H -2.204  0.714 -4.596
H -1.967 -0.72  -5.453
H  1.356 -1.759 -5.967
H  1.452 -3.157 -4.902
H  2.714 -0.522 -4.798
H  3.487 -2.121 -4.529
H  2.495 -1.303 -3.24 
H  0.867 -6.333 -0.084
H  0.404 -5.642 -1.68 
H -0.891 -5.999 -0.463
H -1.283 -3.581  4.028
H  0.698 -4.478  7.755
H  0.833 -2.619  7.68 
H  2.    -3.754  6.976
Mg 7.88313926 0.70970039 0.59883178
C  7.58736349 -0.93899351  3.7621432 
C 6.63569535 3.50486474 2.10681222
C  7.7074953   2.04741969 -2.27105973
C  8.0159617  -2.44863052 -0.86846677
N 7.23305373 1.10852551 2.67704576
C 7.22653001 0.40947439 3.80773403
C 6.87238107 1.26480925 5.06087202
C 6.06312248 2.43720093 4.34491371
C 6.70556736 2.37167495 2.97054297
C 4.57169066 2.15030061 4.20412542
C 8.14731207 1.80995871 5.7882605 
C 7.90776139 2.37446803 7.19157753
H 8.93099582 2.18168065 8.20802837
N 7.73169607 2.60930314 0.07784774
C 7.21268767 3.6145475  0.82309942
C  7.32629439e+00  4.83535183e+00 -3.58751904e-03
C  7.77902176  4.4247037  -1.36171124
C  7.73169807  2.98956568 -1.24544716
C 7.06705538 6.21321247 0.52371239
C  8.17915749  5.2022956  -2.57553752
O  8.31516021  4.65202119 -3.72151978
C  8.32352705  6.65929772 -2.40423585
N  7.64323067 -0.074139   -1.32097932
C  7.65896513  0.71966336 -2.39736876
C  7.75500463 -0.07898113 -3.66341868
C  8.04783081 -1.58353715 -3.21585081
C  7.98421705 -1.389707   -1.68071135
C  6.51665503 -0.04800519 -4.56980809
C  9.29955939 -2.26647756 -3.82181034
C 10.55185639 -1.59671275 -3.30193984
N  7.99433407 -1.34077907  1.30183584
C  8.01700007 -2.50166813  0.51539014
C  7.98554923 -3.6501804   1.43951048
C  7.92967503 -3.07388381  2.70702983
C  7.89993489 -1.65555196  2.58156152
C  7.95103409 -5.02190587  1.06319686
C  7.8633174  -3.32672476  4.13724839
O  7.94967219 -4.33112471  4.84521491
C  7.51614529 -1.95755416  4.87255131
C  8.46919206 -1.80718361  6.02684745
O  9.68928353 -1.63330302  5.83061206
O  7.77120496 -1.65402707  7.16258469
C  8.6571834  -1.47008503  8.34299205
H 6.03686904 4.36515475 2.41217943
H  7.75823142  2.46812059 -3.27747644
H  8.14011231 -3.46355737 -1.25051798
H 6.2345622  0.76260066 5.78846917
H 6.25499197 3.4053265  4.80712684
H 4.33222839 1.13007542 4.50365737
H 4.34482841 2.30029845 3.14841374
H 3.98203426 2.89061208 4.7454398 
H 8.49207551 2.71154831 5.28196477
H 8.92193456 1.04374962 5.83526735
H 6.92884691 2.08595511 7.57549904
H 7.86084348 3.46109463 7.11918044
H 6.59166786 6.18425089 1.50336178
H  6.32052794  6.66797334 -0.12713193
H 7.96887356 6.82556397 0.53274601
H  7.37727698  7.07660553 -2.0592518 
H  8.70076621  7.03777166 -3.35360306
H  9.04970133  6.85165998 -1.61390891
H  8.57508345  0.27414562 -4.2872762 
H  7.22785109 -2.25405073 -3.47415063
H  6.7236148   0.29978748 -5.58218791
H  5.76256957  0.57444497 -4.08897348
H  5.99007678 -0.99803054 -4.65689533
H  9.30375477 -2.15718629 -4.90577704
H  9.36094906 -3.3310427  -3.59557288
H 10.66286745 -0.73971339 -3.96531051
H 11.40609323 -2.26925266 -3.38667759
H 10.40726446 -1.21091839 -2.2926124 
H  8.6506508  -5.53655448  1.72171206
H  8.22358462 -5.15223998  0.01613802
H  6.90429007 -5.2575431   1.25465978
H  6.4808792  -2.03328357  5.20362708
H  8.38912522 -2.23835752  9.0683445 
H  8.55478426 -0.42849988  8.64798349
H  9.71442849 -1.69034599  8.19114692
