158

Mg 0. 0. 0.
C -0.217 -2.218  2.801
C -1.255  2.442  2.026
C -0.245  1.85  -2.564
C  0.146 -2.824 -2.037
N -0.617 -0.009  2.126
C -0.594 -0.908  3.105
C -0.936 -0.309  4.502
C -1.773  0.964  4.032
C -1.155  1.168  2.66 
C -3.263  0.685  3.863
C 0.345 0.11  5.299
C 0.124 0.397 6.787
H 1.168 0.033 7.733
N -0.185  1.961 -0.152
C -0.703  2.8    0.777
C -0.62   4.156  0.193
C -0.187  4.015 -1.225
C -0.214  2.583 -1.38 
C -0.887  5.406  0.974
C  0.181  5.013 -2.277
O  0.303  4.69  -3.508
C  0.31   6.414 -1.837
N -0.265 -0.413 -2.029
C -0.279  0.569 -2.937
C -0.196  0.024 -4.332
C  0.124 -1.533 -4.18 
C  0.086 -1.632 -2.635
C -1.451  0.205 -5.197
C  1.373 -2.07  -4.923
C  2.626 -1.49  -4.306
N  0.15  -2.144  0.303
C  0.173 -3.136 -0.688
C  1.730e-01 -4.438e+00  4.000e-03
C  0.133 -4.111  1.358
C  0.083 -2.695  1.502
C  0.149 -5.715 -0.623
C  0.096 -4.629  2.716
O  0.208 -5.747  3.221
C -0.255 -3.428  3.701
C  0.717 -3.482  4.848
O  1.931 -3.255  4.669
O  0.038 -3.556  6.003
C  0.943 -3.583  7.183
H -1.859  3.22   2.497
H -0.218  2.453 -3.474
H  0.276 -3.747 -2.605
H -1.554 -0.949  5.132
H -1.585  1.831  4.665
H -3.484 -0.377  3.969
H -3.511  1.027  2.858
H -3.852  1.301  4.543
H 0.669 1.096 4.966
H  1.13  -0.639  5.189
H -0.844  0.026  7.125
H 0.062 1.477 6.921
H -1.344  5.186  1.938
H -1.651  5.963  0.432
H 0.007 6.02  1.084
H -0.635  6.744 -1.405
H  0.665  6.97  -2.704
H  1.048  6.466 -1.036
H  0.608  0.501 -4.891
H -0.692 -2.156 -4.547
H -1.267  0.74  -6.129
H -2.204  0.714 -4.596
H -1.967 -0.72  -5.453
H  1.356 -1.759 -5.967
H  1.452 -3.157 -4.902
H  2.714 -0.522 -4.798
H  3.487 -2.121 -4.529
H  2.495 -1.303 -3.24 
H  0.867 -6.333 -0.084
H  0.404 -5.642 -1.68 
H -0.891 -5.999 -0.463
H -1.283 -3.581  4.028
H  0.698 -4.478  7.755
H  0.833 -2.619  7.68 
H  2.    -3.754  6.976
Mg 7.88313926 0.70970039 0.59883178
C 7.28609853 2.52035738 3.62823398
C  6.87914172  3.49892548 -1.09092481
C  7.96692203 -1.00710549 -2.06615959
C  7.73955079 -2.21324641  2.4912972 
N 7.19529501 2.6962747  1.2924014 
C 7.06880355 3.2830028  2.47853843
C 6.75686803 4.8065332  2.38406429
C 6.10625207 4.84050961 0.92888647
C 6.79332144 3.62729927 0.32723846
C 4.59974334 4.60190275 0.92933908
C 8.05188576 5.68395886 2.45323286
C 7.81686477 7.17773768 2.69560438
H 8.77180834 7.91374293 3.51029883
N  7.95532244  1.2804342  -1.29111597
C  7.5160928   2.45699447 -1.79912116
C  7.7919971   2.40246409 -3.25087329
C  8.25330525  1.02395218 -3.57490059
C  8.04932606  0.36141892 -2.3120387 
C  7.65922344  3.58651552 -4.15869672
C  8.78256537  0.39979652 -4.82727651
O  8.90578323 -0.86614941 -4.95678427
C  9.07362081  1.31538378 -5.94532334
N  7.63948    -1.3274476   0.21374318
C  7.78297244 -1.81807066 -1.02225153
C  7.84500614 -3.31672504 -1.01103161
C  7.95817695 -3.74300454  0.52364463
C  7.85328535 -2.33828659  1.16710031
C  6.65471028 -4.04066276 -1.65533041
C  9.15392916 -4.64663951  0.91612329
C 10.44809432 -3.87832603  0.768039  
N 7.74758116 0.21392629 2.70759375
C  7.67883868 -1.06919525  3.26932997
C  7.48827677 -0.89556124  4.72108938
C 7.44250107 0.48538141 4.90205069
C 7.5685054  1.13289881 3.63985573
C  7.32372509 -1.94195818  5.67104211
C 7.29175281 1.56409916 5.86511869
O 7.24228781 1.62855154 7.0943022 
C 7.0622583  2.9216768  5.06502981
C 7.97828253 3.95821943 5.65645858
O 9.21688357 3.85732962 5.54220142
O 7.25500352 5.01704926 6.05179247
C 8.10689597 6.09502067 6.62136326
H  6.36307099  4.22766295 -1.7190599 
H  8.1027716  -1.63734915 -2.94750846
H  7.77072201 -3.07855218  3.15592286
H 6.04039399 5.17030249 3.12078733
H 6.38084065 5.74187538 0.38128911
H 4.24145313 4.31918375 1.91909617
H 4.43307201 3.79229946 0.21852534
H 4.07048725 5.46659424 0.52812391
H 8.51059488 5.72620658 1.46537554
H 8.7383066  5.29977836 3.20858561
H 6.79810853 7.37140633 3.03255718
H 7.88846132 7.69445361 1.73848444
H  7.14411327  4.4114959  -3.66817263
H  6.99216221  3.29319534 -4.96906798
H  8.61980185  3.89937685 -4.56825611
H  8.1637738   1.85014083 -6.21875033
H  9.52706779  0.70381909 -6.72456943
H  9.7834546   2.07093272 -5.6073429 
H  8.72253872 -3.67581421 -1.54714497
H  7.08284543 -4.29970926  0.85912723
H  6.93828003 -4.71812868 -2.4611425 
H  5.95203821 -3.28614943 -2.00782525
H  6.03428688 -4.60725028 -0.96144974
H  9.21364789 -5.50690453  0.25029767
H  9.0928127  -5.02164579  1.93783072
H 10.67620271 -3.98763925 -0.29160678
H 11.22889373 -4.32612739  1.38369899
H 10.30443545 -2.81528731  0.96245305
H  7.93751483 -1.67290293  6.53060038
H  7.62314526 -2.90413883  5.25612168
H  6.25099197 -1.88173938  5.85399935
H 6.01223122 3.18481672 5.18881395
H 7.72965575 6.30742645 7.62176698
H 8.10328842 6.90872511 5.8959137 
H 9.14009156 5.82604482 6.8438444 
