158

Mg 0. 0. 0.
C -0.217 -2.218  2.801
C -1.255  2.442  2.026
C -0.245  1.85  -2.564
C  0.146 -2.824 -2.037
N -0.617 -0.009  2.126
C -0.594 -0.908  3.105
C -0.936 -0.309  4.502
C -1.773  0.964  4.032
C -1.155  1.168  2.66 
C -3.263  0.685  3.863
C 0.345 0.11  5.299
C 0.124 0.397 6.787
H 1.168 0.033 7.733
N -0.185  1.961 -0.152
C -0.703  2.8    0.777
C -0.62   4.156  0.193
C -0.187  4.015 -1.225
C -0.214  2.583 -1.38 
C -0.887  5.406  0.974
C  0.181  5.013 -2.277
O  0.303  4.69  -3.508
C  0.31   6.414 -1.837
N -0.265 -0.413 -2.029
C -0.279  0.569 -2.937
C -0.196  0.024 -4.332
C  0.124 -1.533 -4.18 
C  0.086 -1.632 -2.635
C -1.451  0.205 -5.197
C  1.373 -2.07  -4.923
C  2.626 -1.49  -4.306
N  0.15  -2.144  0.303
C  0.173 -3.136 -0.688
C  1.730e-01 -4.438e+00  4.000e-03
C  0.133 -4.111  1.358
C  0.083 -2.695  1.502
C  0.149 -5.715 -0.623
C  0.096 -4.629  2.716
O  0.208 -5.747  3.221
C -0.255 -3.428  3.701
C  0.717 -3.482  4.848
O  1.931 -3.255  4.669
O  0.038 -3.556  6.003
C  0.943 -3.583  7.183
H -1.859  3.22   2.497
H -0.218  2.453 -3.474
H  0.276 -3.747 -2.605
H -1.554 -0.949  5.132
H -1.585  1.831  4.665
H -3.484 -0.377  3.969
H -3.511  1.027  2.858
H -3.852  1.301  4.543
H 0.669 1.096 4.966
H  1.13  -0.639  5.189
H -0.844  0.026  7.125
H 0.062 1.477 6.921
H -1.344  5.186  1.938
H -1.651  5.963  0.432
H 0.007 6.02  1.084
H -0.635  6.744 -1.405
H  0.665  6.97  -2.704
H  1.048  6.466 -1.036
H  0.608  0.501 -4.891
H -0.692 -2.156 -4.547
H -1.267  0.74  -6.129
H -2.204  0.714 -4.596
H -1.967 -0.72  -5.453
H  1.356 -1.759 -5.967
H  1.452 -3.157 -4.902
H  2.714 -0.522 -4.798
H  3.487 -2.121 -4.529
H  2.495 -1.303 -3.24 
H  0.867 -6.333 -0.084
H  0.404 -5.642 -1.68 
H -0.891 -5.999 -0.463
H -1.283 -3.581  4.028
H  0.698 -4.478  7.755
H  0.833 -2.619  7.68 
H  2.    -3.754  6.976
Mg 7.88313926 0.70970039 0.59883178
C 7.26506988 3.2286595  3.06562105
C  6.97425374  3.00457697 -1.75712527
C  7.98291338 -1.61915618 -1.55130616
C  7.63796289 -1.64556463  3.1558371 
N 7.22498183 2.81732898 0.7581319 
C 7.08754617 3.68354557 1.75710701
C 6.81084452 5.14007321 1.27821512
C  6.19043594  4.82017481 -0.15522697
C  6.8628295   3.48428077 -0.41828214
C  4.67937896  4.6135239  -0.13277262
C 8.12302897 5.98601706 1.15870797
C 7.91580475 7.49659072 1.01525298
H 8.87003175 8.39719907 1.64430262
N  8.0056291   0.78931944 -1.37132228
C  7.60242038  1.80872469 -2.16726303
C  7.90612813  1.38907076 -3.55230209
C  8.34368976 -0.03392891 -3.51100127
C  8.10003645 -0.3568521  -2.12834742
C  7.81742201  2.31098421 -4.72956876
C  8.88423007 -0.95940391 -4.5547657 
O  8.98240205 -2.21941322 -4.36160043
C  9.2175322  -0.35672303 -5.85811808
N  7.60291347 -1.35488654  0.72763123
C  7.7604369  -2.14077395 -0.34314015
C  7.78955802 -3.58997637  0.04273979
C  7.86261345 -3.62140833  1.63755261
C  7.77547745 -2.09903253  1.90782885
C  6.59692792 -4.43257393 -0.43020185
C  9.03027752 -4.41758681  2.27243799
C 10.34358858 -3.73150712  1.96977195
N 7.69454789 0.75830283 2.76057092
C  7.58660751 -0.34268326  3.62245983
C 7.37080021 0.19091509 4.97994574
C 7.35151072 1.57386273 4.80986118
C 7.51688275 1.88366947 3.42965689
C  7.16446647 -0.58241619  6.15630416
C 7.20502423 2.86112979 5.46966585
O 7.132336   3.23118237 6.64238514
C 7.02126091 3.9795043  4.35105221
C 7.94761257 5.11598509 4.68808787
O 9.18576287 4.96983712 4.63340162
O 7.23979816 6.25148596 4.78897664
C 8.10338736 7.42365428 5.09293248
H  6.48688722  3.56164602 -2.55967679
H  8.12264259 -2.45156819 -2.24412936
H  7.63693458 -2.31794287  4.01569723
H 6.08783847 5.68772778 1.88299667
H  6.49552895  5.55175835 -0.90317468
H 4.29523639 4.59264551 0.88699185
H  4.50939133  3.65489826 -0.62331731
H  4.17724516  5.35908482 -0.74984438
H 8.60226769 5.77292738 0.20320599
H 8.78562868 5.79156553 2.00279104
H 6.89495892 7.78462156 1.26788119
H  8.01782445  7.7567897  -0.03835438
H  7.31067992  3.2404824  -4.47307207
H  7.16051188  1.83542973 -5.45759762
H  8.79261044  2.49618943 -5.18016675
H  8.32522151  0.10742269 -6.27871217
H  9.67307907 -1.15067473 -6.44885301
H  9.93674268  0.44774741 -5.70155309
H  8.66963101 -4.0856127  -0.36498827
H  6.96880591 -4.06256899  2.07932103
H  6.88176861 -5.29422825 -1.03445561
H  5.91807606 -3.77873333 -0.97695924
H  5.95051414 -4.79793708  0.36734188
H  9.08457439 -5.41767769  1.84370022
H  8.94052639 -4.52462695  3.35351992
H 10.59046434 -4.10554718  0.97680751
H 11.10194031 -4.02394915  2.6968148 
H 10.21926095 -2.65142128  1.88950236
H  7.76661331 -0.11721838  6.93667535
H  7.45110704 -1.62240583  6.00183176
H  6.0898473  -0.46116647  6.29175948
H 5.97494674 4.2820857  4.37921517
H 7.7108799  7.88512107 5.99914453
H 8.13206243 8.03044399 4.1877314 
H 9.12580638 7.20213507 5.40103569
