158

Mg 0. 0. 0.
C -0.217 -2.218  2.801
C -1.255  2.442  2.026
C -0.245  1.85  -2.564
C  0.146 -2.824 -2.037
N -0.617 -0.009  2.126
C -0.594 -0.908  3.105
C -0.936 -0.309  4.502
C -1.773  0.964  4.032
C -1.155  1.168  2.66 
C -3.263  0.685  3.863
C 0.345 0.11  5.299
C 0.124 0.397 6.787
H 1.168 0.033 7.733
N -0.185  1.961 -0.152
C -0.703  2.8    0.777
C -0.62   4.156  0.193
C -0.187  4.015 -1.225
C -0.214  2.583 -1.38 
C -0.887  5.406  0.974
C  0.181  5.013 -2.277
O  0.303  4.69  -3.508
C  0.31   6.414 -1.837
N -0.265 -0.413 -2.029
C -0.279  0.569 -2.937
C -0.196  0.024 -4.332
C  0.124 -1.533 -4.18 
C  0.086 -1.632 -2.635
C -1.451  0.205 -5.197
C  1.373 -2.07  -4.923
C  2.626 -1.49  -4.306
N  0.15  -2.144  0.303
C  0.173 -3.136 -0.688
C  1.730e-01 -4.438e+00  4.000e-03
C  0.133 -4.111  1.358
C  0.083 -2.695  1.502
C  0.149 -5.715 -0.623
C  0.096 -4.629  2.716
O  0.208 -5.747  3.221
C -0.255 -3.428  3.701
C  0.717 -3.482  4.848
O  1.931 -3.255  4.669
O  0.038 -3.556  6.003
C  0.943 -3.583  7.183
H -1.859  3.22   2.497
H -0.218  2.453 -3.474
H  0.276 -3.747 -2.605
H -1.554 -0.949  5.132
H -1.585  1.831  4.665
H -3.484 -0.377  3.969
H -3.511  1.027  2.858
H -3.852  1.301  4.543
H 0.669 1.096 4.966
H  1.13  -0.639  5.189
H -0.844  0.026  7.125
H 0.062 1.477 6.921
H -1.344  5.186  1.938
H -1.651  5.963  0.432
H 0.007 6.02  1.084
H -0.635  6.744 -1.405
H  0.665  6.97  -2.704
H  1.048  6.466 -1.036
H  0.608  0.501 -4.891
H -0.692 -2.156 -4.547
H -1.267  0.74  -6.129
H -2.204  0.714 -4.596
H -1.967 -0.72  -5.453
H  1.356 -1.759 -5.967
H  1.452 -3.157 -4.902
H  2.714 -0.522 -4.798
H  3.487 -2.121 -4.529
H  2.495 -1.303 -3.24 
H  0.867 -6.333 -0.084
H  0.404 -5.642 -1.68 
H -0.891 -5.999 -0.463
H -1.283 -3.581  4.028
H  0.698 -4.478  7.755
H  0.833 -2.619  7.68 
H  2.    -3.754  6.976
Mg 7.88313926 0.70970039 0.59883178
C 7.3822355  1.0303927  4.12848699
C 6.73685494 3.90927753 0.29584103
C  7.8858867   0.29744737 -2.54547432
C  7.89580934 -2.74421552  1.06355246
N 7.18061534 2.18114883 2.09614459
C 7.0945324  2.2006662  3.42256074
C 6.74242625 3.60494517 3.99823063
C 6.02536293 4.22912646 2.71830254
C 6.71290405 3.41736122 1.63467511
C 4.5265563  3.95147035 2.66364205
C 8.01799757 4.42155117 4.39547544
C 7.75880612 5.65854055 5.26036333
H 8.73219276 6.01565154 6.28131298
N  7.85526802  2.03391165 -0.86695733
C  7.36539771  3.29565052 -0.80926751
C  7.57588723  3.87641638 -2.15280247
C  8.05458955  2.78768259 -3.04923809
C  7.92436677  1.64235955 -2.18514598
C  7.3736154   5.32790143 -2.46268509
C  8.54076984  2.77910349 -4.46404801
O  8.68804111  1.69531709 -5.12608444
C  8.75854742  4.09496746 -5.09183535
N  7.67069894 -0.97715573 -0.61237444
C  7.76919395 -0.88787614 -1.94328086
C  7.86733332 -2.2444496  -2.57574914
C  8.06063737 -3.2790966  -1.37496101
C  7.95185242 -2.28818834 -0.18982951
C  6.66640703 -2.67293574 -3.43025874
C  9.29424858 -4.21390511 -1.44392061
C 10.56163722 -3.40334827 -1.28957795
N  7.85593537 -0.64262698  2.29633454
C  7.84350064 -2.04441448  2.25746046
C  7.71540521 -2.51404636  3.64925981
C  7.6450872  -1.34508752  4.4045317 
C  7.69782663 -0.21681902  3.53705216
C  7.61939518 -3.87129126  4.06531553
C  7.51287348 -0.78688389  5.74049024
O  7.51811468 -1.25453286  6.88012614
C 7.21480209 0.77153213 5.60513903
C 8.13196339 1.49379548 6.55406465
O 9.36609896 1.50215375 6.36911732
O 7.40250702 2.25248925 7.38642224
C 8.2536366  3.01887528 8.33530838
H 6.17541597 4.81436196 0.05594635
H  7.99628027  0.10909162 -3.61541515
H  7.97791165 -3.80817131  1.2931397 
H 6.05191343 3.59029397 4.84167677
H 6.25310411 5.28834327 2.60033768
H 4.22070494 3.25944711 3.44816724
H 4.34689412 3.51592989 1.68052506
H 3.95908355 4.88216481 2.68729569
H 8.42994565 4.89957187 3.50673701
H 8.74717215 3.7806169  4.89229903
H 6.75219208 5.6481397  5.67932513
H 7.77426597 6.53635068 4.61429029
H  6.86196835  5.84324    -1.65078087
H  6.67738815  5.38081951 -3.29945047
H  8.30675283  5.82461099 -2.72889208
H  7.82468346  4.65741632 -5.0819171 
H  9.19033802  3.89301242 -6.07143785
H  9.46489843  4.66285004 -4.4855956 
H  8.72774733 -2.30445607 -3.24096561
H  7.21505288 -3.96109843 -1.28257938
H  6.92890075 -2.93009625 -4.45674328
H  5.93059802 -1.86969138 -3.4042856 
H  6.09200638 -3.50615148 -3.02623842
H  9.34393769 -4.70511013 -2.41510268
H  9.28883322 -4.99074819 -0.67923996
H 10.74361803 -3.04116298 -2.30078356
H 11.38019541 -4.03836767 -0.949102  
H 10.40174856 -2.53143098 -0.65500577
H  8.26524723 -3.96928707  4.93780676
H  7.92235998 -4.55169235  3.26978445
H  6.555015   -3.93887531  4.28977758
H 6.165563   0.91347929 5.86218052
H 7.91756056 2.7689823  9.3417081 
H 8.19751    4.06325262 8.02784979
H 9.30203011 2.72338888 8.38913983
