158

Mg 0. 0. 0.
C -0.217 -2.218  2.801
C -1.255  2.442  2.026
C -0.245  1.85  -2.564
C  0.146 -2.824 -2.037
N -0.617 -0.009  2.126
C -0.594 -0.908  3.105
C -0.936 -0.309  4.502
C -1.773  0.964  4.032
C -1.155  1.168  2.66 
C -3.263  0.685  3.863
C 0.345 0.11  5.299
C 0.124 0.397 6.787
H 1.168 0.033 7.733
N -0.185  1.961 -0.152
C -0.703  2.8    0.777
C -0.62   4.156  0.193
C -0.187  4.015 -1.225
C -0.214  2.583 -1.38 
C -0.887  5.406  0.974
C  0.181  5.013 -2.277
O  0.303  4.69  -3.508
C  0.31   6.414 -1.837
N -0.265 -0.413 -2.029
C -0.279  0.569 -2.937
C -0.196  0.024 -4.332
C  0.124 -1.533 -4.18 
C  0.086 -1.632 -2.635
C -1.451  0.205 -5.197
C  1.373 -2.07  -4.923
C  2.626 -1.49  -4.306
N  0.15  -2.144  0.303
C  0.173 -3.136 -0.688
C  1.730e-01 -4.438e+00  4.000e-03
C  0.133 -4.111  1.358
C  0.083 -2.695  1.502
C  0.149 -5.715 -0.623
C  0.096 -4.629  2.716
O  0.208 -5.747  3.221
C -0.255 -3.428  3.701
C  0.717 -3.482  4.848
O  1.931 -3.255  4.669
O  0.038 -3.556  6.003
C  0.943 -3.583  7.183
H -1.859  3.22   2.497
H -0.218  2.453 -3.474
H  0.276 -3.747 -2.605
H -1.554 -0.949  5.132
H -1.585  1.831  4.665
H -3.484 -0.377  3.969
H -3.511  1.027  2.858
H -3.852  1.301  4.543
H 0.669 1.096 4.966
H  1.13  -0.639  5.189
H -0.844  0.026  7.125
H 0.062 1.477 6.921
H -1.344  5.186  1.938
H -1.651  5.963  0.432
H 0.007 6.02  1.084
H -0.635  6.744 -1.405
H  0.665  6.97  -2.704
H  1.048  6.466 -1.036
H  0.608  0.501 -4.891
H -0.692 -2.156 -4.547
H -1.267  0.74  -6.129
H -2.204  0.714 -4.596
H -1.967 -0.72  -5.453
H  1.356 -1.759 -5.967
H  1.452 -3.157 -4.902
H  2.714 -0.522 -4.798
H  3.487 -2.121 -4.529
H  2.495 -1.303 -3.24 
H  0.867 -6.333 -0.084
H  0.404 -5.642 -1.68 
H -0.891 -5.999 -0.463
H -1.283 -3.581  4.028
H  0.698 -4.478  7.755
H  0.833 -2.619  7.68 
H  2.    -3.754  6.976
Mg 7.88313926 0.70970039 0.59883178
C 7.36435792 1.25443477 4.09830951
C 6.75444042 3.88907807 0.08828154
C  7.90119647  0.10016048 -2.51320228
C  7.87609994 -2.70809729  1.28020575
N 7.17967343 2.27577959 1.99639315
C 7.08636813 2.37922136 3.31842376
C 6.73806434 3.81858585 3.80245718
C 6.03118399 4.3641853  2.48160919
C 6.72065835 3.48260378 1.45527438
C 4.5313422  4.09054359 2.43581811
C 8.01546109 4.65271277 4.15490691
C 7.75764266 5.94291513 4.9386553 
H 8.72713954 6.35915128 5.94073876
N  7.86993258  1.93904762 -0.94757728
C  7.38602011  3.20415745 -0.97231256
C  7.60680264  3.69814846 -2.34850621
C  8.08503591  2.55290694 -3.17179766
C  7.94436214  1.46491073 -2.23806689
C  7.41345148  5.12814301 -2.75035308
C  8.57896977  2.45296974 -4.58040473
O  8.72451184  1.32895995 -5.17200722
C  8.80673807  3.72565066 -5.28853386
N  7.66901759 -1.04911661 -0.50495699
C  7.77529944 -1.04431878 -1.83824809
C  7.87019375 -2.43848166 -2.38344892
C  8.05172872 -3.39630053 -1.11878254
C  7.94132349e+00 -2.33220461e+00  9.40885008e-04
C  6.67189048 -2.91441631 -3.21625531
C  9.28104657 -4.33926869 -1.12155315
C 10.55157162 -3.52644449 -1.01118599
N  7.83985373 -0.53285469  2.37794062
C  7.82067601 -1.93423436  2.42734931
C  7.68257052 -2.31465211  3.84519176
C  7.6138877  -1.10012042  4.52492733
C  7.67701432 -0.0290012   3.58843886
C  7.57752974 -3.64253171  4.34532795
C  7.47707403 -0.45825459  5.82228899
O  7.47370324 -0.85319435  6.98912412
C 7.18749334 1.08989445 5.58733248
C 8.10297646 1.866275   6.49421335
O 9.3381404  1.85728002 6.31629448
O 7.37271155 2.67925361 7.27287948
C 8.222384   3.49997037 8.17655792
H  6.19883358  4.779827   -0.2113989 
H  8.016558   -0.15573598 -3.5684969 
H  7.95165163 -3.75584182  1.5768138 
H 6.04284213 3.86028326 4.64111766
H 6.26482757 5.41280559 2.29850227
H 4.21773387 3.45073791 3.26057232
H 4.35494978 3.59476219 1.48105137
H 3.96837411 5.02348328 2.39751049
H 8.43467623 5.07188899 3.24024251
H 8.73869185 4.04100085 4.69534359
H 6.74869212 5.963567   5.35157335
H 7.78102541 6.77819696 4.23868565
H  6.89989487  5.6959606  -1.97550612
H  6.7221249   5.13144435 -3.59282899
H  8.35049809  5.60279087 -3.04187506
H  7.87563686  4.29190248 -5.31949213
H  9.24292161  3.4603932  -6.25094354
H  9.512542    4.32733988 -4.71515798
H  8.7339581  -2.54424138 -3.03854588
H  7.20227241 -4.06722521 -0.9885595 
H  6.93876657 -3.23694286 -4.22296221
H  5.93994537 -2.10775067 -3.24520191
H  6.09113977 -3.71786811 -2.76391605
H  9.33365695 -4.89090795 -2.05956822
H  9.26755449 -5.06635889 -0.30951324
H 10.74092686 -3.22952876 -2.04211647
H 11.36507589 -4.14251526 -0.62663611
H 10.39251247 -2.61555284 -0.4337238 
H  8.21806156 -3.68833793  5.22600371
H  7.88150016 -4.37308941  3.5960013 
H  6.51160443 -3.69093662  4.56740042
H 6.13756889 1.25258509 5.82881212
H 7.87952168 3.31552967 9.19472346
H 8.17313995 4.52314986 7.80361858
H 9.26898481 3.20363665 8.25499309
