158

Mg 0. 0. 0.
C -0.217 -2.218  2.801
C -1.255  2.442  2.026
C -0.245  1.85  -2.564
C  0.146 -2.824 -2.037
N -0.617 -0.009  2.126
C -0.594 -0.908  3.105
C -0.936 -0.309  4.502
C -1.773  0.964  4.032
C -1.155  1.168  2.66 
C -3.263  0.685  3.863
C 0.345 0.11  5.299
C 0.124 0.397 6.787
H 1.168 0.033 7.733
N -0.185  1.961 -0.152
C -0.703  2.8    0.777
C -0.62   4.156  0.193
C -0.187  4.015 -1.225
C -0.214  2.583 -1.38 
C -0.887  5.406  0.974
C  0.181  5.013 -2.277
O  0.303  4.69  -3.508
C  0.31   6.414 -1.837
N -0.265 -0.413 -2.029
C -0.279  0.569 -2.937
C -0.196  0.024 -4.332
C  0.124 -1.533 -4.18 
C  0.086 -1.632 -2.635
C -1.451  0.205 -5.197
C  1.373 -2.07  -4.923
C  2.626 -1.49  -4.306
N  0.15  -2.144  0.303
C  0.173 -3.136 -0.688
C  1.730e-01 -4.438e+00  4.000e-03
C  0.133 -4.111  1.358
C  0.083 -2.695  1.502
C  0.149 -5.715 -0.623
C  0.096 -4.629  2.716
O  0.208 -5.747  3.221
C -0.255 -3.428  3.701
C  0.717 -3.482  4.848
O  1.931 -3.255  4.669
O  0.038 -3.556  6.003
C  0.943 -3.583  7.183
H -1.859  3.22   2.497
H -0.218  2.453 -3.474
H  0.276 -3.747 -2.605
H -1.554 -0.949  5.132
H -1.585  1.831  4.665
H -3.484 -0.377  3.969
H -3.511  1.027  2.858
H -3.852  1.301  4.543
H 0.669 1.096 4.966
H  1.13  -0.639  5.189
H -0.844  0.026  7.125
H 0.062 1.477 6.921
H -1.344  5.186  1.938
H -1.651  5.963  0.432
H 0.007 6.02  1.084
H -0.635  6.744 -1.405
H  0.665  6.97  -2.704
H  1.048  6.466 -1.036
H  0.608  0.501 -4.891
H -0.692 -2.156 -4.547
H -1.267  0.74  -6.129
H -2.204  0.714 -4.596
H -1.967 -0.72  -5.453
H  1.356 -1.759 -5.967
H  1.452 -3.157 -4.902
H  2.714 -0.522 -4.798
H  3.487 -2.121 -4.529
H  2.495 -1.303 -3.24 
H  0.867 -6.333 -0.084
H  0.404 -5.642 -1.68 
H -0.891 -5.999 -0.463
H -1.283 -3.581  4.028
H  0.698 -4.478  7.755
H  0.833 -2.619  7.68 
H  2.    -3.754  6.976
Mg 7.88313926 0.70970039 0.59883178
C 7.46502632 0.12966408 4.10610329
C 6.67830977 3.85807312 1.12722564
C  7.81436702  1.09419898 -2.54823864
C  7.96296692 -2.74993367  0.18625369
N 7.19444939 1.7459125  2.429847  
C 7.14105993 1.43238068 3.72059034
C 6.78080688 2.64087584 4.63553907
C 6.02219365 3.54855164 3.56660099
C 6.6955684  3.04762811 2.30107104
C 4.52715636 3.26068174 3.47442494
C 8.05254451 3.36032017 5.19840162
C 7.79504788 4.33679438 6.3497259 
H 8.78763483 4.449336   7.40776821
N  7.79752471  2.35648623 -0.48910964
C  7.28898786  3.55305548 -0.10845454
C  7.45663861  4.45476182 -1.2684114 
C  7.93037858  3.63447515 -2.41766951
C  7.84013213  2.3073917  -1.86442173
C  7.22338243  5.93291368 -1.20201382
C  8.38131663  3.98934521 -3.79928238
O  8.5295176   3.10821171 -4.71372989
C  8.56220729  5.42456643 -4.08293816
N  7.66784611 -0.62631029 -0.99062074
C  7.73177885 -0.2060512  -2.25880011
C  7.83599659 -1.35973781 -3.21173498
C  8.07572211 -2.65652062 -2.31138005
C  7.98048829 -1.99483259 -0.91446578
C  6.62125612 -1.58782209 -4.12189659
C  9.32212957 -3.51753734 -2.63624565
C 10.57974783 -2.74359519 -2.30989025
N  7.9199151  -1.0232526   1.90518796
C  7.92908988 -2.37105344  1.51786028
C  7.84320738 -3.17539153  2.75063456
C  7.77287205 -2.23335157  3.77506545
C  7.78585955 -0.92362484  3.21583452
C  7.77943426 -4.59525921  2.81653417
C  7.66493578 -2.02870807  5.21044965
O  7.70603161 -2.76537949  6.19691777
C  7.33853858 -0.4926074   5.47443186
C  8.26725523 -0.00979988  6.5550295 
O 9.49611776 0.07127854 6.35331394
O 7.54659246 0.50144443 7.56488911
C 8.40859495 1.02554255 8.65778749
H 6.09658129 4.78192832 1.13218002
H  7.90115001  1.18087492 -3.63331651
H  8.06787079 -3.83548645  0.14127218
H 6.1117979  2.4014491  5.46229527
H 6.2298482  4.60845147 3.71225108
H 4.25208199 2.38848655 4.06732513
H 4.3301489  3.08007387 2.41751347
H 3.94553527 4.14352303 3.74104293
H 8.43452438 4.05359992 4.4490582 
H 8.80406825 2.63184336 5.50476678
H 6.79945674 4.20037861 6.77292563
H 7.78030818 5.34803752 5.94306872
H  6.72384332  6.21838415 -0.27707475
H  6.50580954  6.17750431 -1.98494011
H  8.14149602  6.50050703 -1.35445143
H  7.61994344  5.94630867 -3.91419909
H  8.97271077  5.48256675 -5.09039678
H  9.27417388  5.83870735 -3.36841743
H  8.68046446 -1.23330845 -3.88798615
H  7.24378578 -3.35828826 -2.37524025
H  6.86226055 -1.57527814 -5.18512964
H  5.87348236 -0.83262522 -3.88147388
H  6.07056562 -2.50774848 -3.92723688
H  9.35556571 -3.75001589 -3.70009797
H  9.34823183 -4.46036268 -2.08975681
H 10.73068227 -2.13695983 -3.20210341
H 11.41663448 -3.42543425 -2.15520598
H 10.42166366 -2.06102509 -1.47466965
H  8.44826786 -4.89349531  3.62380478
H  8.07344731 -5.04917218  1.87042511
H  6.72218845 -4.73982818  3.03831586
H  6.29386335 -0.44209629  5.77975839
H 8.10170538 0.52546861 9.5764707 
H 8.32803503 2.11211159 8.62197086
H 9.46262431 0.74888375 8.61511419
