158

Mg 0. 0. 0.
C -0.217 -2.218  2.801
C -1.255  2.442  2.026
C -0.245  1.85  -2.564
C  0.146 -2.824 -2.037
N -0.617 -0.009  2.126
C -0.594 -0.908  3.105
C -0.936 -0.309  4.502
C -1.773  0.964  4.032
C -1.155  1.168  2.66 
C -3.263  0.685  3.863
C 0.345 0.11  5.299
C 0.124 0.397 6.787
H 1.168 0.033 7.733
N -0.185  1.961 -0.152
C -0.703  2.8    0.777
C -0.62   4.156  0.193
C -0.187  4.015 -1.225
C -0.214  2.583 -1.38 
C -0.887  5.406  0.974
C  0.181  5.013 -2.277
O  0.303  4.69  -3.508
C  0.31   6.414 -1.837
N -0.265 -0.413 -2.029
C -0.279  0.569 -2.937
C -0.196  0.024 -4.332
C  0.124 -1.533 -4.18 
C  0.086 -1.632 -2.635
C -1.451  0.205 -5.197
C  1.373 -2.07  -4.923
C  2.626 -1.49  -4.306
N  0.15  -2.144  0.303
C  0.173 -3.136 -0.688
C  1.730e-01 -4.438e+00  4.000e-03
C  0.133 -4.111  1.358
C  0.083 -2.695  1.502
C  0.149 -5.715 -0.623
C  0.096 -4.629  2.716
O  0.208 -5.747  3.221
C -0.255 -3.428  3.701
C  0.717 -3.482  4.848
O  1.931 -3.255  4.669
O  0.038 -3.556  6.003
C  0.943 -3.583  7.183
H -1.859  3.22   2.497
H -0.218  2.453 -3.474
H  0.276 -3.747 -2.605
H -1.554 -0.949  5.132
H -1.585  1.831  4.665
H -3.484 -0.377  3.969
H -3.511  1.027  2.858
H -3.852  1.301  4.543
H 0.669 1.096 4.966
H  1.13  -0.639  5.189
H -0.844  0.026  7.125
H 0.062 1.477 6.921
H -1.344  5.186  1.938
H -1.651  5.963  0.432
H 0.007 6.02  1.084
H -0.635  6.744 -1.405
H  0.665  6.97  -2.704
H  1.048  6.466 -1.036
H  0.608  0.501 -4.891
H -0.692 -2.156 -4.547
H -1.267  0.74  -6.129
H -2.204  0.714 -4.596
H -1.967 -0.72  -5.453
H  1.356 -1.759 -5.967
H  1.452 -3.157 -4.902
H  2.714 -0.522 -4.798
H  3.487 -2.121 -4.529
H  2.495 -1.303 -3.24 
H  0.867 -6.333 -0.084
H  0.404 -5.642 -1.68 
H -0.891 -5.999 -0.463
H -1.283 -3.581  4.028
H  0.698 -4.478  7.755
H  0.833 -2.619  7.68 
H  2.    -3.754  6.976
Mg 7.88313926 0.70970039 0.59883178
C 7.2954108  2.32300147 3.73954013
C  6.85648506  3.59478348 -0.90627344
C  7.95931305 -0.83543334 -2.16944933
C  7.76403507 -2.32729905  2.30414981
N 7.19020134 2.64521543 1.41996794
C 7.06791601 3.15544705 2.64139375
C 6.74842164 4.68033578 2.64481604
C 6.08919572 4.80265454 1.19828319
C 6.77833176 3.63316628 0.51761238
C 4.58383017 4.55701801 1.19201788
C 8.03976489 5.55808109 2.76197742
C 7.79928092 7.03244663 3.0992721 
H 8.75555088 7.72041661 3.9534343 
N  7.9416892   1.39867178 -1.25177361
C  7.49409499  2.60269357 -1.6822117 
C  7.76179142  2.64106546 -3.1360161 
C  8.22755002  1.28800206 -3.54879011
C  8.03397992  0.54625103 -2.32907129
C  7.61828267  3.87926307 -3.96669167
C  8.75237969  0.74658821 -4.84090345
O  8.88067123 -0.508062   -5.05058922
C  9.0327011   1.73220035 -5.90063484
N  7.64662812 -1.30033748  0.08751462
C  7.78518104 -1.71143184 -1.17770809
C  7.85418123 -3.20749172 -1.26127128
C  7.97824658 -3.72900411  0.24285159
C  7.87063357 -2.36813387  0.9740982 
C  6.66350185 -3.89531711 -1.94331956
C  9.18041287 -4.64961536  0.57101337
C 10.47014139 -3.86708707  0.46448722
N 7.76214471 0.08144465 2.67288579
C  7.70258443 -1.23483067  3.1530377 
C  7.51967948 -1.15391365  4.61388205
C 7.46859782 0.21264771 4.88173594
C 7.58426825 0.93898384 3.66216709
C  7.36548229 -2.2588606   5.4969163 
C 7.31849162 1.2278137  5.9116695 
O 7.27588687 1.21448419 7.14272603
C 7.07809261 2.6319263  5.19997919
C 7.99276025 3.63370037 5.85047194
O 9.23112672 3.54635531 5.72325035
O 7.26692561 4.6619293  6.31571523
C 8.11714517 5.70610759 6.94735786
H  6.33341523  4.35906064 -1.48439053
H  8.092931   -1.40824114 -3.08949034
H  7.80306023 -3.23257659  2.91275692
H 6.03458066 4.99342722 3.4069373 
H 6.35643713 5.73806788 0.7070542 
H 4.23261397 4.21075545 2.16395945
H 4.41675448 3.79296778 0.43254046
H 4.04827016 5.44262196 0.8490046 
H 8.49251592 5.66473145 1.77622735
H 8.73233369 5.13050678 3.48782498
H 6.78162229 7.19945223 3.45337526
H 7.86292356 7.60876042 2.17622712
H  7.1022424   4.66914829 -3.42233079
H  6.94787325  3.63425069 -4.79023836
H  8.57500929  4.22205941 -4.36102254
H  8.11882427  2.27859227 -6.13480147
H  9.48441607  1.17318073 -6.71935375
H  9.7410028   2.46847935 -5.51964806
H  8.73022261 -3.52774633 -1.82377861
H  7.10745641 -4.31006873  0.54742078
H  6.94549316 -4.51927655 -2.79176549
H  5.95532175 -3.1236002  -2.24369425
H  6.04974474 -4.50754959 -1.28309945
H  9.24021625 -5.46593554 -0.14800743
H  9.1269733  -5.08851789  1.56738668
H 10.69257823 -3.9083187  -0.60118337
H 11.25656598 -4.34888959  1.04639245
H 10.32272186 -2.81912775  0.72627862
H  7.9830198  -2.04142666  6.36831684
H  7.66691059 -3.1915038   5.02055442
H  6.29356645 -2.2156084   5.68922251
H 6.02760304 2.88153347 5.34588987
H 7.74476088 5.8532164  7.96122321
H 8.10556651 6.56385404 6.27464548
H 9.15284639 5.4287866  7.14674452
