158

Mg 0. 0. 0.
C -0.217 -2.218  2.801
C -1.255  2.442  2.026
C -0.245  1.85  -2.564
C  0.146 -2.824 -2.037
N -0.617 -0.009  2.126
C -0.594 -0.908  3.105
C -0.936 -0.309  4.502
C -1.773  0.964  4.032
C -1.155  1.168  2.66 
C -3.263  0.685  3.863
C 0.345 0.11  5.299
C 0.124 0.397 6.787
H 1.168 0.033 7.733
N -0.185  1.961 -0.152
C -0.703  2.8    0.777
C -0.62   4.156  0.193
C -0.187  4.015 -1.225
C -0.214  2.583 -1.38 
C -0.887  5.406  0.974
C  0.181  5.013 -2.277
O  0.303  4.69  -3.508
C  0.31   6.414 -1.837
N -0.265 -0.413 -2.029
C -0.279  0.569 -2.937
C -0.196  0.024 -4.332
C  0.124 -1.533 -4.18 
C  0.086 -1.632 -2.635
C -1.451  0.205 -5.197
C  1.373 -2.07  -4.923
C  2.626 -1.49  -4.306
N  0.15  -2.144  0.303
C  0.173 -3.136 -0.688
C  1.730e-01 -4.438e+00  4.000e-03
C  0.133 -4.111  1.358
C  0.083 -2.695  1.502
C  0.149 -5.715 -0.623
C  0.096 -4.629  2.716
O  0.208 -5.747  3.221
C -0.255 -3.428  3.701
C  0.717 -3.482  4.848
O  1.931 -3.255  4.669
O  0.038 -3.556  6.003
C  0.943 -3.583  7.183
H -1.859  3.22   2.497
H -0.218  2.453 -3.474
H  0.276 -3.747 -2.605
H -1.554 -0.949  5.132
H -1.585  1.831  4.665
H -3.484 -0.377  3.969
H -3.511  1.027  2.858
H -3.852  1.301  4.543
H 0.669 1.096 4.966
H  1.13  -0.639  5.189
H -0.844  0.026  7.125
H 0.062 1.477 6.921
H -1.344  5.186  1.938
H -1.651  5.963  0.432
H 0.007 6.02  1.084
H -0.635  6.744 -1.405
H  0.665  6.97  -2.704
H  1.048  6.466 -1.036
H  0.608  0.501 -4.891
H -0.692 -2.156 -4.547
H -1.267  0.74  -6.129
H -2.204  0.714 -4.596
H -1.967 -0.72  -5.453
H  1.356 -1.759 -5.967
H  1.452 -3.157 -4.902
H  2.714 -0.522 -4.798
H  3.487 -2.121 -4.529
H  2.495 -1.303 -3.24 
H  0.867 -6.333 -0.084
H  0.404 -5.642 -1.68 
H -0.891 -5.999 -0.463
H -1.283 -3.581  4.028
H  0.698 -4.478  7.755
H  0.833 -2.619  7.68 
H  2.    -3.754  6.976
Mg 7.88313926 0.70970039 0.59883178
C 7.26682901 3.65527334 2.53686576
C  7.047601    2.53186175 -2.1624485 
C  7.97937239 -1.98305591 -1.0734193 
C  7.56081226 -1.1193297   3.54780028
N 7.25613847 2.81784675 0.34736618
C 7.11694325 3.85815743 1.16317827
C 6.87089768 5.20201377 0.41425524
C  6.26787608  4.62611976 -0.94468149
C  6.92298143  3.25617919 -0.93980128
C  4.75356121  4.44654591 -0.91142971
C 8.19805337 5.99368726 0.16198186
C  8.0171047   7.45282713 -0.26641333
H 8.97560695 8.44350532 0.19961043
N  8.03753248  0.41580571 -1.34863802
C  7.66300414  1.27235055 -2.32912029
C  7.98153251  0.59588147 -3.60489859
C  8.39574271 -0.79938587 -3.28906165
C  8.12549733 -0.8533915  -1.87505004
C  7.92581666  1.28097921 -4.93579559
C  8.93769895 -1.91142483 -4.13036111
O  9.01282802 -3.11376097 -3.70220525
C  9.30077966 -1.56889827 -5.51740471
N  7.56818769 -1.29009998  1.10798695
C  7.72985915 -2.26527909  0.20694752
C  7.72994968 -3.61629708  0.8586295 
C  7.77766157 -3.34814907  2.43202495
C  7.71051836 -1.80112855  2.40990468
C  6.53159449 -4.51762338  0.53065579
C  8.92250865 -4.02544699  3.2263874 
C 10.25110289 -3.42523345  2.82429406
N 7.66171491 1.16638776 2.70915235
C 7.52289827 0.24860539 3.76037995
C 7.29448722 1.03068027 4.98930439
C 7.29981436 2.35709204 4.56216457
C 7.49155137 2.3996691  3.1515916 
C 7.05761012 0.49506926 6.28600948
C 7.16353757 3.74723077 4.96564935
O 7.07848897 4.33212826 6.04646138
C 7.01499522 4.63750339 3.65371305
C 7.95392093 5.80525869 3.78815657
O 9.19029517 5.63575475 3.7845309 
O 7.26274525 6.94834816 3.66101634
C 8.14000578 8.14572516 3.75512427
H  6.58169568  2.93418182 -3.06412017
H  8.11663166 -2.93261798 -1.59488816
H  7.53572006 -1.61792425  4.51848399
H 6.14735381 5.86275666 0.8920911 
H  6.59615597  5.20005265 -1.81102747
H 4.35330749 4.62270084 0.08691262
H  4.57602683  3.41500109 -1.21620803
H  4.27299858  5.06904979 -1.66662868
H  8.68866342  5.59863952 -0.72756862
H 8.84426116 5.95307441 1.03953077
H  6.99715325  7.79614422 -0.09108104
H  8.13963306  7.50891287 -1.34809775
H  7.42996947  2.24847658 -4.86775591
H  7.2728493   0.68535178 -5.57342447
H  8.91071978  1.36576025 -5.3952627 
H  8.42260862 -1.18086778 -6.03392864
H  9.7528001  -2.46549168 -5.94007215
H 10.03015175 -0.75851813 -5.50161309
H  8.60828029 -4.19088416  0.56740618
H  6.87019155 -3.68698903  2.93238446
H  6.81208617 -5.48108493  0.10430938
H  5.87180623 -3.96973176 -0.14149392
H  5.86712257 -4.71824785  1.3706819 
H  8.96758261 -5.08893179  2.9941926 
H  8.81425062 -3.92610779  4.30650911
H 10.5074344  -3.98244724  1.92393916
H 10.99330467 -3.58530577  3.60706118
H 10.14520965 -2.37803114  2.54032232
H 7.65484843 1.0910639  6.97598469
H  7.33006718 -0.5589614   6.33489215
H 5.98307381 0.65323941 6.37661808
H 5.97330705 4.95321694 3.60541493
H 7.74081759 8.77432813 4.55120284
H 8.19240203 8.57102916 2.75273905
H 9.15385753 7.97316624 4.1179838 
