158

Mg 0. 0. 0.
C -0.217 -2.218  2.801
C -1.255  2.442  2.026
C -0.245  1.85  -2.564
C  0.146 -2.824 -2.037
N -0.617 -0.009  2.126
C -0.594 -0.908  3.105
C -0.936 -0.309  4.502
C -1.773  0.964  4.032
C -1.155  1.168  2.66 
C -3.263  0.685  3.863
C 0.345 0.11  5.299
C 0.124 0.397 6.787
H 1.168 0.033 7.733
N -0.185  1.961 -0.152
C -0.703  2.8    0.777
C -0.62   4.156  0.193
C -0.187  4.015 -1.225
C -0.214  2.583 -1.38 
C -0.887  5.406  0.974
C  0.181  5.013 -2.277
O  0.303  4.69  -3.508
C  0.31   6.414 -1.837
N -0.265 -0.413 -2.029
C -0.279  0.569 -2.937
C -0.196  0.024 -4.332
C  0.124 -1.533 -4.18 
C  0.086 -1.632 -2.635
C -1.451  0.205 -5.197
C  1.373 -2.07  -4.923
C  2.626 -1.49  -4.306
N  0.15  -2.144  0.303
C  0.173 -3.136 -0.688
C  1.730e-01 -4.438e+00  4.000e-03
C  0.133 -4.111  1.358
C  0.083 -2.695  1.502
C  0.149 -5.715 -0.623
C  0.096 -4.629  2.716
O  0.208 -5.747  3.221
C -0.255 -3.428  3.701
C  0.717 -3.482  4.848
O  1.931 -3.255  4.669
O  0.038 -3.556  6.003
C  0.943 -3.583  7.183
H -1.859  3.22   2.497
H -0.218  2.453 -3.474
H  0.276 -3.747 -2.605
H -1.554 -0.949  5.132
H -1.585  1.831  4.665
H -3.484 -0.377  3.969
H -3.511  1.027  2.858
H -3.852  1.301  4.543
H 0.669 1.096 4.966
H  1.13  -0.639  5.189
H -0.844  0.026  7.125
H 0.062 1.477 6.921
H -1.344  5.186  1.938
H -1.651  5.963  0.432
H 0.007 6.02  1.084
H -0.635  6.744 -1.405
H  0.665  6.97  -2.704
H  1.048  6.466 -1.036
H  0.608  0.501 -4.891
H -0.692 -2.156 -4.547
H -1.267  0.74  -6.129
H -2.204  0.714 -4.596
H -1.967 -0.72  -5.453
H  1.356 -1.759 -5.967
H  1.452 -3.157 -4.902
H  2.714 -0.522 -4.798
H  3.487 -2.121 -4.529
H  2.495 -1.303 -3.24 
H  0.867 -6.333 -0.084
H  0.404 -5.642 -1.68 
H -0.891 -5.999 -0.463
H -1.283 -3.581  4.028
H  0.698 -4.478  7.755
H  0.833 -2.619  7.68 
H  2.    -3.754  6.976
Mg 7.88313926 0.70970039 0.59883178
C  7.81496101  2.01405047 -2.73377029
C  7.38326221 -2.38025922 -0.75960023
C  7.48626322 -0.40070532  3.54265745
C 7.24351745 3.94660409 1.7208832 
N  7.64698814  0.03097549 -1.49501901
C  7.70044886  0.62298555 -2.68406781
C  7.69939902 -0.38155635 -3.87497859
C  6.99844116 -1.62118046 -3.15804893
C  7.3950397  -1.32730886 -1.72198728
C  5.47671526 -1.60372073 -3.2607497 
C  9.14713085 -0.73937186 -4.35223284
C  9.2318336  -1.45007296 -5.70614693
H 10.35495412 -1.15486511 -6.58295969
N  7.9764787  -1.13674838  1.29508223
C  7.76030891 -2.2774131   0.59691275
C  7.94774875 -3.38535593  1.55816714
C  8.10370104 -2.78972174  2.91426182
C  7.83204129 -1.40211075  2.63837283
C  8.01316763 -4.82547284  1.15130886
C  8.43332002 -3.37936817  4.24910279
O  8.29097817 -2.72253013  5.33670409
C  8.84853028 -4.79378064  4.25803685
N 7.2131708  1.58865326 2.36976914
C 7.19335832 0.90113542 3.51690065
C 6.95094566 1.80360798 4.69023708
C 7.05069284 3.29510855 4.128784  
C 7.26433471 2.96926073 2.62996768
C 5.6084643  1.61833025 5.41094988
C 8.05637949 4.24387981 4.82795955
C 9.47049282 3.77662547 4.56517661
N  7.75375942  2.6817824  -0.29849671
C 7.45417014 3.88673279 0.3534349 
C  7.37432875  4.93112379 -0.68432269
C  7.61823891  4.25373139 -1.87742468
C  7.81062768  2.8691199  -1.60515721
C  7.04807798  6.29885323 -0.4668127 
C  7.7366915   4.37339365 -3.32155312
O  7.76178626  5.31583865 -4.11443437
C  7.74796727  2.90874096 -3.94644699
C  8.88294047  2.84372126 -4.93179833
O 10.0682684   2.9142221  -4.54787995
O  8.40950935  2.4730898  -6.13139714
C  9.48907933  2.36070789 -7.14828108
H  6.99530433 -3.35804776 -1.0517633 
H  7.44811886 -0.72197372  4.5856194 
H 7.13135494 4.99455822 2.00489854
H  7.10857996 -0.06611565 -4.73512626
H  7.42270268 -2.57151884 -3.48143898
H  5.11766437 -0.67278221 -3.69933486
H  5.11474017 -1.70701808 -2.23761887
H  5.11455983 -2.48139569 -3.79676007
H  9.55576678 -1.51795492 -3.70811632
H  9.7777573   0.15014998 -4.37190939
H  8.29126263 -1.37901764 -6.25312628
H  9.35950357 -2.51723519 -5.52430868
H  7.70063067 -4.96404314  0.11706328
H  7.26150626 -5.35586864  1.73559858
H  8.99589598 -5.25975516  1.33563423
H  8.05358138 -5.40491709  3.83011458
H  9.12980737 -5.01811048  5.28634095
H  9.7124561  -4.91229741  3.60341105
H 7.7100924  1.65940039 5.45791304
H 6.09829344 3.82162601 4.19503163
H 5.70893935 1.39776102 6.47394517
H 5.05677545 0.83068405 4.89855952
H 4.92098475 2.45886812 5.31992815
H 7.9077667  4.22534026 5.90708722
H 7.97084486 5.27964803 4.49914501
H 9.61935977 3.01133897 5.32610184
H 10.1736682   4.59973807  4.69648173
H 9.55492297 3.29037673 3.59310679
H  7.74513978  6.87864088 -1.07172602
H 7.12558292 6.56151813 0.58798734
H  6.02010971  6.32118895 -0.828252  
H  6.78041056  2.7652591  -4.42641466
H  9.21233283  3.00511437 -7.98277833
H  9.61475565  1.296889   -7.35051814
H 10.45601098  2.78366276 -6.87352415
