158

Mg 0. 0. 0.
C -0.217 -2.218  2.801
C -1.255  2.442  2.026
C -0.245  1.85  -2.564
C  0.146 -2.824 -2.037
N -0.617 -0.009  2.126
C -0.594 -0.908  3.105
C -0.936 -0.309  4.502
C -1.773  0.964  4.032
C -1.155  1.168  2.66 
C -3.263  0.685  3.863
C 0.345 0.11  5.299
C 0.124 0.397 6.787
H 1.168 0.033 7.733
N -0.185  1.961 -0.152
C -0.703  2.8    0.777
C -0.62   4.156  0.193
C -0.187  4.015 -1.225
C -0.214  2.583 -1.38 
C -0.887  5.406  0.974
C  0.181  5.013 -2.277
O  0.303  4.69  -3.508
C  0.31   6.414 -1.837
N -0.265 -0.413 -2.029
C -0.279  0.569 -2.937
C -0.196  0.024 -4.332
C  0.124 -1.533 -4.18 
C  0.086 -1.632 -2.635
C -1.451  0.205 -5.197
C  1.373 -2.07  -4.923
C  2.626 -1.49  -4.306
N  0.15  -2.144  0.303
C  0.173 -3.136 -0.688
C  1.730e-01 -4.438e+00  4.000e-03
C  0.133 -4.111  1.358
C  0.083 -2.695  1.502
C  0.149 -5.715 -0.623
C  0.096 -4.629  2.716
O  0.208 -5.747  3.221
C -0.255 -3.428  3.701
C  0.717 -3.482  4.848
O  1.931 -3.255  4.669
O  0.038 -3.556  6.003
C  0.943 -3.583  7.183
H -1.859  3.22   2.497
H -0.218  2.453 -3.474
H  0.276 -3.747 -2.605
H -1.554 -0.949  5.132
H -1.585  1.831  4.665
H -3.484 -0.377  3.969
H -3.511  1.027  2.858
H -3.852  1.301  4.543
H 0.669 1.096 4.966
H  1.13  -0.639  5.189
H -0.844  0.026  7.125
H 0.062 1.477 6.921
H -1.344  5.186  1.938
H -1.651  5.963  0.432
H 0.007 6.02  1.084
H -0.635  6.744 -1.405
H  0.665  6.97  -2.704
H  1.048  6.466 -1.036
H  0.608  0.501 -4.891
H -0.692 -2.156 -4.547
H -1.267  0.74  -6.129
H -2.204  0.714 -4.596
H -1.967 -0.72  -5.453
H  1.356 -1.759 -5.967
H  1.452 -3.157 -4.902
H  2.714 -0.522 -4.798
H  3.487 -2.121 -4.529
H  2.495 -1.303 -3.24 
H  0.867 -6.333 -0.084
H  0.404 -5.642 -1.68 
H -0.891 -5.999 -0.463
H -1.283 -3.581  4.028
H  0.698 -4.478  7.755
H  0.833 -2.619  7.68 
H  2.    -3.754  6.976
Mg 7.88313926 0.70970039 0.59883178
C  7.82254508 -2.3906796   2.38661987
C 6.65462875 2.18816284 3.41804723
C  7.49931149  3.36497298 -1.09197416
C  8.01159351 -1.15771158 -2.34088471
N  7.34899667 -0.10358629  2.58727401
C  7.42924954 -1.29879881  3.16363979
C  7.12851963 -1.26910042  4.69205515
C 6.24660297 0.05790331 4.74934483
C 6.80661951 0.7744228  3.53324233
C  4.757589   -0.19022847  4.53078126
C  8.4299425  -1.12960444  5.55145634
C  8.26036995 -1.41911825  7.04570561
H  9.34775028 -2.0700609   7.7607061 
N 7.64994259 2.58102027 1.18758576
C 7.15011897 3.00012764 2.37494053
C 7.18110104 4.47790456 2.33139193
C 7.56200251 4.8845325  0.95021062
C 7.56008984 3.61049806 0.27774458
C 6.91740918 5.34199765 3.52619725
C 7.86740259 6.21207016 0.33173949
O  7.94877206  6.36999933 -0.93436137
C 7.98288748 7.35575742 1.25460714
N  7.54903868  1.06487688 -1.4309124 
C  7.47871808  2.31132852 -1.91090961
C  7.51960845  2.32214618 -3.4102928 
C  7.87891471  0.83076224 -3.85349246
C  7.90273065  0.16796073 -2.45406509
C  6.22852848  2.76597558 -4.11181897
C  9.10965392  0.64877632 -4.77684567
C 10.37266654  1.00322147 -4.02433935
N  8.09116553 -1.38848232  0.0836625 
C  8.09739819 -1.94389049 -1.20403192
C  8.15233261 -3.40846121 -1.04253013
C  8.15754348 -3.60519502  0.33700372
C  8.08245392 -2.34461749  0.9954852 
C  8.13183901 -4.36441457 -2.09617485
C  8.18422401 -4.58825491  1.40786244
O  8.33984216 -5.8091145   1.46056774
C  7.84555055 -3.84776945  2.7763684 
C  8.86203919 -4.28731138  3.79463298
O 10.0630192 -3.9686965  3.678454 
O  8.22988868 -4.80517485  4.85893799
C  9.18013139 -5.23410486  5.91969802
H 6.05253434 2.71647778 4.15987379
H  7.4780896   4.26150378 -1.71504731
H  8.13955204 -1.80127146 -3.21318643
H  6.5493158  -2.11711653  5.0578633 
H 6.4400555  0.6364208  5.65245923
H  4.56391937 -1.22344015  4.24288076
H 4.46362803 0.48940856 3.73067286
H 4.18205858 0.11107099 5.4064298 
H  8.71939717 -0.07977068  5.59756573
H  9.22616435 -1.75782825  5.15059276
H  7.3144074  -1.92165002  7.24948409
H  8.18019012 -0.46739128  7.57105022
H 6.50283404 4.76655338 4.35295982
H 6.12116367 6.03293227 3.249952  
H 7.80146794 5.90257137 3.83038339
H 7.04833397 7.4705532  1.80413483
H 8.2920226  8.2040601  0.64496132
H 8.749953   7.13417873 1.99721226
H  8.29090391  2.99897076 -3.7755842 
H  7.06305514  0.35924844 -4.40187361
H  6.36477767  3.61284897 -4.78483207
H  5.48842924  2.99135843 -3.34452066
H  5.72320595  1.98332397 -4.67708227
H  9.04563323  1.32193896 -5.63107012
H  9.21295139 -0.36600568 -5.16129088
H 10.42060584  2.08682774 -4.12598225
H 11.23789437  0.5288819  -4.48866012
H 10.27888562  0.77947029 -2.96150044
H  8.88333621 -5.11249107 -1.84397944
H  8.34420937 -3.89819095 -3.05801546
H  7.10519074 -4.72298962 -2.02355764
H  6.83449636 -4.14580125  3.05217355
H  8.97685125 -6.28478938  6.12699783
H  9.06852405 -4.52559788  6.74065275
H 10.23181259 -5.28028749  5.63478957
