158

Mg 0. 0. 0.
C -0.217 -2.218  2.801
C -1.255  2.442  2.026
C -0.245  1.85  -2.564
C  0.146 -2.824 -2.037
N -0.617 -0.009  2.126
C -0.594 -0.908  3.105
C -0.936 -0.309  4.502
C -1.773  0.964  4.032
C -1.155  1.168  2.66 
C -3.263  0.685  3.863
C 0.345 0.11  5.299
C 0.124 0.397 6.787
H 1.168 0.033 7.733
N -0.185  1.961 -0.152
C -0.703  2.8    0.777
C -0.62   4.156  0.193
C -0.187  4.015 -1.225
C -0.214  2.583 -1.38 
C -0.887  5.406  0.974
C  0.181  5.013 -2.277
O  0.303  4.69  -3.508
C  0.31   6.414 -1.837
N -0.265 -0.413 -2.029
C -0.279  0.569 -2.937
C -0.196  0.024 -4.332
C  0.124 -1.533 -4.18 
C  0.086 -1.632 -2.635
C -1.451  0.205 -5.197
C  1.373 -2.07  -4.923
C  2.626 -1.49  -4.306
N  0.15  -2.144  0.303
C  0.173 -3.136 -0.688
C  1.730e-01 -4.438e+00  4.000e-03
C  0.133 -4.111  1.358
C  0.083 -2.695  1.502
C  0.149 -5.715 -0.623
C  0.096 -4.629  2.716
O  0.208 -5.747  3.221
C -0.255 -3.428  3.701
C  0.717 -3.482  4.848
O  1.931 -3.255  4.669
O  0.038 -3.556  6.003
C  0.943 -3.583  7.183
H -1.859  3.22   2.497
H -0.218  2.453 -3.474
H  0.276 -3.747 -2.605
H -1.554 -0.949  5.132
H -1.585  1.831  4.665
H -3.484 -0.377  3.969
H -3.511  1.027  2.858
H -3.852  1.301  4.543
H 0.669 1.096 4.966
H  1.13  -0.639  5.189
H -0.844  0.026  7.125
H 0.062 1.477 6.921
H -1.344  5.186  1.938
H -1.651  5.963  0.432
H 0.007 6.02  1.084
H -0.635  6.744 -1.405
H  0.665  6.97  -2.704
H  1.048  6.466 -1.036
H  0.608  0.501 -4.891
H -0.692 -2.156 -4.547
H -1.267  0.74  -6.129
H -2.204  0.714 -4.596
H -1.967 -0.72  -5.453
H  1.356 -1.759 -5.967
H  1.452 -3.157 -4.902
H  2.714 -0.522 -4.798
H  3.487 -2.121 -4.529
H  2.495 -1.303 -3.24 
H  0.867 -6.333 -0.084
H  0.404 -5.642 -1.68 
H -0.891 -5.999 -0.463
H -1.283 -3.581  4.028
H  0.698 -4.478  7.755
H  0.833 -2.619  7.68 
H  2.    -3.754  6.976
Mg 7.88313926 0.70970039 0.59883178
C  7.9383903  -2.79223081  1.33750573
C 6.71641816 1.20786894 3.76642629
C  7.39534309  3.74611681 -0.17502303
C  7.95417482 -0.15162438 -2.77736942
N  7.42781465 -0.69377696  2.24915806
C  7.54908557 -2.00596233  2.42418356
C  7.29635218 -2.45927478  3.89319944
C  6.39149574 -1.24040212  4.38062353
C  6.89896209 -0.16725625  3.43364947
C  4.901325   -1.45024025  4.13190455
C  8.62141156 -2.55631332  4.72177181
C  8.5047641  -3.29878223  6.05612082
H  9.6264613  -4.10839694  6.50741608
N 7.63297463 2.29955962 1.74452602
C 7.16305212 2.31637612 3.0150283 
C 7.16439932 3.73530646 3.43134053
C 7.49357104 4.5599999  2.23567305
C 7.49472604 3.5571792  1.20139683
C 6.92218062 4.17936782 4.84126592
C 7.75382902 6.02177848 2.05236688
O 7.79206639 6.56608843 0.89614952
C 7.87658177 6.82637226 3.28143262
N  7.47826029  1.66625468 -1.2118896 
C  7.3689849   2.99758787 -1.27967486
C  7.36220072  3.47315386 -2.70225349
C  7.73573463  2.20288327 -3.59479931
C  7.81647578  1.14037786 -2.47104084
C  6.04132669  4.07604429 -3.20007467
C  8.93989552  2.35016745 -4.55850203
C 10.21908176  2.48944696 -3.76390667
N  8.11481355 -1.11926777 -0.54670193
C  8.09091195 -1.24838124 -1.9429227 
C  8.1789022  -2.68886895 -2.24511612
C  8.23151643 -3.30275322 -0.99522699
C  8.15322646 -2.31054799  0.02344444
C  8.14335107 -3.27188739 -3.54252108
C  8.31084359 -4.56786479 -0.28314769
O  8.49134991 -5.74021741 -0.6155628 
C  8.00155211 -4.29715608  1.25531992
C  9.057962   -5.00170047  2.06211875
O 10.24835775 -4.62930672  2.02153748
O  8.46981245 -5.84105802  2.92820248
C  9.46116345 -6.55052389  3.78027957
H 6.12811177 1.46353818 4.64986833
H  7.33729191  4.79052387 -0.48852252
H  8.06674309 -0.4897048  -3.80910728
H  6.74532117 -3.39472888  3.9917614 
H  6.60233656 -0.96468962  5.41370183
H  4.71842019 -2.34857413  3.54244456
H  4.56926397 -0.56481184  3.589461  
H  4.34813611 -1.45102453  5.0714568 
H  8.89206819 -1.56465374  5.08428702
H  9.41640964 -3.00705895  4.12668154
H  7.57549726 -3.86596646  6.11673594
H  8.42307613 -2.55905959  6.85257389
H 6.54504221 3.36490011 5.45848061
H 6.10453722 4.89931939 4.81231745
H 7.80454876 4.64274496 5.28289935
H 6.9578603  6.73923057 3.86186883
H 8.15000821 7.83002483 2.95775144
H 8.6708526  6.40734964 3.89990081
H  8.1084794   4.25110909 -2.85807323
H  6.91209117  1.90165431 -4.24252345
H  6.14000773  5.09311765 -3.58024414
H  5.32170381  4.03204016 -2.38306945
H  5.53341884  3.49300096 -3.96786833
H  8.83602915  3.25262631 -5.15993845
H  9.05034812  1.50754358 -5.2411705 
H 10.24306793  3.55218751 -3.52549697
H 11.07809064  2.20653752 -4.3732317 
H 10.16326795  1.94514852 -2.82098035
H  8.9166076  -4.03995768 -3.55307446
H  8.31623592 -2.52507314 -4.31710632
H  7.12655317 -3.66390063 -3.5599472 
H  7.00560964 -4.69408619  1.4494    
H  9.2846565  -7.61902533  3.65624741
H  9.36206965 -6.13436111  4.78297292
H 10.50399405 -6.47680489  3.4697818 
