158

Mg 0. 0. 0.
C -0.217 -2.218  2.801
C -1.255  2.442  2.026
C -0.245  1.85  -2.564
C  0.146 -2.824 -2.037
N -0.617 -0.009  2.126
C -0.594 -0.908  3.105
C -0.936 -0.309  4.502
C -1.773  0.964  4.032
C -1.155  1.168  2.66 
C -3.263  0.685  3.863
C 0.345 0.11  5.299
C 0.124 0.397 6.787
H 1.168 0.033 7.733
N -0.185  1.961 -0.152
C -0.703  2.8    0.777
C -0.62   4.156  0.193
C -0.187  4.015 -1.225
C -0.214  2.583 -1.38 
C -0.887  5.406  0.974
C  0.181  5.013 -2.277
O  0.303  4.69  -3.508
C  0.31   6.414 -1.837
N -0.265 -0.413 -2.029
C -0.279  0.569 -2.937
C -0.196  0.024 -4.332
C  0.124 -1.533 -4.18 
C  0.086 -1.632 -2.635
C -1.451  0.205 -5.197
C  1.373 -2.07  -4.923
C  2.626 -1.49  -4.306
N  0.15  -2.144  0.303
C  0.173 -3.136 -0.688
C  1.730e-01 -4.438e+00  4.000e-03
C  0.133 -4.111  1.358
C  0.083 -2.695  1.502
C  0.149 -5.715 -0.623
C  0.096 -4.629  2.716
O  0.208 -5.747  3.221
C -0.255 -3.428  3.701
C  0.717 -3.482  4.848
O  1.931 -3.255  4.669
O  0.038 -3.556  6.003
C  0.943 -3.583  7.183
H -1.859  3.22   2.497
H -0.218  2.453 -3.474
H  0.276 -3.747 -2.605
H -1.554 -0.949  5.132
H -1.585  1.831  4.665
H -3.484 -0.377  3.969
H -3.511  1.027  2.858
H -3.852  1.301  4.543
H 0.669 1.096 4.966
H  1.13  -0.639  5.189
H -0.844  0.026  7.125
H 0.062 1.477 6.921
H -1.344  5.186  1.938
H -1.651  5.963  0.432
H 0.007 6.02  1.084
H -0.635  6.744 -1.405
H  0.665  6.97  -2.704
H  1.048  6.466 -1.036
H  0.608  0.501 -4.891
H -0.692 -2.156 -4.547
H -1.267  0.74  -6.129
H -2.204  0.714 -4.596
H -1.967 -0.72  -5.453
H  1.356 -1.759 -5.967
H  1.452 -3.157 -4.902
H  2.714 -0.522 -4.798
H  3.487 -2.121 -4.529
H  2.495 -1.303 -3.24 
H  0.867 -6.333 -0.084
H  0.404 -5.642 -1.68 
H -0.891 -5.999 -0.463
H -1.283 -3.581  4.028
H  0.698 -4.478  7.755
H  0.833 -2.619  7.68 
H  2.    -3.754  6.976
Mg 7.88313926 0.70970039 0.59883178
C  7.91692921 -2.73895319  1.55688224
C 6.70143836 1.41181279 3.72192099
C  7.41469966  3.69354479 -0.36753147
C  7.96853372 -0.36293877 -2.71595539
N  7.41175134 -0.58490277  2.33158741
C  7.52553963 -1.88399903  2.58960319
C  7.26245439 -2.24269106  4.08275429
C  6.36098237 -0.99137624  4.48717664
C 6.87898856 0.01762761 3.47747133
C  4.87118403 -1.20960127  4.24349498
C  8.582422   -2.29343736  4.92349285
C  8.45472702 -2.94981943  6.30124847
H  9.56988363 -3.73455125  6.80915567
N 7.63454889 2.36971762 1.64065501
C 7.15770981 2.46870922 2.90481922
C 7.16380199 3.91102793 3.23094897
C 7.503658   4.65722863 1.9876564 
C 7.50554443 3.59124399 1.01860986
C 6.91601153 4.4441462  4.6086771 
C 7.77217633 6.10334028 1.714177  
O 7.81949654 6.57354299 0.526219  
C 7.89213512 6.98319531 2.89082776
N  7.49301432  1.55213003 -1.27086066
C  7.39072431  2.87703696 -1.42298688
C  7.39415327  3.26205908 -2.87270589
C  7.76629849  1.93637281 -3.68129532
C  7.83556057  0.94641661 -2.4924053 
C  6.07905604  3.83846568 -3.41518697
C  8.97647676  2.01710119 -4.64533395
C 10.25193303  2.20027163 -3.85365353
N  8.11205207 -1.18885293 -0.42788103
C  8.0952172  -1.40556315 -1.81331499
C  8.17772308 -2.86261796 -2.02367674
C  8.22038957 -3.39677298 -0.73732415
C  8.14140376 -2.34201046  0.21636829
C  8.14644054 -3.52604735 -3.28197593
C  8.28950446 -4.61486079  0.05346168
O  8.4660216  -5.80664619 -0.20340842
C  7.97307308 -4.24634159  1.57000109
C  9.02150337 -4.90351477  2.42570334
O 10.21393874 -4.53990451  2.36868181
O  8.42442314 -5.68392187  3.33948775
C  9.40752198 -6.34285442  4.2403088 
H 6.10954075 1.72533979 4.58406891
H  7.36356458  4.71638223 -0.7465127 
H  8.08511584 -0.76586402 -3.72368197
H  6.70625129 -3.16752916  4.23682116
H  6.56748347 -0.65209954  5.50205132
H  4.68707902 -2.14243566  3.71072266
H  4.54652127 -0.35858681  3.64444451
H  4.3128203  -1.14864229  5.17799535
H  8.85599235 -1.28216583  5.22440838
H  9.37844566 -2.78443644  4.36260762
H  7.52233592 -3.50777174  6.39205082
H  8.37231669 -2.16101979  7.04904768
H 6.53143389 3.67192806 5.27375166
H 6.10212401 5.16460216 4.52968779
H 7.79821764 4.93035743 5.02538208
H 6.96980251 6.93702799 3.47024136
H 8.17232243 7.96319137 2.50618143
H 8.68089035 6.60031586 3.53906962
H  8.14513295  4.0252062  -3.07286082
H  6.94475788  1.5987313  -4.31354783
H  6.18488118  4.82910174 -3.85807096
H  5.35472482  3.84933703 -2.60123544
H  5.5725063   3.21055373 -4.14768335
H  8.88041253  2.88034435 -5.30300326
H  9.08651209  1.132642   -5.2729287 
H 10.27987757  3.27579945 -3.68250738
H 11.11287737  1.87558188 -4.43894184
H 10.18821426  1.71672362 -2.87866264
H  8.91592162 -4.29681017 -3.23963752
H  8.32730311 -2.8303214  -4.10103461
H  7.12782105 -3.9136921  -3.28059953
H  6.97411656 -4.62566414  1.78289134
H  9.22640091 -7.41622309  4.18278611
H  9.30496185 -5.86389469  5.21421023
H 10.45240365 -6.29364798  3.93186105
