158

Mg 0. 0. 0.
C -0.217 -2.218  2.801
C -1.255  2.442  2.026
C -0.245  1.85  -2.564
C  0.146 -2.824 -2.037
N -0.617 -0.009  2.126
C -0.594 -0.908  3.105
C -0.936 -0.309  4.502
C -1.773  0.964  4.032
C -1.155  1.168  2.66 
C -3.263  0.685  3.863
C 0.345 0.11  5.299
C 0.124 0.397 6.787
H 1.168 0.033 7.733
N -0.185  1.961 -0.152
C -0.703  2.8    0.777
C -0.62   4.156  0.193
C -0.187  4.015 -1.225
C -0.214  2.583 -1.38 
C -0.887  5.406  0.974
C  0.181  5.013 -2.277
O  0.303  4.69  -3.508
C  0.31   6.414 -1.837
N -0.265 -0.413 -2.029
C -0.279  0.569 -2.937
C -0.196  0.024 -4.332
C  0.124 -1.533 -4.18 
C  0.086 -1.632 -2.635
C -1.451  0.205 -5.197
C  1.373 -2.07  -4.923
C  2.626 -1.49  -4.306
N  0.15  -2.144  0.303
C  0.173 -3.136 -0.688
C  1.730e-01 -4.438e+00  4.000e-03
C  0.133 -4.111  1.358
C  0.083 -2.695  1.502
C  0.149 -5.715 -0.623
C  0.096 -4.629  2.716
O  0.208 -5.747  3.221
C -0.255 -3.428  3.701
C  0.717 -3.482  4.848
O  1.931 -3.255  4.669
O  0.038 -3.556  6.003
C  0.943 -3.583  7.183
H -1.859  3.22   2.497
H -0.218  2.453 -3.474
H  0.276 -3.747 -2.605
H -1.554 -0.949  5.132
H -1.585  1.831  4.665
H -3.484 -0.377  3.969
H -3.511  1.027  2.858
H -3.852  1.301  4.543
H 0.669 1.096 4.966
H  1.13  -0.639  5.189
H -0.844  0.026  7.125
H 0.062 1.477 6.921
H -1.344  5.186  1.938
H -1.651  5.963  0.432
H 0.007 6.02  1.084
H -0.635  6.744 -1.405
H  0.665  6.97  -2.704
H  1.048  6.466 -1.036
H  0.608  0.501 -4.891
H -0.692 -2.156 -4.547
H -1.267  0.74  -6.129
H -2.204  0.714 -4.596
H -1.967 -0.72  -5.453
H  1.356 -1.759 -5.967
H  1.452 -3.157 -4.902
H  2.714 -0.522 -4.798
H  3.487 -2.121 -4.529
H  2.495 -1.303 -3.24 
H  0.867 -6.333 -0.084
H  0.404 -5.642 -1.68 
H -0.891 -5.999 -0.463
H -1.283 -3.581  4.028
H  0.698 -4.478  7.755
H  0.833 -2.619  7.68 
H  2.    -3.754  6.976
Mg 7.88313926 0.70970039 0.59883178
C 7.30627982 2.11907645 3.83813824
C  6.83446246  3.67870918 -0.71582741
C  7.95031225 -0.65763717 -2.2616746 
C  7.78795453 -2.4292168   2.11005636
N 7.18608563 2.58619937 1.54409039
C 7.0685641  3.01788586 2.79589168
C 6.74207473 4.53792767 2.89714174
C 6.07388252 4.74782518 1.4648498 
C 6.76442373 3.6269584  0.70805757
C 4.56965338 4.49560177 1.45143085
C 8.03002152 5.41295142 3.06224027
C 7.78471674 6.86193757 3.49307516
H 8.74276407 7.49948933 4.38359246
N  7.92774076  1.51412796 -1.20498556
C  7.47210728  2.74063014 -1.55623552
C  7.7311562   2.87180723 -3.00618974
C  8.20073127  1.54975244 -3.50595407
C  8.0176837   0.73171044 -2.33434028
C  7.57711238  4.15913123 -3.75640133
C  8.72051816  1.09339561 -4.8324879 
O  8.85336446 -0.14490706 -5.12150756
C  8.99012279  2.14516707 -5.82954965
N  7.65291633 -1.2652968  -0.0367927 
C  7.7859934  -1.59520518 -1.32614718
C  7.86139616 -3.08267221 -1.50417874
C  7.99661652 -3.69724913 -0.03660807
C  7.88699522 -2.38568115  0.77950626
C  6.66994717 -3.73208203 -2.22162365
C  9.20490048 -4.63072056  0.22626064
C 10.49036895 -3.836645    0.16212948
N  7.77711603 -0.04851439  2.62982032
C  7.72641545 -1.39269393  3.0264118 
C  7.5516472  -1.40484284  4.49043928
C  7.49583182 -0.05813242  4.84413504
C 7.60105374 0.74412936 3.67212975
C  7.40768433 -2.56395728  5.30294308
C 7.34704965 0.88940107 5.93679287
O 7.31167412 0.79836111 7.16478037
C 7.0960467  2.33433469 5.31631615
C 8.00986179 3.29768334 6.02357165
O 9.24785583 3.22467125 5.88426623
O 7.2820195  4.29095729 6.55667058
C 8.13108323 5.29749266 7.24814099
H  6.3045212   4.47527043 -1.24174893
H  8.08120884 -1.17069828 -3.21669941
H  7.8346914  -3.37081953  2.6601954 
H 6.03124803 4.79885611 3.68140302
H 6.33394829 5.71363184 1.03206198
H 4.22569996 4.0870796  2.40155015
H 4.40168022 3.7800762  0.64625933
H 4.02803212 5.39837987 1.16785527
H 8.47653024 5.58371352 2.0826836 
H 8.72876622 4.94395858 3.75587386
H 6.76837834 7.00125877 3.86260847
H 7.84032954 7.49554484 2.60783562
H  7.0606171   4.91059641 -3.16051736
H  6.90305567  3.96314328 -4.5900351 
H  8.52993809  4.53082467 -4.13362693
H  8.07239122  2.70067822 -6.02377926
H  9.43963398  1.64106478 -6.68434236
H  9.69723157  2.8594987  -5.40684822
H  8.73561384 -3.36251507 -2.0905723 
H  7.13029983 -4.30065568  0.23554982
H  6.94986544 -4.29996484 -3.10923836
H  5.95648337 -2.94650549 -2.46886827
H  6.06287044 -4.38771545 -1.59790924
H  9.26427641 -5.39983331 -0.54308069
H  9.15928443 -5.13175822  1.19328258
H 10.70678572 -3.80957974 -0.90523328
H 11.28237867 -4.35022714  0.70817434
H 10.33965055 -2.8079967   0.49023409
H  8.02927621 -2.39876871  6.18288925
H  7.71062697 -3.46324278  4.76711257
H  6.33671832 -2.53822248  5.50350612
H 6.0452858  2.56904041 5.48345903
H 7.76393388 5.37861128 8.27130037
H 8.11163783 6.19583249 6.63087895
H 9.16919401 5.01331001 7.4239398 
