158

Mg 0. 0. 0.
C -0.217 -2.218  2.801
C -1.255  2.442  2.026
C -0.245  1.85  -2.564
C  0.146 -2.824 -2.037
N -0.617 -0.009  2.126
C -0.594 -0.908  3.105
C -0.936 -0.309  4.502
C -1.773  0.964  4.032
C -1.155  1.168  2.66 
C -3.263  0.685  3.863
C 0.345 0.11  5.299
C 0.124 0.397 6.787
H 1.168 0.033 7.733
N -0.185  1.961 -0.152
C -0.703  2.8    0.777
C -0.62   4.156  0.193
C -0.187  4.015 -1.225
C -0.214  2.583 -1.38 
C -0.887  5.406  0.974
C  0.181  5.013 -2.277
O  0.303  4.69  -3.508
C  0.31   6.414 -1.837
N -0.265 -0.413 -2.029
C -0.279  0.569 -2.937
C -0.196  0.024 -4.332
C  0.124 -1.533 -4.18 
C  0.086 -1.632 -2.635
C -1.451  0.205 -5.197
C  1.373 -2.07  -4.923
C  2.626 -1.49  -4.306
N  0.15  -2.144  0.303
C  0.173 -3.136 -0.688
C  1.730e-01 -4.438e+00  4.000e-03
C  0.133 -4.111  1.358
C  0.083 -2.695  1.502
C  0.149 -5.715 -0.623
C  0.096 -4.629  2.716
O  0.208 -5.747  3.221
C -0.255 -3.428  3.701
C  0.717 -3.482  4.848
O  1.931 -3.255  4.669
O  0.038 -3.556  6.003
C  0.943 -3.583  7.183
H -1.859  3.22   2.497
H -0.218  2.453 -3.474
H  0.276 -3.747 -2.605
H -1.554 -0.949  5.132
H -1.585  1.831  4.665
H -3.484 -0.377  3.969
H -3.511  1.027  2.858
H -3.852  1.301  4.543
H 0.669 1.096 4.966
H  1.13  -0.639  5.189
H -0.844  0.026  7.125
H 0.062 1.477 6.921
H -1.344  5.186  1.938
H -1.651  5.963  0.432
H 0.007 6.02  1.084
H -0.635  6.744 -1.405
H  0.665  6.97  -2.704
H  1.048  6.466 -1.036
H  0.608  0.501 -4.891
H -0.692 -2.156 -4.547
H -1.267  0.74  -6.129
H -2.204  0.714 -4.596
H -1.967 -0.72  -5.453
H  1.356 -1.759 -5.967
H  1.452 -3.157 -4.902
H  2.714 -0.522 -4.798
H  3.487 -2.121 -4.529
H  2.495 -1.303 -3.24 
H  0.867 -6.333 -0.084
H  0.404 -5.642 -1.68 
H -0.891 -5.999 -0.463
H -1.283 -3.581  4.028
H  0.698 -4.478  7.755
H  0.833 -2.619  7.68 
H  2.    -3.754  6.976
Mg 7.88313926 0.70970039 0.59883178
C  7.95275384  0.69113347 -2.97985835
C  7.31530918 -2.65191978  0.45690295
C 7.36643044 0.77482243 3.72699292
C 7.32422868 4.14516059 0.42306712
N  7.68221315 -0.68954932 -1.10480401
C  7.78911704 -0.58023101 -2.42533121
C  7.78669497 -1.95352105 -3.16115905
C  7.02380578 -2.8248899  -2.06538789
C  7.39011135 -2.02973896 -0.82463037
C  5.50703385 -2.81363988 -2.22594421
C  9.23399667 -2.49368499 -3.41664233
C  9.33189292 -3.65611837 -4.40887162
H 10.48849825 -3.73029967 -5.28870641
N  7.89347038 -0.75023446  1.92974631
C  7.65772735 -2.063197    1.69344017
C  7.78008706 -2.74119989  3.00188244
C  7.91859092 -1.69006791  4.0478424 
C  7.70261787 -0.49713747  3.26960684
C  7.80723876 -4.23077332  3.1573938 
C  8.19041026 -1.75161123  5.51769228
O  8.04049887 -0.73639145  6.28020744
C  8.55630936 -3.07121545  6.06340701
N 7.19471925 2.19524641 1.89377036
C 7.11931313 1.98098525 3.21187129
C 6.8754899  3.25824144 3.9596051 
C 7.04209015 4.43408495 2.89218327
C 7.28607535 3.57280727 1.62848157
C 5.50786977 3.38160311 4.64546813
C 8.05994698 5.55204628 3.23063408
C 9.46392263 4.9902162  3.21339108
N  7.84672747  2.21280518 -0.96654203
C  7.57071678  3.57957687 -0.81678476
C  7.5557955   4.16793623 -2.1687014 
C  7.80940815  3.09242844 -3.01770589
C  7.94639203  1.90266433 -2.24699923
C  7.27085335  5.52593849 -2.48345821
C  7.97209897  2.66727899 -4.39851603
O  8.05168103  3.24916648 -5.4813672 
C  7.95039179  1.07550244 -4.43855603
C  9.10947072  0.62631903 -5.28595162
O 10.28536466  0.80800796 -4.90961589
O  8.65717878 -0.15107647 -6.28175794
C  9.76015817 -0.65470976 -7.14311965
H  6.90223671 -3.65979855  0.53101452
H 7.28821174 0.86268221 4.81262661
H 7.24031174 5.22604946 0.29621997
H  7.23127258 -1.96559253 -4.0991272 
H  7.42397083 -3.83641797 -1.99904873
H  5.19257922 -2.10316799 -2.99031911
H  5.11335255 -2.52360727 -1.25157821
H  5.12997676 -3.81920285 -2.41422077
H  9.59750194 -2.98773955 -2.51562346
H  9.89515233 -1.68831534 -3.73847912
H  8.40992888 -3.77188226 -4.97938896
H  9.41766121 -4.58301006 -3.84167184
H  7.51905881 -4.73497223  2.23582949
H  7.0217887  -4.49123493  3.86657428
H  8.76892871 -4.58737424  3.52660951
H  7.7530402  -3.77984907  5.86056209
H  8.80094203 -2.90564749  7.11202138
H  9.43355129 -3.44198454  5.53244008
H 7.60754185 3.39155227 4.75506356
H 6.10689052 4.96831955 2.72286388
H 5.5710404  3.5674056  5.71793813
H 4.94390389 2.47251009 4.43862675
H 4.85251448 4.14367521 4.22454942
H 7.88077419 5.93688458 4.23399971
H 8.01928801 6.39453988 2.54012529
H 9.56511632 4.55731649 4.20797123
H 10.19106482  5.78812474  3.05906282
H 9.55862822 4.17741888 2.49305965
H  8.00403107  5.82584347 -3.23210795
H  7.32792779  6.1581058  -1.59761962
H  6.25473202  5.43538603 -2.86706437
H  6.99222131  0.78579835 -4.86879186
H  9.52910203 -0.35851993 -8.1664078 
H  9.85475134 -1.72040427 -6.93394905
H 10.73303578 -0.1812229  -7.00652406
