158

Mg 0.00000 0.00000 0.00000
C -0.21700 -2.21800 2.80100
C -1.25500 2.44200 2.02600
C -0.24500 1.85000 -2.56400
C 0.14600 -2.82400 -2.03700
N -0.61700 -0.00900 2.12600
C -0.59400 -0.90800 3.10500
C -0.93600 -0.30900 4.50200
C -1.77300 0.96400 4.03200
C -1.15500 1.16800 2.66000
C -3.26300 0.68500 3.86300
C 0.34500 0.11000 5.29900
C 0.12400 0.39700 6.78700
H 1.16800 0.03300 7.73300
N -0.18500 1.96100 -0.15200
C -0.70300 2.80000 0.77700
C -0.62000 4.15600 0.19300
C -0.18700 4.01500 -1.22500
C -0.21400 2.58300 -1.38000
C -0.88700 5.40600 0.97400
C 0.18100 5.01300 -2.27700
O 0.30300 4.69000 -3.50800
C 0.31000 6.41400 -1.83700
N -0.26500 -0.41300 -2.02900
C -0.27900 0.56900 -2.93700
C -0.19600 0.02400 -4.33200
C 0.12400 -1.53300 -4.18000
C 0.08600 -1.63200 -2.63500
C -1.45100 0.20500 -5.19700
C 1.37300 -2.07000 -4.92300
C 2.62600 -1.49000 -4.30600
N 0.15000 -2.14400 0.30300
C 0.17300 -3.13600 -0.68800
C 0.17300 -4.43800 0.00400
C 0.13300 -4.11100 1.35800
C 0.08300 -2.69500 1.50200
C 0.14900 -5.71500 -0.62300
C 0.09600 -4.62900 2.71600
O 0.20800 -5.74700 3.22100
C -0.25500 -3.42800 3.70100
C 0.71700 -3.48200 4.84800
O 1.93100 -3.25500 4.66900
O 0.03800 -3.55600 6.00300
C 0.94300 -3.58300 7.18300
H -1.85900 3.22000 2.49700
H -0.21800 2.45300 -3.47400
H 0.27600 -3.74700 -2.60500
H -1.55400 -0.94900 5.13200
H -1.58500 1.83100 4.66500
H -3.48400 -0.37700 3.96900
H -3.51100 1.02700 2.85800
H -3.85200 1.30100 4.54300
H 0.66900 1.09600 4.96600
H 1.13000 -0.63900 5.18900
H -0.84400 0.02600 7.12500
H 0.06200 1.47700 6.92100
H -1.34400 5.18600 1.93800
H -1.65100 5.96300 0.43200
H 0.00700 6.02000 1.08400
H -0.63500 6.74400 -1.40500
H 0.66500 6.97000 -2.70400
H 1.04800 6.46600 -1.03600
H 0.60800 0.50100 -4.89100
H -0.69200 -2.15600 -4.54700
H -1.26700 0.74000 -6.12900
H -2.20400 0.71400 -4.59600
H -1.96700 -0.72000 -5.45300
H 1.35600 -1.75900 -5.96700
H 1.45200 -3.15700 -4.90200
H 2.71400 -0.52200 -4.79800
H 3.48700 -2.12100 -4.52900
H 2.49500 -1.30300 -3.24000
H 0.86700 -6.33300 -0.08400
H 0.40400 -5.64200 -1.68000
H -0.89100 -5.99900 -0.46300
H -1.28300 -3.58100 4.02800
H 0.69800 -4.47800 7.75500
H 0.83300 -2.61900 7.68000
H 2.00000 -3.75400 6.97600
Mg 7.88314 0.70970 0.59883
C 8.08892 -1.41916 -2.27133
C 7.11378 -2.07072 2.42103
C 7.25166 2.62251 3.04812
C 7.54554 3.39313 -1.59910
N 7.66142 -1.41914 0.03357
C 7.82556 -2.11318 -1.08828
C 7.76624 -3.65537 -0.87496
C 6.90924 -3.69081 0.46902
C 7.27621 -2.32708 1.02714
C 5.40338 -3.73487 0.23041
C 9.18600 -4.28168 -0.66578
C 9.24966 -5.80781 -0.77631
H 10.43239 -6.41863 -1.36402
N 7.75176 0.31694 2.53050
C 7.44429 -0.87538 3.09540
C 7.47400 -0.65359 4.55712
C 7.63714 0.80796 4.79236
C 7.52563 1.31710 3.44933
C 7.40272 -1.76439 5.55951
C 7.84795 1.61828 6.03215
O 7.73210 2.89150 6.04042
C 8.11006 0.86561 7.27223
N 7.23894 2.69138 0.72371
C 7.09980 3.29845 1.90739
C 6.90711 4.77694 1.74344
C 7.18721 5.09113 0.20312
C 7.42568 3.64376 -0.29339
C 5.52444 5.31876 2.13158
C 8.25869 6.16494 -0.11198
C 9.62474 5.66294 0.29912
N 8.00019 0.99964 -1.54902
C 7.80393 2.19834 -2.24993
C 7.87749 1.87562 -3.68677
C 8.09634 0.49987 -3.72236
C 8.12955 -0.00899 -2.39260
C 7.68962 2.79336 -4.75770
C 8.28528 -0.66250 -4.57503
O 8.44234 -0.83425 -5.78471
C 8.16644 -1.96982 -3.67358
C 9.32713 -2.86413 -4.01464
O 10.49670 -2.52771 -3.73843
O 8.86609 -4.06662 -4.39148
C 9.96799 -5.01156 -4.71560
H 6.63645 -2.82884 3.04502
H 7.13738 3.33623 3.86665
H 7.53376 4.19266 -2.34210
H 7.24759 -4.20341 -1.66177
H 7.24305 -4.47877 1.14387
H 5.16319 -3.60411 -0.82464
H 4.99130 -2.91504 0.81910
H 4.97219 -4.64695 0.64389
H 9.48328 -4.15853 0.37563
H 9.90771 -3.83996 -1.35378
H 8.34490 -6.21260 -1.23068
H 9.25592 -6.22327 0.23143
H 7.11945 -2.70714 5.09313
H 6.57596 -1.53446 6.23131
H 8.32555 -1.86060 6.13176
H 7.27277 0.19619 7.47070
H 8.32402 1.61132 8.03707
H 8.98237 0.22904 7.12121
H 7.61492 5.33385 2.35605
H 6.29414 5.44791 -0.31051
H 5.55776 6.09986 2.89150
H 4.91354 4.47869 2.46077
H 4.93426 5.70320 1.30012
H 8.06531 7.07249 0.45890
H 8.29692 6.43830 -1.16652
H 9.66060 5.89784 1.36230
H 10.40536 6.19569 -0.24496
H 9.69646 4.57945 0.20220
H 8.46821 2.57340 -5.48804
H 7.75172 3.82462 -4.41094
H 6.68533 2.52179 -5.08253
H 7.20939 -2.43118 -3.91508
H 9.79524 -5.37014 -5.73040
H 9.98820 -5.75055 -3.91441
H 10.96239 -4.57562 -4.81787
