158

Mg 0. 0. 0.
C -0.217 -2.218  2.801
C -1.255  2.442  2.026
C -0.245  1.85  -2.564
C  0.146 -2.824 -2.037
N -0.617 -0.009  2.126
C -0.594 -0.908  3.105
C -0.936 -0.309  4.502
C -1.773  0.964  4.032
C -1.155  1.168  2.66 
C -3.263  0.685  3.863
C 0.345 0.11  5.299
C 0.124 0.397 6.787
H 1.168 0.033 7.733
N -0.185  1.961 -0.152
C -0.703  2.8    0.777
C -0.62   4.156  0.193
C -0.187  4.015 -1.225
C -0.214  2.583 -1.38 
C -0.887  5.406  0.974
C  0.181  5.013 -2.277
O  0.303  4.69  -3.508
C  0.31   6.414 -1.837
N -0.265 -0.413 -2.029
C -0.279  0.569 -2.937
C -0.196  0.024 -4.332
C  0.124 -1.533 -4.18 
C  0.086 -1.632 -2.635
C -1.451  0.205 -5.197
C  1.373 -2.07  -4.923
C  2.626 -1.49  -4.306
N  0.15  -2.144  0.303
C  0.173 -3.136 -0.688
C  1.730e-01 -4.438e+00  4.000e-03
C  0.133 -4.111  1.358
C  0.083 -2.695  1.502
C  0.149 -5.715 -0.623
C  0.096 -4.629  2.716
O  0.208 -5.747  3.221
C -0.255 -3.428  3.701
C  0.717 -3.482  4.848
O  1.931 -3.255  4.669
O  0.038 -3.556  6.003
C  0.943 -3.583  7.183
H -1.859  3.22   2.497
H -0.218  2.453 -3.474
H  0.276 -3.747 -2.605
H -1.554 -0.949  5.132
H -1.585  1.831  4.665
H -3.484 -0.377  3.969
H -3.511  1.027  2.858
H -3.852  1.301  4.543
H 0.669 1.096 4.966
H  1.13  -0.639  5.189
H -0.844  0.026  7.125
H 0.062 1.477 6.921
H -1.344  5.186  1.938
H -1.651  5.963  0.432
H 0.007 6.02  1.084
H -0.635  6.744 -1.405
H  0.665  6.97  -2.704
H  1.048  6.466 -1.036
H  0.608  0.501 -4.891
H -0.692 -2.156 -4.547
H -1.267  0.74  -6.129
H -2.204  0.714 -4.596
H -1.967 -0.72  -5.453
H  1.356 -1.759 -5.967
H  1.452 -3.157 -4.902
H  2.714 -0.522 -4.798
H  3.487 -2.121 -4.529
H  2.495 -1.303 -3.24 
H  0.867 -6.333 -0.084
H  0.404 -5.642 -1.68 
H -0.891 -5.999 -0.463
H -1.283 -3.581  4.028
H  0.698 -4.478  7.755
H  0.833 -2.619  7.68 
H  2.    -3.754  6.976
Mg 7.88313926 0.70970039 0.59883178
C  7.73754532  2.61554704 -2.42751336
C  7.3977193  -2.077651   -1.30854984
C  7.55423128 -0.94004093  3.28710151
C 7.22316015 3.66766328 2.31945497
N  7.61738316  0.43268005 -1.58136991
C  7.64159854  1.2382652  -2.63854406
C  7.63151567  0.47540353 -3.99696755
C  6.9595425  -0.88779157 -3.51514895
C  7.37856255 -0.86262462 -2.05579538
C  5.43609484 -0.87552284 -3.5890321 
C  9.07470225  0.23663822 -4.55547863
C  9.14364811 -0.20567147 -6.02004771
H 10.24672615  0.26677344 -6.84306816
N  8.01257923 -1.2329416   0.93385028
C  7.79815945 -2.22545395  0.03706191
C  8.01716048 -3.49111022  0.76975131
C  8.19030822 -3.15839212  2.2110745 
C  7.89608885 -1.74815095  2.2053448 
C  8.09337829 -4.82795125  0.0983372 
C  8.55171217 -3.98295602  3.40590233
O  8.42095724 -3.54443774  4.59971089
C  8.98490763 -5.36709619  3.14219859
N 7.23456124 1.22962092 2.51368536
C 7.2444301  0.33864786 3.5112091 
C 7.01208302 1.00070426 4.83696743
C 7.08264351 2.5725088  4.56456203
C 7.27297135 2.53741798 3.02806799
C 5.68545257 0.66205508 5.53078253
C 8.08883512 3.38891799 5.41395798
C 9.50371784 3.00185769 5.04600526
N 7.712401   2.81291948 0.09053765
C 7.4095296  3.86905856 0.96203817
C 7.29750771 5.08838076 0.14059281
C  7.5281383   4.65110589 -1.16226759
C  7.7430021   3.24323169 -1.1582962 
C 6.95797956 6.3855547  0.61650708
C  7.61865393  5.04175475 -2.55978589
O  7.61730926  6.11663003 -3.16156185
C  7.63706841  3.72091148 -3.44908953
C  8.75457777  3.86016161 -4.44663212
O  9.94573515  3.87611281 -4.07480466
O  8.26403822  3.71397581 -5.68701217
C  9.32618203  3.81175563 -6.7235659 
H  7.0169095  -2.98919553 -1.77332019
H  7.5392277  -1.45205524  4.2514947 
H 7.10293515 4.64170296 2.79720559
H  7.02112615  0.93736733 -4.7731364 
H  7.38983269 -1.75361289 -4.01806624
H  5.05732005  0.11540379 -3.83906224
H  5.09421589 -1.17489188 -2.59807804
H  5.07535612 -1.6425369  -4.27484112
H  9.50487511 -0.64248162 -4.07572805
H  9.69354038  1.1239253  -4.41732287
H  8.19241334 -0.04808916 -6.5291933 
H  9.28813355 -1.28582984 -6.04416936
H  7.76377405 -4.77473896 -0.93852079
H  7.35930224 -5.4705238   0.58407568
H  9.08473571 -5.27346224  0.18237544
H  8.19007997 -5.89952581  2.61940161
H  9.28775014 -5.77608347  4.10545651
H  9.83815857 -5.34680905  2.46359688
H 7.78689868 0.72694624 5.55191025
H 6.12501784 3.06201803 4.74346926
H 5.80812407 0.24737344 6.53163009
H  5.13451803 -0.02399089  4.88805158
H 4.98582763 1.49370271 5.61018127
H 7.9602149  3.16565808 6.47252203
H 7.98418649 4.46652089 5.28718397
H 9.67615212 2.10973019 5.64701021
H 10.19868772  3.79671939  5.3188106 
H 9.57652486 2.70825055 3.99863714
H 7.63646672 7.07964022 0.12065484
H 7.05141291 6.44661882 1.70054785
H 5.92337723 6.45905276 0.28176531
H  6.66279798  3.65478718 -3.93235625
H  9.02608721  4.59695814 -7.41756455
H  9.46161303  2.80698983 -7.12420179
H 10.29253564  4.19087765 -6.38925136
