158

Mg 0. 0. 0.
C -0.217 -2.218  2.801
C -1.255  2.442  2.026
C -0.245  1.85  -2.564
C  0.146 -2.824 -2.037
N -0.617 -0.009  2.126
C -0.594 -0.908  3.105
C -0.936 -0.309  4.502
C -1.773  0.964  4.032
C -1.155  1.168  2.66 
C -3.263  0.685  3.863
C 0.345 0.11  5.299
C 0.124 0.397 6.787
H 1.168 0.033 7.733
N -0.185  1.961 -0.152
C -0.703  2.8    0.777
C -0.62   4.156  0.193
C -0.187  4.015 -1.225
C -0.214  2.583 -1.38 
C -0.887  5.406  0.974
C  0.181  5.013 -2.277
O  0.303  4.69  -3.508
C  0.31   6.414 -1.837
N -0.265 -0.413 -2.029
C -0.279  0.569 -2.937
C -0.196  0.024 -4.332
C  0.124 -1.533 -4.18 
C  0.086 -1.632 -2.635
C -1.451  0.205 -5.197
C  1.373 -2.07  -4.923
C  2.626 -1.49  -4.306
N  0.15  -2.144  0.303
C  0.173 -3.136 -0.688
C  1.730e-01 -4.438e+00  4.000e-03
C  0.133 -4.111  1.358
C  0.083 -2.695  1.502
C  0.149 -5.715 -0.623
C  0.096 -4.629  2.716
O  0.208 -5.747  3.221
C -0.255 -3.428  3.701
C  0.717 -3.482  4.848
O  1.931 -3.255  4.669
O  0.038 -3.556  6.003
C  0.943 -3.583  7.183
H -1.859  3.22   2.497
H -0.218  2.453 -3.474
H  0.276 -3.747 -2.605
H -1.554 -0.949  5.132
H -1.585  1.831  4.665
H -3.484 -0.377  3.969
H -3.511  1.027  2.858
H -3.852  1.301  4.543
H 0.669 1.096 4.966
H  1.13  -0.639  5.189
H -0.844  0.026  7.125
H 0.062 1.477 6.921
H -1.344  5.186  1.938
H -1.651  5.963  0.432
H 0.007 6.02  1.084
H -0.635  6.744 -1.405
H  0.665  6.97  -2.704
H  1.048  6.466 -1.036
H  0.608  0.501 -4.891
H -0.692 -2.156 -4.547
H -1.267  0.74  -6.129
H -2.204  0.714 -4.596
H -1.967 -0.72  -5.453
H  1.356 -1.759 -5.967
H  1.452 -3.157 -4.902
H  2.714 -0.522 -4.798
H  3.487 -2.121 -4.529
H  2.495 -1.303 -3.24 
H  0.867 -6.333 -0.084
H  0.404 -5.642 -1.68 
H -0.891 -5.999 -0.463
H -1.283 -3.581  4.028
H  0.698 -4.478  7.755
H  0.833 -2.619  7.68 
H  2.    -3.754  6.976
Mg 7.88313926 0.70970039 0.59883178
C  7.83983264  1.80179879 -2.80963703
C  7.37543699 -2.45736935 -0.56520115
C  7.46451305 -0.21119262  3.60438151
C 7.25340822 4.01377688 1.5110699 
N  7.65518348 -0.09849802 -1.44945957
C  7.7181446   0.41717095 -2.67309858
C  7.71868229 -0.66038958 -3.79837055
C  7.00763339 -1.84914123 -3.00889161
C  7.39775283 -1.46720854 -1.59190246
C  5.48660298 -1.83117757 -3.1213451 
C  9.16723255 -1.05422676 -4.24370799
C  9.25587873 -1.84919789 -5.54966233
H 10.38527349 -1.61499376 -6.4367722 
N  7.96346789 -1.08962535  1.41051164
C  7.74549604 -2.27100229  0.78431455
C  7.92212534 -3.31703471  1.81450836
C  8.07354439 -2.63787176  3.13128623
C  7.81030254 -1.26916244  2.76698347
C  7.98264005 -4.78020958  1.49953654
C  8.39285939 -3.14376112  4.50250682
O  8.24777835 -2.41905824  5.54573796
C  8.80098831 -4.5566983   4.60291257
N 7.20777672 1.70155631 2.30697179
C 7.17822022 1.08777445 3.49498788
C 6.93381711 2.06348369 4.60773117
C 7.0440639  3.51617327 3.9540557 
C 7.26435575 3.09556376 2.48000375
C 5.58647486 1.93016589 5.33085372
C 8.05057282 4.50246683 4.59793753
C 9.46377844 4.01307637 4.37333823
N  7.76850474  2.62190613 -0.42164513
C 7.47130604 3.86690289 0.15135575
C  7.40237906  4.84419494 -0.95055955
C  7.64950594  4.09186416 -2.0971945 
C  7.83351387  2.7262853  -1.73715636
C  7.08172552  6.22439901 -0.82151683
C  7.7765206   4.11975884 -3.54527812
O  7.81066918  5.01025286 -4.39577637
C  7.78397543  2.61860989 -4.07661911
C  8.92403362  2.48641318 -5.04929601
O 10.10755966  2.57550116 -4.66368552
O  8.45539748  2.04312548 -6.22590902
C  9.53999295  1.86192973 -7.2273953 
H  6.98424914 -3.44982492 -0.79746178
H  7.4190181  -0.46593498  4.66526536
H 7.1448827  5.07804817 1.72786896
H  7.13419312 -0.39704858 -4.68010063
H  7.42895119 -2.81990996 -3.269317  
H  5.13460372 -0.92807629 -3.61976822
H  5.11847761 -1.86814203 -2.09586456
H  5.1230598  -2.73920123 -3.60311931
H  9.56843722 -1.79255638 -3.54947086
H  9.80236547 -0.17062586 -4.31569143
H  8.31870562 -1.80841295 -6.10549698
H  9.3772445  -2.90336063 -5.30024048
H  7.67513278 -4.98222312  0.47426837
H  7.22514152 -5.26927244  2.11168235
H  8.96216827 -5.20653818  1.71656278
H  8.00538994 -5.18991256  4.20970533
H  9.07546808 -4.71709046  5.64492275
H  9.6679155 -4.7202004  3.9620902
H 7.68798969 1.96443257 5.38737121
H 6.09393849 4.0501997  3.98146892
H 5.67998475 1.77654524 6.40619627
H 5.03371997 1.11435229 4.86587931
H 4.90368878 2.76645704 5.18307927
H 7.89591547 4.55263605 5.67520729
H 7.9719967  5.5158444  4.20405593
H 9.60464252 3.29657246 5.18180063
H 10.17029526  4.83957865  4.45663867
H 9.5511584  3.46616755 3.43432732
H  7.78498499  6.76170723 -1.45767326
H 7.15470975 6.55263683 0.21508157
H  6.05589154  6.22865359 -1.18962352
H  6.81838254  2.44963229 -4.55222288
H  9.27105895  2.45374889 -8.10241449
H  9.66150175  0.78691531 -7.36150205
H 10.50748072  2.29689636 -6.97419488
