158

Mg 0.00000 0.00000 0.00000
C -0.21700 -2.21800 2.80100
C -1.25500 2.44200 2.02600
C -0.24500 1.85000 -2.56400
C 0.14600 -2.82400 -2.03700
N -0.61700 -0.00900 2.12600
C -0.59400 -0.90800 3.10500
C -0.93600 -0.30900 4.50200
C -1.77300 0.96400 4.03200
C -1.15500 1.16800 2.66000
C -3.26300 0.68500 3.86300
C 0.34500 0.11000 5.29900
C 0.12400 0.39700 6.78700
H 1.16800 0.03300 7.73300
N -0.18500 1.96100 -0.15200
C -0.70300 2.80000 0.77700
C -0.62000 4.15600 0.19300
C -0.18700 4.01500 -1.22500
C -0.21400 2.58300 -1.38000
C -0.88700 5.40600 0.97400
C 0.18100 5.01300 -2.27700
O 0.30300 4.69000 -3.50800
C 0.31000 6.41400 -1.83700
N -0.26500 -0.41300 -2.02900
C -0.27900 0.56900 -2.93700
C -0.19600 0.02400 -4.33200
C 0.12400 -1.53300 -4.18000
C 0.08600 -1.63200 -2.63500
C -1.45100 0.20500 -5.19700
C 1.37300 -2.07000 -4.92300
C 2.62600 -1.49000 -4.30600
N 0.15000 -2.14400 0.30300
C 0.17300 -3.13600 -0.68800
C 0.17300 -4.43800 0.00400
C 0.13300 -4.11100 1.35800
C 0.08300 -2.69500 1.50200
C 0.14900 -5.71500 -0.62300
C 0.09600 -4.62900 2.71600
O 0.20800 -5.74700 3.22100
C -0.25500 -3.42800 3.70100
C 0.71700 -3.48200 4.84800
O 1.93100 -3.25500 4.66900
O 0.03800 -3.55600 6.00300
C 0.94300 -3.58300 7.18300
H -1.85900 3.22000 2.49700
H -0.21800 2.45300 -3.47400
H 0.27600 -3.74700 -2.60500
H -1.55400 -0.94900 5.13200
H -1.58500 1.83100 4.66500
H -3.48400 -0.37700 3.96900
H -3.51100 1.02700 2.85800
H -3.85200 1.30100 4.54300
H 0.66900 1.09600 4.96600
H 1.13000 -0.63900 5.18900
H -0.84400 0.02600 7.12500
H 0.06200 1.47700 6.92100
H -1.34400 5.18600 1.93800
H -1.65100 5.96300 0.43200
H 0.00700 6.02000 1.08400
H -0.63500 6.74400 -1.40500
H 0.66500 6.97000 -2.70400
H 1.04800 6.46600 -1.03600
H 0.60800 0.50100 -4.89100
H -0.69200 -2.15600 -4.54700
H -1.26700 0.74000 -6.12900
H -2.20400 0.71400 -4.59600
H -1.96700 -0.72000 -5.45300
H 1.35600 -1.75900 -5.96700
H 1.45200 -3.15700 -4.90200
H 2.71400 -0.52200 -4.79800
H 3.48700 -2.12100 -4.52900
H 2.49500 -1.30300 -3.24000
H 0.86700 -6.33300 -0.08400
H 0.40400 -5.64200 -1.68000
H -0.89100 -5.99900 -0.46300
H -1.28300 -3.58100 4.02800
H 0.69800 -4.47800 7.75500
H 0.83300 -2.61900 7.68000
H 2.00000 -3.75400 6.97600
Mg 7.88314 0.70970 0.59883
C 7.38224 1.03039 4.12849
C 6.73685 3.90928 0.29584
C 7.88589 0.29745 -2.54547
C 7.89581 -2.74422 1.06355
N 7.18062 2.18115 2.09614
C 7.09453 2.20067 3.42256
C 6.74243 3.60495 3.99823
C 6.02536 4.22913 2.71830
C 6.71290 3.41736 1.63468
C 4.52656 3.95147 2.66364
C 8.01800 4.42155 4.39548
C 7.75881 5.65854 5.26036
H 8.73219 6.01565 6.28131
N 7.85527 2.03391 -0.86696
C 7.36540 3.29565 -0.80927
C 7.57589 3.87642 -2.15280
C 8.05459 2.78768 -3.04924
C 7.92437 1.64236 -2.18515
C 7.37362 5.32790 -2.46269
C 8.54077 2.77910 -4.46405
O 8.68804 1.69532 -5.12608
C 8.75855 4.09497 -5.09184
N 7.67070 -0.97716 -0.61237
C 7.76919 -0.88788 -1.94328
C 7.86733 -2.24445 -2.57575
C 8.06064 -3.27910 -1.37496
C 7.95185 -2.28819 -0.18983
C 6.66641 -2.67294 -3.43026
C 9.29425 -4.21391 -1.44392
C 10.56164 -3.40335 -1.28958
N 7.85594 -0.64263 2.29633
C 7.84350 -2.04441 2.25746
C 7.71541 -2.51405 3.64926
C 7.64509 -1.34509 4.40453
C 7.69783 -0.21682 3.53705
C 7.61940 -3.87129 4.06532
C 7.51287 -0.78688 5.74049
O 7.51811 -1.25453 6.88013
C 7.21480 0.77153 5.60514
C 8.13196 1.49380 6.55406
O 9.36610 1.50215 6.36912
O 7.40251 2.25249 7.38642
C 8.25364 3.01888 8.33531
H 6.17542 4.81436 0.05595
H 7.99628 0.10909 -3.61542
H 7.97791 -3.80817 1.29314
H 6.05191 3.59029 4.84168
H 6.25310 5.28834 2.60034
H 4.22070 3.25945 3.44817
H 4.34689 3.51593 1.68053
H 3.95908 4.88216 2.68730
H 8.42995 4.89957 3.50674
H 8.74717 3.78062 4.89230
H 6.75219 5.64814 5.67933
H 7.77427 6.53635 4.61429
H 6.86197 5.84324 -1.65078
H 6.67739 5.38082 -3.29945
H 8.30675 5.82461 -2.72889
H 7.82468 4.65742 -5.08192
H 9.19034 3.89301 -6.07144
H 9.46490 4.66285 -4.48560
H 8.72775 -2.30446 -3.24097
H 7.21505 -3.96110 -1.28258
H 6.92890 -2.93010 -4.45674
H 5.93060 -1.86969 -3.40429
H 6.09201 -3.50615 -3.02624
H 9.34394 -4.70511 -2.41510
H 9.28883 -4.99075 -0.67924
H 10.74362 -3.04116 -2.30078
H 11.38020 -4.03837 -0.94910
H 10.40175 -2.53143 -0.65501
H 8.26525 -3.96929 4.93781
H 7.92236 -4.55169 3.26978
H 6.55501 -3.93888 4.28978
H 6.16556 0.91348 5.86218
H 7.91756 2.76898 9.34171
H 8.19751 4.06325 8.02785
H 9.30203 2.72339 8.38914
