158

Mg 0.00000 0.00000 0.00000
C -0.21700 -2.21800 2.80100
C -1.25500 2.44200 2.02600
C -0.24500 1.85000 -2.56400
C 0.14600 -2.82400 -2.03700
N -0.61700 -0.00900 2.12600
C -0.59400 -0.90800 3.10500
C -0.93600 -0.30900 4.50200
C -1.77300 0.96400 4.03200
C -1.15500 1.16800 2.66000
C -3.26300 0.68500 3.86300
C 0.34500 0.11000 5.29900
C 0.12400 0.39700 6.78700
H 1.16800 0.03300 7.73300
N -0.18500 1.96100 -0.15200
C -0.70300 2.80000 0.77700
C -0.62000 4.15600 0.19300
C -0.18700 4.01500 -1.22500
C -0.21400 2.58300 -1.38000
C -0.88700 5.40600 0.97400
C 0.18100 5.01300 -2.27700
O 0.30300 4.69000 -3.50800
C 0.31000 6.41400 -1.83700
N -0.26500 -0.41300 -2.02900
C -0.27900 0.56900 -2.93700
C -0.19600 0.02400 -4.33200
C 0.12400 -1.53300 -4.18000
C 0.08600 -1.63200 -2.63500
C -1.45100 0.20500 -5.19700
C 1.37300 -2.07000 -4.92300
C 2.62600 -1.49000 -4.30600
N 0.15000 -2.14400 0.30300
C 0.17300 -3.13600 -0.68800
C 0.17300 -4.43800 0.00400
C 0.13300 -4.11100 1.35800
C 0.08300 -2.69500 1.50200
C 0.14900 -5.71500 -0.62300
C 0.09600 -4.62900 2.71600
O 0.20800 -5.74700 3.22100
C -0.25500 -3.42800 3.70100
C 0.71700 -3.48200 4.84800
O 1.93100 -3.25500 4.66900
O 0.03800 -3.55600 6.00300
C 0.94300 -3.58300 7.18300
H -1.85900 3.22000 2.49700
H -0.21800 2.45300 -3.47400
H 0.27600 -3.74700 -2.60500
H -1.55400 -0.94900 5.13200
H -1.58500 1.83100 4.66500
H -3.48400 -0.37700 3.96900
H -3.51100 1.02700 2.85800
H -3.85200 1.30100 4.54300
H 0.66900 1.09600 4.96600
H 1.13000 -0.63900 5.18900
H -0.84400 0.02600 7.12500
H 0.06200 1.47700 6.92100
H -1.34400 5.18600 1.93800
H -1.65100 5.96300 0.43200
H 0.00700 6.02000 1.08400
H -0.63500 6.74400 -1.40500
H 0.66500 6.97000 -2.70400
H 1.04800 6.46600 -1.03600
H 0.60800 0.50100 -4.89100
H -0.69200 -2.15600 -4.54700
H -1.26700 0.74000 -6.12900
H -2.20400 0.71400 -4.59600
H -1.96700 -0.72000 -5.45300
H 1.35600 -1.75900 -5.96700
H 1.45200 -3.15700 -4.90200
H 2.71400 -0.52200 -4.79800
H 3.48700 -2.12100 -4.52900
H 2.49500 -1.30300 -3.24000
H 0.86700 -6.33300 -0.08400
H 0.40400 -5.64200 -1.68000
H -0.89100 -5.99900 -0.46300
H -1.28300 -3.58100 4.02800
H 0.69800 -4.47800 7.75500
H 0.83300 -2.61900 7.68000
H 2.00000 -3.75400 6.97600
Mg 7.88314 0.70970 0.59883
C 7.60548 3.45390 -1.68251
C 7.39096 -1.36274 -2.06685
C 7.67103 -1.69970 2.64979
C 7.22153 2.97007 3.16762
N 7.55388 1.11386 -1.55265
C 7.52923 2.20747 -2.30801
C 7.49075 1.90262 -3.83542
C 6.86053 0.43899 -3.78419
C 7.32496 0.02289 -2.39960
C 5.33555 0.43091 -3.81379
C 8.91985 1.88894 -4.47514
C 8.95086 1.92383 -6.00588
H 10.01812 2.65850 -6.66812
N 8.06021 -1.23681 0.31143
C 7.83653 -1.90856 -0.84356
C 8.10274 -3.33220 -0.54518
C 8.31502 -3.45729 0.92363
C 7.99387 -2.12335 1.36278
C 8.18321 -4.39286 -1.59983
C 8.72973 -4.60077 1.79460
O 8.62846 -4.55718 3.06834
C 9.18074 -5.82260 1.10413
N 7.28566 0.59298 2.59559
C 7.34410 -0.56238 3.26694
C 7.14121 -0.35001 4.73789
C 7.17307 1.23024 4.96492
C 7.31533 1.67784 3.48922
C 5.84391 -0.92377 5.32425
C 8.18985 1.77143 6.00111
C 9.59952 1.55702 5.49717
N 7.65625 2.86132 0.77237
C 7.36098 3.58690 1.93557
C 7.19975 4.99697 1.53588
C 7.39735 4.99111 0.15647
C 7.63909 3.65775 -0.28171
C 6.85072 6.07308 2.39879
C 7.43612 5.79755 -1.05266
O 7.39520 7.00544 -1.29108
C 7.45163 4.81793 -2.30803
C 8.53415 5.29034 -3.23984
O 9.73595 5.22372 -2.91030
O 8.00749 5.52164 -4.45215
C 9.03425 5.96516 -5.43256
H 7.01312 -2.09591 -2.78213
H 7.69634 -2.48530 3.40783
H 7.09790 3.74461 3.92673
H 6.84740 2.56489 -4.41499
H 7.29116 -0.21623 -4.54113
H 4.93019 1.43956 -3.73485
H 5.03098 -0.16995 -2.95665
H 4.96802 -0.09591 -4.69479
H 9.38170 0.91689 -4.30232
H 9.52568 2.70682 -4.08353
H 7.98115 2.20461 -6.41788
H 9.11512 0.90868 -6.36739
H 7.82001 -4.03054 -2.56074
H 7.47728 -5.17450 -1.31981
H 9.18506 -4.81459 -1.68212
H 8.38008 -6.18906 0.46131
H 9.52166 -6.50104 1.88537
H 10.01154 -5.56939 0.44490
H 7.94335 -0.80985 5.31369
H 6.21241 1.61334 5.30994
H 6.00609 -1.62430 6.14380
H 5.28612 -1.39229 4.51390
H 5.13138 -0.17746 5.67461
H 8.09908 1.22795 6.94097
H 8.06067 2.83197 6.21746
H 9.80790 0.52786 5.78741
H 10.28746 2.24751 5.98623
H 9.64475 1.60421 4.40895
H 7.49980 6.90526 2.12648
H 6.97722 5.79816 3.44570
H 5.80483 6.21762 2.12846
H 6.46400 4.87743 -2.76428
H 8.69740 6.91790 -5.84127
H 9.17611 5.13796 -6.12829
H 10.00327 6.24905 -5.02058
