158

Mg 0.00000 0.00000 0.00000
C -0.21700 -2.21800 2.80100
C -1.25500 2.44200 2.02600
C -0.24500 1.85000 -2.56400
C 0.14600 -2.82400 -2.03700
N -0.61700 -0.00900 2.12600
C -0.59400 -0.90800 3.10500
C -0.93600 -0.30900 4.50200
C -1.77300 0.96400 4.03200
C -1.15500 1.16800 2.66000
C -3.26300 0.68500 3.86300
C 0.34500 0.11000 5.29900
C 0.12400 0.39700 6.78700
H 1.16800 0.03300 7.73300
N -0.18500 1.96100 -0.15200
C -0.70300 2.80000 0.77700
C -0.62000 4.15600 0.19300
C -0.18700 4.01500 -1.22500
C -0.21400 2.58300 -1.38000
C -0.88700 5.40600 0.97400
C 0.18100 5.01300 -2.27700
O 0.30300 4.69000 -3.50800
C 0.31000 6.41400 -1.83700
N -0.26500 -0.41300 -2.02900
C -0.27900 0.56900 -2.93700
C -0.19600 0.02400 -4.33200
C 0.12400 -1.53300 -4.18000
C 0.08600 -1.63200 -2.63500
C -1.45100 0.20500 -5.19700
C 1.37300 -2.07000 -4.92300
C 2.62600 -1.49000 -4.30600
N 0.15000 -2.14400 0.30300
C 0.17300 -3.13600 -0.68800
C 0.17300 -4.43800 0.00400
C 0.13300 -4.11100 1.35800
C 0.08300 -2.69500 1.50200
C 0.14900 -5.71500 -0.62300
C 0.09600 -4.62900 2.71600
O 0.20800 -5.74700 3.22100
C -0.25500 -3.42800 3.70100
C 0.71700 -3.48200 4.84800
O 1.93100 -3.25500 4.66900
O 0.03800 -3.55600 6.00300
C 0.94300 -3.58300 7.18300
H -1.85900 3.22000 2.49700
H -0.21800 2.45300 -3.47400
H 0.27600 -3.74700 -2.60500
H -1.55400 -0.94900 5.13200
H -1.58500 1.83100 4.66500
H -3.48400 -0.37700 3.96900
H -3.51100 1.02700 2.85800
H -3.85200 1.30100 4.54300
H 0.66900 1.09600 4.96600
H 1.13000 -0.63900 5.18900
H -0.84400 0.02600 7.12500
H 0.06200 1.47700 6.92100
H -1.34400 5.18600 1.93800
H -1.65100 5.96300 0.43200
H 0.00700 6.02000 1.08400
H -0.63500 6.74400 -1.40500
H 0.66500 6.97000 -2.70400
H 1.04800 6.46600 -1.03600
H 0.60800 0.50100 -4.89100
H -0.69200 -2.15600 -4.54700
H -1.26700 0.74000 -6.12900
H -2.20400 0.71400 -4.59600
H -1.96700 -0.72000 -5.45300
H 1.35600 -1.75900 -5.96700
H 1.45200 -3.15700 -4.90200
H 2.71400 -0.52200 -4.79800
H 3.48700 -2.12100 -4.52900
H 2.49500 -1.30300 -3.24000
H 0.86700 -6.33300 -0.08400
H 0.40400 -5.64200 -1.68000
H -0.89100 -5.99900 -0.46300
H -1.28300 -3.58100 4.02800
H 0.69800 -4.47800 7.75500
H 0.83300 -2.61900 7.68000
H 2.00000 -3.75400 6.97600
Mg 7.88314 0.70970 0.59883
C 7.32817 4.21480 1.06627
C 7.20953 1.19584 -2.71070
C 7.92082 -2.44093 0.24001
C 7.39430 0.32515 4.02794
N 7.35133 2.52226 -0.55549
C 7.22961 3.81447 -0.26815
C 7.06238 4.71461 -1.52876
C 6.47886 3.62758 -2.53865
C 7.07671 2.37605 -1.92045
C 4.95815 3.51556 -2.50128
C 8.42812 5.29060 -2.03344
C 8.32065 6.43040 -3.05062
H 9.30402 7.50209 -3.00799
N 8.08594 -0.39211 -1.02836
C 7.77761 -0.02829 -2.29637
C 8.10770 -1.19259 -3.14615
C 8.45425 -2.32834 -2.24722
C 8.13809 -1.76622 -0.95902
C 8.12164 -1.14109 -4.64311
C 8.97605 -3.70584 -2.50861
O 8.98839 -4.61115 -1.60592
C 9.39592 -3.99790 -3.89116
N 7.47066 -0.87236 1.89674
C 7.62017 -2.14268 1.50567
C 7.54450 -3.08500 2.67025
C 7.55414 -2.17119 3.97967
C 7.55127 -0.78100 3.29730
C 6.32096 -4.01122 2.70330
C 8.64492 -2.47093 5.03834
C 10.00891 -2.13204 4.47997
N 7.61501 2.02984 2.30071
C 7.40595 1.65314 3.63527
C 7.17166 2.89070 4.40183
C 7.24473 3.90666 3.45086
C 7.48190 3.33755 2.16705
C 6.87272 2.96665 5.79082
C 7.15312 5.33866 3.21671
O 7.05852 6.33131 3.94004
C 7.08219 5.58589 1.64519
C 8.06361 6.67632 1.31188
O 9.29150 6.49215 1.43735
O 7.42423 7.67143 0.67826
C 8.34654 8.77285 0.29306
H 6.78884 1.18504 -3.71810
H 8.03517 -3.52524 0.17984
H 7.31853 0.29014 5.11629
H 6.35203 5.53322 -1.41172
H 6.85725 3.76807 -3.55098
H 4.53455 4.11107 -1.69267
H 4.74800 2.45729 -2.34513
H 4.52730 3.76671 -3.47086
H 8.92958 4.54164 -2.64634
H 9.04447 5.61367 -1.19375
H 7.31068 6.83989 -3.08514
H 8.47902 6.01575 -4.04621
H 7.66404 -0.22587 -5.01664
H 7.46495 -1.93641 -4.99519
H 9.12303 -1.28434 -5.04935
H 8.55094 -3.84715 -4.56333
H 9.82371 -4.99961 -3.87025
H 10.15709 -3.27617 -4.18893
H 8.40715 -3.74967 2.69215
H 6.61838 -2.24190 4.53468
H 6.57482 -5.07084 2.74154
H 5.70548 -3.78772 1.83237
H 5.62297 -3.81759 3.51738
H 8.65351 -3.53234 5.28386
H 8.50723 -1.91683 5.96692
H 10.27008 -3.02659 3.91571
H 10.71917 -1.95973 5.28933
H 9.95498 -1.30455 3.77226
H 7.47213 3.78600 6.18749
H 7.10003 2.02853 6.29666
H 5.80328 3.17390 5.75617
H 6.05635 5.87535 1.41940
H 7.94888 9.69075 0.72616
H 8.44755 8.72743 -0.79144
H 9.34066 8.74790 0.74078
