158

Mg 0.00000 0.00000 0.00000
C -0.21700 -2.21800 2.80100
C -1.25500 2.44200 2.02600
C -0.24500 1.85000 -2.56400
C 0.14600 -2.82400 -2.03700
N -0.61700 -0.00900 2.12600
C -0.59400 -0.90800 3.10500
C -0.93600 -0.30900 4.50200
C -1.77300 0.96400 4.03200
C -1.15500 1.16800 2.66000
C -3.26300 0.68500 3.86300
C 0.34500 0.11000 5.29900
C 0.12400 0.39700 6.78700
H 1.16800 0.03300 7.73300
N -0.18500 1.96100 -0.15200
C -0.70300 2.80000 0.77700
C -0.62000 4.15600 0.19300
C -0.18700 4.01500 -1.22500
C -0.21400 2.58300 -1.38000
C -0.88700 5.40600 0.97400
C 0.18100 5.01300 -2.27700
O 0.30300 4.69000 -3.50800
C 0.31000 6.41400 -1.83700
N -0.26500 -0.41300 -2.02900
C -0.27900 0.56900 -2.93700
C -0.19600 0.02400 -4.33200
C 0.12400 -1.53300 -4.18000
C 0.08600 -1.63200 -2.63500
C -1.45100 0.20500 -5.19700
C 1.37300 -2.07000 -4.92300
C 2.62600 -1.49000 -4.30600
N 0.15000 -2.14400 0.30300
C 0.17300 -3.13600 -0.68800
C 0.17300 -4.43800 0.00400
C 0.13300 -4.11100 1.35800
C 0.08300 -2.69500 1.50200
C 0.14900 -5.71500 -0.62300
C 0.09600 -4.62900 2.71600
O 0.20800 -5.74700 3.22100
C -0.25500 -3.42800 3.70100
C 0.71700 -3.48200 4.84800
O 1.93100 -3.25500 4.66900
O 0.03800 -3.55600 6.00300
C 0.94300 -3.58300 7.18300
H -1.85900 3.22000 2.49700
H -0.21800 2.45300 -3.47400
H 0.27600 -3.74700 -2.60500
H -1.55400 -0.94900 5.13200
H -1.58500 1.83100 4.66500
H -3.48400 -0.37700 3.96900
H -3.51100 1.02700 2.85800
H -3.85200 1.30100 4.54300
H 0.66900 1.09600 4.96600
H 1.13000 -0.63900 5.18900
H -0.84400 0.02600 7.12500
H 0.06200 1.47700 6.92100
H -1.34400 5.18600 1.93800
H -1.65100 5.96300 0.43200
H 0.00700 6.02000 1.08400
H -0.63500 6.74400 -1.40500
H 0.66500 6.97000 -2.70400
H 1.04800 6.46600 -1.03600
H 0.60800 0.50100 -4.89100
H -0.69200 -2.15600 -4.54700
H -1.26700 0.74000 -6.12900
H -2.20400 0.71400 -4.59600
H -1.96700 -0.72000 -5.45300
H 1.35600 -1.75900 -5.96700
H 1.45200 -3.15700 -4.90200
H 2.71400 -0.52200 -4.79800
H 3.48700 -2.12100 -4.52900
H 2.49500 -1.30300 -3.24000
H 0.86700 -6.33300 -0.08400
H 0.40400 -5.64200 -1.68000
H -0.89100 -5.99900 -0.46300
H -1.28300 -3.58100 4.02800
H 0.69800 -4.47800 7.75500
H 0.83300 -2.61900 7.68000
H 2.00000 -3.75400 6.97600
Mg 7.88314 0.70970 0.59883
C 7.39542 4.22898 0.16408
C 7.28678 0.36504 -2.74312
C 7.85934 -2.43093 1.03754
C 7.31736 1.20129 4.00234
N 7.41422 2.18503 -0.98362
C 7.31494 3.50984 -1.03049
C 7.19268 4.06935 -2.47941
C 6.60598 2.77418 -3.20073
C 7.16390 1.70714 -2.27548
C 5.08275 2.69953 -3.17443
C 8.58050 4.47906 -3.07760
C 8.51831 5.33042 -4.34908
H 9.52376 6.36284 -4.55044
N 8.09447 -0.76655 -0.69688
C 7.81963 -0.72588 -2.02281
C 8.14124 -2.07062 -2.54715
C 8.44486 -2.95142 -1.38522
C 8.11526 -2.08050 -0.28602
C 8.18632 -2.39469 -4.00890
C 8.94166 -4.35879 -1.28202
O 8.91616 -5.01016 -0.18219
C 9.38271 -4.99346 -2.53730
N 7.41034 -0.49141 2.23939
C 7.53993 -1.82137 2.18107
C 7.42041 -2.44179 3.54148
C 7.42370 -1.23030 4.58169
C 7.46481 -0.05462 3.57454
C 6.17656 -3.31060 3.77389
C 8.48624 -1.27379 5.70843
C 9.86821 -1.10702 5.11730
N 7.60977 2.41704 1.91082
C 7.36583 2.38884 3.29153
C 7.14324 3.78219 3.71943
C 7.25749 4.52727 2.54740
C 7.50790 3.65195 1.45222
C 6.81823 4.20729 5.03780
C 7.20182 5.85677 1.96157
O 7.11439 6.99994 2.41212
C 7.16782 5.70496 0.37675
C 8.17926 6.66171 -0.19328
O 9.40008 6.49495 0.00461
O 7.57456 7.47730 -1.07060
C 8.52819 8.43269 -1.69507
H 6.88625 0.10987 -3.72618
H 7.95121 -3.49764 1.25235
H 7.21904 1.44030 5.06284
H 6.49814 4.90259 -2.58776
H 7.00757 2.65139 -4.20640
H 4.65610 3.48479 -2.55052
H 4.84650 1.71727 -2.76474
H 4.67701 2.70759 -4.18641
H 9.07771 3.59283 -3.47186
H 9.18678 4.99155 -2.32986
H 7.51841 5.73453 -4.50966
H 8.68754 4.67786 -5.20567
H 7.75636 -1.59444 -4.60997
H 7.51965 -3.24203 -4.16788
H 9.19229 -2.65092 -4.34160
H 8.55486 -5.00170 -3.24662
H 9.78806 -5.96499 -2.25679
H 10.16524 -4.38127 -2.98652
H 8.26776 -3.09374 3.74977
H 6.47568 -1.14514 5.11337
H 6.40645 -4.33108 4.08128
H 5.58368 -3.30173 2.85972
H 5.46677 -2.90867 4.49642
H 8.46678 -2.24030 6.21085
H 8.34207 -0.50328 6.46591
H 10.12109 -2.11821 4.80045
H 10.56569 -0.74959 5.87558
H 9.84654 -0.48166 4.22460
H 7.42728 5.08996 5.23253
H 7.01485 3.42161 5.76694
H 5.75447 4.41652 4.92602
H 6.15327 5.94537 0.06052
H 8.14202 9.43592 -1.51441
H 8.64991 8.11636 -2.73118
H 9.51235 8.50429 -1.23070
