158

Mg 0.00000 0.00000 0.00000
C -0.21700 -2.21800 2.80100
C -1.25500 2.44200 2.02600
C -0.24500 1.85000 -2.56400
C 0.14600 -2.82400 -2.03700
N -0.61700 -0.00900 2.12600
C -0.59400 -0.90800 3.10500
C -0.93600 -0.30900 4.50200
C -1.77300 0.96400 4.03200
C -1.15500 1.16800 2.66000
C -3.26300 0.68500 3.86300
C 0.34500 0.11000 5.29900
C 0.12400 0.39700 6.78700
H 1.16800 0.03300 7.73300
N -0.18500 1.96100 -0.15200
C -0.70300 2.80000 0.77700
C -0.62000 4.15600 0.19300
C -0.18700 4.01500 -1.22500
C -0.21400 2.58300 -1.38000
C -0.88700 5.40600 0.97400
C 0.18100 5.01300 -2.27700
O 0.30300 4.69000 -3.50800
C 0.31000 6.41400 -1.83700
N -0.26500 -0.41300 -2.02900
C -0.27900 0.56900 -2.93700
C -0.19600 0.02400 -4.33200
C 0.12400 -1.53300 -4.18000
C 0.08600 -1.63200 -2.63500
C -1.45100 0.20500 -5.19700
C 1.37300 -2.07000 -4.92300
C 2.62600 -1.49000 -4.30600
N 0.15000 -2.14400 0.30300
C 0.17300 -3.13600 -0.68800
C 0.17300 -4.43800 0.00400
C 0.13300 -4.11100 1.35800
C 0.08300 -2.69500 1.50200
C 0.14900 -5.71500 -0.62300
C 0.09600 -4.62900 2.71600
O 0.20800 -5.74700 3.22100
C -0.25500 -3.42800 3.70100
C 0.71700 -3.48200 4.84800
O 1.93100 -3.25500 4.66900
O 0.03800 -3.55600 6.00300
C 0.94300 -3.58300 7.18300
H -1.85900 3.22000 2.49700
H -0.21800 2.45300 -3.47400
H 0.27600 -3.74700 -2.60500
H -1.55400 -0.94900 5.13200
H -1.58500 1.83100 4.66500
H -3.48400 -0.37700 3.96900
H -3.51100 1.02700 2.85800
H -3.85200 1.30100 4.54300
H 0.66900 1.09600 4.96600
H 1.13000 -0.63900 5.18900
H -0.84400 0.02600 7.12500
H 0.06200 1.47700 6.92100
H -1.34400 5.18600 1.93800
H -1.65100 5.96300 0.43200
H 0.00700 6.02000 1.08400
H -0.63500 6.74400 -1.40500
H 0.66500 6.97000 -2.70400
H 1.04800 6.46600 -1.03600
H 0.60800 0.50100 -4.89100
H -0.69200 -2.15600 -4.54700
H -1.26700 0.74000 -6.12900
H -2.20400 0.71400 -4.59600
H -1.96700 -0.72000 -5.45300
H 1.35600 -1.75900 -5.96700
H 1.45200 -3.15700 -4.90200
H 2.71400 -0.52200 -4.79800
H 3.48700 -2.12100 -4.52900
H 2.49500 -1.30300 -3.24000
H 0.86700 -6.33300 -0.08400
H 0.40400 -5.64200 -1.68000
H -0.89100 -5.99900 -0.46300
H -1.28300 -3.58100 4.02800
H 0.69800 -4.47800 7.75500
H 0.83300 -2.61900 7.68000
H 2.00000 -3.75400 6.97600
Mg 7.88314 0.70970 0.59883
C 8.07623 -2.63355 -0.66514
C 6.89645 -0.63199 3.57698
C 7.26875 3.65585 1.59849
C 7.77365 1.79708 -2.71044
N 7.56567 -1.38209 1.25019
C 7.73224 -2.57477 0.68721
C 7.58064 -3.75775 1.68969
C 6.67457 -3.04167 2.78890
C 7.09525 -1.60223 2.55026
C 5.17826 -3.16697 2.52086
C 8.95532 -4.21078 2.28698
C 8.93911 -5.55775 3.01551
H 10.10716 -6.42014 2.91912
N 7.66009 1.42153 2.42815
C 7.26727 0.72910 3.52428
C 7.25581 1.70157 4.63822
C 7.49024 3.05517 4.06297
C 7.45586 2.76456 2.65238
C 7.08719 1.30689 6.07333
C 7.69987 4.39926 4.68554
O 7.65386 5.47952 4.00327
C 7.87491 4.42528 6.14901
N 7.34454 2.46369 -0.39670
C 7.19589 3.61569 0.26645
C 7.09074 4.77829 -0.67548
C 7.44361 4.20684 -2.12416
C 7.62022 2.71391 -1.75235
C 5.72666 5.48051 -0.72223
C 8.58318 4.91343 -2.90040
C 9.90373 4.67519 -2.20291
N 8.09413 -0.20469 -1.35831
C 7.98963 0.43339 -2.60274
C 8.09767 -0.61349 -3.63543
C 8.24184 -1.79757 -2.91501
C 8.19860 -1.51178 -1.52047
C 7.99962 -0.41142 -5.04041
C 8.39765 -3.24068 -2.99885
O 8.58904 -4.04038 -3.91610
C 8.17447 -3.85397 -1.54630
C 9.29599 -4.82192 -1.28440
O 10.47142 -4.42109 -1.16161
O 8.78369 -6.02547 -0.98516
C 9.84314 -7.02540 -0.68540
H 6.35581 -0.92228 4.47997
H 7.16406 4.70060 1.89848
H 7.83286 2.07128 -3.76532
H 7.06171 -4.62895 1.28950
H 6.93982 -3.35139 3.79957
H 4.98422 -3.61801 1.54780
H 4.79061 -2.14853 2.55250
H 4.68288 -3.70146 3.33185
H 9.22075 -3.55469 3.11592
H 9.72477 -4.22803 1.51434
H 8.03065 -6.11910 2.79528
H 8.88583 -5.36579 4.08720
H 6.76979 0.26925 6.16868
H 6.25036 1.88410 6.46608
H 7.98187 1.50907 6.66239
H 6.99548 3.99041 6.62443
H 8.10146 5.45934 6.40642
H 8.71590 3.78443 6.41547
H 7.80525 5.55819 -0.41536
H 6.59078 4.25493 -2.80169
H 5.77508 6.54655 -0.49880
H 5.05898 4.96614 -0.03163
H 5.18917 5.37284 -1.66400
H 8.41922 5.99035 -2.91759
H 8.67476 4.57537 -3.93267
H 9.91365 5.44413 -1.43125
H 10.73172 4.81049 -2.89957
H 9.91936 3.70827 -1.69961
H 8.79106 -1.01044 -5.49070
H 8.10554 0.64234 -5.29725
H 6.99444 -0.78817 -5.22893
H 7.20298 -4.34706 -1.56011
H 9.68807 -7.86886 -1.35827
H 9.79355 -7.21751 0.38654
H 10.86304 -6.73967 -0.94523
