158

Mg 0.00000 0.00000 0.00000
C -0.21700 -2.21800 2.80100
C -1.25500 2.44200 2.02600
C -0.24500 1.85000 -2.56400
C 0.14600 -2.82400 -2.03700
N -0.61700 -0.00900 2.12600
C -0.59400 -0.90800 3.10500
C -0.93600 -0.30900 4.50200
C -1.77300 0.96400 4.03200
C -1.15500 1.16800 2.66000
C -3.26300 0.68500 3.86300
C 0.34500 0.11000 5.29900
C 0.12400 0.39700 6.78700
H 1.16800 0.03300 7.73300
N -0.18500 1.96100 -0.15200
C -0.70300 2.80000 0.77700
C -0.62000 4.15600 0.19300
C -0.18700 4.01500 -1.22500
C -0.21400 2.58300 -1.38000
C -0.88700 5.40600 0.97400
C 0.18100 5.01300 -2.27700
O 0.30300 4.69000 -3.50800
C 0.31000 6.41400 -1.83700
N -0.26500 -0.41300 -2.02900
C -0.27900 0.56900 -2.93700
C -0.19600 0.02400 -4.33200
C 0.12400 -1.53300 -4.18000
C 0.08600 -1.63200 -2.63500
C -1.45100 0.20500 -5.19700
C 1.37300 -2.07000 -4.92300
C 2.62600 -1.49000 -4.30600
N 0.15000 -2.14400 0.30300
C 0.17300 -3.13600 -0.68800
C 0.17300 -4.43800 0.00400
C 0.13300 -4.11100 1.35800
C 0.08300 -2.69500 1.50200
C 0.14900 -5.71500 -0.62300
C 0.09600 -4.62900 2.71600
O 0.20800 -5.74700 3.22100
C -0.25500 -3.42800 3.70100
C 0.71700 -3.48200 4.84800
O 1.93100 -3.25500 4.66900
O 0.03800 -3.55600 6.00300
C 0.94300 -3.58300 7.18300
H -1.85900 3.22000 2.49700
H -0.21800 2.45300 -3.47400
H 0.27600 -3.74700 -2.60500
H -1.55400 -0.94900 5.13200
H -1.58500 1.83100 4.66500
H -3.48400 -0.37700 3.96900
H -3.51100 1.02700 2.85800
H -3.85200 1.30100 4.54300
H 0.66900 1.09600 4.96600
H 1.13000 -0.63900 5.18900
H -0.84400 0.02600 7.12500
H 0.06200 1.47700 6.92100
H -1.34400 5.18600 1.93800
H -1.65100 5.96300 0.43200
H 0.00700 6.02000 1.08400
H -0.63500 6.74400 -1.40500
H 0.66500 6.97000 -2.70400
H 1.04800 6.46600 -1.03600
H 0.60800 0.50100 -4.89100
H -0.69200 -2.15600 -4.54700
H -1.26700 0.74000 -6.12900
H -2.20400 0.71400 -4.59600
H -1.96700 -0.72000 -5.45300
H 1.35600 -1.75900 -5.96700
H 1.45200 -3.15700 -4.90200
H 2.71400 -0.52200 -4.79800
H 3.48700 -2.12100 -4.52900
H 2.49500 -1.30300 -3.24000
H 0.86700 -6.33300 -0.08400
H 0.40400 -5.64200 -1.68000
H -0.89100 -5.99900 -0.46300
H -1.28300 -3.58100 4.02800
H 0.69800 -4.47800 7.75500
H 0.83300 -2.61900 7.68000
H 2.00000 -3.75400 6.97600
Mg 7.88314 0.70970 0.59883
C 8.01311 -2.86377 0.43864
C 6.78764 0.37722 3.81324
C 7.32743 3.83179 0.61743
C 7.88409 0.71868 -2.88622
N 7.49163 -1.07035 1.85533
C 7.63833 -2.38179 1.69477
C 7.42952 -3.19229 3.00888
C 6.51755 -2.15336 3.80319
C 6.98398 -0.86728 3.14412
C 5.02523 -2.32702 3.53990
C 8.77616 -3.46385 3.76025
C 8.70468 -4.51778 4.86906
H 9.85014 -5.38968 5.08137
N 7.63596 1.95804 2.10992
C 7.19756 1.64746 3.35356
C 7.18641 2.91756 4.11080
C 7.47243 4.02118 3.15251
C 7.46403 3.30802 1.90083
C 6.97219 2.99086 5.59150
C 7.70449 5.48783 3.33474
O 7.70520 6.30381 2.35049
C 7.84478 5.96323 4.72304
N 7.41803 2.07826 -0.90727
C 7.28568 3.38178 -0.63835
C 7.23588 4.19659 -1.89674
C 7.60752 3.19728 -3.08544
C 7.73326 1.89027 -2.26436
C 5.89351 4.87559 -2.20170
C 8.78483 3.60628 -4.00581
C 10.08096 3.57099 -3.22742
N 8.11569 -0.77059 -0.97142
C 8.05917 -0.54817 -2.35490
C 8.16280 -1.86563 -3.00883
C 8.25635 -2.77033 -1.95308
C 8.18744 -2.06524 -0.71761
C 8.10441 -2.10757 -4.40972
C 8.37371 -4.17095 -1.58111
O 8.56475 -5.21925 -2.19921
C 8.09843 -4.29898 -0.01789
C 9.18578 -5.15916 0.56613
O 10.36865 -4.76256 0.59594
O 8.63293 -6.20049 1.20687
C 9.65645 -7.07813 1.83481
H 6.21744 0.39177 4.74415
H 7.24480 4.91985 0.57581
H 7.97641 0.65092 -3.97173
H 6.89624 -4.13457 2.88182
H 6.74954 -2.13927 4.86795
H 4.84222 -3.05388 2.74863
H 4.66557 -1.34180 3.24244
H 4.49565 -2.57397 4.46041
H 9.03974 -2.58816 4.35334
H 9.56327 -3.73464 3.05565
H 7.78646 -5.10229 4.80479
H 8.63092 -4.00184 5.82643
H 6.62367 2.04026 5.99329
H 6.14259 3.67732 5.75960
H 7.85769 3.34868 6.11704
H 6.94229 5.71418 5.28164
H 8.09388 7.02159 4.65474
H 8.66082 5.42071 5.20126
H 7.96543 5.00491 -1.86835
H 6.77299 3.04910 -3.77120
H 5.96632 5.95721 -2.31783
H 5.19521 4.61370 -1.40729
H 5.37612 4.49135 -3.08039
H 8.65152 4.62767 -4.36071
H 8.89183 2.96298 -4.87929
H 10.09375 4.54105 -2.73179
H 10.92900 3.46765 -3.90518
H 10.05737 2.80780 -2.44930
H 8.88943 -2.83173 -4.62719
H 8.24594 -1.18770 -4.97665
H 7.09393 -2.50493 -4.50406
H 7.11414 -4.75336 0.09089
H 9.49414 -8.08560 1.45152
H 9.57562 -6.92724 2.91142
H 10.68992 -6.90665 1.53169
