158

Mg 0.00000 0.00000 0.00000
C -0.21700 -2.21800 2.80100
C -1.25500 2.44200 2.02600
C -0.24500 1.85000 -2.56400
C 0.14600 -2.82400 -2.03700
N -0.61700 -0.00900 2.12600
C -0.59400 -0.90800 3.10500
C -0.93600 -0.30900 4.50200
C -1.77300 0.96400 4.03200
C -1.15500 1.16800 2.66000
C -3.26300 0.68500 3.86300
C 0.34500 0.11000 5.29900
C 0.12400 0.39700 6.78700
H 1.16800 0.03300 7.73300
N -0.18500 1.96100 -0.15200
C -0.70300 2.80000 0.77700
C -0.62000 4.15600 0.19300
C -0.18700 4.01500 -1.22500
C -0.21400 2.58300 -1.38000
C -0.88700 5.40600 0.97400
C 0.18100 5.01300 -2.27700
O 0.30300 4.69000 -3.50800
C 0.31000 6.41400 -1.83700
N -0.26500 -0.41300 -2.02900
C -0.27900 0.56900 -2.93700
C -0.19600 0.02400 -4.33200
C 0.12400 -1.53300 -4.18000
C 0.08600 -1.63200 -2.63500
C -1.45100 0.20500 -5.19700
C 1.37300 -2.07000 -4.92300
C 2.62600 -1.49000 -4.30600
N 0.15000 -2.14400 0.30300
C 0.17300 -3.13600 -0.68800
C 0.17300 -4.43800 0.00400
C 0.13300 -4.11100 1.35800
C 0.08300 -2.69500 1.50200
C 0.14900 -5.71500 -0.62300
C 0.09600 -4.62900 2.71600
O 0.20800 -5.74700 3.22100
C -0.25500 -3.42800 3.70100
C 0.71700 -3.48200 4.84800
O 1.93100 -3.25500 4.66900
O 0.03800 -3.55600 6.00300
C 0.94300 -3.58300 7.18300
H -1.85900 3.22000 2.49700
H -0.21800 2.45300 -3.47400
H 0.27600 -3.74700 -2.60500
H -1.55400 -0.94900 5.13200
H -1.58500 1.83100 4.66500
H -3.48400 -0.37700 3.96900
H -3.51100 1.02700 2.85800
H -3.85200 1.30100 4.54300
H 0.66900 1.09600 4.96600
H 1.13000 -0.63900 5.18900
H -0.84400 0.02600 7.12500
H 0.06200 1.47700 6.92100
H -1.34400 5.18600 1.93800
H -1.65100 5.96300 0.43200
H 0.00700 6.02000 1.08400
H -0.63500 6.74400 -1.40500
H 0.66500 6.97000 -2.70400
H 1.04800 6.46600 -1.03600
H 0.60800 0.50100 -4.89100
H -0.69200 -2.15600 -4.54700
H -1.26700 0.74000 -6.12900
H -2.20400 0.71400 -4.59600
H -1.96700 -0.72000 -5.45300
H 1.35600 -1.75900 -5.96700
H 1.45200 -3.15700 -4.90200
H 2.71400 -0.52200 -4.79800
H 3.48700 -2.12100 -4.52900
H 2.49500 -1.30300 -3.24000
H 0.86700 -6.33300 -0.08400
H 0.40400 -5.64200 -1.68000
H -0.89100 -5.99900 -0.46300
H -1.28300 -3.58100 4.02800
H 0.69800 -4.47800 7.75500
H 0.83300 -2.61900 7.68000
H 2.00000 -3.75400 6.97600
Mg 7.88314 0.70970 0.59883
C 7.76371 2.42175 -2.54232
C 7.39443 -2.19002 -1.13202
C 7.53121 -0.76586 3.38370
C 7.22836 3.77320 2.12589
N 7.62805 0.29710 -1.56111
C 7.66210 1.03436 -2.66676
C 7.65573 0.18749 -3.97448
C 6.97435 -1.13954 -3.41169
C 7.38543 -1.02441 -1.95440
C 5.45141 -1.12493 -3.49506
C 9.10077 -0.09264 -4.50843
C 9.17561 -0.62665 -5.94181
H 10.28554 -0.21208 -6.78652
N 8.00108 -1.20855 1.05627
C 7.78669 -2.25459 0.22253
C 7.99536 -3.47257 1.03473
C 8.16220 -3.05051 2.45323
C 7.87502 -1.64209 2.35699
C 8.06865 -4.84939 0.44930
C 8.51291 -3.79981 3.69969
O 8.37774 -3.28636 4.86274
C 8.94068 -5.19980 3.52621
N 7.22659 1.35221 2.47333
C 7.22653 0.52582 3.52503
C 6.99016 1.27115 4.80509
C 7.07002 2.82232 4.43465
C 7.26865 2.68962 2.90455
C 5.65805 0.98300 5.51112
C 8.07555 3.68598 5.23679
C 9.49050 3.27000 4.90219
N 7.72565 2.77748 -0.04189
C 7.42322 3.88781 0.75959
C 7.32179 5.05346 -0.13765
C 7.55743 4.53392 -1.40902
C 7.76528 3.12811 -1.31514
C 6.98608 6.37959 0.25365
C 7.65760 4.83532 -2.82781
O 7.66491 5.87014 -3.49608
C 7.67437 3.46100 -3.63205
C 8.79804 3.53198 -4.62986
O 9.98719 3.56584 -4.25285
O 8.31364 3.31020 -5.86141
C 9.38196 3.33759 -6.89586
H 7.01167 -3.12727 -1.54068
H 7.50834 -1.21603 4.37832
H 7.11034 4.77595 2.54065
H 7.05193 0.60244 -4.78174
H 7.40310 -2.03729 -3.85657
H 5.07894 -0.14999 -3.80920
H 5.10258 -1.35969 -2.48923
H 5.09066 -1.93196 -4.13330
H 9.52392 -0.94176 -3.97178
H 9.72323 0.79873 -4.42283
H 8.22799 -0.49708 -6.46540
H 9.31486 -1.70684 -5.89702
H 7.74504 -4.86009 -0.59076
H 7.32872 -5.45670 0.97025
H 9.05730 -5.29328 0.56699
H 8.14611 -5.76044 3.03336
H 9.23616 -5.54868 4.51505
H 9.79775 -5.22623 2.85265
H 7.75965 1.03941 5.54035
H 6.11386 3.32654 4.57680
H 5.77314 0.63163 6.53679
H 5.10728 0.26036 4.90967
H 4.96214 1.82121 5.53391
H 7.93998 3.53045 6.30655
H 7.97695 4.75393 5.04180
H 9.65519 2.41672 5.55918
H 10.18789 4.07726 5.12844
H 9.56763 2.91065 3.87583
H 7.67073 7.03793 -0.28097
H 7.07383 6.50840 1.33222
H 5.95372 6.43662 -0.09107
H 6.70246 3.36905 -4.11586
H 9.08960 4.07888 -7.63966
H 9.51461 2.30896 -7.23163
H 10.34832 3.73256 -6.58046
