158

Mg 0. 0. 0.
C -0.217 -2.218  2.801
C -1.255  2.442  2.026
C -0.245  1.85  -2.564
C  0.146 -2.824 -2.037
N -0.617 -0.009  2.126
C -0.594 -0.908  3.105
C -0.936 -0.309  4.502
C -1.773  0.964  4.032
C -1.155  1.168  2.66 
C -3.263  0.685  3.863
C 0.345 0.11  5.299
C 0.124 0.397 6.787
H 1.168 0.033 7.733
N -0.185  1.961 -0.152
C -0.703  2.8    0.777
C -0.62   4.156  0.193
C -0.187  4.015 -1.225
C -0.214  2.583 -1.38 
C -0.887  5.406  0.974
C  0.181  5.013 -2.277
O  0.303  4.69  -3.508
C  0.31   6.414 -1.837
N -0.265 -0.413 -2.029
C -0.279  0.569 -2.937
C -0.196  0.024 -4.332
C  0.124 -1.533 -4.18 
C  0.086 -1.632 -2.635
C -1.451  0.205 -5.197
C  1.373 -2.07  -4.923
C  2.626 -1.49  -4.306
N  0.15  -2.144  0.303
C  0.173 -3.136 -0.688
C  1.730e-01 -4.438e+00  4.000e-03
C  0.133 -4.111  1.358
C  0.083 -2.695  1.502
C  0.149 -5.715 -0.623
C  0.096 -4.629  2.716
O  0.208 -5.747  3.221
C -0.255 -3.428  3.701
C  0.717 -3.482  4.848
O  1.931 -3.255  4.669
O  0.038 -3.556  6.003
C  0.943 -3.583  7.183
H -1.859  3.22   2.497
H -0.218  2.453 -3.474
H  0.276 -3.747 -2.605
H -1.554 -0.949  5.132
H -1.585  1.831  4.665
H -3.484 -0.377  3.969
H -3.511  1.027  2.858
H -3.852  1.301  4.543
H 0.669 1.096 4.966
H  1.13  -0.639  5.189
H -0.844  0.026  7.125
H 0.062 1.477 6.921
H -1.344  5.186  1.938
H -1.651  5.963  0.432
H 0.007 6.02  1.084
H -0.635  6.744 -1.405
H  0.665  6.97  -2.704
H  1.048  6.466 -1.036
H  0.608  0.501 -4.891
H -0.692 -2.156 -4.547
H -1.267  0.74  -6.129
H -2.204  0.714 -4.596
H -1.967 -0.72  -5.453
H  1.356 -1.759 -5.967
H  1.452 -3.157 -4.902
H  2.714 -0.522 -4.798
H  3.487 -2.121 -4.529
H  2.495 -1.303 -3.24 
H  0.867 -6.333 -0.084
H  0.404 -5.642 -1.68 
H -0.891 -5.999 -0.463
H -1.283 -3.581  4.028
H  0.698 -4.478  7.755
H  0.833 -2.619  7.68 
H  2.    -3.754  6.976
Mg 7.88313926 0.70970039 0.59883178
C  7.61338097 -1.13637786  3.65357229
C 6.63163382 3.3981255  2.28678012
C  7.68463133  2.22460711 -2.18006606
C  8.02196354 -2.34926043 -1.06524379
N 7.24333304 0.97362699 2.70160062
C 7.24661173 0.20473473 3.78601979
C 6.89582803 0.97768726 5.09249183
C 6.07702365 2.18880793 4.45629679
C 6.71175168 2.21315246 3.07700289
C 4.5861348  1.90394386 4.30594753
C 8.17244744 1.482269   5.84573225
C 7.93847267 1.95608816 7.28312754
H 8.96848421 1.70475391 8.27974949
N 7.71991764 2.63756638 0.19940542
C 7.20063184 3.59129478 1.00936246
C 7.30379975 4.86228527 0.26061647
C  7.75049973  4.54023209 -1.12315911
C  7.7104645   3.10040376 -1.09728314
C 7.04129108 6.20290061 0.87509975
C  8.13997646  5.39469761 -2.28777431
O  8.27183864  4.91836534 -3.46688158
C  8.27862825  6.83871865 -2.02581841
N  7.63567142  0.04713551 -1.36519531
C  7.6414829   0.90721603 -2.38950568
C  7.73382798  0.19037261 -3.70386746
C  8.03618171 -1.33791051 -3.35360197
C  7.98061379 -1.24145841 -1.80897283
C  6.49009324  0.27221974 -4.59965535
C  9.28749384 -1.97511364 -4.00828443
C 10.5396978  -1.33320936 -3.45417061
N  8.0078682  -1.38040344  1.17063041
C  8.03130236 -2.48933513  0.31249562
C  8.01052231 -3.69390601  1.16258102
C  7.95937411 -3.19885959  2.46417923
C  7.92237146 -1.77560675  2.428484  
C  7.98013564 -5.03936486  0.70078979
C  7.902509   -3.54159273  3.87597148
O  7.99760918 -4.58814212  4.51876487
C  7.55332058 -2.22318549  4.69797926
C  8.51236826 -2.14107635  5.85417762
O  9.73048282 -1.9491291   5.66255517
O  7.82030669 -2.0632131   7.00114323
C  8.71228527 -1.94957677  8.18588581
H 6.03063917 4.23449453 2.64904146
H  7.72756938  2.70809855 -3.15824312
H  8.14856141 -3.33748438 -1.51115791
H 6.26457567 0.4274955  5.79051295
H 6.26711941 3.1268445  4.9775194 
H 4.35312208 0.86570472 4.54192541
H 4.35244203 2.11899935 3.26305165
H 3.99623602 2.60576075 4.89607419
H 8.51010119 2.41565309 5.39534897
H 8.95085144 0.71847488 5.84009649
H 6.96314908 1.63911512 7.65350707
H 7.88612953 3.04487083 7.27959402
H 6.57175313 6.10994397 1.85358745
H 6.28890063 6.69403458 0.25832991
H 7.94031648 6.81793648 0.91771675
H  7.33249045  7.22877087 -1.65001057
H  8.64858696  7.27809542 -2.95152279
H  9.00849741  6.98453044 -1.22896276
H  8.54862588  0.58615196 -4.30875513
H  7.21780929 -1.99488858 -3.64910225
H  6.68955174  0.68409953 -5.58923928
H  5.73596073  0.85940327 -4.07640526
H  5.96739838 -0.6730376  -4.74351513
H  9.28487533 -1.79775718 -5.08321877
H  9.3551023  -3.05149515 -3.84990848
H 10.64289658 -0.43559494 -4.06283338
H 11.39651556 -1.99482962 -3.58582536
H 10.39920871 -1.01246546 -2.42175976
H  8.68593715 -5.59098287  1.32170105
H  8.24718348 -5.10214746 -0.35388874
H  6.93562042 -5.29178444  0.88280167
H  6.52035919 -2.32475175  5.02933567
H  8.45199585 -2.76332434  8.86286315
H  8.60686687 -0.92978696  8.55645389
H  9.76963178 -2.15458765  8.01463194
