158

Mg 0.00000 0.00000 0.00000
C -0.21700 -2.21800 2.80100
C -1.25500 2.44200 2.02600
C -0.24500 1.85000 -2.56400
C 0.14600 -2.82400 -2.03700
N -0.61700 -0.00900 2.12600
C -0.59400 -0.90800 3.10500
C -0.93600 -0.30900 4.50200
C -1.77300 0.96400 4.03200
C -1.15500 1.16800 2.66000
C -3.26300 0.68500 3.86300
C 0.34500 0.11000 5.29900
C 0.12400 0.39700 6.78700
H 1.16800 0.03300 7.73300
N -0.18500 1.96100 -0.15200
C -0.70300 2.80000 0.77700
C -0.62000 4.15600 0.19300
C -0.18700 4.01500 -1.22500
C -0.21400 2.58300 -1.38000
C -0.88700 5.40600 0.97400
C 0.18100 5.01300 -2.27700
O 0.30300 4.69000 -3.50800
C 0.31000 6.41400 -1.83700
N -0.26500 -0.41300 -2.02900
C -0.27900 0.56900 -2.93700
C -0.19600 0.02400 -4.33200
C 0.12400 -1.53300 -4.18000
C 0.08600 -1.63200 -2.63500
C -1.45100 0.20500 -5.19700
C 1.37300 -2.07000 -4.92300
C 2.62600 -1.49000 -4.30600
N 0.15000 -2.14400 0.30300
C 0.17300 -3.13600 -0.68800
C 0.17300 -4.43800 0.00400
C 0.13300 -4.11100 1.35800
C 0.08300 -2.69500 1.50200
C 0.14900 -5.71500 -0.62300
C 0.09600 -4.62900 2.71600
O 0.20800 -5.74700 3.22100
C -0.25500 -3.42800 3.70100
C 0.71700 -3.48200 4.84800
O 1.93100 -3.25500 4.66900
O 0.03800 -3.55600 6.00300
C 0.94300 -3.58300 7.18300
H -1.85900 3.22000 2.49700
H -0.21800 2.45300 -3.47400
H 0.27600 -3.74700 -2.60500
H -1.55400 -0.94900 5.13200
H -1.58500 1.83100 4.66500
H -3.48400 -0.37700 3.96900
H -3.51100 1.02700 2.85800
H -3.85200 1.30100 4.54300
H 0.66900 1.09600 4.96600
H 1.13000 -0.63900 5.18900
H -0.84400 0.02600 7.12500
H 0.06200 1.47700 6.92100
H -1.34400 5.18600 1.93800
H -1.65100 5.96300 0.43200
H 0.00700 6.02000 1.08400
H -0.63500 6.74400 -1.40500
H 0.66500 6.97000 -2.70400
H 1.04800 6.46600 -1.03600
H 0.60800 0.50100 -4.89100
H -0.69200 -2.15600 -4.54700
H -1.26700 0.74000 -6.12900
H -2.20400 0.71400 -4.59600
H -1.96700 -0.72000 -5.45300
H 1.35600 -1.75900 -5.96700
H 1.45200 -3.15700 -4.90200
H 2.71400 -0.52200 -4.79800
H 3.48700 -2.12100 -4.52900
H 2.49500 -1.30300 -3.24000
H 0.86700 -6.33300 -0.08400
H 0.40400 -5.64200 -1.68000
H -0.89100 -5.99900 -0.46300
H -1.28300 -3.58100 4.02800
H 0.69800 -4.47800 7.75500
H 0.83300 -2.61900 7.68000
H 2.00000 -3.75400 6.97600
Mg 7.88314 0.70970 0.59883
C 7.48813 -0.09212 4.06485
C 6.66692 3.81253 1.33117
C 7.79428 1.29128 -2.51733
C 7.97650 -2.71665 -0.03132
N 7.20035 1.62512 2.49527
C 7.15593 1.23066 3.76397
C 6.79544 2.37734 4.75521
C 6.02645 3.34675 3.74979
C 6.69474 2.92987 2.45151
C 4.53224 3.05784 3.64791
C 8.06711 3.06621 5.35525
C 7.81182 3.96695 6.56721
H 8.81002 4.01756 7.62475
N 7.78361 2.42129 -0.38271
C 7.27179 3.58897 0.07538
C 7.42853 4.56275 -1.02637
C 7.89934 3.81883 -2.22762
C 7.81843 2.45911 -1.75860
C 7.18886 6.03261 -0.86569
C 8.34059 4.26224 -3.58660
O 8.48752 3.44119 -4.55555
C 8.51322 5.71335 -3.78027
N 7.66475 -0.52462 -1.07042
C 7.71937 -0.02501 -2.30994
C 7.82335 -1.11587 -3.33423
C 8.07428 -2.46557 -2.51870
C 7.98413 -1.89365 -1.08236
C 6.60439 -1.29221 -4.25023
C 9.32273 -3.29822 -2.90404
C 10.57865 -2.54014 -2.53652
N 7.93550 -1.10188 1.79319
C 7.94863 -2.42255 1.32167
C 7.87363 -3.30334 2.50178
C 7.80492 -2.42804 3.58390
C 7.80862 -1.08565 3.10823
C 7.81678 -4.72484 2.47844
C 7.70440 -2.31474 5.02990
O 7.75463 -3.11186 5.96775
C 7.37248 -0.79995 5.39193
C 8.30523 -0.38155 6.49566
O 9.53251 -0.28183 6.29267
O 7.58811 0.06150 7.53968
C 8.45404 0.52001 8.65865
H 6.08098 4.73134 1.39753
H 7.87434 1.44654 -3.59526
H 8.08614 -3.79668 -0.14519
H 6.13237 2.08300 5.56892
H 6.23006 4.39639 3.96077
H 4.26464 2.14868 4.18619
H 4.32992 2.94317 2.58282
H 3.94812 3.91924 3.97283
H 8.44152 3.80719 4.64898
H 8.82375 2.32363 5.61096
H 6.81935 3.79922 6.98647
H 7.79006 5.00171 6.22516
H 6.69340 6.25679 0.07814
H 6.46562 6.32246 -1.62768
H 8.10344 6.61323 -0.98713
H 7.56956 6.21875 -3.57379
H 8.91758 5.83672 -4.78432
H 9.22742 6.08521 -3.04502
H 8.66327 -0.94291 -4.00582
H 7.24523 -3.16605 -2.62205
H 6.83914 -1.21154 -5.31187
H 5.85456 -0.55737 -3.95858
H 6.05909 -2.22529 -4.11088
H 9.35104 -3.46308 -3.98059
H 9.35635 -4.27345 -2.41819
H 10.72159 -1.87778 -3.38956
H 11.41955 -3.22620 -2.42972
H 10.42228 -1.91231 -1.65909
H 8.49167 -5.07000 3.26162
H 8.10737 -5.11680 1.50401
H 6.76152 -4.88833 2.69651
H 6.32937 -0.77395 5.70559
H 8.15481 -0.03844 9.54569
H 8.36827 1.60626 8.69181
H 9.50907 0.25182 8.59282
