158

Mg 0. 0. 0.
C -0.217 -2.218  2.801
C -1.255  2.442  2.026
C -0.245  1.85  -2.564
C  0.146 -2.824 -2.037
N -0.617 -0.009  2.126
C -0.594 -0.908  3.105
C -0.936 -0.309  4.502
C -1.773  0.964  4.032
C -1.155  1.168  2.66 
C -3.263  0.685  3.863
C 0.345 0.11  5.299
C 0.124 0.397 6.787
H 1.168 0.033 7.733
N -0.185  1.961 -0.152
C -0.703  2.8    0.777
C -0.62   4.156  0.193
C -0.187  4.015 -1.225
C -0.214  2.583 -1.38 
C -0.887  5.406  0.974
C  0.181  5.013 -2.277
O  0.303  4.69  -3.508
C  0.31   6.414 -1.837
N -0.265 -0.413 -2.029
C -0.279  0.569 -2.937
C -0.196  0.024 -4.332
C  0.124 -1.533 -4.18 
C  0.086 -1.632 -2.635
C -1.451  0.205 -5.197
C  1.373 -2.07  -4.923
C  2.626 -1.49  -4.306
N  0.15  -2.144  0.303
C  0.173 -3.136 -0.688
C  1.730e-01 -4.438e+00  4.000e-03
C  0.133 -4.111  1.358
C  0.083 -2.695  1.502
C  0.149 -5.715 -0.623
C  0.096 -4.629  2.716
O  0.208 -5.747  3.221
C -0.255 -3.428  3.701
C  0.717 -3.482  4.848
O  1.931 -3.255  4.669
O  0.038 -3.556  6.003
C  0.943 -3.583  7.183
H -1.859  3.22   2.497
H -0.218  2.453 -3.474
H  0.276 -3.747 -2.605
H -1.554 -0.949  5.132
H -1.585  1.831  4.665
H -3.484 -0.377  3.969
H -3.511  1.027  2.858
H -3.852  1.301  4.543
H 0.669 1.096 4.966
H  1.13  -0.639  5.189
H -0.844  0.026  7.125
H 0.062 1.477 6.921
H -1.344  5.186  1.938
H -1.651  5.963  0.432
H 0.007 6.02  1.084
H -0.635  6.744 -1.405
H  0.665  6.97  -2.704
H  1.048  6.466 -1.036
H  0.608  0.501 -4.891
H -0.692 -2.156 -4.547
H -1.267  0.74  -6.129
H -2.204  0.714 -4.596
H -1.967 -0.72  -5.453
H  1.356 -1.759 -5.967
H  1.452 -3.157 -4.902
H  2.714 -0.522 -4.798
H  3.487 -2.121 -4.529
H  2.495 -1.303 -3.24 
H  0.867 -6.333 -0.084
H  0.404 -5.642 -1.68 
H -0.891 -5.999 -0.463
H -1.283 -3.581  4.028
H  0.698 -4.478  7.755
H  0.833 -2.619  7.68 
H  2.    -3.754  6.976
Mg 7.88313926 0.70970039 0.59883178
C  8.02863521 -2.84589502  0.21310368
C 6.80791837 0.17001507 3.79190316
C 7.3131752  3.82162826 0.81715936
C  7.86376187  0.938141   -2.87868175
N  7.50715768 -1.1478656   1.74283022
C  7.65895536 -2.44584621  1.49916074
C  7.4615352  -3.33851609  2.76072317
C  6.54942999 -2.35621038  3.6239367 
C  7.00608312 -1.02888162  3.04463515
C  5.05641749 -2.52034918  3.35846705
C  8.81375898 -3.65016925  3.48604664
C  8.75359585 -4.7721802   4.52663581
H  9.90427469 -5.65001696  4.67726392
N 7.6390175  1.85916183 2.18691018
C 7.20929299 1.46871061 3.41090801
C 7.19669976 2.68852821 4.24671148
C 7.4720587  3.85170681 3.35829323
C 7.45964968 3.21875236 2.06423269
C 6.9907714  2.66737129 5.73025315
C 7.69840895 5.30510748 3.63128416
O 7.6896378  6.18143941 2.70040317
C 7.84459164 5.69282143 5.04597512
N  7.40296955  2.16806703 -0.81546621
C  7.26618638  3.45138597 -0.46423   
C  7.20531038  4.34357261 -1.66848749
C  7.57462026  3.42295865 -2.91982004
C  7.71116279  2.06747343 -2.18341937
C  5.85806862  5.03375464 -1.92265167
C  8.744653    3.89495111 -3.81907835
C 10.04544465  3.81714569 -3.0516245 
N  8.11335704 -0.66759391 -1.06282558
C  8.04776285 -0.35877513 -2.42920853
C  8.15365505 -1.6319092  -3.16540449
C  8.25750881 -2.60082445 -2.16928069
C  8.19254467 -1.97528693 -0.89148006
C  8.08821853 -1.78542832 -4.57840978
C  8.38348413 -4.02148336 -1.88694139
O  8.57574973 -5.02781972 -2.57091075
C  8.1179081  -4.24907388 -0.3333974 
C  9.21258465 -5.13891838  0.18925834
O 10.39376772 -4.73910709  0.23746114
O  8.66827714 -6.22125539  0.76616207
C  9.69946588 -7.13161363  1.33189314
H 6.24308068 0.12309072 4.72501488
H 7.22528924 4.90972726 0.84462985
H  7.95006913  0.93933331 -3.96680061
H  6.93187287 -4.27356212  2.57750001
H  6.78754492 -2.40804947  4.68616831
H  4.87215181 -3.19683559  2.52400118
H  4.69050279 -1.52014922  3.12565926
H  4.53334865 -2.82741175  4.26449606
H  9.0767529  -2.81227308  4.13166666
H  9.59799779 -3.87213772  2.76146021
H  7.837719   -5.35603081  4.43073457
H  8.68302932 -4.3179263   5.51500506
H 6.64898114 1.69163257 6.07326682
H 6.1590147  3.33775228 5.94584326
H 7.877656  2.9957713 6.2723981
H 6.94652773 5.40461919 5.59275632
H 8.08841333 6.75460899 5.04311841
H 8.66589409 5.12532237 5.48455931
H  7.93128467  5.15210689 -1.59325685
H  6.73680143  3.31411465 -3.60894019
H  5.92522061  6.12089614 -1.97080733
H  5.16562798  4.71889202 -1.14247317
H  5.33735532  4.70305484 -2.82093464
H  8.60458513  4.935983   -4.10817971
H  8.84953075  3.30847484 -4.7319295 
H 10.05665187  4.75411925 -2.49593849
H 10.8899933   3.7608976  -3.73921794
H 10.02990271  3.00635816 -2.3230176 
H  8.87528828 -2.49055843 -4.84539615
H  8.2222083  -0.83099127 -5.08703503
H  7.07905424 -2.18107471 -4.69202047
H  7.13637092 -4.71428284 -0.24803123
H  9.53957103 -8.11373538  0.88680382
H  9.62421301 -7.0492232   2.41630719
H 10.73035132 -6.93625801  1.03448705
