158

Mg 0.00000 0.00000 0.00000
C -0.21700 -2.21800 2.80100
C -1.25500 2.44200 2.02600
C -0.24500 1.85000 -2.56400
C 0.14600 -2.82400 -2.03700
N -0.61700 -0.00900 2.12600
C -0.59400 -0.90800 3.10500
C -0.93600 -0.30900 4.50200
C -1.77300 0.96400 4.03200
C -1.15500 1.16800 2.66000
C -3.26300 0.68500 3.86300
C 0.34500 0.11000 5.29900
C 0.12400 0.39700 6.78700
H 1.16800 0.03300 7.73300
N -0.18500 1.96100 -0.15200
C -0.70300 2.80000 0.77700
C -0.62000 4.15600 0.19300
C -0.18700 4.01500 -1.22500
C -0.21400 2.58300 -1.38000
C -0.88700 5.40600 0.97400
C 0.18100 5.01300 -2.27700
O 0.30300 4.69000 -3.50800
C 0.31000 6.41400 -1.83700
N -0.26500 -0.41300 -2.02900
C -0.27900 0.56900 -2.93700
C -0.19600 0.02400 -4.33200
C 0.12400 -1.53300 -4.18000
C 0.08600 -1.63200 -2.63500
C -1.45100 0.20500 -5.19700
C 1.37300 -2.07000 -4.92300
C 2.62600 -1.49000 -4.30600
N 0.15000 -2.14400 0.30300
C 0.17300 -3.13600 -0.68800
C 0.17300 -4.43800 0.00400
C 0.13300 -4.11100 1.35800
C 0.08300 -2.69500 1.50200
C 0.14900 -5.71500 -0.62300
C 0.09600 -4.62900 2.71600
O 0.20800 -5.74700 3.22100
C -0.25500 -3.42800 3.70100
C 0.71700 -3.48200 4.84800
O 1.93100 -3.25500 4.66900
O 0.03800 -3.55600 6.00300
C 0.94300 -3.58300 7.18300
H -1.85900 3.22000 2.49700
H -0.21800 2.45300 -3.47400
H 0.27600 -3.74700 -2.60500
H -1.55400 -0.94900 5.13200
H -1.58500 1.83100 4.66500
H -3.48400 -0.37700 3.96900
H -3.51100 1.02700 2.85800
H -3.85200 1.30100 4.54300
H 0.66900 1.09600 4.96600
H 1.13000 -0.63900 5.18900
H -0.84400 0.02600 7.12500
H 0.06200 1.47700 6.92100
H -1.34400 5.18600 1.93800
H -1.65100 5.96300 0.43200
H 0.00700 6.02000 1.08400
H -0.63500 6.74400 -1.40500
H 0.66500 6.97000 -2.70400
H 1.04800 6.46600 -1.03600
H 0.60800 0.50100 -4.89100
H -0.69200 -2.15600 -4.54700
H -1.26700 0.74000 -6.12900
H -2.20400 0.71400 -4.59600
H -1.96700 -0.72000 -5.45300
H 1.35600 -1.75900 -5.96700
H 1.45200 -3.15700 -4.90200
H 2.71400 -0.52200 -4.79800
H 3.48700 -2.12100 -4.52900
H 2.49500 -1.30300 -3.24000
H 0.86700 -6.33300 -0.08400
H 0.40400 -5.64200 -1.68000
H -0.89100 -5.99900 -0.46300
H -1.28300 -3.58100 4.02800
H 0.69800 -4.47800 7.75500
H 0.83300 -2.61900 7.68000
H 2.00000 -3.75400 6.97600
Mg 7.88314 0.70970 0.59883
C 8.06661 -2.70739 -0.45094
C 6.87338 -0.43714 3.64977
C 7.27787 3.71578 1.40738
C 7.79732 1.58692 -2.77293
N 7.55170 -1.33541 1.37877
C 7.71545 -2.56195 0.89300
C 7.55245 -3.67871 1.96708
C 6.64390 -2.89064 3.01372
C 7.07303 -1.47104 2.68736
C 5.14848 -3.02568 2.74540
C 8.92154 -4.09954 2.59970
C 8.89463 -5.39784 3.41151
H 10.05890 -6.26996 3.37642
N 7.65353 1.53639 2.37836
C 7.25123 0.91621 3.51362
C 7.23846 1.95697 4.56402
C 7.48277 3.27054 3.90604
C 7.45474 2.89180 2.51638
C 7.05996 1.65427 6.02013
C 7.69564 4.65021 4.44395
O 7.65875 5.68554 3.69474
C 7.86272 4.76757 5.90386
N 7.35876 2.39994 -0.50830
C 7.21217 3.59211 0.08011
C 7.11799 4.69353 -0.93376
C 7.47601 4.03033 -2.34150
C 7.64315 2.56299 -1.87539
C 5.75769 5.39769 -1.03258
C 8.62334 4.68135 -3.15404
C 9.93882 4.48145 -2.43526
N 8.10039 -0.32714 -1.29558
C 8.00593 0.23175 -2.57831
C 8.11447 -0.87860 -3.54237
C 8.24878 -2.01560 -2.74799
C 8.19926 -1.64231 -1.37449
C 8.02517 -0.76500 -4.95784
C 8.39789 -3.46182 -2.73988
O 8.59036 -4.31859 -3.60381
C 8.16366 -3.98135 -1.25292
C 9.27889 -4.93603 -0.92405
O 10.45559 -4.53368 -0.81991
O 8.75898 -6.11597 -0.55260
C 9.81179 -7.09989 -0.18430
H 6.32633 -0.66746 4.56608
H 7.17672 4.77782 1.64037
H 7.86371 1.79384 -3.84262
H 7.03142 -4.57099 1.61953
H 6.90202 -3.13728 4.04341
H 4.95759 -3.53623 1.80156
H 4.76573 -2.00549 2.71058
H 4.64599 -3.50573 3.58554
H 9.18565 -3.39375 3.38722
H 9.69516 -4.16897 1.83418
H 7.98463 -5.96776 3.22178
H 8.83639 -5.13850 4.46865
H 6.73689 0.62617 6.17879
H 6.22385 2.25893 6.37087
H 7.95237 1.88904 6.60049
H 6.97852 4.36757 6.40059
H 8.09297 5.81473 6.09695
H 8.69903 4.14091 6.21505
H 7.83491 5.48497 -0.71912
H 6.62718 4.03956 -3.02567
H 5.81017 6.47545 -0.87645
H 5.08367 4.93093 -0.31486
H 5.22488 5.23337 -1.96881
H 8.46483 5.75579 -3.23998
H 8.71894 4.27851 -4.16243
H 9.94830 5.29743 -1.71352
H 10.77131 4.56877 -3.13423
H 9.94687 3.54809 -1.87199
H 8.81611 -1.39484 -5.36490
H 8.13774 0.26999 -5.27991
H 7.01920 -1.14824 -5.12811
H 7.18982 -4.46984 -1.24130
H 9.65624 -7.98334 -0.80361
H 9.75532 -7.22385 0.89730
H 10.83450 -6.83580 -0.45567
