158

Mg 0. 0. 0.
C -0.217 -2.218  2.801
C -1.255  2.442  2.026
C -0.245  1.85  -2.564
C  0.146 -2.824 -2.037
N -0.617 -0.009  2.126
C -0.594 -0.908  3.105
C -0.936 -0.309  4.502
C -1.773  0.964  4.032
C -1.155  1.168  2.66 
C -3.263  0.685  3.863
C 0.345 0.11  5.299
C 0.124 0.397 6.787
H 1.168 0.033 7.733
N -0.185  1.961 -0.152
C -0.703  2.8    0.777
C -0.62   4.156  0.193
C -0.187  4.015 -1.225
C -0.214  2.583 -1.38 
C -0.887  5.406  0.974
C  0.181  5.013 -2.277
O  0.303  4.69  -3.508
C  0.31   6.414 -1.837
N -0.265 -0.413 -2.029
C -0.279  0.569 -2.937
C -0.196  0.024 -4.332
C  0.124 -1.533 -4.18 
C  0.086 -1.632 -2.635
C -1.451  0.205 -5.197
C  1.373 -2.07  -4.923
C  2.626 -1.49  -4.306
N  0.15  -2.144  0.303
C  0.173 -3.136 -0.688
C  1.730e-01 -4.438e+00  4.000e-03
C  0.133 -4.111  1.358
C  0.083 -2.695  1.502
C  0.149 -5.715 -0.623
C  0.096 -4.629  2.716
O  0.208 -5.747  3.221
C -0.255 -3.428  3.701
C  0.717 -3.482  4.848
O  1.931 -3.255  4.669
O  0.038 -3.556  6.003
C  0.943 -3.583  7.183
H -1.859  3.22   2.497
H -0.218  2.453 -3.474
H  0.276 -3.747 -2.605
H -1.554 -0.949  5.132
H -1.585  1.831  4.665
H -3.484 -0.377  3.969
H -3.511  1.027  2.858
H -3.852  1.301  4.543
H 0.669 1.096 4.966
H  1.13  -0.639  5.189
H -0.844  0.026  7.125
H 0.062 1.477 6.921
H -1.344  5.186  1.938
H -1.651  5.963  0.432
H 0.007 6.02  1.084
H -0.635  6.744 -1.405
H  0.665  6.97  -2.704
H  1.048  6.466 -1.036
H  0.608  0.501 -4.891
H -0.692 -2.156 -4.547
H -1.267  0.74  -6.129
H -2.204  0.714 -4.596
H -1.967 -0.72  -5.453
H  1.356 -1.759 -5.967
H  1.452 -3.157 -4.902
H  2.714 -0.522 -4.798
H  3.487 -2.121 -4.529
H  2.495 -1.303 -3.24 
H  0.867 -6.333 -0.084
H  0.404 -5.642 -1.68 
H -0.891 -5.999 -0.463
H -1.283 -3.581  4.028
H  0.698 -4.478  7.755
H  0.833 -2.619  7.68 
H  2.    -3.754  6.976
Mg 7.88313926 0.70970039 0.59883178
C  7.57956425  3.59070377 -1.50351827
C  7.38500096 -1.19316866 -2.18935986
C  7.69407684 -1.82509519  2.49506166
C 7.22609444 2.8005004  3.30853812
N  7.53949955  1.24690496 -1.52106656
C  7.50542357  2.38578195 -2.20587969
C  7.45945695  2.17753396 -3.74921823
C  6.83629117  0.71047964 -3.78682181
C  7.3106817   0.21031477 -2.43378348
C  5.31121935  0.69670596 -3.80846014
C  8.88484787  2.21126263 -4.39640762
C  8.90678656  2.3426351  -5.9220596 
H  9.96677518  3.12284158 -6.54258355
N  8.06749637 -1.21394284  0.18839401
C  7.8401894  -1.81272309 -1.00537303
C  8.11469277 -3.25099832 -0.79874958
C  8.3360889  -3.46727787  0.65806232
C  8.0113651  -2.16525654  1.18215481
C  8.19390175 -4.24272074 -1.91855429
C  8.76113064 -4.66126276  1.45296584
O  8.6670751  -4.69847369  2.72746295
C  9.21372912 -5.83493656  0.68440458
N 7.29783384 0.46449751 2.58753189
C  7.36550939 -0.73053852  3.18443465
C  7.17020822 -0.61223085  4.66693246
C 7.19611134 0.95072547 4.99289193
C 7.32770909 1.49106906 3.54756123
C  5.87899892 -1.22821054  5.22313257
C 8.21640237 1.4306231  6.05549415
C 9.62408697 1.25537588 5.53127046
N 7.64735536 2.84496369 0.90883434
C 7.35552291 3.49437658 2.11704406
C 7.18547251 4.92600812 1.80788068
C 7.37506977 5.00800929 0.42977557
C  7.62039662  3.7061051  -0.09286407
C 6.83652552 5.94389099 2.73878587
C  7.40308788  5.88917598 -0.72634607
O  7.35521618  7.10945603 -0.88795635
C  7.41579347  4.99064615 -2.04099801
C  8.49068634  5.52616455 -2.94716266
O  9.69468166  5.44489181 -2.62911235
O  7.95592167  5.83073024 -4.13955877
C  8.97489655  6.34020121 -5.09574051
H  7.00638648 -1.881712   -2.94731773
H  7.72741038 -2.65674385  3.20194736
H 7.10331151 3.52507774 4.11561001
H  6.80969332  2.87179077 -4.28235865
H  7.26551797  0.10637395 -4.58591046
H  4.90168377  1.69635614 -3.66388796
H  5.01441333  0.04155669 -2.98920522
H  4.94099163  0.22459416 -4.71885505
H  9.35217388  1.23256115 -4.28773009
H  9.48917683  3.00585937 -3.95739903
H  7.93341664  2.64398259 -6.31019576
H  9.0736154   1.35309431 -6.34770871
H  7.82344735 -3.82241375 -2.85271197
H  7.49322334 -5.04394082 -1.68444928
H  9.19718889 -4.65345048 -2.03278203
H  8.4110444  -6.16415652  0.0242073 
H  9.56231989 -6.55952696  1.4194578 
H 10.03951174 -5.53658842  0.03785957
H  7.97779366 -1.10342989  5.20818587
H 6.235718   1.30655844 5.36665861
H  6.04916959 -1.97814503  5.99601366
H  5.31866927 -1.6475302   4.38797227
H  5.16509565 -0.50899466  5.62374166
H 8.13360566 0.82858781 6.95973096
H 8.08360255 2.47478464 6.33894059
H 9.83888912 0.21102728 5.75493997
H 10.31167375  1.91709833  6.05905719
H 9.66276215 1.37122533 4.4479565 
H 7.48016245 6.79477954 2.51587519
H 6.97038435 5.60422295 3.76558207
H 5.78842405 6.0999714  2.4838776 
H  6.42525892  5.07385143 -2.4871372 
H  8.63128767  7.31511139 -5.44174208
H  9.11651307  5.55917759 -5.84296998
H  9.94498764  6.60238771 -4.67204191
