158

Mg 0.00000 0.00000 0.00000
C -0.21700 -2.21800 2.80100
C -1.25500 2.44200 2.02600
C -0.24500 1.85000 -2.56400
C 0.14600 -2.82400 -2.03700
N -0.61700 -0.00900 2.12600
C -0.59400 -0.90800 3.10500
C -0.93600 -0.30900 4.50200
C -1.77300 0.96400 4.03200
C -1.15500 1.16800 2.66000
C -3.26300 0.68500 3.86300
C 0.34500 0.11000 5.29900
C 0.12400 0.39700 6.78700
H 1.16800 0.03300 7.73300
N -0.18500 1.96100 -0.15200
C -0.70300 2.80000 0.77700
C -0.62000 4.15600 0.19300
C -0.18700 4.01500 -1.22500
C -0.21400 2.58300 -1.38000
C -0.88700 5.40600 0.97400
C 0.18100 5.01300 -2.27700
O 0.30300 4.69000 -3.50800
C 0.31000 6.41400 -1.83700
N -0.26500 -0.41300 -2.02900
C -0.27900 0.56900 -2.93700
C -0.19600 0.02400 -4.33200
C 0.12400 -1.53300 -4.18000
C 0.08600 -1.63200 -2.63500
C -1.45100 0.20500 -5.19700
C 1.37300 -2.07000 -4.92300
C 2.62600 -1.49000 -4.30600
N 0.15000 -2.14400 0.30300
C 0.17300 -3.13600 -0.68800
C 0.17300 -4.43800 0.00400
C 0.13300 -4.11100 1.35800
C 0.08300 -2.69500 1.50200
C 0.14900 -5.71500 -0.62300
C 0.09600 -4.62900 2.71600
O 0.20800 -5.74700 3.22100
C -0.25500 -3.42800 3.70100
C 0.71700 -3.48200 4.84800
O 1.93100 -3.25500 4.66900
O 0.03800 -3.55600 6.00300
C 0.94300 -3.58300 7.18300
H -1.85900 3.22000 2.49700
H -0.21800 2.45300 -3.47400
H 0.27600 -3.74700 -2.60500
H -1.55400 -0.94900 5.13200
H -1.58500 1.83100 4.66500
H -3.48400 -0.37700 3.96900
H -3.51100 1.02700 2.85800
H -3.85200 1.30100 4.54300
H 0.66900 1.09600 4.96600
H 1.13000 -0.63900 5.18900
H -0.84400 0.02600 7.12500
H 0.06200 1.47700 6.92100
H -1.34400 5.18600 1.93800
H -1.65100 5.96300 0.43200
H 0.00700 6.02000 1.08400
H -0.63500 6.74400 -1.40500
H 0.66500 6.97000 -2.70400
H 1.04800 6.46600 -1.03600
H 0.60800 0.50100 -4.89100
H -0.69200 -2.15600 -4.54700
H -1.26700 0.74000 -6.12900
H -2.20400 0.71400 -4.59600
H -1.96700 -0.72000 -5.45300
H 1.35600 -1.75900 -5.96700
H 1.45200 -3.15700 -4.90200
H 2.71400 -0.52200 -4.79800
H 3.48700 -2.12100 -4.52900
H 2.49500 -1.30300 -3.24000
H 0.86700 -6.33300 -0.08400
H 0.40400 -5.64200 -1.68000
H -0.89100 -5.99900 -0.46300
H -1.28300 -3.58100 4.02800
H 0.69800 -4.47800 7.75500
H 0.83300 -2.61900 7.68000
H 2.00000 -3.75400 6.97600
Mg 7.88314 0.70970 0.59883
C 7.84723 -2.49737 2.18805
C 6.66426 2.00157 3.51233
C 7.47725 3.46424 -0.91918
C 8.00308 -0.96822 -2.45336
N 7.36433 -0.22984 2.53500
C 7.45344 -1.45856 3.03447
C 7.16148 -1.52666 4.56336
C 6.27381 -0.21030 4.70900
C 6.82343 0.58416 3.53739
C 4.78471 -0.45156 4.48347
C 8.46723 -1.43511 5.42264
C 8.30770 -1.81898 6.89660
H 9.40221 -2.50826 7.56315
N 7.64476 2.53905 1.30559
C 7.14993 2.88006 2.51973
C 7.17385 4.35779 2.56920
C 7.54483 4.85247 1.21430
C 7.54487 3.62332 0.46293
C 6.91314 5.14360 3.81751
C 7.84050 6.21782 0.67902
O 7.91377 6.45557 -0.57504
C 7.95609 7.30168 1.67146
N 7.53560 1.19033 -1.40263
C 7.45674 2.46417 -1.80275
C 7.48885 2.56960 -3.29867
C 7.85244 1.11088 -3.83693
C 7.88745 0.36140 -2.48219
C 6.19168 3.05031 -3.96371
C 9.07861 0.99352 -4.77669
C 10.34433 1.30614 -4.01033
N 8.09783 -1.35082 -0.04864
C 8.09912 -1.82399 -1.36879
C 8.16174 -3.29554 -1.30018
C 8.17589 -3.57873 0.06417
C 8.09883 -2.36251 0.80116
C 8.13951 -4.18333 -2.41183
C 8.21333 -4.62713 1.07080
O 8.37487 -5.84810 1.04562
C 7.87922 -3.97598 2.48509
C 8.90363 -4.47373 3.46801
O 10.10244 -4.14247 3.36551
O 8.28008 -5.06072 4.50105
C 9.23845 -5.55088 5.52742
H 6.06407 2.47913 4.28928
H 7.44827 4.39812 -1.48441
H 8.12892 -1.55492 -3.36517
H 6.58833 -2.39890 4.87820
H 6.46985 0.31115 5.64569
H 4.59413 -1.46554 4.13212
H 4.48297 0.27565 3.72940
H 4.21291 -0.20886 5.37952
H 8.75211 -0.38884 5.53320
H 9.26399 -2.03288 4.97861
H 7.36526 -2.33804 7.07353
H 8.22619 -0.90264 7.48129
H 6.50604 4.51518 4.60865
H 6.11213 5.84660 3.58974
H 7.79636 5.68829 4.15153
H 7.02423 7.37700 2.23228
H 8.25776 8.18822 1.11477
H 8.72848 7.03759 2.39438
H 8.25488 3.27190 -3.62485
H 7.03558 0.67080 -4.40942
H 6.32011 3.93855 -4.58277
H 5.45503 3.22325 -3.17966
H 5.68669 2.30231 -4.57436
H 9.00651 1.71881 -5.58644
H 9.18434 0.00549 -5.22487
H 10.38669 2.39422 -4.04377
H 11.20902 0.86628 -4.50839
H 10.25777 1.01543 -2.96320
H 8.89591 -4.94206 -2.21142
H 8.34413 -3.65641 -3.34355
H 7.11497 -4.55086 -2.35628
H 6.87117 -4.29581 2.74714
H 9.04122 -6.61353 5.66923
H 9.12836 -4.89604 6.39198
H 10.28866 -5.57380 5.23436
