158

Mg 0.00000 0.00000 0.00000
C -0.21700 -2.21800 2.80100
C -1.25500 2.44200 2.02600
C -0.24500 1.85000 -2.56400
C 0.14600 -2.82400 -2.03700
N -0.61700 -0.00900 2.12600
C -0.59400 -0.90800 3.10500
C -0.93600 -0.30900 4.50200
C -1.77300 0.96400 4.03200
C -1.15500 1.16800 2.66000
C -3.26300 0.68500 3.86300
C 0.34500 0.11000 5.29900
C 0.12400 0.39700 6.78700
H 1.16800 0.03300 7.73300
N -0.18500 1.96100 -0.15200
C -0.70300 2.80000 0.77700
C -0.62000 4.15600 0.19300
C -0.18700 4.01500 -1.22500
C -0.21400 2.58300 -1.38000
C -0.88700 5.40600 0.97400
C 0.18100 5.01300 -2.27700
O 0.30300 4.69000 -3.50800
C 0.31000 6.41400 -1.83700
N -0.26500 -0.41300 -2.02900
C -0.27900 0.56900 -2.93700
C -0.19600 0.02400 -4.33200
C 0.12400 -1.53300 -4.18000
C 0.08600 -1.63200 -2.63500
C -1.45100 0.20500 -5.19700
C 1.37300 -2.07000 -4.92300
C 2.62600 -1.49000 -4.30600
N 0.15000 -2.14400 0.30300
C 0.17300 -3.13600 -0.68800
C 0.17300 -4.43800 0.00400
C 0.13300 -4.11100 1.35800
C 0.08300 -2.69500 1.50200
C 0.14900 -5.71500 -0.62300
C 0.09600 -4.62900 2.71600
O 0.20800 -5.74700 3.22100
C -0.25500 -3.42800 3.70100
C 0.71700 -3.48200 4.84800
O 1.93100 -3.25500 4.66900
O 0.03800 -3.55600 6.00300
C 0.94300 -3.58300 7.18300
H -1.85900 3.22000 2.49700
H -0.21800 2.45300 -3.47400
H 0.27600 -3.74700 -2.60500
H -1.55400 -0.94900 5.13200
H -1.58500 1.83100 4.66500
H -3.48400 -0.37700 3.96900
H -3.51100 1.02700 2.85800
H -3.85200 1.30100 4.54300
H 0.66900 1.09600 4.96600
H 1.13000 -0.63900 5.18900
H -0.84400 0.02600 7.12500
H 0.06200 1.47700 6.92100
H -1.34400 5.18600 1.93800
H -1.65100 5.96300 0.43200
H 0.00700 6.02000 1.08400
H -0.63500 6.74400 -1.40500
H 0.66500 6.97000 -2.70400
H 1.04800 6.46600 -1.03600
H 0.60800 0.50100 -4.89100
H -0.69200 -2.15600 -4.54700
H -1.26700 0.74000 -6.12900
H -2.20400 0.71400 -4.59600
H -1.96700 -0.72000 -5.45300
H 1.35600 -1.75900 -5.96700
H 1.45200 -3.15700 -4.90200
H 2.71400 -0.52200 -4.79800
H 3.48700 -2.12100 -4.52900
H 2.49500 -1.30300 -3.24000
H 0.86700 -6.33300 -0.08400
H 0.40400 -5.64200 -1.68000
H -0.89100 -5.99900 -0.46300
H -1.28300 -3.58100 4.02800
H 0.69800 -4.47800 7.75500
H 0.83300 -2.61900 7.68000
H 2.00000 -3.75400 6.97600
Mg 7.88314 0.70970 0.59883
C 7.97813 -2.85654 0.89054
C 6.74991 0.79385 3.81625
C 7.35934 3.81413 0.21831
C 7.92153 0.28026 -2.85946
N 7.45994 -0.89464 2.06431
C 7.59488 -2.21711 2.07159
C 7.36369 -2.85401 3.47455
C 6.45398 -1.71540 4.12108
C 6.94061 -0.52661 3.31122
C 4.96286 -1.90761 3.86392
C 8.69934 -3.04080 4.27009
C 8.60517 -3.94622 5.50163
H 9.73928 -4.79458 5.83546
N 7.63261 2.14033 1.93801
C 7.17774 1.99252 3.20550
C 7.17151 3.34782 3.79694
C 7.47911 4.31957 2.71103
C 7.47679 3.45474 1.55889
C 6.94220 3.60867 5.25403
C 7.72423 5.79539 2.71026
O 7.74387 6.48105 1.63135
C 7.85452 6.44037 4.02938
N 7.44827 1.88202 -1.07275
C 7.32643 3.21012 -0.97137
C 7.29849 3.86060 -2.32268
C 7.67256 2.71646 -3.37186
C 7.77608 1.52204 -2.39160
C 5.96650 4.50768 -2.72654
C 8.86380 2.99604 -4.32224
C 10.15109 3.04748 -3.53019
N 8.11729 -0.95833 -0.77006
C 8.07789 -0.91120 -2.17110
C 8.17500 -2.30131 -2.65300
C 8.24793 -3.06683 -1.49088
C 8.17302 -2.21136 -0.35473
C 8.12913 -2.71700 -4.01298
C 8.34691 -4.41052 -0.94447
O 8.53380 -5.52989 -1.42362
C 8.05361 -4.33848 0.61905
C 9.12574 -5.12795 1.31946
O 10.31223 -4.74121 1.31328
O 8.55540 -6.07548 2.07934
C 9.56307 -6.87619 2.82475
H 6.16994 0.93042 4.73108
H 7.28833 4.88900 0.03930
H 8.02477 0.07569 -3.92667
H 6.82216 -3.80004 3.46057
H 6.67467 -1.56955 5.17831
H 4.78088 -2.72657 3.16815
H 4.61654 -0.96449 3.44074
H 4.42094 -2.03214 4.80179
H 8.96553 -2.09983 4.75153
H 9.49114 -3.40500 3.61455
H 7.68174 -4.52604 5.50038
H 8.52645 -3.31333 6.38563
H 6.57966 2.71927 5.76791
H 6.11794 4.31812 5.32463
H 7.82565 4.02191 5.74096
H 6.94358 6.27155 4.60406
H 8.11519 7.47949 3.83160
H 8.65977 5.95512 4.58169
H 8.03595 4.65958 -2.38741
H 6.84395 2.49058 -4.04347
H 6.05165 5.56542 -2.97680
H 5.25708 4.35396 -1.91389
H 5.45464 4.02056 -3.55608
H 8.74480 3.96581 -4.80424
H 8.97355 2.24706 -5.10661
H 10.16852 4.07203 -3.16027
H 11.00524 2.85222 -4.17943
H 10.11133 2.38846 -2.66267
H 8.90897 -3.46968 -4.12834
H 8.28617 -1.87703 -4.68928
H 7.11570 -3.11413 -4.06867
H 7.06359 -4.76686 0.77232
H 9.39454 -7.92239 2.56921
H 9.47226 -6.59038 3.87283
H 10.60143 -6.75334 2.51483
