158

Mg 0. 0. 0.
C -0.217 -2.218  2.801
C -1.255  2.442  2.026
C -0.245  1.85  -2.564
C  0.146 -2.824 -2.037
N -0.617 -0.009  2.126
C -0.594 -0.908  3.105
C -0.936 -0.309  4.502
C -1.773  0.964  4.032
C -1.155  1.168  2.66 
C -3.263  0.685  3.863
C 0.345 0.11  5.299
C 0.124 0.397 6.787
H 1.168 0.033 7.733
N -0.185  1.961 -0.152
C -0.703  2.8    0.777
C -0.62   4.156  0.193
C -0.187  4.015 -1.225
C -0.214  2.583 -1.38 
C -0.887  5.406  0.974
C  0.181  5.013 -2.277
O  0.303  4.69  -3.508
C  0.31   6.414 -1.837
N -0.265 -0.413 -2.029
C -0.279  0.569 -2.937
C -0.196  0.024 -4.332
C  0.124 -1.533 -4.18 
C  0.086 -1.632 -2.635
C -1.451  0.205 -5.197
C  1.373 -2.07  -4.923
C  2.626 -1.49  -4.306
N  0.15  -2.144  0.303
C  0.173 -3.136 -0.688
C  1.730e-01 -4.438e+00  4.000e-03
C  0.133 -4.111  1.358
C  0.083 -2.695  1.502
C  0.149 -5.715 -0.623
C  0.096 -4.629  2.716
O  0.208 -5.747  3.221
C -0.255 -3.428  3.701
C  0.717 -3.482  4.848
O  1.931 -3.255  4.669
O  0.038 -3.556  6.003
C  0.943 -3.583  7.183
H -1.859  3.22   2.497
H -0.218  2.453 -3.474
H  0.276 -3.747 -2.605
H -1.554 -0.949  5.132
H -1.585  1.831  4.665
H -3.484 -0.377  3.969
H -3.511  1.027  2.858
H -3.852  1.301  4.543
H 0.669 1.096 4.966
H  1.13  -0.639  5.189
H -0.844  0.026  7.125
H 0.062 1.477 6.921
H -1.344  5.186  1.938
H -1.651  5.963  0.432
H 0.007 6.02  1.084
H -0.635  6.744 -1.405
H  0.665  6.97  -2.704
H  1.048  6.466 -1.036
H  0.608  0.501 -4.891
H -0.692 -2.156 -4.547
H -1.267  0.74  -6.129
H -2.204  0.714 -4.596
H -1.967 -0.72  -5.453
H  1.356 -1.759 -5.967
H  1.452 -3.157 -4.902
H  2.714 -0.522 -4.798
H  3.487 -2.121 -4.529
H  2.495 -1.303 -3.24 
H  0.867 -6.333 -0.084
H  0.404 -5.642 -1.68 
H -0.891 -5.999 -0.463
H -1.283 -3.581  4.028
H  0.698 -4.478  7.755
H  0.833 -2.619  7.68 
H  2.    -3.754  6.976
Mg 7.88313926 0.70970039 0.59883178
C 7.26397371 3.3818881  2.89845368
C  6.99867418  2.85574993 -1.90221958
C  7.98321955 -1.75042749 -1.39976165
C  7.61216475 -1.47863486  3.29761348
N 7.23458208 2.8261873  0.62125392
C 7.09593557 3.75424433 1.56287927
C 6.82911458 5.1789663  0.99161062
C  6.21504764  4.77225472 -0.4224281 
C  6.88224385  3.41935868 -0.59691458
C  4.70288262  4.57439122 -0.39580158
C 8.14612147 6.00964743 0.82670846
C 7.9471927  7.50912066 0.58720614
H 8.9023914  8.44316646 1.1638359 
N  8.01689588  0.66447256 -1.37167922
C  7.62315167  1.63355316 -2.23257079
C  7.93241327  1.12607824 -3.58664149
C  8.36267167 -0.29349277 -3.45326288
C  8.10979016 -0.52753876 -2.05445931
C  7.85478395  1.97238883 -4.82012521
C  8.90436481 -1.28536841 -4.43350941
O  8.99521366 -2.53114357 -4.16081042
C  9.24784355 -0.76754024 -5.77026606
N  7.59196245 -1.34135773  0.85575909
C  7.7514912  -2.19386186 -0.16246058
C  7.77128826 -3.6159928   0.31407971
C  7.83538253 -3.54722207  1.90810465
C  7.75431351 -2.0104575   2.08146118
C  6.57711926 -4.48121045 -0.11179566
C  8.99555803 -4.30718967  2.59865591
C 10.313909  -3.647598   2.2610355
N 7.68286185 0.89526833 2.75208479
C  7.56470208 -0.14872093  3.68095436
C 7.34405617 0.47033007 5.00086316
C 7.33257046 1.83988882 4.74391587
C 7.50709422 2.06135945 3.34792726
C  7.12739629 -0.22639336  6.22236591
C 7.18883547 3.16682866 5.32048149
O 7.1115128  3.61036063 6.46712598
C 7.01680297 4.21334104 4.1326079 
C 7.94690974 5.36451912 4.40279195
O 9.18460238 5.2095147  4.36462678
O 7.24419413 6.50736856 4.42785019
C 8.11189992 7.69236787 4.66240785
H  6.51851612  3.36338886 -2.74108307
H  8.12263744 -2.62546985 -2.03796345
H  7.60305275 -2.09549256  4.19808922
H 6.10550849 5.76695974 1.556484  
H  6.5278921   5.45384963 -1.21317377
H 4.31301805 4.61957112 0.62099997
H  4.53084916  3.58755785 -0.82598455
H  4.20786947  5.28189918 -1.06151283
H  8.62956352  5.73457739 -0.11067154
H 8.80307853 5.86571122 1.6852047 
H 6.92641019 7.81719439 0.81524702
H  8.05631687  7.70195067 -0.48008412
H  7.35125365  2.9185245  -4.62562702
H  7.19955006  1.45494264 -5.52057291
H  8.83335203  2.12434381 -5.27580733
H  8.3601829  -0.32670977 -6.22444231
H  9.70269777 -1.59922199 -6.30716744
H  9.97016307  0.04187468 -5.66048898
H  8.65112745 -4.14038058 -0.05649612
H  6.93697137 -3.95555241  2.3715674 
H  6.86101059 -5.38052505 -0.65891902
H  5.90454954 -3.85999571 -0.70258599
H  5.92450746 -4.79261962  0.70339706
H  9.04725592 -5.33254458  2.23407307
H  8.89931066 -4.34549229  3.68379201
H 10.5644024  -4.08458689  1.29505115
H 11.06677511 -3.8971438   3.00945418
H 10.195389   -2.57415381  2.11218458
H 7.72752805 0.28426677 6.97538457
H  7.40971952 -1.27535826  6.13536462
H  6.05266087 -0.0919021   6.34365844
H 5.97186406 4.52191181 4.1355683 
H 7.71669166 8.2118141  5.53545999
H 8.14858263 8.24078412 3.72097331
H 9.13149055 7.4859929  4.98979648
