158

Mg 0. 0. 0.
C -0.217 -2.218  2.801
C -1.255  2.442  2.026
C -0.245  1.85  -2.564
C  0.146 -2.824 -2.037
N -0.617 -0.009  2.126
C -0.594 -0.908  3.105
C -0.936 -0.309  4.502
C -1.773  0.964  4.032
C -1.155  1.168  2.66 
C -3.263  0.685  3.863
C 0.345 0.11  5.299
C 0.124 0.397 6.787
H 1.168 0.033 7.733
N -0.185  1.961 -0.152
C -0.703  2.8    0.777
C -0.62   4.156  0.193
C -0.187  4.015 -1.225
C -0.214  2.583 -1.38 
C -0.887  5.406  0.974
C  0.181  5.013 -2.277
O  0.303  4.69  -3.508
C  0.31   6.414 -1.837
N -0.265 -0.413 -2.029
C -0.279  0.569 -2.937
C -0.196  0.024 -4.332
C  0.124 -1.533 -4.18 
C  0.086 -1.632 -2.635
C -1.451  0.205 -5.197
C  1.373 -2.07  -4.923
C  2.626 -1.49  -4.306
N  0.15  -2.144  0.303
C  0.173 -3.136 -0.688
C  1.730e-01 -4.438e+00  4.000e-03
C  0.133 -4.111  1.358
C  0.083 -2.695  1.502
C  0.149 -5.715 -0.623
C  0.096 -4.629  2.716
O  0.208 -5.747  3.221
C -0.255 -3.428  3.701
C  0.717 -3.482  4.848
O  1.931 -3.255  4.669
O  0.038 -3.556  6.003
C  0.943 -3.583  7.183
H -1.859  3.22   2.497
H -0.218  2.453 -3.474
H  0.276 -3.747 -2.605
H -1.554 -0.949  5.132
H -1.585  1.831  4.665
H -3.484 -0.377  3.969
H -3.511  1.027  2.858
H -3.852  1.301  4.543
H 0.669 1.096 4.966
H  1.13  -0.639  5.189
H -0.844  0.026  7.125
H 0.062 1.477 6.921
H -1.344  5.186  1.938
H -1.651  5.963  0.432
H 0.007 6.02  1.084
H -0.635  6.744 -1.405
H  0.665  6.97  -2.704
H  1.048  6.466 -1.036
H  0.608  0.501 -4.891
H -0.692 -2.156 -4.547
H -1.267  0.74  -6.129
H -2.204  0.714 -4.596
H -1.967 -0.72  -5.453
H  1.356 -1.759 -5.967
H  1.452 -3.157 -4.902
H  2.714 -0.522 -4.798
H  3.487 -2.121 -4.529
H  2.495 -1.303 -3.24 
H  0.867 -6.333 -0.084
H  0.404 -5.642 -1.68 
H -0.891 -5.999 -0.463
H -1.283 -3.581  4.028
H  0.698 -4.478  7.755
H  0.833 -2.619  7.68 
H  2.    -3.754  6.976
Mg 7.88313926 0.70970039 0.59883178
C  7.43626179  4.1505221  -0.28052054
C  7.31912425 -0.047284   -2.68018128
C  7.82240138 -2.35047984  1.42842737
C 7.28600027 1.63045549 3.90659479
N  7.44636878  1.97836288 -1.16195583
C  7.36120541  3.28758055 -1.37612239
C  7.26022993  3.66146605 -2.88522397
C  6.66802699  2.29108485 -3.44499986
C  7.20501858  1.34401336 -2.38640663
C  5.14391364  2.23380457 -3.42769432
C  8.65851268  3.98040251 -3.51356772
C  8.61869617  4.6655914  -4.88261295
H  9.63678163  5.65556209 -5.20011575
N  8.09317536 -0.91960946 -0.49847595
C  7.83299584 -1.04360484 -1.82218957
C  8.14638463 -2.44640129 -2.1695087 
C  8.42848102 -3.17671686 -0.90256166
C  8.09607832 -2.17158161  0.07446934
C  8.20379364 -2.95213711 -3.57829736
C  8.9096707  -4.56425975 -0.61740692
O  8.86570593 -5.07187642  0.5551827 
C  9.35760457 -5.35565109 -1.77762112
N  7.3804813  -0.27130195  2.37157101
C  7.49703564 -1.59912605  2.48239635
C  7.35658134 -2.04243272  3.90847166
C  7.36115783 -0.7098057   4.78815187
C 7.42512722 0.32945666 3.64180478
C  6.10145899 -2.86408885  4.23337177
C  8.41105862 -0.62061596  5.92400949
C  9.80092879 -0.54174328  5.33313047
N 7.6132627  2.57084681 1.68250408
C 7.35427153 2.71869477 3.05281009
C 7.14141961 4.15671178 3.29952678
C 7.27586248 4.74741525 2.04460067
C 7.5289996  3.73912202 1.07117457
C 6.80667891 4.74710375 4.55005466
C 7.24012792 5.99310855 1.29571602
O 7.1596118  7.18460339 1.59795797
C  7.22155795  5.64348143 -0.25774561
C  8.24881258  6.5119591  -0.93139498
O  9.46566528  6.36063646 -0.69958264
O  7.66194662  7.21603662 -1.91139763
C  8.63197224  8.07683188 -2.63957056
H  6.92655244 -0.42052004 -3.62808594
H  7.90101476 -3.38246273  1.77666472
H 7.1787807  2.00181235 4.9274038 
H  6.57547525  4.48056789 -3.10569439
H  7.07908652  2.0392377  -4.42240718
H  4.71868884  3.09503907 -2.91254386
H  4.89322203  1.31300009 -2.90065938
H  4.74914487  2.11810153 -4.43742073
H  9.15079183  3.04726132 -3.78737374
H  9.2619681   4.57749376 -2.82898786
H  7.62476681  5.05511939 -5.10460704
H  8.79038425  3.90901155 -5.64832186
H  7.78853506 -2.23008434 -4.2802554 
H  7.53020705 -3.80682349 -3.63746906
H  9.21059233 -3.25706051 -3.86414718
H  8.53736197 -5.44572213 -2.49010852
H  9.74993246 -6.28772182 -1.37243848
H 10.15115518 -4.81176267 -2.29085772
H  8.19491429 -2.67046763  4.20712867
H  6.40841843 -0.55007576  5.29357049
H  6.31755116 -3.83978471  4.66929236
H  5.51853404 -2.96502409  3.31832992
H  5.3881265  -2.36821347  4.89115698
H  8.37629515 -1.51604552  6.54364115
H 8.2666935  0.2402937  6.57688335
H 10.04679312 -1.58694264  5.14889956
H 10.4938675  -0.09794636  6.04873598
H  9.79524185 -0.0334565   4.36871448
H 7.42263529 5.64184045 4.6395699 
H 6.98740133 4.0576719  5.37444906
H 5.74638264 4.95000508 4.40019185
H  6.212971    5.85115932 -0.61375723
H  8.2542111   9.09819112 -2.59103372
H  8.76154034  7.63162811 -3.62618635
H  9.61178209  8.1975714  -2.17617699
