158

Mg 0.00000 0.00000 0.00000
C -0.21700 -2.21800 2.80100
C -1.25500 2.44200 2.02600
C -0.24500 1.85000 -2.56400
C 0.14600 -2.82400 -2.03700
N -0.61700 -0.00900 2.12600
C -0.59400 -0.90800 3.10500
C -0.93600 -0.30900 4.50200
C -1.77300 0.96400 4.03200
C -1.15500 1.16800 2.66000
C -3.26300 0.68500 3.86300
C 0.34500 0.11000 5.29900
C 0.12400 0.39700 6.78700
H 1.16800 0.03300 7.73300
N -0.18500 1.96100 -0.15200
C -0.70300 2.80000 0.77700
C -0.62000 4.15600 0.19300
C -0.18700 4.01500 -1.22500
C -0.21400 2.58300 -1.38000
C -0.88700 5.40600 0.97400
C 0.18100 5.01300 -2.27700
O 0.30300 4.69000 -3.50800
C 0.31000 6.41400 -1.83700
N -0.26500 -0.41300 -2.02900
C -0.27900 0.56900 -2.93700
C -0.19600 0.02400 -4.33200
C 0.12400 -1.53300 -4.18000
C 0.08600 -1.63200 -2.63500
C -1.45100 0.20500 -5.19700
C 1.37300 -2.07000 -4.92300
C 2.62600 -1.49000 -4.30600
N 0.15000 -2.14400 0.30300
C 0.17300 -3.13600 -0.68800
C 0.17300 -4.43800 0.00400
C 0.13300 -4.11100 1.35800
C 0.08300 -2.69500 1.50200
C 0.14900 -5.71500 -0.62300
C 0.09600 -4.62900 2.71600
O 0.20800 -5.74700 3.22100
C -0.25500 -3.42800 3.70100
C 0.71700 -3.48200 4.84800
O 1.93100 -3.25500 4.66900
O 0.03800 -3.55600 6.00300
C 0.94300 -3.58300 7.18300
H -1.85900 3.22000 2.49700
H -0.21800 2.45300 -3.47400
H 0.27600 -3.74700 -2.60500
H -1.55400 -0.94900 5.13200
H -1.58500 1.83100 4.66500
H -3.48400 -0.37700 3.96900
H -3.51100 1.02700 2.85800
H -3.85200 1.30100 4.54300
H 0.66900 1.09600 4.96600
H 1.13000 -0.63900 5.18900
H -0.84400 0.02600 7.12500
H 0.06200 1.47700 6.92100
H -1.34400 5.18600 1.93800
H -1.65100 5.96300 0.43200
H 0.00700 6.02000 1.08400
H -0.63500 6.74400 -1.40500
H 0.66500 6.97000 -2.70400
H 1.04800 6.46600 -1.03600
H 0.60800 0.50100 -4.89100
H -0.69200 -2.15600 -4.54700
H -1.26700 0.74000 -6.12900
H -2.20400 0.71400 -4.59600
H -1.96700 -0.72000 -5.45300
H 1.35600 -1.75900 -5.96700
H 1.45200 -3.15700 -4.90200
H 2.71400 -0.52200 -4.79800
H 3.48700 -2.12100 -4.52900
H 2.49500 -1.30300 -3.24000
H 0.86700 -6.33300 -0.08400
H 0.40400 -5.64200 -1.68000
H -0.89100 -5.99900 -0.46300
H -1.28300 -3.58100 4.02800
H 0.69800 -4.47800 7.75500
H 0.83300 -2.61900 7.68000
H 2.00000 -3.75400 6.97600
Mg 7.88314 0.70970 0.59883
C 7.95275 0.69113 -2.97986
C 7.31531 -2.65192 0.45690
C 7.36643 0.77482 3.72699
C 7.32423 4.14516 0.42307
N 7.68221 -0.68955 -1.10480
C 7.78912 -0.58023 -2.42533
C 7.78669 -1.95352 -3.16116
C 7.02381 -2.82489 -2.06539
C 7.39011 -2.02974 -0.82463
C 5.50703 -2.81364 -2.22594
C 9.23400 -2.49368 -3.41664
C 9.33189 -3.65612 -4.40887
H 10.48850 -3.73030 -5.28871
N 7.89347 -0.75023 1.92975
C 7.65773 -2.06320 1.69344
C 7.78009 -2.74120 3.00188
C 7.91859 -1.69007 4.04784
C 7.70262 -0.49714 3.26961
C 7.80724 -4.23077 3.15739
C 8.19041 -1.75161 5.51769
O 8.04050 -0.73639 6.28021
C 8.55631 -3.07122 6.06341
N 7.19472 2.19525 1.89377
C 7.11931 1.98099 3.21187
C 6.87549 3.25824 3.95961
C 7.04209 4.43408 2.89218
C 7.28608 3.57281 1.62848
C 5.50787 3.38160 4.64547
C 8.05995 5.55205 3.23063
C 9.46392 4.99022 3.21339
N 7.84673 2.21281 -0.96654
C 7.57072 3.57958 -0.81678
C 7.55580 4.16794 -2.16870
C 7.80941 3.09243 -3.01771
C 7.94639 1.90266 -2.24700
C 7.27085 5.52594 -2.48346
C 7.97210 2.66728 -4.39852
O 8.05168 3.24917 -5.48137
C 7.95039 1.07550 -4.43856
C 9.10947 0.62632 -5.28595
O 10.28536 0.80801 -4.90962
O 8.65718 -0.15108 -6.28176
C 9.76016 -0.65471 -7.14312
H 6.90224 -3.65980 0.53101
H 7.28821 0.86268 4.81263
H 7.24031 5.22605 0.29622
H 7.23127 -1.96559 -4.09913
H 7.42397 -3.83642 -1.99905
H 5.19258 -2.10317 -2.99032
H 5.11335 -2.52361 -1.25158
H 5.12998 -3.81920 -2.41422
H 9.59750 -2.98774 -2.51562
H 9.89515 -1.68832 -3.73848
H 8.40993 -3.77188 -4.97939
H 9.41766 -4.58301 -3.84167
H 7.51906 -4.73497 2.23583
H 7.02179 -4.49123 3.86657
H 8.76893 -4.58737 3.52661
H 7.75304 -3.77985 5.86056
H 8.80094 -2.90565 7.11202
H 9.43355 -3.44198 5.53244
H 7.60754 3.39155 4.75506
H 6.10689 4.96832 2.72286
H 5.57104 3.56741 5.71794
H 4.94390 2.47251 4.43863
H 4.85251 4.14368 4.22455
H 7.88077 5.93688 4.23400
H 8.01929 6.39454 2.54013
H 9.56512 4.55732 4.20797
H 10.19106 5.78812 3.05906
H 9.55863 4.17742 2.49306
H 8.00403 5.82584 -3.23211
H 7.32793 6.15811 -1.59762
H 6.25473 5.43539 -2.86706
H 6.99222 0.78580 -4.86879
H 9.52910 -0.35852 -8.16641
H 9.85475 -1.72040 -6.93395
H 10.73304 -0.18122 -7.00652
