158

Mg 0. 0. 0.
C -0.217 -2.218  2.801
C -1.255  2.442  2.026
C -0.245  1.85  -2.564
C  0.146 -2.824 -2.037
N -0.617 -0.009  2.126
C -0.594 -0.908  3.105
C -0.936 -0.309  4.502
C -1.773  0.964  4.032
C -1.155  1.168  2.66 
C -3.263  0.685  3.863
C 0.345 0.11  5.299
C 0.124 0.397 6.787
H 1.168 0.033 7.733
N -0.185  1.961 -0.152
C -0.703  2.8    0.777
C -0.62   4.156  0.193
C -0.187  4.015 -1.225
C -0.214  2.583 -1.38 
C -0.887  5.406  0.974
C  0.181  5.013 -2.277
O  0.303  4.69  -3.508
C  0.31   6.414 -1.837
N -0.265 -0.413 -2.029
C -0.279  0.569 -2.937
C -0.196  0.024 -4.332
C  0.124 -1.533 -4.18 
C  0.086 -1.632 -2.635
C -1.451  0.205 -5.197
C  1.373 -2.07  -4.923
C  2.626 -1.49  -4.306
N  0.15  -2.144  0.303
C  0.173 -3.136 -0.688
C  1.730e-01 -4.438e+00  4.000e-03
C  0.133 -4.111  1.358
C  0.083 -2.695  1.502
C  0.149 -5.715 -0.623
C  0.096 -4.629  2.716
O  0.208 -5.747  3.221
C -0.255 -3.428  3.701
C  0.717 -3.482  4.848
O  1.931 -3.255  4.669
O  0.038 -3.556  6.003
C  0.943 -3.583  7.183
H -1.859  3.22   2.497
H -0.218  2.453 -3.474
H  0.276 -3.747 -2.605
H -1.554 -0.949  5.132
H -1.585  1.831  4.665
H -3.484 -0.377  3.969
H -3.511  1.027  2.858
H -3.852  1.301  4.543
H 0.669 1.096 4.966
H  1.13  -0.639  5.189
H -0.844  0.026  7.125
H 0.062 1.477 6.921
H -1.344  5.186  1.938
H -1.651  5.963  0.432
H 0.007 6.02  1.084
H -0.635  6.744 -1.405
H  0.665  6.97  -2.704
H  1.048  6.466 -1.036
H  0.608  0.501 -4.891
H -0.692 -2.156 -4.547
H -1.267  0.74  -6.129
H -2.204  0.714 -4.596
H -1.967 -0.72  -5.453
H  1.356 -1.759 -5.967
H  1.452 -3.157 -4.902
H  2.714 -0.522 -4.798
H  3.487 -2.121 -4.529
H  2.495 -1.303 -3.24 
H  0.867 -6.333 -0.084
H  0.404 -5.642 -1.68 
H -0.891 -5.999 -0.463
H -1.283 -3.581  4.028
H  0.698 -4.478  7.755
H  0.833 -2.619  7.68 
H  2.    -3.754  6.976
Mg 7.88313926 0.70970039 0.59883178
C  8.00815078  0.01752669 -2.91079522
C  7.26426925 -2.61115361  1.08048893
C 7.3188968  1.36852793 3.64911009
C  7.38166551  4.05759992 -0.22927075
N  7.68656004 -0.98232794 -0.8150433 
C  7.81573019 -1.12468054 -2.13042226
C  7.80295247 -2.61171097 -2.59512777
C  7.00935501 -3.25170524 -1.36931848
C  7.36888396 -2.24209716 -0.29351439
C  5.49563623 -3.2516315  -1.55682169
C  9.24529434 -3.20858259 -2.71811229
C  9.34015036 -4.53803004 -3.472384  
H 10.50898776 -4.79101275 -4.30133929
N  7.84956274 -0.47388338  2.18024004
C  7.5967039  -1.80476408  2.19048538
C  7.68789684 -2.22607963  3.60500228
C  7.82677835 -0.99882883  4.4372651 
C 7.6419197  0.02908752 3.44499837
C  7.68896337 -3.66004621  4.03800194
C  8.07467204 -0.78627353  5.89723119
O 7.92905162 0.35605541 6.45261691
C  8.41102742 -1.98422382  6.68768812
N 7.19832501 2.42088336 1.57889162
C 7.0990159  2.45931892 2.91217494
C 6.86389866 3.85739692 3.40211043
C 7.06574906 4.80929603 2.13605455
C 7.31566687 3.72269733 1.06129209
C 5.48789927 4.12487153 4.02748553
C 8.09584116 5.95797039 2.27703854
C 9.49081494 5.38517683 2.39129126
N  7.894977    1.8919151  -1.22140811
C  7.63841058  3.26584813 -1.33610636
C  7.65388253  3.58958923 -2.77451531
C  7.90356744  2.37047252 -3.40161727
C  8.00962393  1.34525077 -2.4187824 
C  7.39547863  4.86766036 -3.34389709
C  8.08096063  1.69118886 -4.67478748
O  8.18662126  2.05798061 -5.846023  
C  8.03460129  0.12069245 -4.4155215 
C  9.19945087 -0.49450015 -5.14213867
O 10.37208123 -0.26019141 -4.78520246
O  8.75042568 -1.43951254 -5.98229935
C  9.85854222 -2.11009462 -6.71342958
H  6.83413797 -3.58179106  1.33502975
H 7.22519292 1.65998303 4.69730449
H  7.31691077  5.09631873 -0.55839544
H  7.26207696 -2.79293439 -3.52412495
H  7.39232316 -4.2376944  -1.10686319
H  5.20444213 -2.69366989 -2.44665642
H  5.09149079 -2.77855661 -0.66163478
H  5.10563277 -4.26979939 -1.55973109
H  9.58683701 -3.52892903 -1.73384213
H  9.92408749 -2.48655843 -3.17335616
H  8.42545693 -4.74733404 -4.02775484
H  9.40234687 -5.34271708 -2.73971056
H  7.4071928  -4.32487635  3.22243389
H  6.88853115 -3.77250649  4.76900805
H  8.63900435 -3.95300199  4.48513845
H  7.59985996 -2.70812396  6.60691097
H  8.64190551 -1.6275074   7.69083252
H  9.29042928 -2.45932424  6.2519348 
H 7.58550402 4.12864553 4.17161409
H 6.14190129 5.31396061 1.85234173
H 5.53731021 4.50824599 5.04694008
H 4.91285439 3.20032131 3.98480923
H 4.85136179 4.80242357 3.45901366
H 7.90720547 6.52688705 3.18681676
H 8.07932192 6.65600949 1.43994861
H 9.56962571 5.14580957 3.45116115
H 10.2328522   6.13054134  2.10315337
H 9.58380145 4.45027483 1.83830143
H  8.1448923   5.01209623 -4.12202718
H  7.44878938  5.65437453 -2.59167254
H  6.38414198  4.71946215 -3.72217143
H  7.07876408 -0.23259145 -4.80112198
H  9.64817675 -2.00873996 -7.77818664
H  9.93293034 -3.11854388 -6.30611951
H 10.83657284 -1.63173498 -6.65044421
