158

Mg 0. 0. 0.
C -0.217 -2.218  2.801
C -1.255  2.442  2.026
C -0.245  1.85  -2.564
C  0.146 -2.824 -2.037
N -0.617 -0.009  2.126
C -0.594 -0.908  3.105
C -0.936 -0.309  4.502
C -1.773  0.964  4.032
C -1.155  1.168  2.66 
C -3.263  0.685  3.863
C 0.345 0.11  5.299
C 0.124 0.397 6.787
H 1.168 0.033 7.733
N -0.185  1.961 -0.152
C -0.703  2.8    0.777
C -0.62   4.156  0.193
C -0.187  4.015 -1.225
C -0.214  2.583 -1.38 
C -0.887  5.406  0.974
C  0.181  5.013 -2.277
O  0.303  4.69  -3.508
C  0.31   6.414 -1.837
N -0.265 -0.413 -2.029
C -0.279  0.569 -2.937
C -0.196  0.024 -4.332
C  0.124 -1.533 -4.18 
C  0.086 -1.632 -2.635
C -1.451  0.205 -5.197
C  1.373 -2.07  -4.923
C  2.626 -1.49  -4.306
N  0.15  -2.144  0.303
C  0.173 -3.136 -0.688
C  1.730e-01 -4.438e+00  4.000e-03
C  0.133 -4.111  1.358
C  0.083 -2.695  1.502
C  0.149 -5.715 -0.623
C  0.096 -4.629  2.716
O  0.208 -5.747  3.221
C -0.255 -3.428  3.701
C  0.717 -3.482  4.848
O  1.931 -3.255  4.669
O  0.038 -3.556  6.003
C  0.943 -3.583  7.183
H -1.859  3.22   2.497
H -0.218  2.453 -3.474
H  0.276 -3.747 -2.605
H -1.554 -0.949  5.132
H -1.585  1.831  4.665
H -3.484 -0.377  3.969
H -3.511  1.027  2.858
H -3.852  1.301  4.543
H 0.669 1.096 4.966
H  1.13  -0.639  5.189
H -0.844  0.026  7.125
H 0.062 1.477 6.921
H -1.344  5.186  1.938
H -1.651  5.963  0.432
H 0.007 6.02  1.084
H -0.635  6.744 -1.405
H  0.665  6.97  -2.704
H  1.048  6.466 -1.036
H  0.608  0.501 -4.891
H -0.692 -2.156 -4.547
H -1.267  0.74  -6.129
H -2.204  0.714 -4.596
H -1.967 -0.72  -5.453
H  1.356 -1.759 -5.967
H  1.452 -3.157 -4.902
H  2.714 -0.522 -4.798
H  3.487 -2.121 -4.529
H  2.495 -1.303 -3.24 
H  0.867 -6.333 -0.084
H  0.404 -5.642 -1.68 
H -0.891 -5.999 -0.463
H -1.283 -3.581  4.028
H  0.698 -4.478  7.755
H  0.833 -2.619  7.68 
H  2.    -3.754  6.976
Mg 7.88313926 0.70970039 0.59883178
C 7.31475987 4.17560826 1.28922406
C  7.18803974  1.39994139 -2.66972585
C  7.93324261 -2.41184975  0.04202358
C 7.41604273 0.10754774 3.99955142
N  7.33627911  2.58869531 -0.43604409
C  7.21027548  3.85961861 -0.06719717
C  7.03156658  4.83651793 -1.26765743
C  6.44718993  3.81236473 -2.34078937
C  7.05439171  2.52737345 -1.80597406
C  4.92725581  3.69066881 -2.30215828
C  8.39168359  5.44992635 -1.7425709 
C  8.27304256  6.65097108 -2.68531682
H  9.25169918  7.72271291 -2.58068094
N  8.08153398 -0.2864298  -1.09563397
C  7.76415694  0.15498857 -2.33648353
C  8.09465004 -0.95183575 -3.25973607
C  8.45165734 -2.14020424 -2.43607345
C  8.14042026 -1.66190405 -1.11329667
C  8.09963891 -0.80610394 -4.75053698
C  8.97826991 -3.49591001 -2.786606  
O  9.00003568 -4.4561938  -1.94283156
C  9.39142489 -3.69823672 -4.18710907
N  7.48551748 -0.95298714  1.79674751
C  7.63859052 -2.19539381  1.32560177
C  7.57404857 -3.20955364  2.42889374
C  7.58709807 -2.37997741  3.79321994
C  7.57385388 -0.94960726  3.19980961
C  6.35500132 -4.14207084  2.41028019
C  8.6853906  -2.740374    4.82486272
C 10.04453308 -2.36022418  4.28143302
N 7.61884158 1.91869704 2.38195232
C 7.41929916 1.45766815 3.69126862
C 7.18377332 2.6433235  4.53555351
C 7.24662472 3.71749755 3.65009046
C 7.47894145 3.23155372 2.33169009
C 6.89257331 2.6301618  5.92819967
C 7.14705934 5.16093347 3.50713429
O 7.05209948 6.10557347 4.29207434
C 7.06584233 5.50628063 1.95472772
C 8.04027186 6.620391   1.6853689 
O 9.26970421 6.43478933 1.79220571
O 7.39263808 7.65024651 1.11923277
C 8.30760572 8.7783027  0.79911177
H  6.76155424  1.45052075 -3.67346529
H  8.05223256 -3.48964361 -0.08697166
H 7.34677735e+00 3.68555694e-03 5.08392587e+00
H  6.31814726  5.64259915 -1.09534971
H  6.8190302   4.01820172 -3.34432709
H  4.50563713  4.23196411 -1.45530641
H  4.72290286  2.6236295  -2.21182566
H  4.48962041  4.00023897 -3.25158893
H  8.89300892  4.74354263 -2.40420219
H  9.01140952  5.72252722 -0.88761211
H  7.26101564  7.05680483 -2.68839569
H  8.42751931  6.30063148 -3.70590444
H  7.63566351  0.1285398  -5.06312761
H  7.44458871 -1.58091475 -5.14838925
H  9.09929515 -0.91851461 -5.17051703
H  8.54185483 -3.50964612 -4.84377741
H  9.82393663 -4.69713298 -4.23171678
H 10.1475187  -2.95541684 -4.44301881
H  8.43986699 -3.86998595  2.40412213
H  6.6549201  -2.49013742  4.3478216 
H  6.61395472 -5.20072489  2.38028445
H  5.73343533 -3.86723125  1.55857019
H  5.66087359 -4.00356606  3.23878494
H  8.70030662 -3.81508302  5.00297512
H  8.55056029 -2.24654078  5.78725585
H 10.30653213 -3.216165    3.66050321
H 10.75869046 -2.23570581  5.09610191
H  9.98267932 -1.49009405  3.62757244
H 7.49050319 3.42586871 6.3723836 
H 7.12714304 1.66319026 6.37266126
H 5.82200674 2.83387501 5.9125749 
H 6.03738151 5.80429116 1.75328282
H 7.90825126 9.66511684 1.2913624 
H  8.40251053  8.80177374 -0.28663553
H 9.3044172  8.73013766 1.23886854
