158

Mg 0. 0. 0.
C -0.217 -2.218  2.801
C -1.255  2.442  2.026
C -0.245  1.85  -2.564
C  0.146 -2.824 -2.037
N -0.617 -0.009  2.126
C -0.594 -0.908  3.105
C -0.936 -0.309  4.502
C -1.773  0.964  4.032
C -1.155  1.168  2.66 
C -3.263  0.685  3.863
C 0.345 0.11  5.299
C 0.124 0.397 6.787
H 1.168 0.033 7.733
N -0.185  1.961 -0.152
C -0.703  2.8    0.777
C -0.62   4.156  0.193
C -0.187  4.015 -1.225
C -0.214  2.583 -1.38 
C -0.887  5.406  0.974
C  0.181  5.013 -2.277
O  0.303  4.69  -3.508
C  0.31   6.414 -1.837
N -0.265 -0.413 -2.029
C -0.279  0.569 -2.937
C -0.196  0.024 -4.332
C  0.124 -1.533 -4.18 
C  0.086 -1.632 -2.635
C -1.451  0.205 -5.197
C  1.373 -2.07  -4.923
C  2.626 -1.49  -4.306
N  0.15  -2.144  0.303
C  0.173 -3.136 -0.688
C  1.730e-01 -4.438e+00  4.000e-03
C  0.133 -4.111  1.358
C  0.083 -2.695  1.502
C  0.149 -5.715 -0.623
C  0.096 -4.629  2.716
O  0.208 -5.747  3.221
C -0.255 -3.428  3.701
C  0.717 -3.482  4.848
O  1.931 -3.255  4.669
O  0.038 -3.556  6.003
C  0.943 -3.583  7.183
H -1.859  3.22   2.497
H -0.218  2.453 -3.474
H  0.276 -3.747 -2.605
H -1.554 -0.949  5.132
H -1.585  1.831  4.665
H -3.484 -0.377  3.969
H -3.511  1.027  2.858
H -3.852  1.301  4.543
H 0.669 1.096 4.966
H  1.13  -0.639  5.189
H -0.844  0.026  7.125
H 0.062 1.477 6.921
H -1.344  5.186  1.938
H -1.651  5.963  0.432
H 0.007 6.02  1.084
H -0.635  6.744 -1.405
H  0.665  6.97  -2.704
H  1.048  6.466 -1.036
H  0.608  0.501 -4.891
H -0.692 -2.156 -4.547
H -1.267  0.74  -6.129
H -2.204  0.714 -4.596
H -1.967 -0.72  -5.453
H  1.356 -1.759 -5.967
H  1.452 -3.157 -4.902
H  2.714 -0.522 -4.798
H  3.487 -2.121 -4.529
H  2.495 -1.303 -3.24 
H  0.867 -6.333 -0.084
H  0.404 -5.642 -1.68 
H -0.891 -5.999 -0.463
H -1.283 -3.581  4.028
H  0.698 -4.478  7.755
H  0.833 -2.619  7.68 
H  2.    -3.754  6.976
Mg 7.88313926 0.70970039 0.59883178
C  7.66613926 -1.50829961  3.39983178
C 6.62813926 3.15170039 2.62483178
C  7.63813926  2.55970039 -1.96516822
C  8.02913926 -2.11429961 -1.43816822
N 7.26613926 0.70070039 2.72483178
C  7.28913926 -0.19829961  3.70383178
C 6.94713926 0.40070039 5.10083178
C 6.11013926 1.67370039 4.63083178
C 6.72813926 1.87770039 3.25883178
C 4.62013926 1.39470039 4.46183178
C 8.22813926 0.81970039 5.89783178
C 8.00713926 1.10670039 7.38583178
H 9.05113926 0.74270039 8.33183178
N 7.69813926 2.67070039 0.44683178
C 7.18013926 3.50970039 1.37583178
C 7.26313926 4.86570039 0.79183178
C  7.69613926  4.72470039 -0.62616822
C  7.66913926  3.29270039 -0.78116822
C 6.99613926 6.11570039 1.57283178
C  8.06413926  5.72270039 -1.67816822
O  8.18613926  5.39970039 -2.90916822
C  8.19313926  7.12370039 -1.23816822
N  7.61813926  0.29670039 -1.43016822
C  7.60413926  1.27870039 -2.33816822
C  7.68713926  0.73370039 -3.73316822
C  8.00713926 -0.82329961 -3.58116822
C  7.96913926 -0.92229961 -2.03616822
C  6.43213926  0.91470039 -4.59816822
C  9.25613926 -1.36029961 -4.32416822
C 10.50913926 -0.78029961 -3.70716822
N  8.03313926 -1.43429961  0.90183178
C  8.05613926 -2.42629961 -0.08916822
C  8.05613926 -3.72829961  0.60283178
C  8.01613926 -3.40129961  1.95683178
C  7.96613926 -1.98529961  2.10083178
C  8.03213926 -5.00529961 -0.02416822
C  7.97913926 -3.91929961  3.31483178
O  8.09113926 -5.03729961  3.81983178
C  7.62813926 -2.71829961  4.29983178
C  8.60013926 -2.77229961  5.44683178
O  9.81413926 -2.54529961  5.26783178
O  7.92113926 -2.84629961  6.60183178
C  8.82613926 -2.87329961  7.78183178
H 6.02413926 3.92970039 3.09583178
H  7.66513926  3.16270039 -2.87516822
H  8.15913926 -3.03729961 -2.00616822
H  6.32913926 -0.23929961  5.73083178
H 6.29813926 2.54070039 5.26383178
H 4.39913926 0.33270039 4.56783178
H 4.37213926 1.73670039 3.45683178
H 4.03113926 2.01070039 5.14183178
H 8.55213926 1.80570039 5.56483178
H 9.01313926 0.07070039 5.78783178
H 7.03913926 0.73570039 7.72383178
H 7.94513926 2.18670039 7.51983178
H 6.53913926 5.89570039 2.53683178
H 6.23213926 6.67270039 1.03083178
H 7.89013926 6.72970039 1.68283178
H  7.24813926  7.45370039 -0.80616822
H  8.54813926  7.67970039 -2.10516822
H  8.93113926  7.17570039 -0.43716822
H  8.49113926  1.21070039 -4.29216822
H  7.19113926 -1.44629961 -3.94816822
H  6.61613926  1.44970039 -5.53016822
H  5.67913926  1.42370039 -3.99716822
H  5.91613926 -0.01029961 -4.85416822
H  9.23913926 -1.04929961 -5.36816822
H  9.33513926 -2.44729961 -4.30316822
H 10.59713926  0.18770039 -4.19916822
H 11.37013926 -1.41129961 -3.93016822
H 10.37813926 -0.59329961 -2.64116822
H  8.75013926 -5.62329961  0.51483178
H  8.28713926 -4.93229961 -1.08116822
H  6.99213926 -5.28929961  0.13583178
H  6.60013926 -2.87129961  4.62683178
H  8.58113926 -3.76829961  8.35383178
H  8.71613926 -1.90929961  8.27883178
H  9.88313926 -3.04429961  7.57483178
