158

Mg 0. 0. 0.
C -0.217 -2.218  2.801
C -1.255  2.442  2.026
C -0.245  1.85  -2.564
C  0.146 -2.824 -2.037
N -0.617 -0.009  2.126
C -0.594 -0.908  3.105
C -0.936 -0.309  4.502
C -1.773  0.964  4.032
C -1.155  1.168  2.66 
C -3.263  0.685  3.863
C 0.345 0.11  5.299
C 0.124 0.397 6.787
H 1.168 0.033 7.733
N -0.185  1.961 -0.152
C -0.703  2.8    0.777
C -0.62   4.156  0.193
C -0.187  4.015 -1.225
C -0.214  2.583 -1.38 
C -0.887  5.406  0.974
C  0.181  5.013 -2.277
O  0.303  4.69  -3.508
C  0.31   6.414 -1.837
N -0.265 -0.413 -2.029
C -0.279  0.569 -2.937
C -0.196  0.024 -4.332
C  0.124 -1.533 -4.18 
C  0.086 -1.632 -2.635
C -1.451  0.205 -5.197
C  1.373 -2.07  -4.923
C  2.626 -1.49  -4.306
N  0.15  -2.144  0.303
C  0.173 -3.136 -0.688
C  1.730e-01 -4.438e+00  4.000e-03
C  0.133 -4.111  1.358
C  0.083 -2.695  1.502
C  0.149 -5.715 -0.623
C  0.096 -4.629  2.716
O  0.208 -5.747  3.221
C -0.255 -3.428  3.701
C  0.717 -3.482  4.848
O  1.931 -3.255  4.669
O  0.038 -3.556  6.003
C  0.943 -3.583  7.183
H -1.859  3.22   2.497
H -0.218  2.453 -3.474
H  0.276 -3.747 -2.605
H -1.554 -0.949  5.132
H -1.585  1.831  4.665
H -3.484 -0.377  3.969
H -3.511  1.027  2.858
H -3.852  1.301  4.543
H 0.669 1.096 4.966
H  1.13  -0.639  5.189
H -0.844  0.026  7.125
H 0.062 1.477 6.921
H -1.344  5.186  1.938
H -1.651  5.963  0.432
H 0.007 6.02  1.084
H -0.635  6.744 -1.405
H  0.665  6.97  -2.704
H  1.048  6.466 -1.036
H  0.608  0.501 -4.891
H -0.692 -2.156 -4.547
H -1.267  0.74  -6.129
H -2.204  0.714 -4.596
H -1.967 -0.72  -5.453
H  1.356 -1.759 -5.967
H  1.452 -3.157 -4.902
H  2.714 -0.522 -4.798
H  3.487 -2.121 -4.529
H  2.495 -1.303 -3.24 
H  0.867 -6.333 -0.084
H  0.404 -5.642 -1.68 
H -0.891 -5.999 -0.463
H -1.283 -3.581  4.028
H  0.698 -4.478  7.755
H  0.833 -2.619  7.68 
H  2.    -3.754  6.976
Mg 7.88313926 0.70970039 0.59883178
C  7.51200895 -0.31075371  4.00957213
C 6.65692252 3.75417636 1.53190393
C  7.77345986  1.48591347 -2.47396575
C  7.98860903 -2.6696551  -0.24644545
N 7.20719739 1.50047161 2.552912  
C 7.17197157 1.02668764 3.79446703
C 6.81198732 2.10685939 4.8579586 
C 6.03269421 3.13383649 3.91986571
C 6.69533417 2.80286063 2.59423859
C 4.53926629 2.8445015  3.80823996
C 8.08393799 2.76288166 5.49318083
C 7.83156691 3.58423389 6.76087296
H 8.83566343 3.57310293 7.81397043
N  7.77001339  2.4791851  -0.27236074
C 7.25549755 3.61314814 0.26120019
C  7.40133411  4.65514954 -0.77785985
C  7.86856928  3.99069837 -2.02617469
C  7.79665435  2.60375378 -1.64330272
C  7.15583418  6.11076602 -0.52357566
C  8.29985137  4.52099088 -3.35693298
O  8.44492029  3.76332851 -4.37648031
C  8.46465892  5.98226131 -3.45973955
N  7.66072642 -0.41811284 -1.14363912
C  7.7058203   0.15881924 -2.34949977
C  7.8088603  -0.86483584 -3.44103632
C  8.07075125 -2.26195513 -2.71355862
C  7.98633433 -1.78207426 -1.24357286
C  6.58541858 -0.98918977 -4.35958815
C  9.3207566  -3.06248058 -3.15747826
C 10.57528842 -2.32281874 -2.74986536
N  7.95079697 -1.17321305  1.67637733
C  7.96726245 -2.46148801  1.12252672
C  7.90319288 -3.41520981  2.24519221
C  7.83675401 -2.61014929  3.3806694 
C  7.83150053 -1.24046404  2.99050695
C  7.85275836 -4.83268186  2.13266065
C  7.74413309 -2.5886302   4.83146755
O  7.80349366 -3.44296893  5.71694746
C  7.40734585 -1.10131372  5.29004256
C  8.34457632 -0.74862394  6.41277046
O  9.57018242 -0.63022923  6.20969811
O  7.63151442 -0.37576525  7.4865773 
C 8.50181988 0.01565496 8.62741586
H 6.06715395 4.66406446 1.65925254
H  7.84653183  1.70914908 -3.54039172
H  8.10255706 -3.73981463 -0.42872937
H 6.15502363 1.75857866 5.65515572
H 6.23269695 4.16910522 4.19543705
H 4.27899709 1.90193446 4.28964242
H 4.33127657 2.79613377 2.73917783
H 3.95308688 3.68082113 4.18999926
H 8.45081679 3.54871857 4.83293747
H 8.8454681  2.00943236 5.6974161 
H 6.84233586 3.38550425 7.17419786
H 7.80304556 4.63835931 6.48481837
H 6.66485418 6.2725944  0.43522317
H  6.42684556  6.44442841 -1.26178566
H  8.06701416  6.70241037 -0.6132417 
H  7.51990029  6.46896221 -3.21662976
H  8.86259445  6.17061874 -4.45624283
H  9.18140581  6.31061212 -2.70647422
H  8.64405624 -0.64576345 -4.10502505
H  7.24434604 -2.95863644 -2.8562597 
H  6.81361046 -0.84065669 -5.41532078
H  5.83392038 -0.27790943 -4.01808893
H  6.0452378  -1.93188974 -4.27629055
H  9.34356069 -3.15906732 -4.24241926
H  9.36170168 -4.06619009 -2.7342269 
H 10.71020963 -1.60735206 -3.56025767
H 11.41995172 -3.01006469 -2.69114638
H 10.42114741 -1.75228015 -1.83378007
H  8.5337773  -5.2231212   2.88879512
H  8.13947093 -5.16105768  1.13387728
H  6.79955031 -5.0148205   2.34581392
H  6.36597922 -1.10029914  5.61047434
H  8.2103347  -0.59902807  9.47914067
H 8.41124091 1.09722634 8.72941493
H  9.55766903 -0.24261379  8.53899172
