79

Mg 7.88314 0.70970 0.59883
C 7.42154 0.57912 4.14596
C 6.70510 3.91005 0.71298
C 7.85204 0.69591 -2.57220
C 7.93187 -2.77492 0.62527
N 7.18554 1.97403 2.27677
C 7.11511 1.82582 3.59595
C 6.75749 3.14293 4.34742
C 6.01974 3.91562 3.16392
C 6.70146 3.25357 1.97949
C 4.52290 3.63166 3.09083
C 8.03045 3.91619 4.83053
C 7.77066 5.03196 5.84686
H 8.75296 5.26791 6.89413
N 7.82610 2.20726 -0.68838
C 7.32582 3.44665 -0.46720
C 7.51514 4.19378 -1.72920
C 7.99272 3.23131 -2.76053
C 7.88293 1.98520 -2.04601
C 7.29637 5.67055 -1.85187
C 8.46206 3.40559 -4.17031
O 8.61099 2.41516 -4.96495
C 8.66070 4.79208 -4.62990
N 7.67119 -0.81366 -0.81258
C 7.75302 -0.55683 -2.12266
C 7.85559 -1.82209 -2.92175
C 8.07233 -2.99740 -1.86277
C 7.96893 -2.16445 -0.56132
C 6.64840 -2.15210 -3.81045
C 9.31325 -3.90342 -2.06198
C 10.57517 -3.10571 -1.82050
N 7.88812 -0.84544 2.11295
C 7.88761 -2.23128 1.89821
C 7.78027 -2.87338 3.22118
C 7.70864 -1.80939 4.11819
C 7.74106 -0.58057 3.39900
C 7.70123 -4.27307 3.46423
C 7.58743 -1.42489 5.51509
O 7.61039 -2.03197 6.58673
C 7.27401 0.13504 5.58003
C 8.19600 0.74170 6.60238
O 9.42772 0.78591 6.40674
O 7.46985 1.38225 7.53132
C 8.32542 2.03201 8.55989
H 6.13286 4.83230 0.59486
H 7.95134 0.64465 -3.65846
H 8.02610 -3.85839 0.71832
H 6.07724 3.01531 5.18967
H 6.23669 4.98354 3.17768
H 4.23255 2.84343 3.78532
H 4.33538 3.32130 2.06273
H 3.94754 4.54613 3.23744
H 8.42753 4.50631 4.00461
H 8.77113 3.22542 5.23495
H 6.76925 4.95866 6.27195
H 7.77066 5.98411 5.31620
H 6.78990 6.07449 -0.97616
H 6.58977 5.82106 -2.66782
H 8.22184 6.20633 -2.06347
H 7.72209 5.33920 -4.53931
H 9.08255 4.71927 -5.63170
H 9.36918 5.28649 -3.96466
H 8.70851 -1.78919 -3.59841
H 7.23397 -3.69424 -1.84785
H 6.90090 -2.27551 -4.86388
H 5.90588 -1.36608 -3.67577
H 6.08624 -3.03533 -3.50831
H 9.35569 -4.26814 -3.08771
H 9.32381 -4.77021 -1.40107
H 10.74188 -2.61747 -2.78001
H 11.40331 -3.77005 -1.57139
H 10.41516 -2.32214 -1.07963
H 8.35828 -4.47330 4.31049
H 8.00069 -4.84496 2.58623
H 6.64024 -4.37925 3.68980
H 6.22670 0.23278 5.86411
H 8.00359 1.65419 9.53041
H 8.25641 3.10612 8.38685
H 9.37695 1.74288 8.56489
