79

Mg 7.88313926 0.70970039 0.59883178
C  7.87125959 -2.59122731  1.98300994
C 6.67530913 1.80946517 3.59461696
C  7.45573505  3.5523235  -0.74036219
C  7.99303448 -0.77205834 -2.55362363
N  7.3799466  -0.35246386  2.47479827
C  7.47762259 -1.60974505  2.89536266
C  7.19488415 -1.77544498  4.41850957
C  6.30202213 -0.4752841   4.65169859
C 6.84114827 0.39409171 3.52944519
C  4.81275904 -0.70925329  4.41962996
C  8.50517635 -1.73170354  5.27463574
C  8.35599408 -2.20842815  6.72233471
H  9.45753019 -2.93286737  7.33808955
N 7.640452   2.48970369 1.42074489
C 7.15113503 2.75112201 2.65667181
C 7.16853687 4.22289572 2.79901065
C 7.5293379  4.80375988 1.47594095
C 7.53066613 3.62438182 0.64862987
C 6.91148259 4.9272359  4.09576737
C 7.81560121 6.20156012 1.02611897
O  7.88047263  6.5181737  -0.21086185
C 7.93196956 7.22132936 2.08421684
N  7.52173984  1.31368863 -1.36642231
C  7.43469111  2.60979143 -1.68505073
C  7.45760674  2.80936841 -3.17151731
C  7.82476779  1.38927165 -3.80260442
C  7.87112069  0.55613976 -2.49799235
C  6.1543841   3.32456309 -3.79777301
C  9.04597191  1.33740823 -4.75464943
C 10.31468447  1.60742244 -3.97711566
N  8.10354069 -1.30486086 -0.17834978
C  8.09932921 -1.6939492  -1.52566805
C  8.16912387 -3.16656323 -1.55025688
C  8.1925184  -3.53503803 -0.20655899
C  8.11414862 -2.36804247  0.60601196
C  8.14451849 -3.98268718 -2.71549089
C  8.2406484  -4.64455207  0.73180079
O  8.40766527 -5.86069417  0.62886025
C  7.91178372 -4.08543146  2.18612509
C  8.94418331 -4.63899569  3.1300672 
O 10.1408308  -4.29599576  3.04202272
O  8.32936621 -5.29296513  4.12749684
C  9.29594001 -5.8420225   5.11563909
H 6.07745638 2.23415877 4.40341139
H  7.41916587  4.51978233 -1.24546032
H  8.11626641 -1.29954733 -3.50126399
H  6.62759809 -2.6686093   4.68093675
H  6.50110791 -0.01289138  5.61828011
H  4.62480804 -1.70002686  4.00615305
H 4.50328678 0.06249099 3.71455501
H  4.2450686  -0.52630799  5.33233779
H  8.78587249 -0.69307171  5.44932002
H  9.3020827  -2.29636444  4.78943028
H  7.41700537 -2.742268    6.87141262
H  8.27367641 -1.33113933  7.3640419 
H 6.51189385 4.24823028 4.84798091
H 6.10592643 5.63919844 3.91716834
H 7.79411708 5.45418366 4.45855438
H 7.00305573 7.25655743 2.65380184
H 8.22630724 8.14264861 1.58283258
H 8.70976136 6.91607041 2.78479224
H  8.21848208  3.5346143  -3.45702234
H  7.00662691  0.98206082 -4.3971621 
H  6.27511209  4.25065311 -4.36034481
H  5.42152209  3.44412466 -3.00033379
H  5.64929403  2.61400676 -4.45153957
H  8.9658267   2.11189078 -5.51668586
H  9.15364153  0.38009823 -5.26476297
H 10.35183202  2.69564602 -3.94216591
H 11.17847298  1.20410058 -4.50665498
H 10.23556142  1.25092849 -2.94991675
H  8.90554946 -4.74877256 -2.56745695
H  8.34127947 -3.39713099 -3.61327263
H  7.12201732 -4.35806453 -2.6775539 
H  6.90676223 -4.42612309  2.43307251
H  9.1044374  -6.91245942  5.19130646
H  9.18787146 -5.24348418  6.02033687
H 10.34451699 -5.84123713  4.8159314 
