79

Mg 7.88313926 0.70970039 0.59883178
C  7.55406363  3.7158381  -1.31612496
C  7.37754782 -1.01625481 -2.3009132 
C  7.71679644 -1.94038584  2.33261205
C 7.23225688 2.62241993 3.43846505
N  7.52469354  1.37762663 -1.48108101
C  7.4813861   2.55718589 -2.0925836 
C  7.42739533  2.44631716 -3.64569889
C  6.81078514  0.98146782 -3.77221479
C  7.29534316  0.39944919 -2.45601501
C  5.28569281  0.96151446 -3.7862594 
C  8.84882398  2.5278102  -4.29733567
C  8.8612753   2.75510688 -5.81177787
H  9.91402864  3.57809387 -6.38775602
N  8.07396232 -1.18333855  0.06700464
C  7.84247005 -1.70687386 -1.1608423 
C  8.1247935  -3.15392609 -1.04676193
C  8.35566062 -3.46041726  0.39228551
C  8.02799961 -2.19561281  0.99915122
C  8.20204923 -4.07275511 -2.22724267
C  8.79081778 -4.69996668  1.10802812
O  8.70435577 -4.81783141  2.37814868
C  9.24433558 -5.82064984  0.26456334
N 7.31055669 0.33684393 2.57133331
C  7.38720968 -0.89305929  3.09137792
C  7.19999939 -0.86931738  4.57943963
C 7.22060032 0.67011868 5.00307297
C 7.34129153 1.30105576 3.59395196
C  5.91490084 -1.52550248  5.10284562
C 8.24483879 1.08720495 6.08815066
C 9.65024001 0.95230784 5.54616526
N 7.63933141 2.82000638 1.04404113
C 7.35154942 3.39058688 2.29235736
C 7.17310973 4.83798458 2.0749472 
C 7.35430135 5.00754902 0.70372057
C 7.60257552 3.74237588 0.09875042
C 6.82490323 5.79347885 3.07004365
C  7.37152957  5.95990147 -0.39472606
O  7.3170977   7.18768411 -0.47886848
C  7.38072019  5.14601928 -1.76342556
C  8.44784153  5.74286905 -2.63997071
O  9.65402957  5.64770562 -2.33432332
O  7.90474716  6.11926306 -3.80783973
C  8.91578086  6.69298968 -4.73563422
H  6.99770276 -1.65756998 -3.09864346
H  7.75807485 -2.81472407  2.98550312
H 7.1108383  3.29411546 4.29024886
H  6.77134812  3.16953665 -4.13044586
H  7.23813073  0.43102166 -4.61013291
H  4.87240571  1.94803094 -3.57673608
H  4.99668196  0.25460799 -3.00828191
H  4.91234997  0.5458399  -4.72253221
H  9.32127773  1.54653907 -4.25311543
H  9.45203204  3.29617309 -3.81248054
H  7.88428462  3.07546391 -6.17477868
H  9.03017949  1.79517569 -6.29983882
H  7.82423084 -3.59629792 -3.13100525
H  7.50644345 -4.89059559 -2.04021713
H  9.20653559 -4.47049114 -2.37265653
H  8.43934601 -6.11162065 -0.41062313
H  9.60053339 -6.58835266  0.95057026
H 10.06495735 -5.47808263 -0.36644905
H  8.012976   -1.38961221  5.08420524
H 6.26077036 0.99693606 5.40381085
H  6.09302043 -2.3217666   5.82599282
H  5.35165612 -1.89417183  4.24603216
H  5.20003665 -0.83649488  5.55190544
H 8.17008142 0.42901692 6.95310491
H 8.10888326 2.1107719  6.43754699
H  9.87114866 -0.10297432  5.70240528
H 10.33783245  1.58288429  6.11078989
H 9.68207396 1.13633941 4.47210522
H 7.4633055  6.65990051 2.89763411
H 6.96630044 5.3904913  4.07264569
H 5.77462777 5.96009798 2.83126442
H  6.38723246  5.25223732 -2.19796194
H  8.5656767   7.6860366  -5.01762517
H  9.05664089  5.96128554 -5.5313556 
H  9.88710416  6.93278533 -4.30162029
