79

Mg 7.88313926 0.70970039 0.59883178
C  7.99625521 -2.86731978  0.66475175
C 6.76828074 0.58543941 3.82136413
C 7.34284162 3.82928926 0.4175454 
C  7.90337318  0.49909613 -2.87980264
N  7.47587275 -0.98582917  1.9626351 
C  7.61694135 -2.30544018  1.88584033
C  7.39686124 -3.03056521  3.2471384 
C  6.48568959 -1.93946695  3.96912789
C  6.96212483 -0.69962952  3.2331003 
C  4.99400135 -2.12249361  3.70861028
C  8.73796469 -3.26045001  4.02194517
C  8.65514027 -4.24209203  5.19449498
H  9.79506752 -5.10414468  5.46795263
N 7.63382583 2.0518897  2.02684462
C 7.18702463 1.82230306 3.28499591
C 7.17799764 3.13762198 3.96067013
C 7.47478612 4.17734131 2.93646589
C 7.46974821 3.38678434 1.73215185
C 6.95597748 3.30504965 5.43254819
C 7.71310496 5.65147865 3.0273241 
O 7.72330525 6.40381032 1.99365732
C 7.84809183 6.21274291 4.38371748
N  7.43314753  1.98278392 -0.99314836
C  7.30578862  3.30124708 -0.80762582
C  7.26698197  4.03538271 -2.11509587
C  7.64021032  2.96146336 -3.23632324
C  7.75493296  1.70821223 -2.33384315
C  5.92969668  4.6999926  -2.47002227
C  8.82459539  3.30624403 -4.17375447
C 10.11622129  3.31409417 -3.38715488
N  8.11700005 -0.8676352  -0.87370567
C  8.0692249  -0.7325617  -2.26874929
C  8.16992594 -2.08906759 -2.83780032
C  8.25314832 -2.92587775 -1.72664426
C  8.1809197  -2.14403998 -0.53845037
C  8.11806225 -2.41850756 -4.22098991
C  8.36150156 -4.30079975 -1.26652898
O  8.55074545 -5.38683148 -1.81626969
C  8.07697115 -4.3288264   0.30002263
C  9.15679247 -5.15550341  0.94337328
O 10.34143291 -4.76325709  0.95502791
O  8.59525296 -6.15183142  1.64518942
C  9.6109213  -6.99287957  2.33309191
H 6.19302455 0.66124492 4.74617483
H 7.26584005 4.91293601 0.30700815
H  8.00134323  0.36265546 -3.95833813
H  6.85962258 -3.976514    3.1765729 
H  6.71186354 -1.85939148  5.0322155 
H  4.81175393 -2.89690991  2.96363628
H  4.64088848 -1.15632487  3.34760853
H  4.45812936 -2.30852564  4.63974415
H  9.00261213 -2.35036034  4.56023833
H  9.52760321 -3.57871319  3.34039873
H  7.73439882 -4.82525252  5.16181431
H  8.57865316 -3.66652535  6.11703101
H 6.60053345 2.38326164 5.89136342
H 6.12888343 4.00454622 5.55225197
H 7.84032586 3.69118185 5.93965947
H 6.94130928 6.00354886 4.95163671
H 8.10281629 7.26354276 4.25035657
H 8.65877883 5.69767997 4.8999013 
H  8.0003696   4.84051178 -2.1334201 
H  6.80875094  2.7742152  -3.91624046
H  6.00851656  5.7718075  -2.65361212
H  5.22574006  4.49189017 -1.6647711 
H  5.41527196  4.26354932 -3.32576843
H  8.69832684  4.30384277 -4.59303838
H  8.93322347  2.60870551 -5.00435121
H 10.13109048  4.31338363 -2.95352891
H 10.96746768  3.16434876 -4.05211119
H 10.08455092  2.6015571  -2.56267085
H  8.90066832 -3.15854555 -4.38784466
H  8.26728466 -1.53684529 -4.84389224
H  7.10616529 -2.81636902 -4.29600192
H  7.08985201 -4.77091256  0.43146701
H  9.44573229 -8.02173251  2.01307909
H  9.52490208 -6.77408687  3.39758026
H 10.64688546 -6.84559897  2.02580429
