79

Mg 7.88314 0.70970 0.59883
C 7.69267 -1.68134 3.25568
C 6.62872 3.01301 2.78155
C 7.61470 2.71626 -1.84213
C 8.03028 -1.97965 -1.61281
N 7.27857 0.56377 2.72341
C 7.31141 -0.39497 3.64369
C 6.97480 0.11316 5.07752
C 6.12922 1.40906 4.69328
C 6.73828 1.70212 3.33347
C 4.63956 1.13386 4.51527
C 8.25847 0.48749 5.89225
C 8.04482 0.67911 7.39657
H 9.09597 0.26145 8.31198
N 7.68823 2.67544 0.57170
C 7.17179 3.45169 1.55456
C 7.24514 4.84217 1.05670
C 7.67052 4.79290 -0.36973
C 7.64921 3.37338 -0.61449
C 6.97693 6.03916 1.91637
C 8.02779 5.85698 -1.35878
O 8.14411 5.61275 -2.60834
C 8.15289 7.22811 -0.83211
N 7.60824 0.42399 -1.45066
C 7.58443 1.46114 -2.29490
C 7.66182 1.00549 -3.72190
C 7.98986 -0.55639 -3.67007
C 7.96131 -0.75267 -2.13419
C 6.40098 1.23437 -4.56684
C 9.23698 -1.03933 -4.45231
C 10.49086 -0.49312 -3.80692
N 8.04477 -1.44835 0.76532
C 8.06657 -2.37585 -0.28632
C 8.07660 -3.71883 0.32227
C 8.04298 -3.47795 1.69438
C 7.98729 -2.07409 1.92758
C 8.05483 -4.95391 -0.38380
C 8.01627 -4.08062 3.01723
O 8.13636 -5.22763 3.45016
C 7.66548 -2.94579 4.07786
C 8.64438 -3.06709 5.21380
O 9.85626 -2.82324 5.04275
O 7.97246 -3.21705 6.36557
C 8.88443 -3.31381 7.53651
H 6.02390 3.75679 3.30396
H 7.63362 3.37549 -2.71247
H 8.16123 -2.86440 -2.23855
H 6.36343 -0.56830 5.66935
H 6.31691 2.23540 5.37860
H 4.42408 0.06621 4.55537
H 4.38414 1.53724 3.53519
H 4.05170 1.70289 5.23597
H 8.57598 1.49410 5.62025
H 9.04626 -0.24919 5.73095
H 7.08052 0.28276 7.71587
H 7.97863 1.74821 7.59869
H 6.52657 5.75663 2.86710
H 6.20723 6.62539 1.41476
H 7.86872 6.64945 2.05990
H 7.20891 7.52556 -0.37496
H 8.50028 7.83936 -1.66430
H 8.89530 7.23323 -0.03351
H 8.46034 1.52073 -4.25417
H 7.17462 -1.15908 -4.07108
H 6.57709 1.82791 -5.46428
H 5.64916 1.70077 -3.93082
H 5.88776 0.32478 -4.87776
H 9.21247 -0.66328 -5.47453
H 9.32110 -2.12508 -4.50027
H 10.57154 0.50437 -4.23743
H 11.35345 -1.10454 -4.07398
H 10.36521 -0.37427 -2.73055
H 8.77880 -5.60106 0.11122
H 8.30334 -4.81323 -1.43549
H 7.01710 -5.25258 -0.23627
H 6.64012 -3.12418 4.40024
H 8.64689 -4.24426 8.05233
H 8.77289 -2.38358 8.09386
H 9.94099 -3.46619 7.31332
