79

Mg 7.88313926 0.70970039 0.59883178
C 7.27228782 2.89221283 3.36933968
C  6.92599008  3.27300302 -1.43989578
C  7.97784767 -1.32934011 -1.82809325
C  7.68928397 -1.95062043  2.84177053
N 7.20833033 2.77373335 1.02900251
C 7.07516502 3.50608587 2.1304097 
C 6.77991491 5.00833071 1.84151213
C 6.14531271 4.8647562  0.38594886
C  6.82630025  3.5794836  -0.05023266
C 4.63651576 4.64142208 0.39842372
C 8.08305543 5.8760108  1.81530057
C 7.8607964  7.39042949 1.86520987
H 8.81445966 8.21459311 2.59227845
N  7.98142522  1.03752855 -1.34686053
C  7.55976473  2.14468425 -2.00389529
C  7.85063559  1.90555344 -3.43389236
C  8.30121505  0.49321179 -3.57659207
C  8.07692500e+00 -3.39191245e-03 -2.24300415e+00
C  7.73975859  2.96714454 -4.48483509
C  8.83743027 -0.28815981 -4.73420325
O  8.9490277  -1.5613803  -4.70211599
C  9.14983271  0.47692336 -5.9548975 
N  7.62272251 -1.35747188  0.46992518
C  7.77440767 -2.00090756 -0.69281561
C  7.82093097 -3.48673828 -0.49261158
C  7.9132684  -3.71758795  1.08470742
C  7.81591231 -2.24222181  1.54523596
C  6.63023928 -4.27541916 -1.0549698 
C  9.09540763 -4.57521182  1.60186033
C 10.39890369 -3.84309109  1.37383566
N 7.71991004 0.48431559 2.75141231
C  7.63198474 -0.71730434  3.46908402
C  7.42766937 -0.36077362  4.88513807
C 7.39413462 1.03231323 4.89056447
C 7.54029711 1.51479379 3.55859561
C  7.24221529 -1.27788274  5.95702968
C 7.24415572 2.22488617 5.70857004
O 7.18218609 2.44386486 6.91923147
C 7.03719528 3.4730238  4.74154014
C 7.95742089 4.56758834 5.20889684
O 9.19607431 4.44218844 5.12299817
O 7.24085385 5.67408279 5.4593838 
C 8.09761423 6.8075629  5.89908653
H  6.42418745  3.92147928 -2.16073811
H  8.11665732 -2.0666081  -2.62157029
H  7.70444761 -2.72570079  3.61019327
H 6.05935919 5.46819076 2.51808599
H  6.43499131  5.68762659 -0.26726829
H 4.26475692 4.48861445 1.41152105
H  4.46916932  3.75034848 -0.20694889
H  4.12049313  5.45342526 -0.1145563 
H 8.55273337 5.78961798 0.83550472
H 8.75736296 5.58383755 2.62107358
H 6.84052958 7.63393532 2.16298417
H 7.94794533 7.7820048  0.85166469
H  7.22791702  3.85178927 -4.10805013
H  7.07844371  2.58013301 -5.2598149 
H  8.70783145  3.21750793 -4.91898383
H  8.24850502  0.98106105 -6.3041862 
H  9.60530243 -0.23177878 -6.6456497 
H  9.86372215  1.2626806  -5.70610757
H  8.70042584 -3.91814649 -0.96884862
H  7.02872384 -4.21991908  1.47703174
H  6.91545869 -5.05133696 -1.76581891
H  5.93916674 -3.56505461 -1.5078406 
H  5.99663282 -4.74472818 -0.30283358
H  9.15342421 -5.51288473  1.05018145
H  9.01950014 -4.8181774   2.66179277
H 10.63721983 -4.08682705  0.33912304
H 11.16842328 -4.21678159  2.05015364
H 10.26408919 -2.76281407  1.43139093
H  7.84948841 -0.90828516  6.78321731
H  7.53617214 -2.28721768  5.6699141 
H  6.16825788 -1.18565396  6.11816732
H 5.98865844 3.75891094 4.81874783
H 7.71187573 7.14743506 6.86029759
H 8.11013333 7.52355992 5.07713973
H 9.12555103 6.5595875  6.16590694
