79

Mg 7.88313926 0.70970039 0.59883178
C 7.34775945 1.47621047 4.05397936
C  6.77307085  3.85576128 -0.11748801
C  7.91534843 -0.0947697  -2.46848161
C  7.85537445 -2.65831081  1.49403604
N 7.17975188 2.36394115 1.89087656
C 7.07966517 2.55089668 3.20320323
C 6.73584363 4.0194858  3.59359626
C 6.03898177 4.48403542 2.23691825
C 6.72972653 3.53637771 1.27216929
C 4.53807582 4.21496366 2.19971998
C 8.01539998 4.86826807 3.90024784
C 7.75966653 6.20645884 4.59967607
H 8.72567137 6.6805314  5.57918506
N  7.88457089  1.83922628 -1.02197641
C  7.40708779  3.10247995 -1.1291494 
C  7.63791259  3.50776445 -2.53241181
C  8.11499261  2.31073846 -3.27914967
C  7.96376828  1.28439009 -2.27959065
C  7.45388282  4.9104764  -3.02463352
C  8.61619212  2.11998069 -4.67576792
O  8.7594166   0.96027328 -5.19455447
C  8.85418     3.34445711 -5.46130039
N  7.66638617 -1.1141585  -0.39323264
C  7.78004848 -1.19385981 -1.72353809
C  7.87102953 -2.62002406 -2.17929787
C  8.0408245  -3.4970896  -0.85578787
C  7.92952335 -2.36406556  0.19404001
C  6.67499389 -3.14195719 -2.98744116
C  9.26544325 -4.44401129 -0.79201313
C 10.53935862 -3.63170924 -0.72565797
N  7.82386696 -0.41808621  2.45237681
C  7.79746114 -1.81346583  2.58982663
C  7.64964493 -2.10316076  4.02798351
C  7.58324042 -0.8479137   4.62947355
C 7.65685119 0.16177483 3.62777372
C  7.5352553  -3.39639486  4.61013001
C  7.44245524 -0.12496326  5.8830202 
O  7.43068345 -0.44558575  7.07237113
C 7.16186385 1.40662487 5.54935378
C 8.07616954 2.23437335 6.41085627
O 9.31223689 2.20849787 6.24105059
O 7.34566193 3.09814943 7.13251515
C 8.19439651 3.97024695 7.98764644
H  6.22355483  4.72840987 -0.4758978 
H  8.03526168 -0.41717212 -3.50487704
H  7.92408625 -3.68562385  1.8564717 
H 6.03621826 4.11713946 4.4239047 
H 6.27883458 5.5179491  1.98950135
H 4.21674787 3.62984149 3.06128913
H 4.36449757 3.6608327  1.27705944
H 3.97996544 5.14621966 2.09945997
H 8.44173301 5.22705047 2.9634574 
H 8.73259138 4.28849524 4.48233543
H 6.74856705 6.25773142 5.00459331
H 7.79105837 6.99586523 3.84864205
H  6.93888175  5.52834231 -2.29008563
H  6.76724202  4.86387776 -3.8696554 
H  8.39486874  5.36149372 -3.34000774
H  7.92608598  3.91191627 -5.53327675
H  9.29434724  3.0170866  -6.40253965
H  9.55978608  3.97781748 -4.92285475
H  8.73786117 -2.77082353 -2.82139477
H  7.18734257 -4.15455733 -0.68851929
H  6.94581862 -3.52849338 -3.97026808
H  5.9472327  -2.33535496 -3.07139051
H  6.08777432 -3.91263107 -2.48879103
H  9.32049176 -5.05388796 -1.69310474
H  9.24386021 -5.11842703  0.06411104
H 10.735873   -3.40120939 -1.77212054
H 11.34765988 -4.2260692  -0.29834509
H 10.38163765 -2.68552293 -0.20764101
H  8.17068091 -3.38957558  5.4956563 
H  7.83972732 -4.17410266  3.91007975
H  6.46789329 -3.42580238  4.82860088
H 6.11144293 1.58904029 5.77399241
H 7.84500802 3.85190034 9.01339288
H 8.15229105 4.96811381 7.55073242
H 9.23906465 3.67462596 8.090679  
