79

Mg 7.88313926 0.70970039 0.59883178
C  8.0131118  -2.86376549  0.43863595
C 6.78764393 0.37721538 3.81323822
C 7.32743215 3.83179339 0.61743104
C  7.88409165  0.71868367 -2.88621906
N  7.49163311 -1.07034963  1.85533123
C  7.63832897 -2.38178872  1.69477337
C  7.42951975 -3.19228544  3.00887679
C  6.51755064 -2.15335623  3.80319186
C  6.98397718 -0.86727897  3.1441201 
C  5.02522991 -2.32701543  3.53989863
C  8.77615568 -3.46384774  3.7602466 
C  8.70468109 -4.51778145  4.86906088
H  9.85013954 -5.38967519  5.08136782
N 7.63596374 1.95804266 2.10992273
C 7.19755673 1.64746492 3.35355723
C 7.18640503 2.91756156 4.1107964 
C 7.47243387 4.02117658 3.15250865
C 7.46402648 3.30801503 1.90082662
C 6.9721884  2.99086152 5.59150176
C 7.70448512 5.48783087 3.33474311
O 7.70520231 6.3038056  2.35048769
C 7.84477936 5.96322551 4.72303684
N  7.41802825  2.07826241 -0.90727072
C  7.28567997  3.38177688 -0.63835075
C  7.23588142  4.19659139 -1.89673719
C  7.60751874  3.19727858 -3.08543926
C  7.73326459  1.89026637 -2.2643564 
C  5.89350553  4.87558758 -2.2016997 
C  8.7848258   3.60628405 -4.00580963
C 10.08095918  3.57099364 -3.22741972
N  8.11568646 -0.77059128 -0.97142404
C  8.05916916 -0.54817203 -2.35490135
C  8.1628028  -1.86563293 -3.00883167
C  8.25634593 -2.77033359 -1.9530801 
C  8.18743524 -2.06524217 -0.71760877
C  8.10440566 -2.10756621 -4.40972141
C  8.37370773 -4.17094743 -1.58110685
O  8.56474839 -5.21925093 -2.19921383
C  8.09843401 -4.29898375 -0.01788643
C  9.18577859 -5.1591648   0.56613356
O 10.36864753 -4.76255574  0.59593811
O  8.63292935 -6.20048693  1.2068737 
C  9.65644827 -7.07813449  1.83480504
H 6.21743825 0.39177434 4.7441488 
H 7.24479786 4.91985471 0.57581204
H  7.97640871  0.65092239 -3.97173229
H  6.89624218 -4.13456775  2.88182135
H  6.74953833 -2.13926583  4.86794778
H  4.84221762 -3.05387503  2.74863216
H  4.66557496 -1.34179503  3.24243926
H  4.4956502  -2.57397379  4.46040604
H  9.03973761 -2.58816105  4.35333883
H  9.56327072 -3.73463554  3.05565461
H  7.78646083 -5.10228938  4.8047877 
H  8.63091558 -4.00184053  5.82643417
H 6.62367099 2.04025643 5.993286  
H 6.14259209 3.67731734 5.75960103
H 7.85768605 3.34867682 6.1170435 
H 6.94229152 5.71418373 5.28164483
H 8.09388039 7.02158941 4.65473936
H 8.66082142 5.4207086  5.20126246
H  7.9654337   5.00490663 -1.86834818
H  6.77298657  3.04909505 -3.77120285
H  5.96631762  5.9572146  -2.31783061
H  5.19521464  4.61369604 -1.40728567
H  5.3761235   4.49135306 -3.08039002
H  8.65152485  4.62766795 -4.36070648
H  8.89182843  2.96298457 -4.87928957
H 10.09374955  4.54105356 -2.73178664
H 10.92900078  3.46764807 -3.9051779 
H 10.05737143  2.80780071 -2.44930265
H  8.88942747 -2.83173398 -4.62718588
H  8.24593673 -1.18769696 -4.97665396
H  7.09393247 -2.50493183 -4.5040638 
H  7.11414355 -4.75336432  0.09089125
H  9.49413979 -8.08559976  1.45152486
H  9.57562062 -6.92724173  2.91142162
H 10.68991662 -6.90665454  1.53169317
