79

Mg 7.88313926 0.70970039 0.59883178
C  7.97813331 -2.85654358  0.8905406 
C 6.74990677 0.7938487  3.81624817
C 7.35934159 3.81412596 0.21830731
C  7.92152882  0.2802626  -2.85945832
N  7.45994004 -0.89464457  2.06430974
C  7.59487863 -2.21710801  2.07159225
C  7.36369119 -2.85400658  3.47454862
C  6.45397514 -1.7154038   4.12107661
C  6.94061408 -0.52660831  3.31121746
C  4.96285755 -1.90760725  3.86392266
C  8.6993398  -3.04079506  4.27008859
C  8.60517288 -3.94622203  5.50162771
H  9.73928039 -4.79457515  5.8354617 
N 7.63261237 2.14032507 1.93801038
C 7.1777391  1.99252102 3.20550013
C 7.17151146 3.34782336 3.79693717
C 7.47910597 4.31957218 2.71103485
C 7.47679183 3.45474314 1.55888756
C 6.9422039  3.60867054 5.2540325 
C 7.72423375 5.79539187 2.71026499
O 7.74387372 6.48105089 1.63134888
C 7.8545157  6.44036891 4.02938335
N  7.44826651  1.88201602 -1.07275332
C  7.32643138  3.21012082 -0.97137362
C  7.2984868   3.86059572 -2.32268428
C  7.67256337  2.71646255 -3.37186443
C  7.77608064  1.52204408 -2.39159982
C  5.96649636  4.50767676 -2.72653895
C  8.86380164  2.99603921 -4.32223661
C 10.151089    3.04748173 -3.53018679
N  8.11729253 -0.95833489 -0.77006395
C  8.07788958 -0.91120166 -2.17109923
C  8.17499577 -2.30131349 -2.65299911
C  8.24792884 -3.06683062 -1.49088497
C  8.17302429 -2.21136306 -0.35472628
C  8.1291333  -2.71700033 -4.01297525
C  8.34691476 -4.41051748 -0.94447449
O  8.53379729 -5.52988658 -1.42362031
C  8.05360595 -4.33848169  0.61904967
C  9.12574301 -5.12794897  1.31945851
O 10.31223344 -4.74120831  1.31328459
O  8.55539968 -6.07548477  2.07934428
C  9.56306828 -6.87619214  2.82474733
H 6.16993788 0.9304174  4.73108481
H 7.28833108 4.88899903 0.03930058
H  8.02477229  0.07569327 -3.92667206
H  6.82216152 -3.80003732  3.4605678 
H  6.67467223 -1.56955337  5.17831   
H  4.78088341 -2.72657228  3.16814779
H  4.61654276 -0.96448554  3.4407436 
H  4.42093721 -2.03213617  4.80178827
H  8.96552598 -2.09982848  4.75153205
H  9.49113887 -3.40499851  3.614546  
H  7.68174262 -4.52603578  5.50037676
H  8.5264525  -3.31333096  6.38562544
H 6.57966169 2.71926703 5.76790947
H 6.11794392 4.31812128 5.32463099
H 7.82564535 4.02190722 5.74096027
H 6.94358495 6.27154941 4.60406077
H 8.11518502 7.47949479 3.83159834
H 8.65977454 5.95512121 4.58168931
H  8.03595171  4.65958427 -2.38740526
H  6.84395051  2.49058196 -4.043469  
H  6.05164752  5.56542143 -2.9767998 
H  5.25708132  4.35396487 -1.91389267
H  5.45464307  4.02056091 -3.55608181
H  8.74480263  3.96581139 -4.80423988
H  8.97354919  2.24706423 -5.10661085
H 10.1685243   4.0720262  -3.16027241
H 11.00523912  2.85222092 -4.17942619
H 10.11133172  2.38845779 -2.66266572
H  8.90896557 -3.46967721 -4.12833621
H  8.28616615 -1.87703037 -4.68928445
H  7.11570345 -3.11413223 -4.06867262
H  7.06359411 -4.76685692  0.77232466
H  9.39454343 -7.92239081  2.56920533
H  9.47226162 -6.5903753   3.87282551
H 10.60143112 -6.75333713  2.51483079
