79

Mg 7.88313926 0.70970039 0.59883178
C  8.05543808 -2.76755073 -0.23258371
C  6.85087112 -0.23798462  3.71000208
C 7.28834368 3.76350481 1.21293097
C  7.82028886  1.37313445 -2.82192341
N  7.53725055 -1.28066506  1.50406786
C  7.69759562 -2.53610679  1.09746421
C  7.52312436 -3.58221809  2.23877264
C  6.61273058 -2.72559373  3.22840686
C  7.05069908 -1.33137055  2.81579406
C  5.11816804 -2.8703867   2.96041465
C  8.88659987 -3.96865437  2.90460487
C  8.84876268 -5.21309801  3.79639093
H 10.0088671  -6.0910467   3.82307156
N 7.64781975 1.64791011 2.32139884
C 7.23618428 1.10234548 3.49110029
C 7.22277801 2.20726405 4.47377838
C 7.47723763 3.47563256 3.73581793
C 7.45499583 3.0102255  2.37263065
C 7.03474508 1.99772703 5.94499823
C 7.69397511 4.88545077 4.18700467
O 7.66636429 5.87168162 3.37388699
C 7.85358088 5.09378822 5.63757818
N  7.37327594  2.32923252 -0.61557758
C  7.22935561  3.55676591 -0.10427268
C  7.14624657  4.59254504 -1.1860275 
C  7.50873279  3.84032292 -2.5471001 
C  7.66601625  2.40451452 -1.98854288
C  5.79002471  5.29533023 -1.33691239
C  8.66374581  4.43356744 -3.39233667
C  9.9742308   4.27329017 -2.65474718
N  8.1056923  -0.44542001 -1.22523291
C  8.02108748  0.03197273 -2.54114027
C  8.12944101 -1.13739667 -3.43271344
C  8.25371981 -2.22269494 -2.56753864
C  8.19846868 -1.76339647 -1.22058495
C  8.04852327 -1.11279137 -4.85302358
C  8.3956001  -3.66620393 -2.46749472
O  8.5885827  -4.57658157 -3.27462747
C  8.15058463 -4.08993642 -0.95215806
C  9.25923409 -5.02712417 -0.55733598
O 10.43732901 -4.62443676 -0.47188882
O  8.73142752 -6.17890927 -0.11534808
C  9.77729094 -7.14251198  0.32030491
H  6.29763419 -0.40759558  4.63580013
H 7.19118041 4.83856551 1.37798184
H  7.89360425  1.51194593 -3.90211285
H  6.99959816 -4.49221304  1.94508316
H  6.86394057 -2.90806445  4.27306947
H  4.92995214 -3.43849914  2.04951178
H  4.74068047 -1.85266852  2.85919288
H  4.60867109 -3.29422754  3.8261795 
H  9.14985782 -3.21588017  3.64763061
H  9.6640756  -4.08974329  2.14949232
H  7.93700231 -5.78963844  3.63763591
H  8.78597281 -4.88740114  4.8347449 
H 6.70570328 0.98316099 6.16620458
H 6.19972658 2.62712703 6.25209552
H 7.92509338 2.264479   6.51460801
H 6.96468077 4.72995424 6.15335957
H 8.08795969 6.14996356 5.76568056
H 8.68503584 4.48413235 5.99247445
H  7.86589357  5.3926243  -1.01748263
H  6.66375271  3.81034858 -3.23541994
H  5.84698924  6.38053636 -1.24866449
H  5.10974322  4.87782853 -0.59515744
H  5.26158207  5.07481099 -2.26402438
H  8.5110483   5.50118428 -3.54668608
H  8.76291171  3.96756535 -4.37277493
H  9.9837822   5.13306842 -1.98577622
H 10.81098643  4.31256923 -3.35296503
H  9.97454067  3.37725062 -2.03378097
H  8.83855407 -1.77066294 -5.21499779
H  8.16800138 -0.10067777 -5.23896924
H  7.04161164 -1.50136165 -5.00467488
H  7.17428379 -4.57223572 -0.91546963
H  9.62078567 -8.06250292 -0.24303938
H  9.71424602 -7.19782874  1.40721355
H 10.80279123 -6.90075896  0.03880248
