79

Mg 7.88313926 0.70970039 0.59883178
C  7.65812288  3.14750695 -2.01242861
C  7.39830596 -1.67712885 -1.79094809
C  7.62434721 -1.42062744  2.93364463
C 7.21728166 3.28097002 2.8551268 
N  7.58111671  0.8429324  -1.59015831
C  7.57579737  1.83302945 -2.47720427
C  7.55055966  1.33883586 -3.95453624
C  6.90483339 -0.10109377 -3.72729575
C  7.35010032 -0.34383325 -2.29595411
C  5.38025683 -0.09936313 -3.77382859
C  8.98620846  1.23217684 -4.57038312
C  9.03397784  1.07398121 -6.09289625
H 10.11575529  1.71006376 -6.82944532
N  8.04328843 -1.25898687  0.56045572
C  7.82511098 -2.0686684  -0.50354635
C  8.07348708 -3.44577821 -0.02546803
C  8.26871545 -3.3869983   1.44983696
C  7.95659237 -2.00563493  1.71401953
C  8.15435765 -4.63133177 -0.93742895
C  8.66231486 -4.41546488  2.4624909 
O  8.54785165 -4.21111744  3.71935775
C  9.10812505 -5.71838028  1.93646167
N 7.26312639 0.85033285 2.5871581 
C  7.30251355 -0.21187591  3.39903569
C 7.0860618  0.18560471 4.8291045 
C 7.13170744 1.78151829 4.85611045
C 7.29435375 2.03867885 3.33766235
C  5.77673045 -0.29836252  5.46741331
C 8.14282654 2.43973038 5.82812588
C 9.55554023 2.15119275 5.37196354
N 7.67650047 2.86797654 0.49788891
C 7.37624621 3.7366783  1.55707663
C 7.23378797 5.08665474 0.98145761
C  7.44609348  4.90559786 -0.38382249
C  7.67881849  3.52562894 -0.6480513 
C 6.88660215 6.2657911  1.69807011
C  7.50609669  5.5531769  -1.68416784
O  7.48013327  6.72179322 -2.07295414
C  7.52499358  4.42334243 -2.80619457
C  8.62223195  4.76521302 -3.77701972
O  9.81968767  4.72995608 -3.42741603
O  8.11099858  4.84683748 -5.01496959
C  9.15269771  5.15442931 -6.03104251
H  7.0206486  -2.49108258 -2.41287674
H  7.63346014 -2.1048431   3.78464632
H 7.09347335 4.14590296 3.50935573
H  6.92028235  1.92861152 -4.62037345
H  7.33679886 -0.85009681 -4.39071287
H  4.98444859  0.91474669 -3.82710252
H  5.0603658  -0.58492599 -2.85166188
H  5.01679453 -0.72954093 -4.58595426
H  9.43618324  0.28553741 -4.27128866
H  9.59617387  2.08743636 -4.27746784
H  8.07167676  1.30926367 -6.54844843
H  9.19167541  0.02001217 -6.321983  
H  7.80521217 -4.38955531 -1.94051747
H  7.43748315 -5.36527993 -0.56984214
H  9.15265156 -5.06889616 -0.95412197
H  8.31068733 -6.15569179  1.33529553
H  9.43367907 -6.29615454  2.80077729
H  9.94850653 -5.55744368  1.26058641
H  7.87722059 -0.20522758  5.46765277
H 6.17138464 2.21343889 5.13877404
H  5.92291712 -0.89165102  6.37037688
H  5.22288053 -0.86013579  4.71578039
H 5.0681902  0.4923513  5.71268739
H 8.03641255 2.01960009 6.82768208
H 8.02223072 3.52016517 5.90792759
H 9.75022091 1.16491021 5.7916994 
H 10.24525054  2.89160171  5.77854104
H 9.6129096  2.06073242 4.28706185
H 7.54706386 7.05134557 1.33110484
H 6.9990492  6.1236292  2.77266243
H 5.84520691 6.38441437 1.39927171
H  6.54297048  4.43370197 -3.27804762
H  8.83004365  6.05114315 -6.56022362
H  9.29350691  4.24507811 -6.61555783
H 10.12011731  5.47930838 -5.64647532
