79

Mg 7.88314 0.70970 0.59883
C 7.78955 2.22098 -2.64455
C 7.38960 -2.29102 -0.94880
C 7.50853 -0.58584 3.46900
C 7.23516 3.86630 1.92610
N 7.63793 0.16302 -1.53228
C 7.68174 0.82899 -2.68195
C 7.67839 -0.09855 -3.93376
C 6.98733 -1.38433 -3.29249
C 7.39092 -1.17951 -1.84298
C 5.46497 -1.36799 -3.38549
C 9.12495 -0.41841 -4.44059
C 9.20504 -1.04201 -5.83704
H 10.32167 -0.68660 -6.69970
N 7.98903 -1.17644 1.17684
C 7.77406 -2.27194 0.40940
C 7.97219 -3.43727 1.29789
C 8.13329 -2.92745 2.68794
C 7.85364 -1.52659 2.50152
C 8.04188 -4.84856 0.80076
C 8.47339 -3.59835 3.98114
O 8.33436 -3.01202 5.10873
C 8.89516 -5.00843 3.89865
N 7.21945 1.47205 2.42530
C 7.20948 0.71356 3.52693
C 6.96975 1.53914 4.75611
C 7.05936 3.06351 4.28920
C 7.26577 2.83377 2.77167
C 5.63236 1.30218 5.47112
C 8.06472 3.97135 5.04120
C 9.47941 3.52860 4.74170
N 7.73946 2.73371 -0.17174
C 7.43812 3.89371 0.55645
C 7.34743 5.00097 -0.41299
C 7.58751 4.40128 -1.64772
C 7.78785 3.00324 -1.46430
C 7.01615 6.35065 -0.10794
C 7.69700 4.61224 -3.08208
O 7.71313 5.60285 -3.81413
C 7.71138 3.18992 -3.79806
C 8.84089 3.19271 -4.79180
O 10.02809 3.24478 -4.41075
O 8.36219 2.89602 -6.00973
C 9.43633 2.85325 -7.03762
H 7.00446 -3.25038 -1.29983
H 7.47793 -0.97234 4.48984
H 7.11982 4.89372 2.27619
H 7.08112 0.26749 -4.76905
H 7.41408 -2.31030 -3.67745
H 5.09909 -0.41307 -3.76256
H 5.10944 -1.53731 -2.36892
H 5.10375 -2.21195 -3.97372
H 9.54091 -1.23397 -3.84907
H 9.75135 0.47370 -4.40767
H 8.26098 -0.94132 -6.37326
H 9.33868 -2.11786 -5.72350
H 7.72396 -4.92328 -0.23842
H 7.29608 -5.41843 1.35461
H 9.02765 -5.28871 0.95193
H 8.10055 -5.59535 3.43747
H 9.18344 -5.29568 4.90921
H 9.75579 -5.08120 3.23310
H 7.73401 1.35064 5.50897
H 6.10494 3.58008 4.39374
H 5.74003 1.01561 6.51753
H 5.08133 0.54564 4.91318
H 4.94049 2.14336 5.43703
H 7.92248 3.88415 6.11782
H 7.97250 5.02533 4.77877
H 9.63623 2.71766 5.45206
H 10.17954 4.34529 4.92072
H 9.56042 3.10496 3.74047
H 7.70700 6.97084 -0.67896
H 7.09859 6.54675 0.96087
H 5.98601 6.39060 -0.46158
H 6.74172 3.07214 -4.28076
H 9.15177 3.54755 -7.82832
H 9.56573 1.80492 -7.30717
H 10.40289 3.26286 -6.74210
