79

Mg 7.88314 0.70970 0.59883
C 7.38224 1.03039 4.12849
C 6.73685 3.90928 0.29584
C 7.88589 0.29745 -2.54547
C 7.89581 -2.74422 1.06355
N 7.18062 2.18115 2.09614
C 7.09453 2.20067 3.42256
C 6.74243 3.60495 3.99823
C 6.02536 4.22913 2.71830
C 6.71290 3.41736 1.63468
C 4.52656 3.95147 2.66364
C 8.01800 4.42155 4.39548
C 7.75881 5.65854 5.26036
H 8.73219 6.01565 6.28131
N 7.85527 2.03391 -0.86696
C 7.36540 3.29565 -0.80927
C 7.57589 3.87642 -2.15280
C 8.05459 2.78768 -3.04924
C 7.92437 1.64236 -2.18515
C 7.37362 5.32790 -2.46269
C 8.54077 2.77910 -4.46405
O 8.68804 1.69532 -5.12608
C 8.75855 4.09497 -5.09184
N 7.67070 -0.97716 -0.61237
C 7.76919 -0.88788 -1.94328
C 7.86733 -2.24445 -2.57575
C 8.06064 -3.27910 -1.37496
C 7.95185 -2.28819 -0.18983
C 6.66641 -2.67294 -3.43026
C 9.29425 -4.21391 -1.44392
C 10.56164 -3.40335 -1.28958
N 7.85594 -0.64263 2.29633
C 7.84350 -2.04441 2.25746
C 7.71541 -2.51405 3.64926
C 7.64509 -1.34509 4.40453
C 7.69783 -0.21682 3.53705
C 7.61940 -3.87129 4.06532
C 7.51287 -0.78688 5.74049
O 7.51811 -1.25453 6.88013
C 7.21480 0.77153 5.60514
C 8.13196 1.49380 6.55406
O 9.36610 1.50215 6.36912
O 7.40251 2.25249 7.38642
C 8.25364 3.01888 8.33531
H 6.17542 4.81436 0.05595
H 7.99628 0.10909 -3.61542
H 7.97791 -3.80817 1.29314
H 6.05191 3.59029 4.84168
H 6.25310 5.28834 2.60034
H 4.22070 3.25945 3.44817
H 4.34689 3.51593 1.68053
H 3.95908 4.88216 2.68730
H 8.42995 4.89957 3.50674
H 8.74717 3.78062 4.89230
H 6.75219 5.64814 5.67933
H 7.77427 6.53635 4.61429
H 6.86197 5.84324 -1.65078
H 6.67739 5.38082 -3.29945
H 8.30675 5.82461 -2.72889
H 7.82468 4.65742 -5.08192
H 9.19034 3.89301 -6.07144
H 9.46490 4.66285 -4.48560
H 8.72775 -2.30446 -3.24097
H 7.21505 -3.96110 -1.28258
H 6.92890 -2.93010 -4.45674
H 5.93060 -1.86969 -3.40429
H 6.09201 -3.50615 -3.02624
H 9.34394 -4.70511 -2.41510
H 9.28883 -4.99075 -0.67924
H 10.74362 -3.04116 -2.30078
H 11.38020 -4.03837 -0.94910
H 10.40175 -2.53143 -0.65501
H 8.26525 -3.96929 4.93781
H 7.92236 -4.55169 3.26978
H 6.55501 -3.93888 4.28978
H 6.16556 0.91348 5.86218
H 7.91756 2.76898 9.34171
H 8.19751 4.06325 8.02785
H 9.30203 2.72339 8.38914
