79

Mg 7.88313926 0.70970039 0.59883178
C 7.29242804 4.05535213 1.72572517
C  7.14305169  1.79805386 -2.54931404
C  7.95418126 -2.31644924 -0.34667993
C  7.46195593 -0.31980609  3.90161576
N  7.30739938  2.69813767 -0.1855704 
C 7.17457688 3.91127188 0.34152974
C  6.97294466  5.02940088 -0.72454061
C  6.38488862  4.1422822  -1.91164151
C  7.00975345  2.80656938 -1.54923402
C  4.86665768  4.00110102 -1.87233875
C  8.32183023  5.71155693 -1.13307681
C  8.18135102  7.02027235 -1.9159456 
H  9.15167736  8.08035695 -1.68783282
N  8.07011365 -0.06350158 -1.20949597
C  7.73407858  0.52707235 -2.38149805
C  8.0633088  -0.45150192 -3.4401202 
C  8.4405964  -1.73023042 -2.77634201
C  8.1409366  -1.42517425 -1.4006521 
C  8.04923709 -0.11953458 -4.90071928
C  8.9749512  -3.02565986 -3.30023085
O  9.01525859 -4.08409258 -2.58422143
C  9.37315258 -3.04613112 -4.71940617
N  7.51453355 -1.09433976  1.58229707
C  7.67295097 -2.26605128  0.95701312
C  7.63052999 -3.4114293   1.92461255
C  7.6525125  -2.75979331  3.38222714
C  7.61955674 -1.26640145  2.97361404
C  6.41963479 -4.34667828  1.80192128
C  8.76616714 -3.23568538  4.34851856
C 10.11532255 -2.77632596  3.84268597
N 7.62944516 1.68225234 2.52258515
C 7.44960717 1.05831418 3.76557891
C 7.21369581 2.12598894 4.75476263
C 7.25649296 3.30351052 4.01081617
C 7.47736082 2.98951163 2.63935195
C 6.93924637 1.93493079 6.13773345
C 7.1424801  4.7523697  4.05162223
O 7.04854138 5.58985331 4.95011526
C 7.03971377 5.28921633 2.55594119
C 8.00098059 6.43828747 2.4184253 
O 9.2331912  6.25336082 2.48788863
O 7.3375692  7.52442176 1.99329047
C 8.23865231 8.69309628 1.80780972
H  6.70420031  1.96999067 -3.53409229
H  8.08114371 -3.36820927 -0.61148057
H  7.4065431  -0.55982256  4.96499458
H  6.25453549  5.80007205 -0.44457952
H  6.74290565  4.47640682 -2.88524643
H  4.45039815  4.4273255  -0.95966045
H  4.67283249  2.92912798 -1.91474847
H  4.41501662  4.42302228 -2.77054797
H  8.82145445  5.09910328 -1.88363471
H  8.94927148  5.88090177 -0.25731097
H  7.16581287  7.41286589 -1.85711043
H  8.32673959  6.80257062 -2.97408931
H  7.57332774  0.84217023 -5.08828036
H  7.39636231 -0.84488798 -5.38582336
H  9.04476979 -0.16800841 -5.34219058
H  8.5141813  -2.78524346 -5.33799729
H  9.81391118 -4.02700988 -4.89393041
H 10.11954879 -2.26931856 -4.8879409 
H  8.50179335 -4.05459033  1.80769365
H  6.72802214 -2.94833895  3.9285257 
H  6.68755637 -5.39045572  1.63623574
H  5.78555522 -3.97337887  0.99825365
H  5.73423654 -4.32052128  2.6486574 
H  8.792701   -4.32404737  4.38987212
H  8.63846117 -2.86812032  5.36677104
H 10.37745354 -3.54471466  3.11625762
H 10.838013   -2.74784928  4.65884686
H 10.03799222 -1.83160516  3.30416149
H 7.53537481 2.67460475 6.6720389 
H 7.18763302 0.92222932 6.45450276
H 5.86681139 2.12799263 6.15932817
H 6.00633146 5.59960694 2.4046115 
H 7.8373742  9.50687296 2.4119433 
H 8.32039572 8.85379891 0.7326829 
H 9.24102211 8.6002839  2.227309  
