79

Mg 7.88313926 0.70970039 0.59883178
C  7.76371417  2.42174542 -2.54232302
C  7.39442584 -2.19001703 -1.13202438
C  7.53121283 -0.76586465  3.38369741
C 7.2283629  3.77319817 2.12589115
N  7.62804985  0.29710032 -1.56110724
C  7.66209862  1.03436091 -2.6667557 
C  7.65572778  0.18748587 -3.97447741
C  6.9743472  -1.13953593 -3.41168826
C  7.38542521 -1.02440707 -1.95440167
C  5.45141024 -1.12492941 -3.49506495
C  9.10077236 -0.09263728 -4.50843264
C  9.17560508 -0.62665194 -5.9418141 
H 10.2855407  -0.21208339 -6.78651749
N  8.00108391 -1.20855107  1.05627074
C  7.78669374 -2.25459299  0.22253268
C  7.99536217 -3.47256928  1.03473478
C  8.16220074 -3.05050696  2.45322774
C  7.87502098 -1.64208816  2.35698698
C  8.06864845 -4.84939183  0.44929581
C  8.51290664 -3.79981211  3.69969441
O  8.37774231 -3.28635504  4.8627363 
C  8.94067546 -5.19979703  3.52620645
N 7.22659008 1.35220952 2.47333444
C 7.22653004 0.52581649 3.52502762
C 6.99015756 1.27114625 4.80508644
C 7.07002156 2.82232445 4.43465298
C 7.2686512  2.68962484 2.90455263
C 5.65805299 0.98299571 5.51111595
C 8.07554924 3.68598215 5.2367929 
C 9.49050281 3.26999612 4.90218864
N  7.72565096  2.77748175 -0.04188868
C 7.42321961 3.8878128  0.75959383
C  7.32178729  5.05346301 -0.13764587
C  7.55743266  4.53391636 -1.40901818
C  7.76528049  3.12811453 -1.31514323
C 6.98608017 6.37959363 0.25364978
C  7.65759892  4.83532162 -2.82781294
O  7.66491126  5.87014323 -3.49608217
C  7.67436558  3.46100364 -3.63204921
C  8.79804162  3.53198116 -4.62985848
O  9.98719292  3.56583984 -4.25284552
O  8.31363669  3.31020034 -5.86140513
C  9.3819582   3.33758762 -6.89585817
H  7.01166745 -3.12726843 -1.54067684
H  7.50834491 -1.21602854  4.3783167 
H 7.11033885 4.77594548 2.54064548
H  7.05193242  0.60243832 -4.78173799
H  7.40310397 -2.03729474 -3.85656886
H  5.07894458 -0.14998963 -3.80920307
H  5.10258484 -1.35969373 -2.48923219
H  5.09065987 -1.93195733 -4.13329854
H  9.52392161 -0.94175747 -3.97177575
H  9.72323499  0.79873137 -4.42282762
H  8.2279891  -0.49708012 -6.46540182
H  9.31485821 -1.70683821 -5.89702351
H  7.74504071 -4.86009178 -0.59075637
H  7.32872194 -5.45669732  0.97025436
H  9.05730333 -5.2932847   0.56699304
H  8.14611269 -5.7604395   3.03335859
H  9.23616253 -5.54867518  4.51505498
H  9.79774936 -5.22623379  2.85265287
H 7.75964667 1.03940899 5.54034854
H 6.11386447 3.32653841 4.57680043
H 5.77313826 0.63163266 6.5367886 
H 5.10727615 0.26036422 4.90966802
H 4.96213703 1.82120714 5.53390997
H 7.93998127 3.53045225 6.30654884
H 7.97695205 4.75392784 5.04180157
H 9.6551867  2.41672068 5.55917588
H 10.18789307  4.07725651  5.12843736
H 9.56763178 2.91065373 3.87583092
H  7.67073084  7.03792808 -0.28096993
H 7.0738303  6.50840218 1.33221886
H  5.95371889  6.43662093 -0.0910734 
H  6.70246134  3.36905218 -4.11585609
H  9.08959985  4.07888084 -7.63966256
H  9.51460967  2.30896389 -7.23162865
H 10.34832162  3.73256385 -6.58046236
