79

Mg 7.88313926 0.70970039 0.59883178
C 7.28609853 2.52035738 3.62823398
C  6.87914172  3.49892548 -1.09092481
C  7.96692203 -1.00710549 -2.06615959
C  7.73955079 -2.21324641  2.4912972 
N 7.19529501 2.6962747  1.2924014 
C 7.06880355 3.2830028  2.47853843
C 6.75686803 4.8065332  2.38406429
C 6.10625207 4.84050961 0.92888647
C 6.79332144 3.62729927 0.32723846
C 4.59974334 4.60190275 0.92933908
C 8.05188576 5.68395886 2.45323286
C 7.81686477 7.17773768 2.69560438
H 8.77180834 7.91374293 3.51029883
N  7.95532244  1.2804342  -1.29111597
C  7.5160928   2.45699447 -1.79912116
C  7.7919971   2.40246409 -3.25087329
C  8.25330525  1.02395218 -3.57490059
C  8.04932606  0.36141892 -2.3120387 
C  7.65922344  3.58651552 -4.15869672
C  8.78256537  0.39979652 -4.82727651
O  8.90578323 -0.86614941 -4.95678427
C  9.07362081  1.31538378 -5.94532334
N  7.63948    -1.3274476   0.21374318
C  7.78297244 -1.81807066 -1.02225153
C  7.84500614 -3.31672504 -1.01103161
C  7.95817695 -3.74300454  0.52364463
C  7.85328535 -2.33828659  1.16710031
C  6.65471028 -4.04066276 -1.65533041
C  9.15392916 -4.64663951  0.91612329
C 10.44809432 -3.87832603  0.768039  
N 7.74758116 0.21392629 2.70759375
C  7.67883868 -1.06919525  3.26932997
C  7.48827677 -0.89556124  4.72108938
C 7.44250107 0.48538141 4.90205069
C 7.5685054  1.13289881 3.63985573
C  7.32372509 -1.94195818  5.67104211
C 7.29175281 1.56409916 5.86511869
O 7.24228781 1.62855154 7.0943022 
C 7.0622583  2.9216768  5.06502981
C 7.97828253 3.95821943 5.65645858
O 9.21688357 3.85732962 5.54220142
O 7.25500352 5.01704926 6.05179247
C 8.10689597 6.09502067 6.62136326
H  6.36307099  4.22766295 -1.7190599 
H  8.1027716  -1.63734915 -2.94750846
H  7.77072201 -3.07855218  3.15592286
H 6.04039399 5.17030249 3.12078733
H 6.38084065 5.74187538 0.38128911
H 4.24145313 4.31918375 1.91909617
H 4.43307201 3.79229946 0.21852534
H 4.07048725 5.46659424 0.52812391
H 8.51059488 5.72620658 1.46537554
H 8.7383066  5.29977836 3.20858561
H 6.79810853 7.37140633 3.03255718
H 7.88846132 7.69445361 1.73848444
H  7.14411327  4.4114959  -3.66817263
H  6.99216221  3.29319534 -4.96906798
H  8.61980185  3.89937685 -4.56825611
H  8.1637738   1.85014083 -6.21875033
H  9.52706779  0.70381909 -6.72456943
H  9.7834546   2.07093272 -5.6073429 
H  8.72253872 -3.67581421 -1.54714497
H  7.08284543 -4.29970926  0.85912723
H  6.93828003 -4.71812868 -2.4611425 
H  5.95203821 -3.28614943 -2.00782525
H  6.03428688 -4.60725028 -0.96144974
H  9.21364789 -5.50690453  0.25029767
H  9.0928127  -5.02164579  1.93783072
H 10.67620271 -3.98763925 -0.29160678
H 11.22889373 -4.32612739  1.38369899
H 10.30443545 -2.81528731  0.96245305
H  7.93751483 -1.67290293  6.53060038
H  7.62314526 -2.90413883  5.25612168
H  6.25099197 -1.88173938  5.85399935
H 6.01223122 3.18481672 5.18881395
H 7.72965575 6.30742645 7.62176698
H 8.10328842 6.90872511 5.8959137 
H 9.14009156 5.82604482 6.8438444 
