79

Mg 7.88314 0.70970 0.59883
C 7.34300 4.23981 0.84137
C 7.23023 0.98946 -2.73861
C 7.90716 -2.45741 0.43936
C 7.37347 0.54421 4.04245
N 7.36672 2.44837 -0.67042
C 7.24982 3.75665 -0.46574
C 7.09402 4.57634 -1.78149
C 6.51070 3.43055 -2.72430
C 7.09891 2.21772 -2.02504
C 4.98927 3.32812 -2.68881
C 8.46537 5.11311 -2.31348
C 8.36918 6.18704 -3.40103
H 9.35761 7.25474 -3.42025
N 8.08944 -0.49336 -0.95453
C 7.78993 -0.20873 -2.24471
C 8.11892 -1.42577 -3.01754
C 8.45486 -2.50421 -2.04687
C 8.13439 -1.86060 -0.79850
C 8.14138 -1.46875 -4.51467
C 8.97126 -3.89783 -2.21795
O 8.97412 -4.74452 -1.25999
C 9.39730 -4.27835 -3.57690
N 7.45566 -0.78553 1.99137
C 7.60101 -2.07864 1.68195
C 7.51424 -2.94536 2.90310
C 7.52119 -1.95092 4.15241
C 7.52898 -0.60649 3.38384
C 6.28596 -3.86201 2.98729
C 8.60460 -2.18839 5.23419
C 9.97332 -1.89163 4.66354
N 7.61217 2.13566 2.21260
C 7.39389 1.84476 3.56701
C 7.16151 3.12922 4.25273
C 7.24487 4.08290 3.24011
C 7.48630 3.43295 1.99609
C 6.85529 3.29390 5.63242
C 7.16167 5.49771 2.91571
O 7.06800 6.53438 3.57453
C 7.10064 5.64576 1.33136
C 8.08928 6.70849 0.93576
O 9.31553 6.52695 1.07972
O 7.45836 7.66464 0.23701
C 8.38824 8.73535 -0.21140
H 6.81506 0.91716 -3.74576
H 8.01646 -3.54388 0.44826
H 7.29153 0.57818 5.13038
H 6.38711 5.40397 -1.72037
H 6.89536 3.50524 -3.74125
H 4.56418 3.97533 -1.92178
H 4.77302 2.28276 -2.46754
H 4.56503 3.51967 -3.67476
H 8.96648 4.32471 -2.87507
H 9.07867 5.48559 -1.49223
H 7.36146 6.59819 -3.46715
H 8.53098 5.70976 -4.36759
H 7.69040 -0.57678 -4.94775
H 7.48271 -2.28163 -4.81978
H 9.14427 -1.64192 -4.90525
H 8.55679 -4.16635 -4.26215
H 9.81999 -5.27870 -3.49047
H 10.16368 -3.58033 -3.91510
H 8.37345 -3.61129 2.97184
H 6.58204 -1.98221 4.70531
H 6.53434 -4.91827 3.09366
H 5.67641 -3.69100 2.10044
H 5.58445 -3.61427 3.78349
H 8.60658 -3.23225 5.54611
H 8.46454 -1.57626 6.12522
H 10.23316 -2.82116 4.15826
H 10.67995 -1.67195 5.46455
H 9.92741 -1.11014 3.90482
H 7.45656 4.13384 5.98018
H 7.07514 2.38848 6.19764
H 5.78710 3.50348 5.57855
H 6.07751 5.92514 1.08181
H 7.99275 9.68053 0.16070
H 8.49501 8.62123 -1.29028
H 9.37973 8.73407 0.24277
