79

Mg 7.88313926 0.70970039 0.59883178
C  7.45820688  4.09030737 -0.49804693
C  7.33348209 -0.24975866 -2.62922961
C  7.80263428 -2.29182201  1.61912743
C 7.27232862 1.8397627  3.83851241
N  7.46239724  1.86690771 -1.24086748
C  7.38491682  3.16040991 -1.53754887
C  7.29412996  3.43893734 -3.06776265
C  6.69823119  2.03875382 -3.54356594
C  7.22466382  1.15779393 -2.42432406
C  5.17378     1.98969837 -3.53156052
C  8.69742562  3.71120933 -3.70679335
C  8.66856814  4.30896054 -5.1164794 
H  9.69329195  5.27226135 -5.48976302
N  8.0911393  -0.98645538 -0.39245101
C  7.83765819 -1.19240133 -1.70722079
C  8.14599257 -2.61572137 -1.96367933
C  8.41746283 -3.26605748 -0.6516348 
C  8.08466532 -2.19984373  0.25820697
C  8.20866604 -3.20946806 -3.33746494
C  8.89017803 -4.63508019 -0.27686934
O  8.83722234 -5.06760503  0.92508406
C  9.34057561 -5.50004997 -1.38231553
N  7.36584058 -0.15534126  2.42687446
C  7.47518918 -1.47406803  2.62177598
C  7.32466663 -1.82599677  4.07209599
C  7.33100192 -0.44063077  4.86611987
C 7.4064557  0.52403914 3.65699262
C  6.06370708 -2.61976133  4.44078261
C  8.37504672 -0.28489374  6.00019898
C  9.76853165 -0.24980697  5.41362702
N 7.61652642 2.63664627 1.56155821
C 7.35071236 2.8717239  2.91830262
C 7.1436422  4.32339292 3.07272738
C 7.28794039 4.8332345  1.78389667
C 7.54143894 3.7644613  0.87739   
C 6.80493847 4.99293335 4.28162332
C 7.26252368 6.02942323 0.9578558 
O 7.18625555 7.2379511  1.18398977
C  7.25079369  5.58270872 -0.5705864 
C  8.28604924  6.40227899 -1.29159925
O  9.50083774  6.26025832 -1.04363748
O  7.70810369  7.04591131 -2.31739571
C  8.68639463  7.85464302 -3.09267235
H  6.9443008  -0.68016095 -3.55401758
H  7.87420093 -3.30016624  2.03211427
H 7.16132056 2.27518476 4.83326757
H  6.61467681  4.24566718 -3.34336086
H  7.11342447  1.72393768 -4.50076358
H  4.74999818  2.88362692 -3.0741529 
H  4.91561563  1.10509191 -2.94905252
H  4.78402134  1.81242995 -4.53427738
H  9.18657084  2.76041403 -3.918421  
H  9.30004936  4.34745841 -3.05767261
H  7.67782501  4.68830257 -5.36834576
H  8.84072274  3.50485975 -5.83201047
H  7.80087759 -2.53116946 -4.08590638
H  7.5311823  -4.0630728  -3.34661577
H  9.21550131 -3.53642895 -3.59767891
H  8.52384137 -5.63105117 -2.0924795 
H  9.72602972 -6.40653891 -0.91696304
H 10.139637   -4.99323789 -1.92415629
H  8.15821062 -2.43782276  4.41458593
H  6.37629177 -0.24498908  5.35492132
H  6.27254412 -3.56703996  4.93853284
H  5.48534809 -2.77545948  3.53053541
H  5.3492247  -2.0801489   5.06187065
H  8.33241936 -1.13933676  6.67477739
H 8.23135502 0.6160938  6.59670979
H 10.01021817 -1.30565821  5.29701749
H 10.45970405  0.23499645  6.10388592
H 9.77069123 0.19673069 4.41909927
H 7.42482489 5.88868557 4.31819927
H 6.9776833  4.35598453 5.14883634
H 5.74650576 5.19087156 4.11311027
H  6.2452305   5.77218799 -0.94483535
H  8.3134456   8.87876028 -3.11075176
H  8.81919532  7.34757284 -4.04852213
H  9.66421893  7.99982306 -2.63210596
