79

Mg 7.88313926 0.70970039 0.59883178
C  7.48812726 -0.09212269  4.06484668
C 6.66691746 3.81252928 1.33117215
C  7.79427708  1.29127597 -2.51733483
C  7.97649815 -2.71664571 -0.03132492
N 7.20035486 1.62511666 2.49526647
C 7.15592513 1.23066166 3.76396748
C 6.79544202 2.37733627 4.75521077
C 6.02644603 3.34674999 3.74978539
C 6.69474216 2.92986584 2.45151274
C 4.53223927 3.05783904 3.64790987
C 8.06710755 3.06620992 5.35525318
C 7.81182281 3.96695131 6.56721384
H 8.81002347 4.01756491 7.62474952
N  7.78360838  2.42128522 -0.38270833
C 7.27179008 3.58896877 0.07537806
C  7.42853016  4.56275445 -1.02637282
C  7.89934491  3.81883189 -2.22762496
C  7.81843431  2.4591103  -1.75859547
C  7.18885849  6.03261493 -0.86569408
C  8.34059286  4.26223833 -3.58660361
O  8.4875248   3.44118747 -4.55555174
C  8.51321651  5.71335414 -3.78026822
N  7.66475271 -0.52461506 -1.07042184
C  7.71936518 -0.0250146  -2.30993822
C  7.82334645 -1.1158688  -3.33422529
C  8.07427987 -2.46557146 -2.51869591
C  7.9841331  -1.89364813 -1.08236473
C  6.60439147 -1.29220975 -4.25022945
C  9.32272765 -3.29822349 -2.90403695
C 10.57864634 -2.54013694 -2.53651682
N  7.93550118 -1.10187654  1.79319029
C  7.9486289  -2.42254807  1.32167319
C  7.87363024 -3.30333977  2.50177876
C  7.80492153 -2.42804378  3.58389753
C  7.80862041 -1.08565093  3.10822983
C  7.81678251 -4.72483822  2.47844395
C  7.70440179 -2.31473785  5.02989703
O  7.75463241 -3.11185667  5.96775175
C  7.37247501 -0.79994948  5.39192987
C  8.30523298 -0.38154692  6.49565578
O  9.5325139  -0.28182784  6.29266898
O 7.58811419 0.06150348 7.53968115
C 8.45404126 0.52000838 8.6586528 
H 6.08097852 4.73133986 1.39753241
H  7.87434161  1.44654217 -3.5952588 
H  8.08613737 -3.79667699 -0.14518745
H 6.13236729 2.08300217 5.56892039
H 6.23006081 4.39639138 3.96077352
H 4.26464144 2.14868266 4.18619148
H 4.32991626 2.94317286 2.58282299
H 3.94811991 3.91923993 3.97282537
H 8.44152127 3.80719082 4.64897939
H 8.82374951 2.32362501 5.61096124
H 6.81935111 3.79921533 6.98646744
H 7.79005829 5.00171078 6.22516245
H 6.69340284 6.25678784 0.07813599
H  6.46562094  6.32245998 -1.62768246
H  8.103445    6.61323156 -0.98713486
H  7.56955777  6.218751   -3.57379497
H  8.91757656  5.83672075 -4.78432182
H  9.22741554  6.08520501 -3.0450161 
H  8.66327188 -0.94291353 -4.00581872
H  7.24522707 -3.16604532 -2.62204888
H  6.83914181 -1.21153766 -5.31187407
H  5.85455946 -0.55737341 -3.95858152
H  6.05908659 -2.22529091 -4.11087691
H  9.35104042 -3.46307583 -3.98059076
H  9.35635331 -4.27345128 -2.41818607
H 10.72158837 -1.87777701 -3.38955779
H 11.41955102 -3.22620146 -2.42971893
H 10.42228485 -1.91231265 -1.65909233
H  8.49167094 -5.06999658  3.26161718
H  8.10737039 -5.11680417  1.50400854
H  6.76152283 -4.88833286  2.69650937
H  6.32937338 -0.77395249  5.70559394
H  8.15481167 -0.03844401  9.54568526
H 8.36827026 1.60626297 8.69180858
H 9.50906746 0.25182126 8.59281678
