79

Mg 7.88313926 0.70970039 0.59883178
C  8.07623257 -2.63354751 -0.66513913
C  6.89644786 -0.63199479  3.57697871
C 7.26874659 3.65585414 1.59849211
C  7.77365368  1.79707726 -2.71044086
N  7.56566716 -1.38209075  1.25018981
C  7.73224042 -2.57476959  0.68721421
C  7.58063775 -3.75774996  1.6896852 
C  6.67457283 -3.0416735   2.78890259
C  7.09525483 -1.60222917  2.55025916
C  5.17825941 -3.16697392  2.52085787
C  8.9553153  -4.21078083  2.28697547
C  8.9391095  -5.55775093  3.01551023
H 10.10716181 -6.42013755  2.91911983
N 7.66009094 1.42153367 2.42814664
C 7.26726582 0.72910262 3.52428243
C 7.25581279 1.70157322 4.63821723
C 7.49023959 3.05516974 4.0629655 
C 7.45586156 2.76455906 2.6523835 
C 7.08719095 1.30689171 6.07332809
C 7.69987478 4.39926096 4.6855439 
O 7.65385921 5.47952106 4.00327219
C 7.87491489 4.42528194 6.14900756
N  7.34454448  2.46368717 -0.39669876
C 7.19588894 3.61569131 0.2664543 
C  7.09074091  4.77829392 -0.67547885
C  7.44360806  4.2068406  -2.12416063
C  7.62021978  2.71391239 -1.75234933
C  5.72665981  5.48051052 -0.72222922
C  8.58317563  4.91342645 -2.90039589
C  9.90372561  4.67518806 -2.20290881
N  8.09412915 -0.20468838 -1.35831447
C  7.98962802  0.43339461 -2.60274349
C  8.09767343 -0.6134869  -3.63542606
C  8.24184231 -1.79757347 -2.91500997
C  8.19859639 -1.51177801 -1.52046964
C  7.99961519 -0.41141968 -5.04041268
C  8.3976545  -3.24067804 -2.99884765
O  8.58903785 -4.04037761 -3.9160968 
C  8.17447496 -3.85397458 -1.54630324
C  9.29599017 -4.82191961 -1.28439668
O 10.47141587 -4.42109117 -1.16160824
O  8.78368799 -6.02547443 -0.9851572 
C  9.84314423 -7.02539926 -0.68539595
H  6.35580729 -0.92227503  4.47996606
H 7.1640624  4.70059579 1.89848229
H  7.83285714  2.07127976 -3.76531571
H  7.06170875 -4.62894858  1.28949817
H  6.93982125 -3.35139099  3.79956591
H  4.98422489 -3.61801211  1.54780281
H  4.79061413 -2.14853242  2.55249694
H  4.6828847  -3.70146178  3.33184716
H  9.22075062 -3.55468741  3.11591849
H  9.72477342 -4.22802853  1.51434184
H  8.03065126 -6.1190985   2.79527958
H  8.88582725 -5.3657868   4.08719618
H 6.76978717 0.26924649 6.16868129
H 6.25036401 1.88410468 6.46608102
H 7.98187471 1.50907172 6.66239194
H 6.9954763  3.99040962 6.62442615
H 8.10146267 5.45933543 6.40641673
H 8.71589608 3.78442691 6.41547419
H  7.80524845  5.558194   -0.41536186
H  6.59078017  4.2549324  -2.80168979
H  5.7750812   6.54655046 -0.49880316
H  5.05898498  4.96614234 -0.03163042
H  5.18917144  5.37283607 -1.66399854
H  8.41922141  5.99035231 -2.91759214
H  8.67476007  4.57537204 -3.93266644
H  9.91365397  5.44413369 -1.43125082
H 10.73171835  4.81048705 -2.89956742
H  9.91935561  3.70826669 -1.69961489
H  8.79105675 -1.01044245 -5.49070255
H  8.1055361   0.64234417 -5.2972502 
H  6.99443995 -0.78816668 -5.22893441
H  7.20298059 -4.34705681 -1.56010887
H  9.68806943 -7.86885946 -1.3582709 
H  9.79355245 -7.21751236  0.38653605
H 10.8630396  -6.73967299 -0.94522849
