79

Mg 7.88313926 0.70970039 0.59883178
C  7.60547743  3.45389576 -1.68250767
C  7.39096001 -1.36273542 -2.06684532
C  7.67103342 -1.6996955   2.6497934 
C 7.22153327 2.97006792 3.16762083
N  7.55387702  1.11385701 -1.55265371
C  7.52923498  2.20747176 -2.30801491
C  7.49075497  1.90261798 -3.8354171 
C  6.86053205  0.43899494 -3.78418568
C  7.32495831  0.02288807 -2.39959645
C  5.33555332  0.43091007 -3.81379157
C  8.91984642  1.88893963 -4.47513699
C  8.95085796  1.92382952 -6.00588026
H 10.01811521  2.65850113 -6.66812462
N  8.06020865 -1.23680845  0.31143004
C  7.83652525 -1.90855553 -0.84356243
C  8.1027415  -3.33220488 -0.54517941
C  8.31501661 -3.45729015  0.92362519
C  7.99387156 -2.12335469  1.36278352
C  8.18320693 -4.39286139 -1.59982773
C  8.72973242 -4.60076763  1.79460283
O  8.62845974 -4.55717514  3.06834438
C  9.18073513 -5.82260294  1.10412688
N 7.28565555 0.59297529 2.59558501
C  7.34410273 -0.56237962  3.26694405
C  7.14121101 -0.35000833  4.73788673
C 7.17307206 1.23024319 4.96491753
C 7.31532624 1.67784271 3.48921823
C  5.84390966 -0.92376866  5.32424779
C 8.18985159 1.77142891 6.00111076
C 9.59952118 1.55702069 5.49716756
N 7.65624929 2.8613159  0.77237325
C 7.36097916 3.5868956  1.9355687 
C 7.19974604 4.99697319 1.53587749
C 7.39735203 4.9911139  0.1564709 
C  7.63909488  3.65775257 -0.28170709
C 6.85072257 6.07307928 2.3987867 
C  7.43612475  5.79755365 -1.05266458
O  7.39520343  7.00543526 -1.29107697
C  7.45162673  4.81793416 -2.30802601
C  8.53414998  5.2903418  -3.23984329
O  9.73595314  5.22372352 -2.91030243
O  8.00749364  5.52163901 -4.45214552
C  9.03424724  5.96515762 -5.43256497
H  7.01312212 -2.09591252 -2.78212908
H  7.69633616 -2.48530148  3.40783101
H 7.09789531 3.74461081 3.92673213
H  6.84739811  2.56489213 -4.41499359
H  7.29115933 -0.21622545 -4.54113243
H  4.93019288  1.43955841 -3.73484575
H  5.03098141 -0.16994891 -2.95664663
H  4.96801767 -0.09591023 -4.69478812
H  9.38170178  0.91688721 -4.30232288
H  9.52567952  2.70682422 -4.08352872
H  7.98115308  2.20460519 -6.41788326
H  9.11512003  0.9086799  -6.3673899 
H  7.82000539 -4.03054133 -2.56074075
H  7.47727867 -5.1745048  -1.31981369
H  9.18505825 -4.81458858 -1.68212048
H  8.38008259 -6.18906191  0.46131094
H  9.52166233 -6.50104196  1.88536893
H 10.01154471 -5.56938789  0.44489507
H  7.94334844 -0.80984607  5.31369121
H 6.21240826 1.61333716 5.30993649
H  6.00608708 -1.62429612  6.14379936
H  5.28612408 -1.39228671  4.51390399
H  5.13138465 -0.17746177  5.67460639
H 8.09907764 1.22794613 6.94096849
H 8.06067365 2.8319744  6.21746076
H 9.80789905 0.52786013 5.78740749
H 10.28746024  2.24750609  5.98622868
H 9.64475006 1.60420966 4.4089518 
H 7.49979567 6.90525997 2.12648464
H 6.97722397 5.7981633  3.4456972 
H 5.80483176 6.21761584 2.12845801
H  6.4639951   4.87742806 -2.76427838
H  8.69739678  6.91790457 -5.84126904
H  9.17610777  5.13796464 -6.12828931
H 10.00327424  6.24904604 -5.02057828
