79

Mg 7.88314 0.70970 0.59883
C 7.61338 -1.13638 3.65357
C 6.63163 3.39813 2.28678
C 7.68463 2.22461 -2.18007
C 8.02196 -2.34926 -1.06524
N 7.24333 0.97363 2.70160
C 7.24661 0.20473 3.78602
C 6.89583 0.97769 5.09249
C 6.07702 2.18881 4.45630
C 6.71175 2.21315 3.07700
C 4.58613 1.90394 4.30595
C 8.17245 1.48227 5.84573
C 7.93847 1.95609 7.28313
H 8.96848 1.70475 8.27975
N 7.71992 2.63757 0.19941
C 7.20063 3.59129 1.00936
C 7.30380 4.86229 0.26062
C 7.75050 4.54023 -1.12316
C 7.71046 3.10040 -1.09728
C 7.04129 6.20290 0.87510
C 8.13998 5.39470 -2.28777
O 8.27184 4.91837 -3.46688
C 8.27863 6.83872 -2.02582
N 7.63567 0.04714 -1.36520
C 7.64148 0.90722 -2.38951
C 7.73383 0.19037 -3.70387
C 8.03618 -1.33791 -3.35360
C 7.98061 -1.24146 -1.80897
C 6.49009 0.27222 -4.59966
C 9.28749 -1.97511 -4.00828
C 10.53970 -1.33321 -3.45417
N 8.00787 -1.38040 1.17063
C 8.03130 -2.48934 0.31250
C 8.01052 -3.69391 1.16258
C 7.95937 -3.19886 2.46418
C 7.92237 -1.77561 2.42848
C 7.98014 -5.03936 0.70079
C 7.90251 -3.54159 3.87597
O 7.99761 -4.58814 4.51876
C 7.55332 -2.22319 4.69798
C 8.51237 -2.14108 5.85418
O 9.73048 -1.94913 5.66256
O 7.82031 -2.06321 7.00114
C 8.71229 -1.94958 8.18589
H 6.03064 4.23449 2.64904
H 7.72757 2.70810 -3.15824
H 8.14856 -3.33748 -1.51116
H 6.26458 0.42750 5.79051
H 6.26712 3.12684 4.97752
H 4.35312 0.86570 4.54193
H 4.35244 2.11900 3.26305
H 3.99624 2.60576 4.89607
H 8.51010 2.41565 5.39535
H 8.95085 0.71847 5.84010
H 6.96315 1.63912 7.65351
H 7.88613 3.04487 7.27959
H 6.57175 6.10994 1.85359
H 6.28890 6.69403 0.25833
H 7.94032 6.81794 0.91772
H 7.33249 7.22877 -1.65001
H 8.64859 7.27810 -2.95152
H 9.00850 6.98453 -1.22896
H 8.54863 0.58615 -4.30876
H 7.21781 -1.99489 -3.64910
H 6.68955 0.68410 -5.58924
H 5.73596 0.85940 -4.07641
H 5.96740 -0.67304 -4.74352
H 9.28488 -1.79776 -5.08322
H 9.35510 -3.05150 -3.84991
H 10.64290 -0.43559 -4.06283
H 11.39652 -1.99483 -3.58583
H 10.39921 -1.01247 -2.42176
H 8.68594 -5.59098 1.32170
H 8.24718 -5.10215 -0.35389
H 6.93562 -5.29178 0.88280
H 6.52036 -2.32475 5.02934
H 8.45200 -2.76332 8.86286
H 8.60687 -0.92979 8.55645
H 9.76963 -2.15459 8.01463
