79

Mg 7.88313926 0.70970039 0.59883178
C 7.30283052 4.12238749 1.50933852
C  7.16585154  1.60094955 -2.61585923
C  7.94437778 -2.37030169 -0.15380226
C  7.4386266  -0.10772791  3.95738511
N  7.32161484  2.64739928 -0.31257337
C 7.191908   3.89193074 0.13630142
C  7.00171584  4.94159074 -0.99922262
C  6.41582532  3.98416271 -2.13150433
C  7.03204255  2.67107185 -1.68206835
C  4.8967185   3.85273271 -2.09222784
C  8.35620526  5.59043272 -1.44204706
C  8.22654718  6.84785909 -2.30658262
H  9.20084948  7.91572864 -2.14003636
N  8.07625233 -0.17674682 -1.15609519
C  7.74962718  0.34035691 -2.36489862
C  8.07983451 -0.7044747  -3.35785936
C  8.44710066 -1.94056773 -2.61268583
C  8.14136968 -1.54806935 -1.26070522
C  8.07547323 -0.46512623 -4.83652203
C  8.97790252 -3.26887722 -3.05083568
O  9.00900289 -4.28027163 -2.26937031
C  9.38382496 -3.38055262 -4.46356268
N  7.50016058 -1.02707857  1.69179161
C  7.65620921 -2.23657374  1.14246998
C  7.60276318 -3.31850807  2.18001546
C  7.61993373 -2.57644216  3.5938034 
C  7.59664697 -1.11162459  3.0917703 
C  6.38793638 -4.2540415   2.10941768
C  8.72586176 -2.99563501  4.59461285
C 10.08005219 -2.5752758   4.06871896
N 7.62366068 1.80267878 2.45601085
C 7.43386952 1.25912623 3.73476178
C 7.19780402 2.38807578 4.65335527
C 7.25055122 3.51617833 3.83699299
C 7.47742471 3.11538424 2.48933408
C 6.91478001 2.28579328 6.04399171
C 7.14350782 4.96523982 3.78581194
O 7.04876907 5.85809034 4.62921903
C 7.05166495 5.40725668 2.25871896
C 8.01936789 6.54094143 2.05471184
O 9.25024321 6.35508483 2.14285521
O 7.3637126  7.60117782 1.55816684
C 8.27159554 8.75168213 1.304706  
H  6.73330151  1.71252132 -3.61204857
H  8.06757788 -3.43722888 -0.35109925
H  7.37615425 -0.28001478  5.0334276 
H  6.28560643  5.73166984 -0.77253713
H  6.7808651   4.2546319  -3.12211746
H  4.4775482   4.33752381 -1.21064129
H  4.6978119   2.78112151 -2.06817369
H  4.45214211  4.21930259 -3.01783865
H  8.8569187   4.92961433 -2.14962469
H  8.97963568  5.81172432 -0.57504617
H  7.21266093  7.24805289 -2.27850075
H  8.37669196  6.56325731 -3.34805195
H  7.60538583  0.48503317 -5.08704138
H  7.42169378 -1.21658629 -5.27877672
H  9.07317476 -0.54590231 -5.26826139
H  8.52958683 -3.15520203 -5.10234536
H  9.82066607 -4.37249788 -4.57340096
H 10.13498668 -2.61934751 -4.6763345 
H  8.47145552 -3.97176378  2.10890569
H  6.69151749 -2.72593507  4.14550001
H  6.65158424 -5.30740686  2.01135527
H  5.76016332 -3.92919972  1.28015909
H  5.69801299 -4.17143368  2.94882144
H  8.74676443 -4.07934016  4.70457753
H  8.59436316 -2.5640639   5.58693613
H 10.34237177 -3.38910368  3.39365998
H 10.79835899 -2.49876497  4.88565986
H 10.01038579 -1.66601375  3.47132869
H 7.51161419 3.05490646 6.53411708
H 7.15638465 1.29392742 6.4253476 
H 5.84321366 2.48476974 6.04714192
H 6.02068709 5.71225311 2.08212953
H 7.87103303 9.60374346 1.85404667
H 8.3600689  8.84395214 0.22208709
H 9.27116147 8.68086745 1.73504569
