79

Mg 7.88313926 0.70970039 0.59883178
C 7.34300109 4.23980531 0.84136846
C  7.2302266   0.98946359 -2.73860775
C  7.90716175 -2.4574137   0.43935697
C 7.37347182 0.5442147  4.04245119
N  7.36671627  2.44836726 -0.67041635
C  7.24981977  3.75665349 -0.46573772
C  7.09402206  4.5763445  -1.7814914 
C  6.51069652  3.43055265 -2.72430122
C  7.09891033  2.21771921 -2.02504193
C  4.9892666   3.32811705 -2.6888054 
C  8.46537489  5.11310594 -2.31347782
C  8.36917764  6.18703738 -3.40103074
H  9.35760643  7.25473919 -3.42024966
N  8.08944462 -0.49335848 -0.95453149
C  7.78993026 -0.20872961 -2.24471115
C  8.11891906 -1.42576514 -3.01754484
C  8.45486254 -2.50420571 -2.04687399
C  8.13439477 -1.86059714 -0.79849648
C  8.14137839 -1.46874968 -4.51467473
C  8.97125734 -3.89783403 -2.21795443
O  8.97412193 -4.74451841 -1.25999234
C  9.3972975  -4.2783484  -3.57690277
N  7.45565754 -0.78553321  1.99137293
C  7.60100942 -2.07863647  1.68195286
C  7.51424182 -2.94536284  2.90309814
C  7.52118546 -1.95092113  4.15241414
C  7.528984   -0.60648721  3.38383973
C  6.28595617 -3.86200738  2.98728928
C  8.60460281 -2.18838853  5.23418819
C  9.97332107 -1.89163326  4.66353537
N 7.61217321 2.13565996 2.21260429
C 7.39389005 1.84475616 3.56700506
C 7.16151344 3.12922209 4.25272833
C 7.2448725  4.08289661 3.24010739
C 7.48630325 3.4329532  1.99609101
C 6.8552871  3.29390202 5.63241668
C 7.16166651 5.49771175 2.91571273
O 7.06800236 6.53437956 3.57452977
C 7.10063861 5.64576256 1.33135685
C 8.08928332 6.70849201 0.93576016
O 9.31553032 6.52694599 1.07972319
O 7.45835868 7.6646437  0.23701124
C  8.38823516  8.73534833 -0.21140299
H  6.81506311  0.91715988 -3.7457584 
H  8.01645758 -3.54388193  0.44825736
H 7.29152801 0.57818336 5.13037781
H  6.38710912  5.4039687  -1.72036633
H  6.89536241  3.50523884 -3.74124572
H  4.56417593  3.97533268 -1.92177811
H  4.77301525  2.28276112 -2.46753783
H  4.56503095  3.51966652 -3.67476174
H  8.96648406  4.32471174 -2.87506948
H  9.07866922  5.48558988 -1.49222768
H  7.36146092  6.59818726 -3.46715041
H  8.53097762  5.70976189 -4.36758589
H  7.69039763 -0.57678238 -4.94775174
H  7.48271036 -2.28162965 -4.81978384
H  9.14427111 -1.64192023 -4.90525142
H  8.55679353 -4.1663502  -4.26214615
H  9.81998618 -5.27870492 -3.49046727
H 10.1636752  -3.58032542 -3.91510113
H  8.37345117 -3.61129041  2.97184225
H  6.58203636 -1.98220882  4.70531021
H  6.53433564 -4.91827335  3.09366051
H  5.67640653 -3.69099503  2.10044374
H  5.5844485  -3.61426741  3.78348581
H  8.60657694 -3.2322497   5.54611118
H  8.46454363 -1.57625777  6.12521589
H 10.23315899 -2.82115694  4.1582612 
H 10.67994815 -1.67195195  5.46455302
H  9.92741243 -1.11014193  3.90481955
H 7.45655911 4.13384352 5.98017987
H 7.0751425  2.38847837 6.19763753
H 5.78709689 3.50348372 5.57855387
H 6.07750867 5.92514498 1.08181208
H 7.99275276 9.68052767 0.16070408
H  8.49500508  8.6212309  -1.29028315
H 9.37973014 8.73407135 0.24277217
