79

Mg 7.88314 0.70970 0.59883
C 7.29541 2.32300 3.73954
C 6.85649 3.59478 -0.90627
C 7.95931 -0.83543 -2.16945
C 7.76404 -2.32730 2.30415
N 7.19020 2.64522 1.41997
C 7.06792 3.15545 2.64139
C 6.74842 4.68034 2.64482
C 6.08920 4.80265 1.19828
C 6.77833 3.63317 0.51761
C 4.58383 4.55702 1.19202
C 8.03976 5.55808 2.76198
C 7.79928 7.03245 3.09927
H 8.75555 7.72042 3.95343
N 7.94169 1.39867 -1.25177
C 7.49409 2.60269 -1.68221
C 7.76179 2.64107 -3.13602
C 8.22755 1.28800 -3.54879
C 8.03398 0.54625 -2.32907
C 7.61828 3.87926 -3.96669
C 8.75238 0.74659 -4.84090
O 8.88067 -0.50806 -5.05059
C 9.03270 1.73220 -5.90063
N 7.64663 -1.30034 0.08751
C 7.78518 -1.71143 -1.17771
C 7.85418 -3.20749 -1.26127
C 7.97825 -3.72900 0.24285
C 7.87063 -2.36813 0.97410
C 6.66350 -3.89532 -1.94332
C 9.18041 -4.64962 0.57101
C 10.47014 -3.86709 0.46449
N 7.76214 0.08144 2.67289
C 7.70258 -1.23483 3.15304
C 7.51968 -1.15391 4.61388
C 7.46860 0.21265 4.88174
C 7.58427 0.93898 3.66217
C 7.36548 -2.25886 5.49692
C 7.31849 1.22781 5.91167
O 7.27589 1.21448 7.14273
C 7.07809 2.63193 5.19998
C 7.99276 3.63370 5.85047
O 9.23113 3.54636 5.72325
O 7.26693 4.66193 6.31572
C 8.11715 5.70611 6.94736
H 6.33342 4.35906 -1.48439
H 8.09293 -1.40824 -3.08949
H 7.80306 -3.23258 2.91276
H 6.03458 4.99343 3.40694
H 6.35644 5.73807 0.70705
H 4.23261 4.21076 2.16396
H 4.41675 3.79297 0.43254
H 4.04827 5.44262 0.84900
H 8.49252 5.66473 1.77623
H 8.73233 5.13051 3.48782
H 6.78162 7.19945 3.45338
H 7.86292 7.60876 2.17623
H 7.10224 4.66915 -3.42233
H 6.94787 3.63425 -4.79024
H 8.57501 4.22206 -4.36102
H 8.11882 2.27859 -6.13480
H 9.48442 1.17318 -6.71935
H 9.74100 2.46848 -5.51965
H 8.73022 -3.52775 -1.82378
H 7.10746 -4.31007 0.54742
H 6.94549 -4.51928 -2.79177
H 5.95532 -3.12360 -2.24369
H 6.04974 -4.50755 -1.28310
H 9.24022 -5.46594 -0.14801
H 9.12697 -5.08852 1.56739
H 10.69258 -3.90832 -0.60118
H 11.25657 -4.34889 1.04639
H 10.32272 -2.81913 0.72628
H 7.98302 -2.04143 6.36832
H 7.66691 -3.19150 5.02055
H 6.29357 -2.21561 5.68922
H 6.02760 2.88153 5.34589
H 7.74476 5.85322 7.96122
H 8.10557 6.56385 6.27465
H 9.15285 5.42879 7.14674
