79

Mg 7.88313926 0.70970039 0.59883178
C 7.42153524 0.57912354 4.14595532
C 6.70509759 3.9100523  0.7129829 
C  7.85204472  0.69590739 -2.57220336
C  7.93186689 -2.77492117  0.62527433
N 7.18554093 1.9740284  2.27677018
C 7.11510768 1.82581704 3.59595309
C 6.75749482 3.14293052 4.34741775
C 6.01973672 3.91561704 3.16392017
C 6.70145661 3.25356618 1.97949177
C 4.52289686 3.63166109 3.09083493
C 8.03044584 3.9161914  4.83052674
C 7.7706635  5.03195842 5.84685891
H 8.75295862 5.26790925 6.89412751
N  7.82609616  2.20726139 -0.68837727
C  7.32581879  3.44665226 -0.46720123
C  7.51513674  4.19378436 -1.72919701
C  7.9927197   3.23130751 -2.76052956
C  7.88293249  1.9851989  -2.04601009
C  7.29636762  5.67055165 -1.85186911
C  8.46205583  3.4055851  -4.17031072
O  8.61099487  2.4151574  -4.96494531
C  8.66069838  4.79207614 -4.62990373
N  7.67118821 -0.81366277 -0.81257759
C  7.75301731 -0.55683106 -2.12266364
C  7.8555927  -1.82208886 -2.9217506 
C  8.07233264 -2.99739605 -1.86277477
C  7.96893234 -2.164447   -0.56132394
C  6.64839785 -2.15209722 -3.81044969
C  9.31324591 -3.90341516 -2.06197972
C 10.57517289 -3.10571391 -1.82050297
N  7.88812406 -0.84543687  2.11295471
C  7.88761348 -2.23127925  1.89821152
C  7.78027395 -2.87338391  3.22118085
C  7.7086386  -1.80939042  4.11819323
C  7.74106131 -0.58056987  3.39899865
C  7.70122707 -4.27306762  3.46422633
C  7.58743356 -1.4248874   5.51509114
O  7.61039232 -2.03196718  6.58673476
C 7.27401124 0.13504091 5.58003039
C 8.19600209 0.74170392 6.60238154
O 9.42772311 0.78590574 6.40674023
O 7.46984502 1.38225345 7.53132407
C 8.32542109 2.03201416 8.55989328
H 6.13286322 4.83229764 0.59486274
H  7.95133532  0.64464639 -3.65845917
H  8.02609827 -3.85839488  0.71832352
H 6.0772425  3.0153133  5.18967343
H 6.23668727 4.9835426  3.17768417
H 4.23254649 2.84343084 3.78532089
H 4.33538282 3.32129972 2.06272633
H 3.94754494 4.54613029 3.23744069
H 8.42752981 4.50631245 4.00460758
H 8.77112625 3.22542184 5.23494726
H 6.76924678 4.95865742 6.27194775
H 7.77066325 5.98411287 5.31619716
H  6.78990235  6.07449427 -0.97615894
H  6.58977407  5.82105621 -2.66782434
H  8.22183983  6.20632942 -2.06347102
H  7.72208567  5.33920386 -4.53931432
H  9.08254773  4.71927074 -5.63169837
H  9.36918099  5.28649153 -3.96465579
H  8.70851193 -1.78918743 -3.59841322
H  7.23396873 -3.69424414 -1.84785151
H  6.90089787 -2.27551368 -4.8638808 
H  5.90588201 -1.36608037 -3.67576949
H  6.08623921 -3.03533207 -3.50830592
H  9.35569205 -4.26814244 -3.08770792
H  9.32381136 -4.77021057 -1.4010674 
H 10.74187845 -2.61747402 -2.78001486
H 11.40331092 -3.77005024 -1.57139326
H 10.41516251 -2.32214252 -1.07962608
H  8.35827517 -4.47329688  4.31049168
H  8.00068674 -4.84495509  2.58623338
H  6.64023714 -4.37924582  3.68979794
H 6.2266977  0.23278288 5.86411288
H 8.00358775 1.65419259 9.53041281
H 8.25640722 3.10611833 8.38685477
H 9.37695184 1.74288257 8.56489421
