79

Mg 7.88313926 0.70970039 0.59883178
C  7.52907825  3.82879486 -1.12108231
C  7.3686306  -0.83270624 -2.40105615
C  7.73910075 -2.04510322  2.16309869
C 7.23999578 2.4365436  3.55687844
N  7.50951861  1.50549563 -1.43285804
C  7.45721935  2.72099337 -1.96858283
C  7.39469921  2.70788529 -3.52527593
C  6.78411667  1.25086829 -3.74042341
C  7.27900446  0.58952976 -2.46620152
C  5.25907651  1.22426929 -3.74727872
C  8.8119198   2.8373077  -4.17832007
C  8.81450744  3.15958399 -5.67547915
H  9.86008796  4.02242487 -6.20426548
N  8.07958044 -1.14511882 -0.05224929
C  7.84335802 -1.59143407 -1.30934422
C  8.13300302 -3.04137905 -1.2882178 
C  8.37365297 -3.43673595  0.12736495
C  8.04370813 -2.21430126  0.81450966
C  8.20761657 -3.8836489  -2.52464989
C  8.8186743  -4.71672354  0.76117863
O  8.74015163 -4.91476768  2.02180812
C  9.27243127 -5.77980029 -0.15370629
N 7.32377288 0.21052855 2.54705449
C  7.40911621 -1.04928752  2.98814856
C  7.23046454 -1.12023273  4.47576053
C 7.24644038 0.38955273 4.99541967
C 7.35601887 1.10856794 3.62820363
C  5.95147086 -1.81444741  4.96387131
C 8.27504634 0.7425573  6.09894881
C 9.67787498 0.6490369  5.54179199
N 7.63220975 2.78654446 1.17744918
C 7.34907469 3.27594442 2.46080269
C 7.16270746 4.733257   2.33600168
C 7.33513041 4.98973494 0.9772028 
C 7.58570333 3.76641888 0.29236484
C 6.8159025  5.62244853 3.39122618
C  7.34157691  6.00944534 -0.05913987
O  7.28100146  7.2398045  -0.06546062
C  7.34654811  5.28342793 -1.47642636
C  8.40578808  5.93958272 -2.3195044 
O  9.61416056  5.83134829 -2.02712234
O  7.85417618  6.38607565 -3.45832413
C  8.85713821  7.0221025  -4.35369613
H  6.98710591 -1.42438901 -3.23549693
H  7.7882061  -2.95860603  2.75936984
H 7.12044538 3.05265396 4.44994547
H  6.73251691  3.45693085 -3.95986694
H  7.20910789  0.75641045 -4.61370223
H  4.84247659  2.19356937 -3.47374104
H  4.9778587   0.46834712 -3.01379987
H  4.88220801  0.86653344 -4.70580478
H  9.28913775  1.8575567  -4.19861828
H  9.41439472  3.5765964  -3.64935677
H  7.83395487  3.49731171 -6.01217729
H  8.9849872   2.23314394 -6.22397298
H  7.82235271 -3.35310433 -3.3945    
H  7.51688575 -4.71508658 -2.38568471
H  9.21306072 -4.26644727 -2.70037544
H  8.46487347 -6.03166585 -0.84142945
H  9.63614897 -6.587403    0.48059435
H 10.08777907 -5.39410612 -0.76640276
H  8.04875378 -1.66724065  4.94224854
H 6.28746444 0.68571676 5.42124359
H  6.13746301 -2.65377718  5.63442143
H  5.38495179 -2.13121847  4.08865519
H  5.23606699 -1.15864369  5.45938698
H 8.20835805 0.03084239 6.92111701
H 8.13641398 1.74140194 6.51288292
H  9.9045478  -0.4128803   5.63001496
H 10.36583099  1.24620974  6.14121849
H 9.7026077  0.9004977  4.48130071
H 7.4492927  6.50116599 3.2702242 
H 6.96498869 5.15782896 4.36565163
H 5.76349845 5.79855881 3.16921966
H  6.35006884  5.4118674  -1.897917  
H  8.50082805  8.02918663 -4.57062609
H  8.9967323   6.34266935 -5.19470093
H  9.82985687  7.23890852 -3.91080499
