79

Mg 7.88313926 0.70970039 0.59883178
C 7.35919925 4.25052309 0.61543067
C  7.2500554   0.7816468  -2.75334565
C  7.89232106 -2.46124614  0.63926459
C 7.35365618 0.76384771 4.04301191
N  7.38236662  2.36730824 -0.78037415
C  7.27083735  3.68641512 -0.6591749 
C  7.12637533  4.4222915  -2.02482152
C  6.54258277  3.22207598 -2.89698375
C  7.12090055  2.05301024 -2.11932197
C  5.02049039  3.12908906 -2.8639652 
C  8.50329113  4.91814817 -2.58156206
C  8.41843023  5.92185979 -3.73512853
H  9.41223752  6.98166557 -3.81579315
N  8.09204177 -0.58977095 -0.8744584 
C  7.80107005 -0.38561489 -2.18172339
C  8.12827483 -1.65042513 -2.87445212
C  8.45349814 -2.66710498 -1.83585408
C  8.12934296 -1.94465545 -0.63237242
C  8.15878412 -1.78774946 -4.36574726
C  8.96390564 -4.07110685 -1.91582229
O  8.95727973 -4.85575986 -0.90644141
C  9.39554652 -4.53844009 -3.24560716
N  7.44056095 -0.69284499  2.08025876
C  7.58119832 -2.00352922  1.85373726
C  7.48339049 -2.79119027  3.12651481
C  7.48837391 -1.72005725  4.31074546
C  7.50708789 -0.42676613  3.4590895 
C  6.2501241  -3.6950423   3.26111244
C  8.56461148 -1.89388671  5.41161557
C  9.93791492 -1.6399808   4.83138506
N 7.61035079 2.23573099 2.11799671
C 7.38315362 2.03174358 3.48673503
C 7.1533739  3.35791642 4.08884373
C 7.24705385 4.24550513 3.01867769
C 7.49211867 3.51737223 1.81948725
C 6.84035772 3.61060108 5.45361673
C 7.17266334 5.63744029 2.60535027
O 7.0805108  6.71397586 3.19701918
C 7.12111739 5.68565891 1.01448731
C 8.11719347 6.71678871 0.55851275
O 9.3417109  6.53902707 0.72075908
O  7.49488916  7.62991422 -0.20272383
C  8.43252975  8.66594635 -0.71225453
H  6.84010378  0.64794725 -3.75634371
H  7.99617196 -3.54548711  0.71720361
H 7.26587805 0.86666753 5.12614444
H  6.42325246  5.25536983 -2.02005365
H  6.93322216  3.23077166 -3.91435647
H  4.59439008  3.8252943  -2.14170639
H  4.79783491  2.10075732 -2.57856837
H  4.60265954  3.26009278 -3.8624803 
H  9.00357312  4.09363903 -3.08946325
H  9.11388424  5.33880372 -1.78184275
H  7.41314704  6.33266443 -3.8328744 
H  8.58319199  5.38389735 -4.66875049
H  7.71463368 -0.92277111 -4.85675422
H  7.49778358 -2.61519456 -4.62288906
H  9.16294558 -1.98980064 -4.7387983 
H  8.55940408 -4.46596588 -3.94142488
H  9.81278108 -5.53329999 -3.09388669
H 10.16723463 -3.86664837 -3.62262488
H  8.33889131 -3.45541438  3.24205992
H  6.54604349 -1.71212312  4.85903774
H  6.49266669 -4.74364111  3.43523487
H  5.64633535 -3.57743693  2.36172425
H  5.54547056 -3.39440396  4.03602984
H  8.55968247 -2.91602037  5.78866263
H  8.42267619 -1.22619686  6.26149535
H 10.19592094 -2.60067813  4.38717165
H 10.64119145 -1.37352728  5.62107845
H  9.90007456 -0.90763945  4.02470653
H 7.4438627  4.46800532 5.75128889
H 7.05259296 2.74158315 6.0760049 
H 5.77353454 3.82129088 5.38044486
H 6.10077984 5.9534741  0.74189182
H  8.03969576  9.63450306 -0.40271721
H  8.54468556  8.48359344 -1.78116683
H  9.4214841   8.68871899 -0.25313612
