79

Mg 7.88314 0.70970 0.59883
C 7.95882 -2.83148 1.11509
C 6.73260 1.00160 3.79791
C 7.37687 3.78636 0.02052
C 7.93849 0.06306 -2.82527
N 7.44390 -0.79716 2.15995
C 7.57223 -2.11715 2.25128
C 7.33014 -2.66332 3.69019
C 6.42253 -1.48207 4.25843
C 6.91953 -0.34891 3.37816
C 4.93192 -1.68322 4.00521
C 8.66044 -2.80577 4.50368
C 8.55498 -3.63136 5.78922
H 9.68300 -4.46221 6.18242
N 7.63233 2.22299 1.84378
C 7.16974 2.15743 3.11539
C 7.16697 3.54732 3.62026
C 7.48538 4.44730 2.47712
C 7.48513 3.51162 1.38173
C 6.93092 3.90050 5.05667
C 7.73783 5.91899 2.38484
O 7.76682 6.53522 1.26502
C 7.86403 6.64519 3.66146
N 7.46332 1.77636 -1.14577
C 7.34753 3.10877 -1.12893
C 7.33027 3.67293 -2.51867
C 7.70445 2.46326 -3.49152
C 7.79662 1.33251 -2.43739
C 6.00376 4.29941 -2.97022
C 8.90229 2.67692 -4.45066
C 10.18542 2.77223 -3.65594
N 8.11656 -1.04233 -0.66092
C 8.08513 -1.08337 -2.06234
C 8.17799 -2.50152 -2.45517
C 8.24071 -3.19262 -1.24675
C 8.16378 -2.26694 -0.16718
C 8.13757 -3.00184 -3.78652
C 8.33001 -4.49966 -0.61624
O 8.51397 -5.64784 -1.02285
C 8.02843 -4.32791 0.93791
C 9.09276 -5.07661 1.69287
O 10.28117 -4.69650 1.66927
O 8.51353 -5.97175 2.50759
C 9.51308 -6.72854 3.30779
H 6.14827 1.19821 4.69894
H 7.31218 4.84814 -0.22623
H 8.04660 -0.20881 -3.87686
H 6.78401 -3.60585 3.73266
H 6.63811 -1.27092 5.30564
H 4.74973 -2.54355 3.36134
H 4.59264 -0.76705 3.52147
H 4.38422 -1.74592 4.94589
H 8.92863 -1.83757 4.92645
H 9.45402 -3.21419 3.87699
H 7.62870 -4.20584 5.81911
H 8.47452 -2.94368 6.63114
H 6.56114 3.04692 5.62342
H 6.10982 4.61678 5.07765
H 7.81370 4.33952 5.52175
H 6.94911 6.51711 4.24032
H 8.13094 7.66858 3.40015
H 8.66380 6.19200 4.24791
H 8.07204 4.46285 -2.62928
H 6.87844 2.19934 -4.15238
H 6.09554 5.33889 -3.28609
H 5.28911 4.20048 -2.15365
H 5.49408 3.76337 -3.77040
H 8.79077 3.61493 -4.99346
H 9.01264 1.87952 -5.18566
H 10.20590 3.81795 -3.35118
H 11.04216 2.53252 -4.28661
H 10.13761 2.16936 -2.74888
H 8.91429 -3.76388 -3.84971
H 8.30251 -2.20688 -4.51345
H 7.12251 -3.39702 -3.82299
H 7.03548 -4.74121 1.11209
H 9.34078 -7.78797 3.11766
H 9.41791 -6.37685 4.33524
H 10.55374 -6.63024 2.99680
