79

Mg 7.88314 0.70970 0.59883
C 7.88757 1.36476 -2.92013
C 7.35546 -2.57402 -0.16394
C 7.42290 0.17789 3.69108
C 7.27762 4.10771 1.08105
N 7.66886 -0.34766 -1.33423
C 7.75022 0.00943 -2.61213
C 7.75176 -1.20107 -3.59298
C 7.02012 -2.27475 -2.66890
C 7.39894 -1.72109 -1.30659
C 5.50065 -2.25764 -2.80085
C 9.20088 -1.66058 -3.96799
C 9.29535 -2.61425 -5.16254
H 10.43653 -2.50347 -6.05852
N 7.93629 -0.97388 1.63110
C 7.71293 -2.22267 1.15577
C 7.86776 -3.13234 2.31128
C 8.01202 -2.29431 3.53398
C 7.76676 -0.98002 2.99745
C 7.91662 -4.62399 2.18343
C 8.31142 -2.62652 4.96162
O 8.16261 -1.77510 5.90370
C 8.70392 -4.01915 5.24365
N 7.19973 1.91445 2.16061
C 7.15114 1.45526 3.41590
C 6.90486 2.56530 4.39422
C 7.03701 3.92320 3.56453
C 7.26876 3.31860 2.15775
C 5.54855 2.53590 5.11225
C 8.04663 4.97372 4.09131
C 9.45707 4.44749 3.94686
N 7.79908 2.47930 -0.65515
C 7.50855 3.78906 -0.24674
C 7.46147 4.62057 -1.46347
C 7.71314 3.72784 -2.50345
C 7.87925 2.41681 -1.97248
C 7.15364 6.00882 -1.51274
C 7.85594 3.57225 -3.94194
O 7.90834 4.34836 -4.89713
C 7.85368 2.01618 -4.28029
C 9.00268 1.75263 -5.21498
O 10.18286 1.87905 -4.82954
O 8.54215 1.16903 -6.33206
C 9.63550 0.85373 -7.28984
H 6.95661 -3.58431 -0.27429
H 7.36343 0.05901 4.77494
H 7.17771 5.19172 1.16107
H 7.17948 -1.04557 -4.50772
H 7.43422 -3.27425 -2.80023
H 5.16330 -1.42132 -3.41297
H 5.12120 -2.16207 -1.78331
H 5.13299 -3.21580 -3.16899
H 9.58702 -2.30924 -3.18174
H 9.84578 -0.79869 -4.14287
H 8.36465 -2.63542 -5.73023
H 9.40321 -3.62970 -4.78119
H 7.61806 -4.95063 1.18808
H 7.14763 -5.02546 2.84311
H 8.88934 -5.02827 2.46397
H 7.90612 -4.68974 4.92368
H 8.96556 -4.04963 6.30075
H 9.57594 -4.26961 4.63883
H 7.64958 2.55843 5.18906
H 6.09218 4.46481 3.51328
H 5.62895 2.51793 6.19941
H 4.99246 1.67300 4.74692
H 4.87601 3.35296 4.85242
H 7.88096 5.16035 5.15181
H 7.98269 5.93016 3.57229
H 9.58190 3.83715 4.84057
H 10.17110 5.27163 3.93405
H 9.54888 3.78607 3.08513
H 7.86916 6.45561 -2.20294
H 7.21888 6.46417 -0.52481
H 6.13191 5.97581 -1.89066
H 6.89156 1.79727 -4.74237
H 9.38205 1.33315 -8.23544
H 9.74740 -0.23065 -7.28633
H 10.60463 1.30852 -7.08179
