79

Mg 7.88313926 0.70970039 0.59883178
C  8.09418639 -1.5966773  -2.13032469
C  7.08994551 -1.94682512  2.58799766
C 7.24764938 2.77590447 2.91908486
C  7.57100411  3.25085224 -1.76565124
N  7.65398139 -1.44947985  0.16746957
C  7.82086023 -2.21357012 -0.90746694
C  7.75271241 -3.73896714 -0.59779973
C  6.88814064 -3.68571653  0.74073604
C  7.25879256 -2.29123669  1.21398771
C  5.38341739 -3.73778245  0.49660682
C  9.16816898 -4.35738176 -0.34132938
C  9.22486507 -5.88772423 -0.35516725
H 10.40777154 -6.53980118 -0.89634738
N 7.73915145 0.44003013 2.55059905
C  7.42265635 -0.71290316  3.1876718 
C  7.44539844 -0.39960286  4.63266548
C 7.61448986 1.07310191 4.77634131
C 7.51292413 1.49712381 3.40329075
C  7.36307281 -1.44470099  5.70259183
C 7.82246659 1.95894083 5.96384587
O 7.71290014 3.23067159 5.8912505 
C 8.07399141 1.28468629 7.25037534
N 7.2481004  2.69825396 0.59491529
C 7.10544627 3.37933129 1.73717948
C 6.92100965 4.84542744 1.47933414
C  7.21115952  5.06065814 -0.07605706
C  7.44518035  3.58379878 -0.47903437
C 5.53891831 5.4169872  1.82452098
C  8.28967711  6.10753541 -0.45191179
C  9.65092971e+00  5.62614637e+00 -2.07410916e-03
N  8.01348504  0.8632017  -1.5623004 
C  7.82704916  2.01625399 -2.33843576
C  7.9069286   1.60331551 -3.75164809
C  8.11914288  0.22706519 -3.69925379
C  8.14249239 -0.19715387 -2.33992123
C  7.72953623  2.45261443 -4.87932591
C  8.30701667 -0.98757528 -4.47591907
O  8.46990146 -1.23591413 -5.67144797
C  8.17672004 -2.23494587 -3.49463603
C  9.33482108 -3.15430148 -3.77193776
O 10.50450339 -2.80653763 -3.51065325
O  8.86990403 -4.37600618 -4.07497534
C  9.96887137 -5.34455727 -4.33252835
H  6.60542227 -2.66191223  3.25570167
H 7.13240411 3.54029497 3.69035893
H  7.56729281  4.00203268 -2.5575901 
H  7.23569693 -4.33309595 -1.3515437 
H  7.21430876 -4.43112209  1.46579253
H  5.14971312 -3.6726476  -0.56596589
H  4.97216786 -2.88060214  1.03009416
H  4.94543504 -4.62000537  0.96418695
H  9.46029963 -4.17024061  0.69196578
H  9.89584856 -3.96321327 -1.05156851
H  8.32062216 -6.31616888 -0.78839807
H  9.22350003 -6.23889471  0.67676173
H  7.0777005  -2.41365169  5.29486374
H  6.53376973 -1.16909988  6.35375189
H  8.28223541 -1.50891678  6.28512804
H 7.23231107 0.6329709  7.48572668
H 8.28742509 2.07611035 7.96797134
H 8.94395046 0.63585761 7.14482161
H 7.62817928 5.43656235 2.05976211
H  6.3227223   5.38847122 -0.61632726
H 5.5719197  6.24424606 2.53392826
H 4.92204936 4.6021453  2.20240505
H 4.95526061 5.75099155 0.96708189
H 8.09765791 7.05013082 0.05954547
H  8.33508627  6.31373312 -1.52133758
H 9.68208762 5.92739497 1.04440115
H 10.43717703  6.11995372 -0.574071  
H  9.71780348  4.53838461 -0.0301502 
H  8.51104297  2.18349296 -5.58981156
H  7.79483399  3.50337721 -4.59783561
H  6.72571815  2.16575416 -5.19224193
H  7.21873505 -2.7061847  -3.71216927
H  9.79994393 -5.76555949 -5.32371685
H  9.98098899 -6.03168261 -3.48629143
H 10.96597526 -4.9205123  -4.45625666
