79

Mg 7.88313926 0.70970039 0.59883178
C  7.88757197  1.36475689 -2.92013047
C  7.35545718 -2.57401644 -0.16393972
C 7.42289956 0.17788641 3.691076  
C 7.27761778 4.1077108  1.08104545
N  7.66886166 -0.34766262 -1.33422656
C  7.75022133  0.00942829 -2.61213019
C  7.75175623 -1.20107101 -3.59297835
C  7.02012347 -2.27475385 -2.66890223
C  7.39893625 -1.72109108 -1.30659448
C  5.50064995 -2.25763783 -2.80084637
C  9.20087649 -1.66057786 -3.96799158
C  9.29534705 -2.61424736 -5.1625391 
H 10.43652758 -2.50347019 -6.05852091
N  7.93629159 -0.97388388  1.63109571
C  7.71292738 -2.22266791  1.15577171
C  7.86776062 -3.13233757  2.31128405
C  8.01202413 -2.29431187  3.53398391
C  7.76676454 -0.98002112  2.99745288
C  7.91662468 -4.62398611  2.18342889
C  8.31141743 -2.62651657  4.96161681
O  8.16261222 -1.77510051  5.90370052
C  8.70392201 -4.01915472  5.24364717
N 7.19972819 1.91445352 2.16061097
C 7.15114409 1.45525702 3.41590462
C 6.90485939 2.56529685 4.39421665
C 7.03701021 3.9232009  3.5645265 
C 7.26875598 3.31859916 2.15774982
C 5.54854819 2.53590072 5.11224644
C 8.04663268 4.97371529 4.09131011
C 9.45706599 4.44749395 3.94685597
N  7.79908092  2.47930495 -0.65515343
C  7.50855439  3.78906221 -0.24673667
C  7.46147457  4.62056751 -1.46347428
C  7.71313884  3.7278365  -2.50344613
C  7.87925106  2.41681495 -1.97248359
C  7.15364101  6.00882032 -1.51273526
C  7.8559432   3.57224993 -3.94193726
O  7.90834249  4.34836175 -4.8971324 
C  7.853682    2.01618485 -4.28029115
C  9.0026807   1.75262876 -5.21498318
O 10.18285877  1.8790492  -4.82954371
O  8.54215425  1.16902832 -6.33206326
C  9.63550208  0.85373073 -7.28983774
H  6.95661394 -3.58430797 -0.27428503
H 7.36342654 0.05901441 4.77494426
H 7.17770554 5.19171565 1.16107062
H  7.17948298 -1.04556894 -4.5077168 
H  7.43422083 -3.27425342 -2.80022621
H  5.16330057 -1.42132423 -3.4129705 
H  5.12119684 -2.16207215 -1.78331232
H  5.13298873 -3.21579875 -3.16899021
H  9.5870189  -2.30924061 -3.18173992
H  9.8457808  -0.7986948  -4.14286877
H  8.36465198 -2.63541854 -5.73022516
H  9.40320596 -3.6296977  -4.78119009
H  7.6180642  -4.95062592  1.18808319
H  7.14762982 -5.02545839  2.84310754
H  8.88934328 -5.02827034  2.46397262
H  7.90612497 -4.68974208  4.92367613
H  8.96555922 -4.04963069  6.30075038
H  9.57594235 -4.26961314  4.63883307
H 7.64957774 2.55843353 5.18905844
H 6.09217731 4.46480861 3.51328312
H 5.62894776 2.51793373 6.19940701
H 4.99246259 1.67299886 4.74692441
H 4.87600514 3.35296394 4.85241853
H 7.88096354 5.16034695 5.15181393
H 7.98268805 5.93015808 3.5722925 
H 9.5818965  3.83715006 4.84057275
H 10.17109625  5.27163454  3.93404701
H 9.54888468 3.78607141 3.08512774
H  7.86915531  6.45561218 -2.20294198
H  7.21887853  6.46417437 -0.52480826
H  6.1319082   5.97580569 -1.8906613 
H  6.89155738  1.79726758 -4.7423663 
H  9.3820491   1.33314525 -8.23543665
H  9.74739979 -0.23064539 -7.28632722
H 10.60463491  1.30852413 -7.08179082
