79

Mg 7.88313926 0.70970039 0.59883178
C  8.08891597 -1.41915516 -2.27133267
C  7.11378349 -2.07072395  2.42102748
C 7.2516573  2.62250588 3.04812285
C  7.54554308  3.39313062 -1.59909725
N  7.66142181 -1.41913995  0.03356533
C  7.82555771 -2.11318187 -1.08827968
C  7.76624057 -3.65537183 -0.8749593 
C  6.90923969 -3.69081306  0.46902412
C  7.27621341 -2.3270815   1.02713748
C  5.40337651 -3.73486984  0.2304092 
C  9.18599964 -4.28167676 -0.66577683
C  9.24966245 -5.80780993 -0.77631461
H 10.43238933 -6.41863231 -1.364023  
N 7.75175984 0.31694178 2.5304969 
C  7.44429268 -0.87537935  3.09540421
C  7.47400316 -0.65359017  4.55711822
C 7.63714298 0.80796462 4.79235643
C 7.5256337  1.31710317 3.4493294 
C  7.4027222  -1.76438808  5.55951386
C 7.84794687 1.61828371 6.0321454 
O 7.73210316 2.89150236 6.04042174
C 8.11006    0.86560528 7.27223164
N 7.23893571 2.69137693 0.72371132
C 7.09979817 3.298452   1.90738552
C 6.90711266 4.77694232 1.74344142
C 7.18720839 5.09113386 0.20312228
C  7.42567931  3.64376315 -0.29338518
C 5.52443628 5.3187623  2.1315756 
C  8.25868624  6.16494301 -0.11197792
C 9.62473739 5.66294367 0.29911685
N  8.00019329  0.99963908 -1.54902271
C  7.80393321  2.19834007 -2.24993063
C  7.87748539  1.87561965 -3.68677078
C  8.09633792  0.49987184 -3.72235929
C  8.12955418 -0.00898782 -2.39260348
C  7.68962116  2.79335716 -4.75770443
C  8.28527984 -0.66249981 -4.57503162
O  8.44234418 -0.83424592 -5.78471219
C  8.16644485 -1.969822   -3.67358061
C  9.32713425 -2.86413006 -4.01464103
O 10.49670359 -2.52770929 -3.73842622
O  8.8660931  -4.06661865 -4.39147553
C  9.96799201 -5.01156113 -4.71559976
H  6.63645439 -2.82883641  3.04501741
H 7.13738439 3.33622682 3.8666472 
H  7.5337616   4.19266459 -2.3421044 
H  7.24758797 -4.20341337 -1.66177182
H  7.24305315 -4.47877122  1.14386669
H  5.16319284 -3.60410973 -0.82464274
H  4.99129581 -2.91503908  0.81910269
H  4.97219183 -4.64695051  0.64388909
H  9.48327564 -4.15853095  0.37562755
H  9.90770892 -3.83995639 -1.35377744
H  8.34489582 -6.21260453 -1.23067975
H  9.25592238 -6.22327138  0.23143168
H  7.11944718 -2.70714342  5.09313137
H  6.57596329 -1.53446044  6.23131145
H  8.32554652 -1.86059838  6.13176455
H 7.2727748  0.19619253 7.47069841
H 8.32401998 1.61131759 8.03707429
H 8.98236913 0.22903782 7.12120966
H 7.61491899 5.33385434 2.35604667
H  6.29414052  5.44790581 -0.31050944
H 5.55775621 6.09985792 2.89149955
H 4.91353741 4.47868874 2.46077155
H 4.93426461 5.70319961 1.30011763
H 8.06530815 7.07249379 0.45890079
H  8.29691867  6.43830121 -1.16652265
H 9.66059897 5.89784365 1.36230449
H 10.40535863  6.19568881 -0.24496409
H 9.69645615 4.57945444 0.20219666
H  8.46820983  2.573395   -5.48803677
H  7.75171596  3.82461863 -4.4109379 
H  6.68533038  2.5217931  -5.08252588
H  7.20939042 -2.4311756  -3.91507944
H  9.79523813 -5.37014105 -5.73039557
H  9.98820063 -5.75054562 -3.91441406
H 10.96239496 -4.57562207 -4.81786857
