79

Mg 7.88313926 0.70970039 0.59883178
C  8.0517606  -0.63171752 -2.71543719
C  7.20418211 -2.45319132  1.68428017
C 7.28201663 1.93754484 3.46024238
C  7.44785234  3.84819348 -0.85239096
N  7.68174523 -1.21541668 -0.47541712
C  7.82909892 -1.60424245 -1.73806213
C  7.79994113 -3.15185208 -1.91534235
C  6.97729344 -3.53977368 -0.60585177
C  7.3360213  -2.3504905   0.26755756
C  5.46686904 -3.55578255 -0.81766264
C  9.23436118 -3.7794324  -1.89764816
C  9.31982091 -5.22810781 -2.38692333
H 10.49725558 -5.6472725  -3.13210557
N  7.8061556  -0.1548187   2.37352338
C  7.53206256 -1.45670959  2.62894285
C  7.59452193 -1.60559456  4.09884526
C  7.73990474 -0.24557779  4.68817727
C 7.58686383 0.5796347  3.51728836
C  7.56607328 -2.93243233  4.79342585
C 7.96838585 0.23460674 6.086516  
O 7.83229845 1.46275618 6.4146976 
C  8.27332706 -0.79746654  7.09392734
N 7.21041517 2.58320926 1.22735531
C 7.09098599 2.87296981 2.52764739
C 6.87050461 4.34110826 2.74188194
C 7.10713184 5.03527303 1.3234688 
C 7.35646102 3.76285192 0.47668107
C 5.48935846 4.73884232 3.28063413
C 8.15301791 6.17681647 1.26498891
C 9.53677095 5.61810093 1.51026934
N  7.94208563  1.5282325  -1.41054014
C  7.70918918  2.85921497 -1.78593183
C  7.75219054  2.90642948 -3.25902031
C  7.99221352  1.58806208 -3.64130472
C  8.06666139  0.76472065 -2.48162442
C  7.52301256  4.05777782 -4.06295342
C  8.17859365  0.67925796 -4.76076643
O  8.30828607  0.81785671 -5.97792018
C  8.10326695 -0.8137358  -4.21202011
C  9.26936903 -1.56931946 -4.78874212
O 10.43987432 -1.2869414  -4.46080006
O  8.81852474 -2.64971244 -5.4445107 
C  9.92709836 -3.45982244 -6.01629766
H  6.75477899 -3.35310489  2.10870143
H 7.17664774 2.42210034 4.43314595
H  7.40473415  4.80721228 -1.37188761
H  7.27078277 -3.49769221 -2.80349213
H  7.34042164 -4.46357953 -0.15591548
H  5.19846053 -3.17148766 -1.8016318 
H  5.05640173 -2.91770563 -0.03480414
H  5.06083663 -4.55130263 -0.63640465
H  9.55540958 -3.91324905 -0.86465153
H  9.93154047 -3.16457348 -2.46792489
H  8.41067489 -5.52651851 -2.90971734
H  9.35781644 -5.88136097 -1.515134  
H  7.28650932 -3.73516021  4.11223796
H  6.75267342 -2.8952498   5.51779256
H  8.50426601 -3.14808146  5.30491569
H  7.45212058 -1.51330169  7.13574777
H  8.49419765 -0.26140574  8.01626406
H  9.15174914 -1.35714816  6.77131281
H 7.58426076 4.74307283 3.45979743
H 6.19594423 5.48923944 0.93317961
H 5.52897627 5.30645047 4.21066446
H 4.90043629 3.83012753 3.40187398
H 4.87258873 5.30540014 2.58347969
H 7.95930209 6.90903013 2.04811299
H 8.16062    6.7051167  0.31152571
H 9.59526169 5.58135964 2.59749559
H 10.29494809  6.28650854  1.10086772
H 9.62349453 4.59477753 1.14451773
H  8.28664789  4.04378143 -4.84053568
H  7.57709505  4.97118673 -3.47103936
H  6.51546088  3.8539094  -4.42507671
H  7.14805783 -1.22109456 -4.54180243
H  9.7349696  -3.5578716  -7.08480451
H  9.97911119 -4.3745318  -5.42552998
H 10.91150399 -2.99058682 -6.02642093
