79

Mg 7.88313926 0.70970039 0.59883178
C  7.63169884  3.30596493 -1.85237245
C  7.39540097 -1.5242723  -1.93386291
C  7.64775897 -1.56469171  2.79618421
C 7.21859172 3.13043971 3.01628059
N  7.56776805  0.97901851 -1.57571524
C  7.55272444  2.02297329 -2.39857799
C  7.52116335  1.6226762  -3.90394843
C  6.88341016  0.16810688 -3.76431699
C  7.33811551 -0.16207619 -2.35359158
C  5.35859674  0.16519706 -3.8022322 
C  8.95367869  1.56213906 -4.53320676
C  8.99331203  1.50037653 -6.06290235
H 10.06784199  2.18694225 -6.76387373
N  8.05212849 -1.2518433   0.43561729
C  7.83149235 -1.9939853  -0.67606205
C  8.08898781 -3.39721878 -0.28707246
C  8.29252861 -3.43049433  1.18790479
C  7.97558945 -2.07007597  1.54031004
C  8.17000785 -4.5225725  -1.2723464 
C  8.69674956 -4.51872488  2.13156346
O  8.58866518 -4.39450472  3.39942036
C  9.14548646 -5.78369862  1.52204018
N 7.27407085 0.72175993 2.59546025
C  7.32307589 -0.38925972  3.33857387
C  7.1131245  -0.08370571  4.79201673
C 7.15157524 1.50754633 4.91926243
C 7.30419285 1.86062464 3.41915791
C  5.80977435 -0.61340275  5.40578415
C 8.16529335 2.10825009 5.92521947
C 9.57664156 1.85602764 5.44399388
N 7.66597738 2.86899716 0.63520733
C 7.36789622 3.66777139 1.74866202
C 7.21587284 5.05059404 1.26003289
C  7.42105842  4.95693088 -0.11509295
C  7.65859501  3.597513   -0.46701823
C 6.86743721 6.18052353 2.0514152 
C  7.47050717  5.68540343 -1.37236761
O  7.43689842  6.87604065 -1.68660712
C  7.48807569  4.62857877 -2.56343435
C  8.57805745  5.03635038 -3.51683409
O  9.77767781  4.98509132 -3.1767613 
O  8.05925542  5.19323396 -4.74434132
C  9.09359395  5.56936909 -5.74475132
H  7.01788255 -2.29930905 -2.60374265
H  7.66497732 -2.30108731  3.60232505
H 7.09461152 3.95183069 3.72437576
H  6.88431067  2.2500765  -4.52781663
H  7.31495156 -0.53547754 -4.47597912
H  4.95781823  1.17867175 -3.78932372
H  5.04631949 -0.37905714 -2.91073723
H  4.99331927 -0.41438272 -4.65042832
H  9.40974254  0.60078835 -4.29683504
H  9.56139314  2.40027176 -4.19036171
H  8.02730173  1.75910092 -6.49740755
H  9.15452626  0.46372196 -6.35880314
H  7.81391883 -4.2198426  -2.25626724
H  7.45867364 -5.2817618  -0.94777862
H  9.17019253 -4.9532566  -1.32208388
H  8.34658528 -6.18623654  0.89892773
H  9.47872442 -6.41313316  2.3464276 
H  9.98116887 -5.57634899  0.85301847
H  7.90977902 -0.5100429   5.40029642
H 6.19093498 1.91603693 5.23387287
H  5.96394636 -1.26164469  6.26875481
H  5.25415158 -1.12946915  4.62332022
H 5.09903942 0.15676882 5.70429482
H 8.06663639 1.62548381 6.89689304
H 8.04018888 3.18090292 6.07359666
H 9.77830326 0.84624845 5.7996771 
H 10.26528941  2.57277713  5.89259762
H 9.62811021 1.83435426 4.35524817
H 7.52212611 6.99089692 1.73103041
H 6.98679176 5.97153141 3.11427915
H 5.82378482 6.31255759 1.76643681
H  6.50328502  4.66375811 -3.02826952
H  8.76373782  6.49601556 -6.21459731
H  9.23518501  4.69934275 -6.38616472
H 10.06172926  5.87418312 -5.34582597
