79

Mg 7.88313926 0.70970039 0.59883178
C 7.26784498 3.06521503 3.22279401
C  6.94999315  3.14384827 -1.60281021
C  7.98112034 -1.47860507 -1.69427526
C  7.66370385 -1.80310461  3.00368523
N 7.21621948 2.79982083 0.89423077
C 7.08061335 3.60071491 1.94653808
C 6.79442259 5.08311823 1.56189638
C 6.16715973 4.85105008 0.11459418
C  6.84415657  3.53772748 -0.23580992
C 4.65722694 4.63589755 0.13232496
C 8.1019787  5.94141165 1.48868157
C 7.88696728 7.45697383 1.44182678
H 8.84068177 8.32090555 2.12109009
N  7.99378965  0.91383857 -1.36303827
C  7.581263    1.97933071 -2.09093542
C  7.87883227  1.64924504 -3.50131728
C  8.32317669  0.2286584  -3.55216625
C  8.08906667 -0.18190166 -2.19128016
C  7.7790287   2.6430151  -4.61765518
C  8.86188857 -0.62655429 -4.65513169
O  8.96698604 -1.89572433 -4.54227813
C  9.18481801  0.0586557  -5.91974461
N  7.6131806  -1.36026514  0.59884707
C  7.76808599 -2.07636941 -0.52016276
C  7.80612783 -3.54683362 -0.22651871
C  7.8886103  -3.67827328  1.36271798
C  7.79603798 -2.17639113  1.72884687
C  6.61465839 -4.36388463 -0.74501578
C  9.06360545 -4.5070476   1.93972623
C 10.37195822 -3.79675907  1.6736412 
N 7.70691389 0.62113447 2.76034646
C  7.6090652  -0.5324658   3.55174146
C  7.39870873 -0.08649181  4.94131886
C 7.37205969 1.30430907 4.85880974
C 7.52796526 1.70123605 3.49997405
C  7.20279091 -0.93338372  6.06773988
C 7.2234891  2.54672696 5.59920257
O 7.15592543 2.84182784 6.79328951
C 7.02806749 3.73240022 4.55430243
C 7.95112099 4.84998447 4.95715064
O 9.18959199 4.71371793 4.88653184
O 7.23868324 5.97335072 5.13328331
C 8.09861906 7.12832289 5.50571274
H  6.45540207  3.74792619 -2.36596847
H  8.12064654 -2.26503057 -2.43892643
H  7.67077829 -2.52829462  3.81946854
H 6.0724347  5.58800427 2.20396147
H  6.4645204   5.62978873 -0.58744908
H 4.27912773 4.54893462 1.15085303
H  4.48880375  3.70923474 -0.41669476
H  4.14808057  5.41633703 -0.43376796
H 8.57662322 5.7912989  0.51902197
H 8.77036968 5.69748136 2.31516661
H 6.86629357 7.7234531  1.71773071
H 7.98165206 7.78351027 0.40615852
H  7.26951245  3.55198877 -4.30031456
H  7.12008884  2.21099728 -5.37056146
H  8.75071402  2.86106722 -5.06106573
H  8.28794552  0.54393218 -6.30532919
H  9.64057032 -0.6942477  -6.56183207
H  9.90121469  0.85522965 -5.71677973
H  8.68608589 -4.0114351  -0.66951451
H  6.99943117 -4.15080965  1.78074172
H  6.89994237 -5.18435141 -1.40391814
H  5.92963064 -3.6802875  -1.2457382 
H  5.97458824 -4.78195181  0.03148087
H  9.12001138 -5.47787187  1.44853928
H  8.9806434  -4.68240042  3.01239565
H 10.61476944 -4.10629491  0.65773654
H 11.13586857 -4.13063828  2.37661818
H 10.24219179 -2.71439255  1.66226614
H  7.80732139 -0.51526996  6.8725335 
H  7.49331456 -1.96014562  5.84647306
H  6.12843143 -0.82624043  6.21649475
H 5.98055239 4.02741024 4.60724775
H 7.70927244 7.52985121 6.4413506 
H 8.11922876 7.79104793 4.64039445
H 9.12382388 6.89291824 5.79359941
