79

Mg 7.88313926 0.70970039 0.59883178
C  7.68464316  2.97915988 -2.16203166
C  7.39966328 -1.82068957 -1.63867635
C  7.60089242 -1.26808277  3.06162115
C 7.21760835 3.4210527  2.68480837
N  7.59386924  0.70614667 -1.59592475
C  7.59836086  1.63840509 -2.54357714
C  7.57882553  1.05223988 -3.98697685
C  6.92471548 -0.36752302 -3.67327104
C  7.36086447 -0.52165122 -2.22691613
C  5.40044636 -0.36170523 -3.72869511
C  9.01730474  0.90038161 -4.58651636
C  9.07269163  0.64636052 -6.09574118
H 10.16166218  1.22978587 -6.86457537
N  8.03372406 -1.25821037  0.68544264
C  7.81740682 -2.13230412 -0.32671   
C  8.05630173 -3.47768767  0.23858049
C  8.24367302 -3.3269772   1.70836699
C  7.93695683 -1.93029105  1.88321252
C  8.13631934 -4.71870126 -0.59642396
C  8.62656698 -4.29140341  2.78605262
O  8.5061835  -4.00775173  4.02686829
C  9.06880133 -5.62691091  2.34572263
N 7.25286625 0.97817634 2.570712  
C  7.28249849 -0.03094244  3.44808605
C 7.06013187 0.45683851 4.84900069
C 7.11354867 2.05105587 4.77571589
C 7.28584855 2.21128839 3.24505972
C 5.74491101 0.02008347 5.50888712
C 8.12254164 2.76453501 5.71022095
C 9.53630216 2.44132748 5.28136657
N 7.68777618 2.85825816 0.36097091
C 7.38599552 3.79333886 1.36158398
C 7.25341928 5.10501011 0.70127338
C  7.4723564   4.83732156 -0.64863564
C  7.69968389  3.44238986 -0.82407734
C 6.9081402  6.32853864 1.34017423
C  7.54275     5.40140648 -1.98680975
O  7.52473388  6.54331408 -2.44856234
C  7.56223174  4.20305158 -3.03532917
C  8.6664956   4.47802149 -4.01935249
O  9.86181356  4.45934516 -3.66125731
O  8.16251477  4.48384437 -5.26294061
C  9.21132053  4.72200912 -6.29028574
H  7.02140914 -2.67046089 -2.21029992
H  7.60191151 -1.89735906  3.95406068
H 7.09448539 4.32604618 3.28253785
H  6.95516832  1.60179163 -4.69229136
H  7.35661325 -1.15881641 -4.28567703
H  5.00997674  0.64884594 -3.84803002
H  5.07306378 -0.78672651 -2.77965846
H  5.03834895 -1.04011583 -4.50162557
H  9.46091742 -0.02759622 -4.22578662
H  9.62988166  1.7695777  -4.34449635
H  8.1140995   0.85690478 -6.57080037
H  9.2264179  -0.42066279 -6.25707775
H  7.79392047 -4.5389961  -1.61476283
H  7.41379255 -5.42472289 -0.18752606
H  9.132506   -5.16104163 -0.5797164 
H  8.27253329 -6.09755064  1.76865726
H  9.38670764 -6.15057712  3.24658848
H  9.91368922 -5.51274808  1.66595774
H 7.84580423 0.10337251 5.51548904
H 6.15383595 2.5043455  5.02502292
H  5.88316458 -0.51580492  6.44825637
H  5.19243683 -0.58537114  4.79091219
H 5.03896119 0.82793438 5.69975031
H 8.00852781 2.40870802 6.73361432
H 8.00687149 3.84839507 5.72112063
H 9.72376508 1.48256227 5.76350652
H 10.22742431  3.20269603  5.64451819
H 9.59920944 2.28243259 4.20466741
H 7.57450849 7.0863625  0.92831831
H 7.01394693 6.25384421 2.4222226 
H 5.86901178 6.43289682 1.02844117
H  6.58289167  4.18818598 -3.51260692
H  8.8960473   5.5850787  -6.87675626
H  9.35083863  3.77699988 -6.81554495
H 10.17820329  5.06601184 -5.92131574
