79

Mg 7.88314 0.70970 0.59883
C 7.35920 4.25052 0.61543
C 7.25006 0.78165 -2.75335
C 7.89232 -2.46125 0.63926
C 7.35366 0.76385 4.04301
N 7.38237 2.36731 -0.78037
C 7.27084 3.68642 -0.65917
C 7.12638 4.42229 -2.02482
C 6.54258 3.22208 -2.89698
C 7.12090 2.05301 -2.11932
C 5.02049 3.12909 -2.86397
C 8.50329 4.91815 -2.58156
C 8.41843 5.92186 -3.73513
H 9.41224 6.98167 -3.81579
N 8.09204 -0.58977 -0.87446
C 7.80107 -0.38561 -2.18172
C 8.12827 -1.65043 -2.87445
C 8.45350 -2.66710 -1.83585
C 8.12934 -1.94466 -0.63237
C 8.15878 -1.78775 -4.36575
C 8.96391 -4.07111 -1.91582
O 8.95728 -4.85576 -0.90644
C 9.39555 -4.53844 -3.24561
N 7.44056 -0.69284 2.08026
C 7.58120 -2.00353 1.85374
C 7.48339 -2.79119 3.12651
C 7.48837 -1.72006 4.31075
C 7.50709 -0.42677 3.45909
C 6.25012 -3.69504 3.26111
C 8.56461 -1.89389 5.41162
C 9.93791 -1.63998 4.83139
N 7.61035 2.23573 2.11800
C 7.38315 2.03174 3.48674
C 7.15337 3.35792 4.08884
C 7.24705 4.24551 3.01868
C 7.49212 3.51737 1.81949
C 6.84036 3.61060 5.45362
C 7.17266 5.63744 2.60535
O 7.08051 6.71398 3.19702
C 7.12112 5.68566 1.01449
C 8.11719 6.71679 0.55851
O 9.34171 6.53903 0.72076
O 7.49489 7.62991 -0.20272
C 8.43253 8.66595 -0.71225
H 6.84010 0.64795 -3.75634
H 7.99617 -3.54549 0.71720
H 7.26588 0.86667 5.12614
H 6.42325 5.25537 -2.02005
H 6.93322 3.23077 -3.91436
H 4.59439 3.82529 -2.14171
H 4.79783 2.10076 -2.57857
H 4.60266 3.26009 -3.86248
H 9.00357 4.09364 -3.08946
H 9.11388 5.33880 -1.78184
H 7.41315 6.33266 -3.83287
H 8.58319 5.38390 -4.66875
H 7.71463 -0.92277 -4.85675
H 7.49778 -2.61519 -4.62289
H 9.16295 -1.98980 -4.73880
H 8.55940 -4.46597 -3.94142
H 9.81278 -5.53330 -3.09389
H 10.16723 -3.86665 -3.62262
H 8.33889 -3.45541 3.24206
H 6.54604 -1.71212 4.85904
H 6.49267 -4.74364 3.43523
H 5.64634 -3.57744 2.36172
H 5.54547 -3.39440 4.03603
H 8.55968 -2.91602 5.78866
H 8.42268 -1.22620 6.26150
H 10.19592 -2.60068 4.38717
H 10.64119 -1.37353 5.62108
H 9.90007 -0.90764 4.02471
H 7.44386 4.46801 5.75129
H 7.05259 2.74158 6.07600
H 5.77353 3.82129 5.38044
H 6.10078 5.95347 0.74189
H 8.03970 9.63450 -0.40272
H 8.54469 8.48359 -1.78117
H 9.42148 8.68872 -0.25314
