79

Mg 7.88314 0.70970 0.59883
C 7.87126 -2.59123 1.98301
C 6.67531 1.80947 3.59462
C 7.45574 3.55232 -0.74036
C 7.99303 -0.77206 -2.55362
N 7.37995 -0.35246 2.47480
C 7.47762 -1.60975 2.89536
C 7.19488 -1.77544 4.41851
C 6.30202 -0.47528 4.65170
C 6.84115 0.39409 3.52945
C 4.81276 -0.70925 4.41963
C 8.50518 -1.73170 5.27464
C 8.35599 -2.20843 6.72233
H 9.45753 -2.93287 7.33809
N 7.64045 2.48970 1.42074
C 7.15114 2.75112 2.65667
C 7.16854 4.22290 2.79901
C 7.52934 4.80376 1.47594
C 7.53067 3.62438 0.64863
C 6.91148 4.92724 4.09577
C 7.81560 6.20156 1.02612
O 7.88047 6.51817 -0.21086
C 7.93197 7.22133 2.08422
N 7.52174 1.31369 -1.36642
C 7.43469 2.60979 -1.68505
C 7.45761 2.80937 -3.17152
C 7.82477 1.38927 -3.80260
C 7.87112 0.55614 -2.49799
C 6.15438 3.32456 -3.79777
C 9.04597 1.33741 -4.75465
C 10.31468 1.60742 -3.97712
N 8.10354 -1.30486 -0.17835
C 8.09933 -1.69395 -1.52567
C 8.16912 -3.16656 -1.55026
C 8.19252 -3.53504 -0.20656
C 8.11415 -2.36804 0.60601
C 8.14452 -3.98269 -2.71549
C 8.24065 -4.64455 0.73180
O 8.40767 -5.86069 0.62886
C 7.91178 -4.08543 2.18613
C 8.94418 -4.63900 3.13007
O 10.14083 -4.29600 3.04202
O 8.32937 -5.29297 4.12750
C 9.29594 -5.84202 5.11564
H 6.07746 2.23416 4.40341
H 7.41917 4.51978 -1.24546
H 8.11627 -1.29955 -3.50126
H 6.62760 -2.66861 4.68094
H 6.50111 -0.01289 5.61828
H 4.62481 -1.70003 4.00615
H 4.50329 0.06249 3.71456
H 4.24507 -0.52631 5.33234
H 8.78587 -0.69307 5.44932
H 9.30208 -2.29636 4.78943
H 7.41701 -2.74227 6.87141
H 8.27368 -1.33114 7.36404
H 6.51189 4.24823 4.84798
H 6.10593 5.63920 3.91717
H 7.79412 5.45418 4.45855
H 7.00306 7.25656 2.65380
H 8.22631 8.14265 1.58283
H 8.70976 6.91607 2.78479
H 8.21848 3.53461 -3.45702
H 7.00663 0.98206 -4.39716
H 6.27511 4.25065 -4.36034
H 5.42152 3.44412 -3.00033
H 5.64929 2.61401 -4.45154
H 8.96583 2.11189 -5.51669
H 9.15364 0.38010 -5.26476
H 10.35183 2.69565 -3.94217
H 11.17847 1.20410 -4.50665
H 10.23556 1.25093 -2.94992
H 8.90555 -4.74877 -2.56746
H 8.34128 -3.39713 -3.61327
H 7.12202 -4.35806 -2.67755
H 6.90676 -4.42612 2.43307
H 9.10444 -6.91246 5.19131
H 9.18787 -5.24348 6.02034
H 10.34452 -5.84124 4.81593
