79

Mg 7.88313926 0.70970039 0.59883178
C  7.84723496 -2.49737388  2.18804527
C 6.66426491 2.0015725  3.51233084
C  7.47724863  3.46424287 -0.91918322
C  8.00307768 -0.96821613 -2.45335955
N  7.36433324 -0.22983509  2.53500311
C  7.45344445 -1.4585587   3.03447131
C  7.16148377 -1.52666406  4.56335803
C  6.27381268 -0.21029595  4.70900498
C 6.82343386 0.58415606 3.53738791
C  4.78471027 -0.45155902  4.48346528
C  8.4672313  -1.43510759  5.42264368
C  8.30769579 -1.81898499  6.89659773
H  9.40220684 -2.50825728  7.56315401
N 7.64475708 2.53904863 1.30559127
C 7.14992903 2.88006453 2.51973268
C 7.17385001 4.35778625 2.56920316
C 7.54482742 4.85247238 1.21430265
C 7.54486828 3.62332143 0.46292662
C 6.91314096 5.14360199 3.81751178
C 7.84050392 6.21782265 0.67902139
O  7.91377305  6.4555728  -0.5750442 
C 7.95609025 7.30168148 1.67145872
N  7.53559567  1.190332   -1.40262811
C  7.45674146  2.4641729  -1.80274731
C  7.48885215  2.56959535 -3.29867311
C  7.8524378   1.11088393 -3.83692905
C  7.88745282  0.36139567 -2.48219243
C  6.19167948  3.05030842 -3.96370621
C  9.07860599  0.99351841 -4.77669281
C 10.34433197  1.30613577 -4.01033379
N  8.09782507 -1.3508165  -0.0486442 
C  8.09911941 -1.8239921  -1.36878706
C  8.1617384  -3.29553561 -1.30018271
C  8.17588632 -3.57872657  0.06416611
C  8.09882592 -2.36250719  0.8011628 
C  8.13951471 -4.18332832 -2.41183203
C  8.2133282 -4.6271278  1.0707991
O  8.37487223 -5.84809573  1.04562329
C  7.87922017 -3.97598375  2.485087  
C  8.90363323 -4.47372743  3.46801025
O 10.10243625 -4.14247135  3.36550799
O  8.28008135 -5.0607188   4.50104761
C  9.23844881 -5.55087671  5.52741549
H 6.06407222 2.47912731 4.28928074
H  7.44827061  4.3981157  -1.48440867
H  8.12891881 -1.55492247 -3.36516692
H  6.58833148 -2.39889814  4.87820428
H 6.46985271 0.31115284 5.6456914 
H  4.59412897 -1.46553795  4.13211574
H 4.48296908 0.27564822 3.72939971
H  4.21290553 -0.20886186  5.3795202 
H  8.75211083 -0.38883759  5.53320466
H  9.2639912  -2.03288024  4.97860819
H  7.36526029 -2.3380414   7.07352933
H  8.22619277 -0.90264031  7.48129397
H 6.50604081 4.51518399 4.60865353
H 6.11212674 5.84660092 3.58974497
H 7.79636416 5.68828816 4.15152638
H 7.02423284 7.37700281 2.23227729
H 8.25776045 8.18821669 1.11477172
H 8.72847836 7.0375873  2.39438325
H  8.25488231  3.27190073 -3.62484938
H  7.0355801   0.67079646 -4.40941531
H  6.3201062   3.93854958 -4.58276938
H  5.45502937  3.22324707 -3.17965912
H  5.68668511  2.30230909 -4.57435724
H  9.00651354  1.71881347 -5.58644323
H  9.18433669e+00  5.48626787e-03 -5.22487191e+00
H 10.38668708  2.39421672 -4.04376846
H 11.20901773  0.86627874 -4.50838533
H 10.25777161  1.01543386 -2.96320166
H  8.89590504 -4.94206257 -2.21141996
H  8.34413236 -3.65640996 -3.3435464 
H  7.11496909 -4.55085615 -2.35628419
H  6.87117221 -4.29580758  2.74714429
H  9.04122059 -6.61352645  5.66922715
H  9.12836035 -4.89603826  6.3919802 
H 10.28865514 -5.5738049   5.23436266
