79

Mg 7.88313926 0.70970039 0.59883178
C  7.99090408  0.24054786 -2.9480678 
C  7.28238633 -2.63792522  0.87372031
C 7.33363509 1.17232061 3.68762584
C  7.36143788  4.10057392 -0.01392054
N  7.68612809 -0.89088574 -0.91772901
C  7.80829283 -0.94947709 -2.24015626
C  7.7996595  -2.40433625 -2.79754686
C  7.01616786 -3.12418656 -1.61013186
C  7.37729944 -2.18255894 -0.47485859
C  5.50139889 -3.11981848 -1.78889957
C  9.24399489 -2.98511163 -2.96585082
C  9.34058078 -4.2639329  -3.80289402
H 10.50572542 -4.45840537 -4.65258009
N  7.86422155 -0.5712751   2.10269145
C  7.61755943 -1.90139802  2.03046388
C  7.71892514 -2.41049844  3.41510201
C  7.85699509 -1.23742101  4.32225141
C  7.66163038 -0.14998737  3.39775225
C  7.7291173  -3.86886386  3.75688619
C  8.11240218 -1.11600093  5.79131791
O  7.96475734 -0.01165162  6.41836465
C  8.45886779 -2.35966801  6.50286255
N 7.19616754 2.35234747 1.68851772
C 7.1044459  2.30625002 3.02210167
C 6.86574769 3.6695151  3.60043591
C 7.05583763 4.70024463 2.39577187
C 7.30449671 3.68473961 1.25332353
C 5.49219486 3.89024268 4.24900584
C 8.08143123 5.84285935 2.60315646
C 9.47967003 5.27093884 2.67339327
N  7.87893471  2.00424203 -1.14334767
C  7.61537924  3.38138062 -1.16983956
C  7.62098583  3.79513552 -2.58505808
C  7.87262847  2.61918464 -3.28908969
C  7.98912588  1.53464304 -2.37339877
C  7.3533875   5.10522816 -3.07135264
C  8.04573378  2.02231588 -4.6034866 
O  8.14288363  2.4626579  -5.74985208
C  8.00811883  0.43839877 -4.44342818
C  9.17153989 -0.12402469 -5.21377893
O 10.34513662  0.09315855 -4.84926808
O  8.72198882 -1.01646947 -6.10931685
C  9.82890726 -1.63416918 -6.88734811
H  6.85821953 -3.62478875  1.06897373
H 7.24469344 1.39671862 4.75260138
H  7.28998451  5.15762333 -0.27658757
H  7.25422542 -2.52937896 -3.7331162 
H  7.40519487 -4.12283365 -1.41243519
H  5.20246259 -2.50837941 -2.64019291
H  5.10029695 -2.7060687  -0.86346921
H  5.11607898 -4.13770545 -1.853797  
H  9.59273366 -3.36510725 -2.00561876
H  9.91679343 -2.23249135 -3.37844121
H  8.4236435  -4.44238465 -4.36529069
H  9.41074731 -5.11284407 -3.12272751
H  7.44566887 -4.4824045   2.9026205 
H  6.93348071 -4.03110756  4.48376198
H  8.68308449 -4.18467726  4.1794267 
H  7.65058676 -3.08106175  6.38111747
H  8.69393632 -2.06569092  7.52519823
H  9.337897   -2.80201305  6.0331951 
H 7.59056349 3.89534434 4.38150518
H 6.12803915 5.21718243 2.1495214 
H 5.5457734  4.20889672 5.2903002 
H 4.92117591 2.96737223 4.15134062
H 4.8492447  4.59908141 3.72787271
H 7.8954766  6.35241029 3.54799757
H 8.05682409 6.59213791 1.81181133
H 9.56575124 4.96569569 3.7156258 
H 10.21657625  6.0366433   2.42869573
H 9.57374093 4.37319004 2.06209648
H  8.09758532  5.30209798 -3.84296192
H  7.40745225  5.84326447 -2.27136363
H  6.34055918  4.97612783 -3.45262408
H  7.05169042  0.1053592  -4.84523825
H  9.61188221 -1.4670082  -7.94242694
H  9.91030947 -2.66588539 -6.54479835
H 10.80507425 -1.15587686 -6.7997498 
