79

Mg 7.88314 0.70970 0.59883
C 7.99090 0.24055 -2.94807
C 7.28239 -2.63793 0.87372
C 7.33364 1.17232 3.68763
C 7.36144 4.10057 -0.01392
N 7.68613 -0.89089 -0.91773
C 7.80829 -0.94948 -2.24016
C 7.79966 -2.40434 -2.79755
C 7.01617 -3.12419 -1.61013
C 7.37730 -2.18256 -0.47486
C 5.50140 -3.11982 -1.78890
C 9.24399 -2.98511 -2.96585
C 9.34058 -4.26393 -3.80289
H 10.50573 -4.45841 -4.65258
N 7.86422 -0.57128 2.10269
C 7.61756 -1.90140 2.03046
C 7.71893 -2.41050 3.41510
C 7.85700 -1.23742 4.32225
C 7.66163 -0.14999 3.39775
C 7.72912 -3.86886 3.75689
C 8.11240 -1.11600 5.79132
O 7.96476 -0.01165 6.41836
C 8.45887 -2.35967 6.50286
N 7.19617 2.35235 1.68852
C 7.10445 2.30625 3.02210
C 6.86575 3.66952 3.60044
C 7.05584 4.70024 2.39577
C 7.30450 3.68474 1.25332
C 5.49219 3.89024 4.24901
C 8.08143 5.84286 2.60316
C 9.47967 5.27094 2.67339
N 7.87893 2.00424 -1.14335
C 7.61538 3.38138 -1.16984
C 7.62099 3.79514 -2.58506
C 7.87263 2.61918 -3.28909
C 7.98913 1.53464 -2.37340
C 7.35339 5.10523 -3.07135
C 8.04573 2.02232 -4.60349
O 8.14288 2.46266 -5.74985
C 8.00812 0.43840 -4.44343
C 9.17154 -0.12402 -5.21378
O 10.34514 0.09316 -4.84927
O 8.72199 -1.01647 -6.10932
C 9.82891 -1.63417 -6.88735
H 6.85822 -3.62479 1.06897
H 7.24469 1.39672 4.75260
H 7.28998 5.15762 -0.27659
H 7.25423 -2.52938 -3.73312
H 7.40519 -4.12283 -1.41244
H 5.20246 -2.50838 -2.64019
H 5.10030 -2.70607 -0.86347
H 5.11608 -4.13771 -1.85380
H 9.59273 -3.36511 -2.00562
H 9.91679 -2.23249 -3.37844
H 8.42364 -4.44238 -4.36529
H 9.41075 -5.11284 -3.12273
H 7.44567 -4.48240 2.90262
H 6.93348 -4.03111 4.48376
H 8.68308 -4.18468 4.17943
H 7.65059 -3.08106 6.38112
H 8.69394 -2.06569 7.52520
H 9.33790 -2.80201 6.03320
H 7.59056 3.89534 4.38151
H 6.12804 5.21718 2.14952
H 5.54577 4.20890 5.29030
H 4.92118 2.96737 4.15134
H 4.84924 4.59908 3.72787
H 7.89548 6.35241 3.54800
H 8.05682 6.59214 1.81181
H 9.56575 4.96570 3.71563
H 10.21658 6.03664 2.42870
H 9.57374 4.37319 2.06210
H 8.09759 5.30210 -3.84296
H 7.40745 5.84326 -2.27136
H 6.34056 4.97613 -3.45262
H 7.05169 0.10536 -4.84524
H 9.61188 -1.46701 -7.94243
H 9.91031 -2.66589 -6.54480
H 10.80507 -1.15588 -6.79975
