79

Mg 7.88314 0.70970 0.59883
C 7.39542 4.22898 0.16408
C 7.28678 0.36504 -2.74312
C 7.85934 -2.43093 1.03754
C 7.31736 1.20129 4.00234
N 7.41422 2.18503 -0.98362
C 7.31494 3.50984 -1.03049
C 7.19268 4.06935 -2.47941
C 6.60598 2.77418 -3.20073
C 7.16390 1.70714 -2.27548
C 5.08275 2.69953 -3.17443
C 8.58050 4.47906 -3.07760
C 8.51831 5.33042 -4.34908
H 9.52376 6.36284 -4.55044
N 8.09447 -0.76655 -0.69688
C 7.81963 -0.72588 -2.02281
C 8.14124 -2.07062 -2.54715
C 8.44486 -2.95142 -1.38522
C 8.11526 -2.08050 -0.28602
C 8.18632 -2.39469 -4.00890
C 8.94166 -4.35879 -1.28202
O 8.91616 -5.01016 -0.18219
C 9.38271 -4.99346 -2.53730
N 7.41034 -0.49141 2.23939
C 7.53993 -1.82137 2.18107
C 7.42041 -2.44179 3.54148
C 7.42370 -1.23030 4.58169
C 7.46481 -0.05462 3.57454
C 6.17656 -3.31060 3.77389
C 8.48624 -1.27379 5.70843
C 9.86821 -1.10702 5.11730
N 7.60977 2.41704 1.91082
C 7.36583 2.38884 3.29153
C 7.14324 3.78219 3.71943
C 7.25749 4.52727 2.54740
C 7.50790 3.65195 1.45222
C 6.81823 4.20729 5.03780
C 7.20182 5.85677 1.96157
O 7.11439 6.99994 2.41212
C 7.16782 5.70496 0.37675
C 8.17926 6.66171 -0.19328
O 9.40008 6.49495 0.00461
O 7.57456 7.47730 -1.07060
C 8.52819 8.43269 -1.69507
H 6.88625 0.10987 -3.72618
H 7.95121 -3.49764 1.25235
H 7.21904 1.44030 5.06284
H 6.49814 4.90259 -2.58776
H 7.00757 2.65139 -4.20640
H 4.65610 3.48479 -2.55052
H 4.84650 1.71727 -2.76474
H 4.67701 2.70759 -4.18641
H 9.07771 3.59283 -3.47186
H 9.18678 4.99155 -2.32986
H 7.51841 5.73453 -4.50966
H 8.68754 4.67786 -5.20567
H 7.75636 -1.59444 -4.60997
H 7.51965 -3.24203 -4.16788
H 9.19229 -2.65092 -4.34160
H 8.55486 -5.00170 -3.24662
H 9.78806 -5.96499 -2.25679
H 10.16524 -4.38127 -2.98652
H 8.26776 -3.09374 3.74977
H 6.47568 -1.14514 5.11337
H 6.40645 -4.33108 4.08128
H 5.58368 -3.30173 2.85972
H 5.46677 -2.90867 4.49642
H 8.46678 -2.24030 6.21085
H 8.34207 -0.50328 6.46591
H 10.12109 -2.11821 4.80045
H 10.56569 -0.74959 5.87558
H 9.84654 -0.48166 4.22460
H 7.42728 5.08996 5.23253
H 7.01485 3.42161 5.76694
H 5.75447 4.41652 4.92602
H 6.15327 5.94537 0.06052
H 8.14202 9.43592 -1.51441
H 8.64991 8.11636 -2.73118
H 9.51235 8.50429 -1.23070
