79

Mg 7.88313926 0.70970039 0.59883178
C  7.61338097 -1.13637786  3.65357229
C 6.63163382 3.3981255  2.28678012
C  7.68463133  2.22460711 -2.18006606
C  8.02196354 -2.34926043 -1.06524379
N 7.24333304 0.97362699 2.70160062
C 7.24661173 0.20473473 3.78601979
C 6.89582803 0.97768726 5.09249183
C 6.07702365 2.18880793 4.45629679
C 6.71175168 2.21315246 3.07700289
C 4.5861348  1.90394386 4.30594753
C 8.17244744 1.482269   5.84573225
C 7.93847267 1.95608816 7.28312754
H 8.96848421 1.70475391 8.27974949
N 7.71991764 2.63756638 0.19940542
C 7.20063184 3.59129478 1.00936246
C 7.30379975 4.86228527 0.26061647
C  7.75049973  4.54023209 -1.12315911
C  7.7104645   3.10040376 -1.09728314
C 7.04129108 6.20290061 0.87509975
C  8.13997646  5.39469761 -2.28777431
O  8.27183864  4.91836534 -3.46688158
C  8.27862825  6.83871865 -2.02581841
N  7.63567142  0.04713551 -1.36519531
C  7.6414829   0.90721603 -2.38950568
C  7.73382798  0.19037261 -3.70386746
C  8.03618171 -1.33791051 -3.35360197
C  7.98061379 -1.24145841 -1.80897283
C  6.49009324  0.27221974 -4.59965535
C  9.28749384 -1.97511364 -4.00828443
C 10.5396978  -1.33320936 -3.45417061
N  8.0078682  -1.38040344  1.17063041
C  8.03130236 -2.48933513  0.31249562
C  8.01052231 -3.69390601  1.16258102
C  7.95937411 -3.19885959  2.46417923
C  7.92237146 -1.77560675  2.428484  
C  7.98013564 -5.03936486  0.70078979
C  7.902509   -3.54159273  3.87597148
O  7.99760918 -4.58814212  4.51876487
C  7.55332058 -2.22318549  4.69797926
C  8.51236826 -2.14107635  5.85417762
O  9.73048282 -1.9491291   5.66255517
O  7.82030669 -2.0632131   7.00114323
C  8.71228527 -1.94957677  8.18588581
H 6.03063917 4.23449453 2.64904146
H  7.72756938  2.70809855 -3.15824312
H  8.14856141 -3.33748438 -1.51115791
H 6.26457567 0.4274955  5.79051295
H 6.26711941 3.1268445  4.9775194 
H 4.35312208 0.86570472 4.54192541
H 4.35244203 2.11899935 3.26305165
H 3.99623602 2.60576075 4.89607419
H 8.51010119 2.41565309 5.39534897
H 8.95085144 0.71847488 5.84009649
H 6.96314908 1.63911512 7.65350707
H 7.88612953 3.04487083 7.27959402
H 6.57175313 6.10994397 1.85358745
H 6.28890063 6.69403458 0.25832991
H 7.94031648 6.81793648 0.91771675
H  7.33249045  7.22877087 -1.65001057
H  8.64858696  7.27809542 -2.95152279
H  9.00849741  6.98453044 -1.22896276
H  8.54862588  0.58615196 -4.30875513
H  7.21780929 -1.99488858 -3.64910225
H  6.68955174  0.68409953 -5.58923928
H  5.73596073  0.85940327 -4.07640526
H  5.96739838 -0.6730376  -4.74351513
H  9.28487533 -1.79775718 -5.08321877
H  9.3551023  -3.05149515 -3.84990848
H 10.64289658 -0.43559494 -4.06283338
H 11.39651556 -1.99482962 -3.58582536
H 10.39920871 -1.01246546 -2.42175976
H  8.68593715 -5.59098287  1.32170105
H  8.24718348 -5.10214746 -0.35388874
H  6.93562042 -5.29178444  0.88280167
H  6.52035919 -2.32475175  5.02933567
H  8.45199585 -2.76332434  8.86286315
H  8.60686687 -0.92978696  8.55645389
H  9.76963178 -2.15458765  8.01463194
