158

Mg 0.00000 0.00000 0.00000
C -0.21700 -2.21800 2.80100
C -1.25500 2.44200 2.02600
C -0.24500 1.85000 -2.56400
C 0.14600 -2.82400 -2.03700
N -0.61700 -0.00900 2.12600
C -0.59400 -0.90800 3.10500
C -0.93600 -0.30900 4.50200
C -1.77300 0.96400 4.03200
C -1.15500 1.16800 2.66000
C -3.26300 0.68500 3.86300
C 0.34500 0.11000 5.29900
C 0.12400 0.39700 6.78700
H 1.16800 0.03300 7.73300
N -0.18500 1.96100 -0.15200
C -0.70300 2.80000 0.77700
C -0.62000 4.15600 0.19300
C -0.18700 4.01500 -1.22500
C -0.21400 2.58300 -1.38000
C -0.88700 5.40600 0.97400
C 0.18100 5.01300 -2.27700
O 0.30300 4.69000 -3.50800
C 0.31000 6.41400 -1.83700
N -0.26500 -0.41300 -2.02900
C -0.27900 0.56900 -2.93700
C -0.19600 0.02400 -4.33200
C 0.12400 -1.53300 -4.18000
C 0.08600 -1.63200 -2.63500
C -1.45100 0.20500 -5.19700
C 1.37300 -2.07000 -4.92300
C 2.62600 -1.49000 -4.30600
N 0.15000 -2.14400 0.30300
C 0.17300 -3.13600 -0.68800
C 0.17300 -4.43800 0.00400
C 0.13300 -4.11100 1.35800
C 0.08300 -2.69500 1.50200
C 0.14900 -5.71500 -0.62300
C 0.09600 -4.62900 2.71600
O 0.20800 -5.74700 3.22100
C -0.25500 -3.42800 3.70100
C 0.71700 -3.48200 4.84800
O 1.93100 -3.25500 4.66900
O 0.03800 -3.55600 6.00300
C 0.94300 -3.58300 7.18300
H -1.85900 3.22000 2.49700
H -0.21800 2.45300 -3.47400
H 0.27600 -3.74700 -2.60500
H -1.55400 -0.94900 5.13200
H -1.58500 1.83100 4.66500
H -3.48400 -0.37700 3.96900
H -3.51100 1.02700 2.85800
H -3.85200 1.30100 4.54300
H 0.66900 1.09600 4.96600
H 1.13000 -0.63900 5.18900
H -0.84400 0.02600 7.12500
H 0.06200 1.47700 6.92100
H -1.34400 5.18600 1.93800
H -1.65100 5.96300 0.43200
H 0.00700 6.02000 1.08400
H -0.63500 6.74400 -1.40500
H 0.66500 6.97000 -2.70400
H 1.04800 6.46600 -1.03600
H 0.60800 0.50100 -4.89100
H -0.69200 -2.15600 -4.54700
H -1.26700 0.74000 -6.12900
H -2.20400 0.71400 -4.59600
H -1.96700 -0.72000 -5.45300
H 1.35600 -1.75900 -5.96700
H 1.45200 -3.15700 -4.90200
H 2.71400 -0.52200 -4.79800
H 3.48700 -2.12100 -4.52900
H 2.49500 -1.30300 -3.24000
H 0.86700 -6.33300 -0.08400
H 0.40400 -5.64200 -1.68000
H -0.89100 -5.99900 -0.46300
H -1.28300 -3.58100 4.02800
H 0.69800 -4.47800 7.75500
H 0.83300 -2.61900 7.68000
H 2.00000 -3.75400 6.97600
Mg 8.93180 0.79711 0.68605
C 6.95229 2.76916 2.93808
C 11.06444 0.23675 3.28845
C 10.92574 -0.56642 -1.37123
C 7.31131 2.41938 -1.93844
N 8.90392 1.46950 2.79304
C 8.06947 2.16465 3.55119
C 8.41043 2.14792 5.06546
C 9.98046 1.82910 4.95493
C 9.98806 1.10076 3.61250
C 10.84013 3.07566 4.82688
C 7.64721 1.01502 5.83751
C 7.69202 1.13343 7.36255
H 6.51770 0.72290 8.12735
N 10.45398 -0.43728 0.99881
C 11.19328 -0.54922 2.12227
C 12.20173 -1.58216 1.83902
C 12.10177 -1.95358 0.40139
C 11.14981 -0.96362 -0.06105
C 13.08206 -2.17300 2.90173
C 12.76426 -3.01492 -0.42375
O 12.70904 -3.00469 -1.70425
C 13.55761 -4.01378 0.30724
N 9.25028 1.05678 -1.35196
C 10.14148 0.29870 -2.01452
C 10.00120 0.47167 -3.50810
C 8.66407 1.32343 -3.71825
C 8.29460 1.58296 -2.24125
C 11.16547 1.17139 -4.20901
C 7.58343 0.71728 -4.65498
C 6.99510 -0.52595 -4.02757
N 7.28345 2.18056 0.49360
C 6.78558 2.75385 -0.69701
C 5.73623 3.71895 -0.30988
C 5.71217 3.65654 1.09155
C 6.69225 2.73363 1.54672
C 4.99169 4.54077 -1.20229
C 5.08784 4.16939 2.28984
O 4.13515 4.91210 2.52330
C 5.94966 3.71137 3.54438
C 5.00719 3.16058 4.57922
O 4.36162 2.12118 4.35675
O 5.18562 3.82474 5.73569
C 4.28065 3.30694 6.79623
H 11.91271 0.18595 3.97164
H 11.51276 -1.08975 -2.12953
H 6.69164 2.89306 -2.70284
H 8.25760 3.09122 5.57595
H 10.30557 1.16450 5.75116
H 10.24208 3.96746 4.71215
H 11.45725 2.91881 3.95189
H 11.52951 3.14671 5.67308
H 8.18541 0.06741 5.70675
H 6.62783 0.95078 5.50986
H 8.03713 2.12192 7.68927
H 8.45155 0.44550 7.74185
H 13.04410 -1.58605 3.82771
H 14.11594 -2.06763 2.55554
H 12.87517 -3.23036 3.08023
H 14.34066 -3.51140 0.87019
H 13.87779 -4.73896 -0.44342
H 12.90964 -4.50673 1.04055
H 9.88812 -0.48690 -3.99949
H 8.87296 2.30561 -4.16718
H 11.61396 0.56659 -5.01965
H 11.91017 1.42268 -3.46549
H 10.92934 2.14398 -4.63739
H 8.03387 0.40451 -5.60020
H 6.78168 1.40819 -4.89336
H 7.71669 -1.30319 -4.29643
H 6.01289 -0.73774 -4.44526
H 6.98614 -0.44847 -2.93415
H 3.96205 4.50593 -0.87195
H 5.09150 4.20224 -2.23147
H 5.48334 5.50322 -1.03725
H 6.49036 4.58626 3.90742
H 3.70900 4.16060 7.17326
H 4.93495 2.78110 7.51675
H 3.48479 2.63688 6.49280
