158

Mg 0.00000 0.00000 0.00000
C -0.21700 -2.21800 2.80100
C -1.25500 2.44200 2.02600
C -0.24500 1.85000 -2.56400
C 0.14600 -2.82400 -2.03700
N -0.61700 -0.00900 2.12600
C -0.59400 -0.90800 3.10500
C -0.93600 -0.30900 4.50200
C -1.77300 0.96400 4.03200
C -1.15500 1.16800 2.66000
C -3.26300 0.68500 3.86300
C 0.34500 0.11000 5.29900
C 0.12400 0.39700 6.78700
H 1.16800 0.03300 7.73300
N -0.18500 1.96100 -0.15200
C -0.70300 2.80000 0.77700
C -0.62000 4.15600 0.19300
C -0.18700 4.01500 -1.22500
C -0.21400 2.58300 -1.38000
C -0.88700 5.40600 0.97400
C 0.18100 5.01300 -2.27700
O 0.30300 4.69000 -3.50800
C 0.31000 6.41400 -1.83700
N -0.26500 -0.41300 -2.02900
C -0.27900 0.56900 -2.93700
C -0.19600 0.02400 -4.33200
C 0.12400 -1.53300 -4.18000
C 0.08600 -1.63200 -2.63500
C -1.45100 0.20500 -5.19700
C 1.37300 -2.07000 -4.92300
C 2.62600 -1.49000 -4.30600
N 0.15000 -2.14400 0.30300
C 0.17300 -3.13600 -0.68800
C 0.17300 -4.43800 0.00400
C 0.13300 -4.11100 1.35800
C 0.08300 -2.69500 1.50200
C 0.14900 -5.71500 -0.62300
C 0.09600 -4.62900 2.71600
O 0.20800 -5.74700 3.22100
C -0.25500 -3.42800 3.70100
C 0.71700 -3.48200 4.84800
O 1.93100 -3.25500 4.66900
O 0.03800 -3.55600 6.00300
C 0.94300 -3.58300 7.18300
H -1.85900 3.22000 2.49700
H -0.21800 2.45300 -3.47400
H 0.27600 -3.74700 -2.60500
H -1.55400 -0.94900 5.13200
H -1.58500 1.83100 4.66500
H -3.48400 -0.37700 3.96900
H -3.51100 1.02700 2.85800
H -3.85200 1.30100 4.54300
H 0.66900 1.09600 4.96600
H 1.13000 -0.63900 5.18900
H -0.84400 0.02600 7.12500
H 0.06200 1.47700 6.92100
H -1.34400 5.18600 1.93800
H -1.65100 5.96300 0.43200
H 0.00700 6.02000 1.08400
H -0.63500 6.74400 -1.40500
H 0.66500 6.97000 -2.70400
H 1.04800 6.46600 -1.03600
H 0.60800 0.50100 -4.89100
H -0.69200 -2.15600 -4.54700
H -1.26700 0.74000 -6.12900
H -2.20400 0.71400 -4.59600
H -1.96700 -0.72000 -5.45300
H 1.35600 -1.75900 -5.96700
H 1.45200 -3.15700 -4.90200
H 2.71400 -0.52200 -4.79800
H 3.48700 -2.12100 -4.52900
H 2.49500 -1.30300 -3.24000
H 0.86700 -6.33300 -0.08400
H 0.40400 -5.64200 -1.68000
H -0.89100 -5.99900 -0.46300
H -1.28300 -3.58100 4.02800
H 0.69800 -4.47800 7.75500
H 0.83300 -2.61900 7.68000
H 2.00000 -3.75400 6.97600
Mg 7.88314 0.70970 0.59883
C 7.93200 0.91688 -2.97425
C 7.32998 -2.63909 0.24853
C 7.38436 0.57513 3.72769
C 7.30740 4.14659 0.64294
N 7.67875 -0.58047 -1.18844
C 7.77746 -0.38768 -2.50003
C 7.77708 -1.71190 -3.32089
C 7.02460 -2.65432 -2.27800
C 7.39446 -1.93707 -0.99165
C 5.50688 -2.64051 -2.42915
C 9.22534 -2.22771 -3.61788
C 9.32281 -3.32485 -4.68190
H 10.47460 -3.33773 -5.57103
N 7.90794 -0.83108 1.83505
C 7.67688 -2.12771 1.51780
C 7.80997 -2.88615 2.78023
C 7.94972 -1.90230 3.88955
C 7.72373 -0.66381 3.18922
C 7.84489 -4.38241 2.84143
C 8.23037 -2.05493 5.35108
O 8.08023 -1.09051 6.17686
C 8.60552 -3.40445 5.81055
N 7.19543 2.10731 1.98857
C 7.12869 1.81010 3.29095
C 6.88334 3.03651 4.11900
C 7.03831 4.27805 3.12688
C 7.27890 3.49928 1.81010
C 5.51919 3.10964 4.81881
C 8.05296 5.37752 3.52947
C 9.45938 4.82486 3.46911
N 7.83069 2.30820 -0.86851
C 7.54927 3.66144 -0.63142
C 7.52376 4.33369 -1.94348
C 7.77738 3.31505 -2.85994
C 7.92433 2.07981 -2.16649
C 7.23074 5.70739 -2.17048
C 7.93399 2.97852 -4.26567
O 8.00458 3.62783 -5.31013
C 7.91938 1.39233 -4.40580
C 9.07556 1.00317 -5.28619
O 10.25278 1.16663 -4.90566
O 8.62107 0.28779 -6.32649
C 9.72132 -0.15512 -7.22394
H 6.92200 -3.65167 0.26128
H 7.31205 0.59406 4.81711
H 7.21777 5.23290 0.58491
H 7.21626 -1.66763 -4.25467
H 7.42980 -3.66602 -2.27773
H 5.18472 -1.88488 -3.14550
H 5.11755 -2.41437 -1.43629
H 5.13337 -3.63408 -2.67832
H 9.59635 -2.77571 -2.75180
H 9.88089 -1.40040 -3.89198
H 8.39808 -3.40903 -5.25348
H 9.41615 -4.28518 -4.17470
H 7.55368 -4.82899 1.89154
H 7.06479 -4.69091 3.53712
H 8.81035 -4.75677 3.18213
H 7.80435 -4.10288 5.56790
H 8.85549 -3.30404 6.86614
H 9.48135 -3.73669 5.25244
H 7.61939 3.12309 4.91723
H 6.09969 4.81724 2.99672
H 5.58774 3.22785 5.90049
H 4.95822 2.21259 4.55822
H 4.85789 3.89344 4.45037
H 7.87786 5.69751 4.55606
H 8.00440 6.26161 2.89364
H 9.56836 4.33070 4.43387
H 10.18193 5.63450 3.36135
H 9.55364 4.05952 2.69849
H 7.95816 6.05748 -2.90278
H 7.29006 6.28279 -1.24690
H 6.21283 5.63613 -2.55341
H 6.96007 1.12555 -4.84813
H 9.48295 0.20377 -8.22525
H 9.82204 -1.23139 -7.08285
H 10.69279 0.31365 -7.06316
