79

Mg 7.88954 0.71786 0.60103
C 7.38412 1.04065 4.13931
C 6.74164 3.91537 0.29629
C 7.89594 0.31468 -2.54616
C 7.89679 -2.73716 1.05760
N 7.18470 2.18589 2.09782
C 7.09539 2.21840 3.41892
C 6.75046 3.61331 4.00612
C 6.02649 4.24380 2.71878
C 6.71427 3.42677 1.62694
C 4.53569 3.95414 2.66457
C 8.03136 4.42870 4.40166
C 7.76584 5.66575 5.26245
H 8.74486 6.02579 6.28439
N 7.86426 2.05517 -0.86510
C 7.38142 3.31417 -0.80986
C 7.57822 3.87985 -2.15353
C 8.06584 2.79771 -3.05125
C 7.93831 1.65067 -2.17483
C 7.38399 5.33657 -2.45959
C 8.55273 2.79369 -4.46869
O 8.70173 1.70371 -5.12638
C 8.76064 4.10786 -5.09418
N 7.68411 -0.96268 -0.60559
C 7.77755 -0.86864 -1.94363
C 7.87403 -2.23423 -2.58101
C 8.07021 -3.26055 -1.37032
C 7.95896 -2.27727 -0.18449
C 6.67117 -2.66268 -3.42122
C 9.30486 -4.20064 -1.43767
C 10.57572 -3.39462 -1.29410
N 7.86672 -0.62773 2.29128
C 7.84769 -2.03932 2.25760
C 7.71907 -2.50641 3.65320
C 7.64849 -1.32452 4.40594
C 7.70721 -0.20021 3.53877
C 7.63321 -3.86430 4.07139
C 7.52696 -0.77240 5.73602
O 7.52489 -1.24025 6.87393
C 7.22309 0.78279 5.61179
C 8.14000 1.51203 6.55518
O 9.37000 1.50662 6.37163
O 7.40343 2.27074 7.38716
C 8.26889 3.02208 8.33494
H 6.18540 4.82442 0.06585
H 8.00684 0.11868 -3.61516
H 7.99031 -3.79969 1.29205
H 6.06648 3.59606 4.84615
H 6.26197 5.29936 2.61060
H 4.22970 3.26982 3.44189
H 4.35505 3.52321 1.68850
H 3.96880 4.88917 2.69081
H 8.44146 4.90897 3.50394
H 8.74970 3.79761 4.88779
H 6.75315 5.66520 5.68364
H 7.78766 6.54804 4.61815
H 6.86453 5.85335 -1.64319
H 6.68913 5.39596 -3.30428
H 8.31532 5.83753 -2.73221
H 7.82815 4.66702 -5.07816
H 9.19399 3.89969 -6.07436
H 9.47747 4.67392 -4.48892
H 8.73424 -2.29524 -3.23632
H 7.22172 -3.95504 -1.28335
H 6.93679 -2.92132 -4.46363
H 5.93990 -1.86556 -3.40174
H 6.10633 -3.50415 -3.02362
H 9.35591 -4.68940 -2.41372
H 9.29366 -4.98286 -0.68601
H 10.75240 -3.02936 -2.31020
H 11.39373 -4.02647 -0.95400
H 10.41679 -2.52016 -0.65245
H 8.27229 -3.96399 4.93865
H 7.93143 -4.54473 3.27650
H 6.56453 -3.93340 4.29145
H 6.17265 0.93252 5.86427
H 7.92893 2.77226 9.34474
H 8.19832 4.08242 8.02759
H 9.31448 2.74220 8.38850
