79

Mg 15.75641 1.42248 1.19999
C 13.87092 -1.38145 -0.00914
C 14.00994 3.35579 -1.00155
C 17.70316 3.82316 1.91711
C 18.08672 -0.85487 2.43654
N 14.17044 0.93482 -0.26260
C 13.49087 -0.15379 -0.59041
C 12.28717 0.10012 -1.53708
C 12.79168 1.47044 -2.20532
C 13.68778 1.97716 -1.07708
C 13.65223 1.25702 -3.43952
C 10.94310 0.30392 -0.75352
C 9.68073 0.24853 -1.61672
H 8.47230 -0.33971 -1.04563
N 15.53940 3.37656 0.92971
C 14.77268 3.98976 0.00375
C 14.97421 5.43287 0.20619
C 16.04875 5.61893 1.21884
C 16.49630 4.25039 1.38278
C 14.13026 6.47489 -0.46862
C 16.59318 6.82998 1.91395
O 17.68780 6.78917 2.57950
C 15.85647 8.08664 1.71506
N 17.72495 1.49096 1.86517
C 18.31746 2.66346 2.15172
C 19.62837 2.45088 2.87056
C 19.67699 0.89179 3.22334
C 18.36947 0.43655 2.53885
C 20.88507 2.83520 2.08993
C 19.90173 0.51399 4.71311
C 18.70082 0.92188 5.53581
N 15.88202 -0.72605 1.38998
C 16.95859 -1.47451 1.91428
C 16.62824 -2.90219 1.72714
C 15.38294 -2.88486 1.08105
C 14.97594 -1.54110 0.86160
C 17.45567 -4.00203 2.09021
C 14.32511 -3.69773 0.52524
O 14.07803 -4.90272 0.49901
C 13.35789 -2.76042 -0.31876
C 11.94140 -3.08459 0.06979
O 11.53299 -2.85258 1.22130
O 11.24507 -3.41012 -1.03454
C 9.83110 -3.72925 -0.70189
H 13.68384 4.00988 -1.81069
H 18.36342 4.61343 2.28183
H 18.71633 -1.62746 2.88303
H 12.14265 -0.65477 -2.30065
H 11.96504 2.15598 -2.37283
H 13.88096 0.21325 -3.59562
H 14.55927 1.82139 -3.26688
H 13.17668 1.71085 -4.31372
H 10.88634 1.34288 -0.40410
H 10.86122 -0.39969 0.05199
H 9.87918 -0.17023 -2.61080
H 9.35240 1.27125 -1.81737
H 13.53246 6.04396 -1.28123
H 14.81601 7.16478 -0.97227
H 13.51500 7.03927 0.23536
H 15.81733 8.31815 0.65331
H 16.34591 8.81775 2.36144
H 14.82140 7.94116 2.04382
H 19.66148 3.02066 3.79107
H 20.49939 0.38129 2.70095
H 21.51406 3.57924 2.61419
H 20.58373 3.20795 1.11998
H 21.53683 2.00416 1.82577
H 20.75601 1.06205 5.11808
H 20.09490 -0.54250 4.86640
H 18.88826 1.98070 5.73792
H 18.65482 0.34615 6.45801
H 17.77920 0.85701 4.94586
H 16.81116 -4.73657 2.55450
H 18.25553 -3.69366 2.76021
H 17.83371 -4.29462 1.10698
H 13.54846 -2.95861 -1.37421
H 9.62853 -4.73033 -1.09494
H 9.23183 -2.89560 -1.11377
H 9.57907 -3.85779 0.34425
