79

Mg 10.50630 0.94849 0.78913
C 11.82825 -1.68650 -1.25741
C 11.98827 3.15200 -1.35164
C 9.74201 3.27241 2.80970
C 10.12320 -1.40570 3.33014
N 11.72353 0.64970 -1.03332
C 12.10902 -0.39513 -1.75031
C 12.76588 -0.03515 -3.10991
C 13.26438 1.44856 -2.75077
C 12.24405 1.79384 -1.66801
C 14.65071 1.48373 -2.12932
C 11.73100 -0.02368 -4.28927
C 12.35044 0.01513 -5.68804
H 11.68364 -0.71157 -6.76496
N 10.38851 2.90925 0.50613
C 11.04092 3.63783 -0.42383
C 10.62942 5.03290 -0.20339
C 9.80886 5.08953 1.03685
C 9.96882 3.73300 1.52092
C 10.95007 6.13789 -1.16756
C 9.02218 6.18699 1.68718
O 8.58084 6.07992 2.88575
C 8.86378 7.42714 0.91361
N 10.20275 0.98576 2.84554
C 9.82699 2.11652 3.46851
C 9.40273 1.84036 4.89123
C 9.34163 0.24746 5.01982
C 9.84965 -0.13961 3.61359
C 10.31661 2.40382 5.97922
C 8.00522 -0.36763 5.51814
C 6.92249 -0.15584 4.48459
N 10.71936 -1.19397 0.96956
C 10.53492 -1.97463 2.13172
C 10.90585 -3.36251 1.78731
C 11.30545 -3.28817 0.44445
C 11.21082 -1.94494 -0.00971
C 10.89417 -4.47229 2.67860
C 11.79592 -4.03872 -0.68904
O 11.98713 -5.23112 -0.92435
C 12.27657 -3.01333 -1.80436
C 11.70324 -3.45781 -3.12203
O 10.47469 -3.44168 -3.31442
O 12.70460 -3.62036 -4.00590
C 12.18496 -4.05030 -5.33140
H 12.59933 3.91951 -1.82746
H 9.36931 4.01640 3.51754
H 9.93829 -2.21570 4.03893
H 13.61094 -0.65507 -3.38441
H 13.15906 2.11728 -3.60111
H 15.02475 0.49205 -1.92244
H 14.54757 2.04822 -1.21185
H 15.33291 2.05882 -2.76194
H 11.20139 0.93770 -4.29158
H 11.05903 -0.85646 -4.21463
H 13.42151 -0.22036 -5.67120
H 12.30766 1.04237 -6.05812
H 11.70499 5.82624 -1.89994
H 11.44026 6.93132 -0.59306
H 10.05988 6.54846 -1.64887
H 9.84449 7.83343 0.67780
H 8.19810 8.05799 1.50587
H 8.38549 7.18475 -0.04195
H 8.41802 2.24674 5.08694
H 10.08368 -0.13214 5.73752
H 9.79190 3.07395 6.68610
H 11.13685 2.92261 5.50110
H 10.83395 1.65767 6.57990
H 7.67052 0.13920 6.42658
H 8.07555 -1.42577 5.74702
H 6.57579 0.86032 4.69505
H 6.12167 -0.88098 4.61460
H 7.34002 -0.15838 3.47102
H 10.45726 -5.30128 2.13788
H 10.33488 -4.24866 3.58467
H 11.96490 -4.57785 2.87267
H 13.36721 -3.02158 -1.80880
H 12.70378 -4.97787 -5.59240
H 12.33116 -3.18478 -6.00464
H 11.14929 -4.36477 -5.38573
