79

Mg 10.50607 0.94000 0.80553
C 9.15705 3.37962 3.06550
C 12.27065 -0.30929 3.44373
C 12.05020 -0.92984 -1.24063
C 9.55719 3.04045 -1.80856
N 10.61522 1.54259 2.93091
C 10.01101 2.44567 3.68835
C 10.27803 2.29165 5.20971
C 11.67548 1.50446 5.13010
C 11.50357 0.83858 3.76638
C 12.88218 2.42571 5.06308
C 9.17606 1.43474 5.92623
C 9.20301 1.50071 7.45484
H 7.93384 1.45798 8.17585
N 11.56056 -0.71172 1.11924
C 12.19013 -1.07131 2.25749
C 12.83904 -2.35958 1.96860
C 12.67849 -2.65082 0.51804
C 12.09552 -1.40493 0.06198
C 13.45672 -3.21677 3.03496
C 13.00836 -3.84726 -0.32214
O 13.00290 -3.79297 -1.60271
C 13.42864 -5.05823 0.39787
N 10.95882 1.13184 -1.21451
C 11.59423 0.14930 -1.87692
C 11.56552 0.38921 -3.36756
C 10.56513 1.61769 -3.58581
C 10.24360 1.94720 -2.11155
C 12.91233 0.70857 -4.01601
C 9.38281 1.39647 -4.56858
C 8.41791 0.38359 -3.99547
N 9.37360 2.76993 0.61336
C 9.11838 3.49467 -0.57142
C 8.40607 4.72890 -0.18190
C 8.31592 4.64698 1.21583
C 8.94658 3.45626 1.66744
C 7.98301 5.75992 -1.06742
C 7.84001 5.30223 2.41284
O 7.15609 6.29841 2.64444
C 8.47457 4.57291 3.67451
C 7.37314 4.31923 4.66700
O 6.44596 3.53605 4.39576
O 7.70839 4.87044 5.84774
C 6.65193 4.63594 6.86790
H 13.03776 -0.63509 4.14678
H 12.47234 -1.59293 -1.99931
H 9.14082 3.69911 -2.57373
H 10.40684 3.22470 5.74505
H 11.75179 0.75492 5.91350
H 12.59334 3.46118 4.96057
H 13.45020 2.10415 4.19994
H 13.53036 2.26148 5.92866
H 9.39919 0.37002 5.78015
H 8.19859 1.69658 5.57041
H 9.82534 2.32635 7.82088
H 9.69929 0.60331 7.83221
H 13.57033 -2.66694 3.97739
H 14.48377 -3.42956 2.71913
H 12.92718 -4.16154 3.17518
H 14.30885 -4.83541 0.99623
H 13.53453 -5.83065 -0.36635
H 12.63532 -5.34172 1.09850
H 11.17861 -0.47637 -3.89118
H 11.08259 2.49618 -3.99852
H 13.17943 0.01209 -4.83311
H 13.67232 0.70072 -3.24601
H 13.00318 1.71541 -4.42003
H 9.74662 0.97985 -5.51104
H 8.84250 2.30675 -4.80614
H 8.87272 -0.57304 -4.26949
H 7.43325 0.49560 -4.44485
H 8.39589 0.43657 -2.90078
H 6.98233 6.03878 -0.76512
H 8.00849 5.42927 -2.10366
H 8.74209 6.51887 -0.85993
H 9.24642 5.22919 4.07839
H 6.35954 5.61644 7.25626
H 7.08659 3.91791 7.58849
H 5.69882 4.25215 6.52331
