158

Mg 0.00000 0.00000 0.00000
C -0.21700 -2.21800 2.80100
C -1.25500 2.44200 2.02600
C -0.24500 1.85000 -2.56400
C 0.14600 -2.82400 -2.03700
N -0.61700 -0.00900 2.12600
C -0.59400 -0.90800 3.10500
C -0.93600 -0.30900 4.50200
C -1.77300 0.96400 4.03200
C -1.15500 1.16800 2.66000
C -3.26300 0.68500 3.86300
C 0.34500 0.11000 5.29900
C 0.12400 0.39700 6.78700
H 1.16800 0.03300 7.73300
N -0.18500 1.96100 -0.15200
C -0.70300 2.80000 0.77700
C -0.62000 4.15600 0.19300
C -0.18700 4.01500 -1.22500
C -0.21400 2.58300 -1.38000
C -0.88700 5.40600 0.97400
C 0.18100 5.01300 -2.27700
O 0.30300 4.69000 -3.50800
C 0.31000 6.41400 -1.83700
N -0.26500 -0.41300 -2.02900
C -0.27900 0.56900 -2.93700
C -0.19600 0.02400 -4.33200
C 0.12400 -1.53300 -4.18000
C 0.08600 -1.63200 -2.63500
C -1.45100 0.20500 -5.19700
C 1.37300 -2.07000 -4.92300
C 2.62600 -1.49000 -4.30600
N 0.15000 -2.14400 0.30300
C 0.17300 -3.13600 -0.68800
C 0.17300 -4.43800 0.00400
C 0.13300 -4.11100 1.35800
C 0.08300 -2.69500 1.50200
C 0.14900 -5.71500 -0.62300
C 0.09600 -4.62900 2.71600
O 0.20800 -5.74700 3.22100
C -0.25500 -3.42800 3.70100
C 0.71700 -3.48200 4.84800
O 1.93100 -3.25500 4.66900
O 0.03800 -3.55600 6.00300
C 0.94300 -3.58300 7.18300
H -1.85900 3.22000 2.49700
H -0.21800 2.45300 -3.47400
H 0.27600 -3.74700 -2.60500
H -1.55400 -0.94900 5.13200
H -1.58500 1.83100 4.66500
H -3.48400 -0.37700 3.96900
H -3.51100 1.02700 2.85800
H -3.85200 1.30100 4.54300
H 0.66900 1.09600 4.96600
H 1.13000 -0.63900 5.18900
H -0.84400 0.02600 7.12500
H 0.06200 1.47700 6.92100
H -1.34400 5.18600 1.93800
H -1.65100 5.96300 0.43200
H 0.00700 6.02000 1.08400
H -0.63500 6.74400 -1.40500
H 0.66500 6.97000 -2.70400
H 1.04800 6.46600 -1.03600
H 0.60800 0.50100 -4.89100
H -0.69200 -2.15600 -4.54700
H -1.26700 0.74000 -6.12900
H -2.20400 0.71400 -4.59600
H -1.96700 -0.72000 -5.45300
H 1.35600 -1.75900 -5.96700
H 1.45200 -3.15700 -4.90200
H 2.71400 -0.52200 -4.79800
H 3.48700 -2.12100 -4.52900
H 2.49500 -1.30300 -3.24000
H 0.86700 -6.33300 -0.08400
H 0.40400 -5.64200 -1.68000
H -0.89100 -5.99900 -0.46300
H -1.28300 -3.58100 4.02800
H 0.69800 -4.47800 7.75500
H 0.83300 -2.61900 7.68000
H 2.00000 -3.75400 6.97600
Mg 7.89276 0.71414 0.59914
C 9.54042 -1.40324 2.98262
C 8.50018 3.31828 2.71672
C 6.06062 2.52122 -1.25697
C 6.44105 -2.15732 -0.73987
N 8.89967 0.81818 2.56576
C 9.54116 -0.03998 3.34448
C 10.29004 0.61055 4.53844
C 9.42300 1.95665 4.66148
C 8.93433 2.06537 3.21854
C 8.21097 1.81121 5.56655
C 11.79098 0.92262 4.20409
C 12.66041 1.27101 5.41424
H 14.05327 0.83239 5.41997
N 7.76751 2.68917 0.45025
C 8.07636 3.59793 1.39895
C 7.79162 4.91300 0.80424
C 7.13414 4.69940 -0.51364
C 6.93884 3.26382 -0.48119
C 8.21097 6.20397 1.44532
C 6.73428 5.63430 -1.61467
O 5.96132 5.26178 -2.56682
C 7.19838 7.02422 -1.49541
N 6.29665 0.27845 -0.65981
C 5.71130 1.24183 -1.39274
C 4.77705 0.65223 -2.42228
C 5.04123 -0.92469 -2.38910
C 6.06324 -0.98578 -1.23275
C 3.28886 0.92340 -2.20287
C 5.40782 -1.60536 -3.73631
C 6.76595 -1.13136 -4.20127
N 8.09705 -1.41596 0.89740
C 7.37389 -2.44123 0.24937
C 7.78167 -3.71939 0.86781
C 8.70400 -3.34400 1.85618
C 8.84488 -1.92995 1.86747
C 7.27346 -5.00575 0.53149
C 9.58248 -3.82158 2.89967
O 9.94413 -4.93064 3.29074
C 10.06820 -2.57675 3.76040
C 11.55784 -2.68722 3.93730
O 12.31909 -2.59591 2.95813
O 11.84849 -2.66421 5.25083
C 13.31530 -2.76005 5.47692
H 8.43734 4.16004 3.40691
H 5.48532 3.08875 -1.99211
H 6.10737 -3.10537 -1.16710
H 10.24107 0.05077 5.46473
H 10.04892 2.80765 4.91721
H 8.06632 0.78958 5.88512
H 7.36512 2.14860 4.98196
H 8.28710 2.50069 6.41222
H 11.84563 1.87099 3.65422
H 12.23657 0.11249 3.66024
H 12.17183 1.01134 6.36124
H 12.77286 2.35697 5.45962
H 8.52657 6.05289 2.48502
H 7.31468 6.82903 1.52163
H 8.96549 6.73761 0.86344
H 6.82936 7.44960 -0.56517
H 6.88868 7.51604 -2.41957
H 8.29209 7.02339 -1.42904
H 5.00698 1.02631 -3.41238
H 4.15299 -1.47965 -2.05309
H 2.80479 1.42314 -3.06311
H 3.17895 1.51867 -1.30615
H 2.68850 0.04503 -1.97210
H 4.69552 -1.31612 -4.51291
H 5.40777 -2.68912 -3.68675
H 6.53943 -0.18394 -4.69943
H 7.20477 -1.84654 -4.89410
H 7.41790 -0.90793 -3.34881
H 8.12275 -5.67460 0.48864
H 6.73420 -4.98564 -0.41327
H 6.60740 -5.18044 1.38067
H 9.53909 -2.61104 4.71353
H 13.48106 -3.61388 6.14113
H 13.62598 -1.76535 5.84811
H 13.93655 -3.02715 4.63006
