158

Mg 0.00000 0.00000 0.00000
C -0.21700 -2.21800 2.80100
C -1.25500 2.44200 2.02600
C -0.24500 1.85000 -2.56400
C 0.14600 -2.82400 -2.03700
N -0.61700 -0.00900 2.12600
C -0.59400 -0.90800 3.10500
C -0.93600 -0.30900 4.50200
C -1.77300 0.96400 4.03200
C -1.15500 1.16800 2.66000
C -3.26300 0.68500 3.86300
C 0.34500 0.11000 5.29900
C 0.12400 0.39700 6.78700
H 1.16800 0.03300 7.73300
N -0.18500 1.96100 -0.15200
C -0.70300 2.80000 0.77700
C -0.62000 4.15600 0.19300
C -0.18700 4.01500 -1.22500
C -0.21400 2.58300 -1.38000
C -0.88700 5.40600 0.97400
C 0.18100 5.01300 -2.27700
O 0.30300 4.69000 -3.50800
C 0.31000 6.41400 -1.83700
N -0.26500 -0.41300 -2.02900
C -0.27900 0.56900 -2.93700
C -0.19600 0.02400 -4.33200
C 0.12400 -1.53300 -4.18000
C 0.08600 -1.63200 -2.63500
C -1.45100 0.20500 -5.19700
C 1.37300 -2.07000 -4.92300
C 2.62600 -1.49000 -4.30600
N 0.15000 -2.14400 0.30300
C 0.17300 -3.13600 -0.68800
C 0.17300 -4.43800 0.00400
C 0.13300 -4.11100 1.35800
C 0.08300 -2.69500 1.50200
C 0.14900 -5.71500 -0.62300
C 0.09600 -4.62900 2.71600
O 0.20800 -5.74700 3.22100
C -0.25500 -3.42800 3.70100
C 0.71700 -3.48200 4.84800
O 1.93100 -3.25500 4.66900
O 0.03800 -3.55600 6.00300
C 0.94300 -3.58300 7.18300
H -1.85900 3.22000 2.49700
H -0.21800 2.45300 -3.47400
H 0.27600 -3.74700 -2.60500
H -1.55400 -0.94900 5.13200
H -1.58500 1.83100 4.66500
H -3.48400 -0.37700 3.96900
H -3.51100 1.02700 2.85800
H -3.85200 1.30100 4.54300
H 0.66900 1.09600 4.96600
H 1.13000 -0.63900 5.18900
H -0.84400 0.02600 7.12500
H 0.06200 1.47700 6.92100
H -1.34400 5.18600 1.93800
H -1.65100 5.96300 0.43200
H 0.00700 6.02000 1.08400
H -0.63500 6.74400 -1.40500
H 0.66500 6.97000 -2.70400
H 1.04800 6.46600 -1.03600
H 0.60800 0.50100 -4.89100
H -0.69200 -2.15600 -4.54700
H -1.26700 0.74000 -6.12900
H -2.20400 0.71400 -4.59600
H -1.96700 -0.72000 -5.45300
H 1.35600 -1.75900 -5.96700
H 1.45200 -3.15700 -4.90200
H 2.71400 -0.52200 -4.79800
H 3.48700 -2.12100 -4.52900
H 2.49500 -1.30300 -3.24000
H 0.86700 -6.33300 -0.08400
H 0.40400 -5.64200 -1.68000
H -0.89100 -5.99900 -0.46300
H -1.28300 -3.58100 4.02800
H 0.69800 -4.47800 7.75500
H 0.83300 -2.61900 7.68000
H 2.00000 -3.75400 6.97600
Mg 13.14563 1.17942 1.00518
C 13.31519 -2.30737 0.17292
C 12.11137 0.23370 4.11492
C 12.55431 4.23373 1.62885
C 13.07591 1.84975 -2.41411
N 12.79722 -0.80981 1.90730
C 12.95402 -2.06504 1.51467
C 12.78828 -3.11754 2.64352
C 11.87004 -2.25733 3.64139
C 12.30648 -0.85377 3.22642
C 10.38285 -2.39723 3.36200
C 14.15661 -3.50100 3.30883
C 14.11181 -4.74285 4.20188
H 15.27776 -5.62159 4.23110
N 12.91341 2.11429 2.74030
C 12.50809 1.57320 3.90830
C 12.48052 2.68043 4.87652
C 12.74381 3.94959 4.14535
C 12.72639 3.47378 2.77664
C 12.30133 2.46720 6.35160
C 12.96097 5.36054 4.60171
O 12.93557 6.34502 3.78136
C 13.11123 5.56542 6.04979
N 12.64379 2.79401 -0.20461
C 12.49382 4.02572 0.31341
C 12.40776 5.06861 -0.77534
C 12.77528 4.30509 -2.13164
C 12.92991 2.87058 -1.58058
C 11.05227 5.75772 -0.93079
C 13.93136 4.89870 -2.98239
C 15.24306 4.75053 -2.24560
N 13.37147 0.02974 -0.81012
C 13.28088 0.50416 -2.13707
C 13.38955 -0.66964 -3.02746
C 13.51370 -1.75674 -2.14923
C 13.46420 -1.29535 -0.80604
C 13.31895 -0.64490 -4.44892
C 13.66471 -3.19083 -2.05291
O 13.85019 -4.10092 -2.85980
C 13.41589 -3.62498 -0.54427
C 14.52361 -4.55928 -0.14108
O 15.69725 -4.15431 -0.06918
O 13.98875 -5.71206 0.30095
C 15.04778 -6.66716 0.72291
H 11.56516 0.05504 5.04154
H 12.45747 5.31043 1.78637
H 13.16140 1.98575 -3.49432
H 12.27042 -4.02231 2.34856
H 12.13047 -2.44628 4.67958
H 10.19354 -2.96111 2.46070
H 10.00592 -1.38771 3.26289
H 9.87461 -2.82473 4.23106
H 14.41651 -2.74094 4.05683
H 14.92195 -3.61731 2.56629
H 13.19496 -5.32574 4.05166
H 14.05580 -4.41902 5.24400
H 11.96551 1.44652 6.57262
H 11.46650 3.10218 6.66738
H 13.18893 2.73823 6.92726
H 12.22465 5.19721 6.56053
H 13.34674 6.62439 6.17222
H 13.95271 4.95923 6.40343
H 13.12898 5.85975 -0.61092
H 11.92586 4.28354 -2.83012
H 11.10930 6.85879 -0.83881
H 10.37496 5.34905 -0.19270
H 10.53165 5.54758 -1.86353
H 13.77922 5.97033 -3.13284
H 14.02220 4.44541 -3.96385
H 15.24665 5.61288 -1.57223
H 16.07935 4.78905 -2.94070
H 15.24572 3.84729 -1.62447
H 14.10130 -1.29865 -4.81092
H 13.43389 0.36573 -4.83516
H 12.30695 -1.02971 -4.60066
H 12.43794 -4.10573 -0.49877
H 14.88809 -7.59108 0.15849
H 14.97131 -6.73037 1.82469
H 16.07120 -6.43063 0.45624
