79

Mg 13.13547 1.18722 1.00719
C 10.95721 -1.36562 2.27891
C 10.45400 3.29460 1.06452
C 14.90763 3.32383 -0.52961
C 15.29112 -1.35442 -0.01210
N 11.03004 0.88662 1.61471
C 10.33198 -0.10895 2.13999
C 8.90685 0.28427 2.61319
C 8.68504 1.56484 1.66988
C 10.14282 1.96904 1.45972
C 8.08546 1.21910 0.31699
C 8.86825 0.67612 4.13206
C 7.46547 0.77189 4.73605
H 7.27514 0.35719 6.12323
N 12.90007 3.14792 0.81019
C 11.74411 3.84031 0.88525
C 12.10225 5.24780 0.65098
C 13.53910 5.30876 0.26828
C 13.83926 3.89637 0.14518
C 11.14158 6.37970 0.87307
C 14.48301 6.44975 0.03723
O 15.62429 6.27722 -0.52002
C 13.99374 7.78857 0.39735
N 14.74595 1.00837 -0.29538
C 15.36758 2.09780 -0.77980
C 16.65912 1.72754 -1.46918
C 16.89692 0.18187 -1.13462
C 15.59921 -0.10968 -0.34954
C 16.68647 1.93017 -2.98397
C 18.25548 -0.19635 -0.48353
C 18.33723 0.37968 0.91178
N 13.24369 -0.95562 1.26132
C 14.21667 -1.82966 0.72892
C 13.80402 -3.20469 1.07738
C 12.59800 -3.03532 1.77403
C 12.27100 -1.65378 1.83657
C 14.48900 -4.39713 0.70995
C 11.52174 -3.71189 2.46151
O 11.30171 -4.87433 2.79923
C 10.34676 -2.67053 2.70926
C 9.90630 -2.79934 4.14171
O 10.67675 -2.49591 5.06958
O 8.58474 -3.04974 4.17552
C 8.09862 -3.17485 5.57547
H 9.63280 3.97174 0.82788
H 15.61014 4.02684 -0.98319
H 15.95991 -2.19510 -0.20870
H 8.14239 -0.45820 2.41799
H 8.14296 2.34989 2.19065
H 8.01683 0.15181 0.16761
H 8.74382 1.66252 -0.41853
H 7.11887 1.71622 0.19491
H 9.19135 1.71942 4.24102
H 9.46727 0.00334 4.71445
H 6.70651 0.31362 4.09036
H 7.17830 1.82522 4.78127
H 10.11321 6.01694 0.99249
H 11.11741 6.96488 -0.05259
H 11.44215 7.03198 1.69579
H 13.08758 8.00484 -0.16352
H 14.84065 8.46022 0.24404
H 13.71488 7.78582 1.45699
H 17.48701 2.30387 -1.07479
H 16.86282 -0.44103 -2.04052
H 17.50480 2.59421 -3.32079
H 15.72677 2.32242 -3.29325
H 16.76256 1.01638 -3.57082
H 19.08150 0.24182 -1.04909
H 18.42903 -1.26625 -0.43673
H 18.66631 1.40810 0.73530
H 19.06108 -0.16904 1.51094
H 17.34579 0.42608 1.37711
H 14.49926 -5.03265 1.58544
H 15.49708 -4.18481 0.36001
H 13.84146 -4.75371 -0.09554
H 9.54394 -2.91020 2.01097
H 7.60317 -4.14735 5.65593
H 7.47858 -2.27704 5.75777
H 8.84285 -3.25114 6.35953
