79

Mg 13.14604 1.18285 1.00557
C 11.45818 -0.56847 3.64433
C 13.41570 3.83124 3.13814
C 14.22900 2.90553 -1.42897
C 11.75532 -1.11162 -1.21862
N 12.48404 1.47261 3.09603
C 11.90740 0.71550 4.01723
C 11.87860 1.34063 5.43777
C 11.98373 2.88811 5.02167
C 12.70410 2.73311 3.68387
C 10.63301 3.53529 4.76464
C 13.10391 0.89620 6.31134
C 12.98095 1.21763 7.80243
H 13.54562 0.27691 8.76610
N 14.16499 2.88581 0.99008
C 14.17696 3.83565 1.94869
C 15.06509 4.89783 1.45153
C 15.44619 4.57291 0.05014
C 14.59287 3.42784 -0.19635
C 15.53267 6.03619 2.31114
C 16.40877 5.19813 -0.91357
O 16.40571 4.89669 -2.15935
C 17.29227 6.24182 -0.37355
N 12.84543 1.06620 -1.04830
C 13.47684 1.90518 -1.88816
C 13.32388 1.45860 -3.32258
C 12.65928 0.00572 -3.25166
C 12.45209 -0.10355 -1.72506
C 12.47400 2.36375 -4.21409
C 13.40478 -1.14556 -3.98069
C 14.71590 -1.43323 -3.28527
N 11.99636 -0.63930 1.16704
C 11.49479 -1.42803 0.10855
C 10.67940 -2.50107 0.71368
C 10.74484 -2.24657 2.09188
C 11.52794 -1.08438 2.32762
C 9.96474 -3.50502 0.00132
C 10.32076 -2.69066 3.40017
O 9.71274 -3.66998 3.83028
C 10.65927 -1.55088 4.45502
C 11.33187 -2.19572 5.63583
O 12.44847 -2.72942 5.51348
O 10.65007 -1.88714 6.75400
C 11.28495 -2.49491 7.95374
H 13.35235 4.79428 3.64552
H 14.66859 3.39938 -2.29866
H 11.36892 -1.92367 -1.83825
H 10.96449 1.16603 5.99246
H 12.59887 3.44499 5.72370
H 9.82954 2.81420 4.78933
H 10.70537 3.98769 3.78426
H 10.47027 4.35912 5.46546
H 13.97066 1.51921 6.05570
H 13.30434 -0.14967 6.18247
H 11.95517 1.48592 8.08303
H 13.56079 2.11981 8.01190
H 14.95637 6.10015 3.24237
H 15.28936 6.96108 1.77707
H 16.60828 6.00859 2.49817
H 16.68945 7.04544 0.04271
H 17.96770 6.50423 -1.19013
H 17.86793 5.81772 0.45673
H 14.28882 1.38031 -3.80823
H 11.65783 -0.00689 -3.70640
H 13.01290 2.72355 -5.11086
H 12.12520 3.19790 -3.61989
H 11.54180 1.92363 -4.56408
H 13.65400 -0.84823 -5.00227
H 12.82770 -2.06207 -4.04373
H 15.38916 -0.68090 -3.70695
H 15.05752 -2.44084 -3.51342
H 14.64061 -1.24175 -2.20856
H 10.13758 -4.43813 0.52088
H 10.28654 -3.56141 -1.03648
H 8.94504 -3.12191 0.09466
H 9.71981 -1.07045 4.73102
H 10.51586 -3.09067 8.45498
H 11.71838 -1.65076 8.52234
H 12.05571 -3.23898 7.79023
