158

Mg 0.00000 0.00000 0.00000
C -0.21700 -2.21800 2.80100
C -1.25500 2.44200 2.02600
C -0.24500 1.85000 -2.56400
C 0.14600 -2.82400 -2.03700
N -0.61700 -0.00900 2.12600
C -0.59400 -0.90800 3.10500
C -0.93600 -0.30900 4.50200
C -1.77300 0.96400 4.03200
C -1.15500 1.16800 2.66000
C -3.26300 0.68500 3.86300
C 0.34500 0.11000 5.29900
C 0.12400 0.39700 6.78700
H 1.16800 0.03300 7.73300
N -0.18500 1.96100 -0.15200
C -0.70300 2.80000 0.77700
C -0.62000 4.15600 0.19300
C -0.18700 4.01500 -1.22500
C -0.21400 2.58300 -1.38000
C -0.88700 5.40600 0.97400
C 0.18100 5.01300 -2.27700
O 0.30300 4.69000 -3.50800
C 0.31000 6.41400 -1.83700
N -0.26500 -0.41300 -2.02900
C -0.27900 0.56900 -2.93700
C -0.19600 0.02400 -4.33200
C 0.12400 -1.53300 -4.18000
C 0.08600 -1.63200 -2.63500
C -1.45100 0.20500 -5.19700
C 1.37300 -2.07000 -4.92300
C 2.62600 -1.49000 -4.30600
N 0.15000 -2.14400 0.30300
C 0.17300 -3.13600 -0.68800
C 0.17300 -4.43800 0.00400
C 0.13300 -4.11100 1.35800
C 0.08300 -2.69500 1.50200
C 0.14900 -5.71500 -0.62300
C 0.09600 -4.62900 2.71600
O 0.20800 -5.74700 3.22100
C -0.25500 -3.42800 3.70100
C 0.71700 -3.48200 4.84800
O 1.93100 -3.25500 4.66900
O 0.03800 -3.55600 6.00300
C 0.94300 -3.58300 7.18300
H -1.85900 3.22000 2.49700
H -0.21800 2.45300 -3.47400
H 0.27600 -3.74700 -2.60500
H -1.55400 -0.94900 5.13200
H -1.58500 1.83100 4.66500
H -3.48400 -0.37700 3.96900
H -3.51100 1.02700 2.85800
H -3.85200 1.30100 4.54300
H 0.66900 1.09600 4.96600
H 1.13000 -0.63900 5.18900
H -0.84400 0.02600 7.12500
H 0.06200 1.47700 6.92100
H -1.34400 5.18600 1.93800
H -1.65100 5.96300 0.43200
H 0.00700 6.02000 1.08400
H -0.63500 6.74400 -1.40500
H 0.66500 6.97000 -2.70400
H 1.04800 6.46600 -1.03600
H 0.60800 0.50100 -4.89100
H -0.69200 -2.15600 -4.54700
H -1.26700 0.74000 -6.12900
H -2.20400 0.71400 -4.59600
H -1.96700 -0.72000 -5.45300
H 1.35600 -1.75900 -5.96700
H 1.45200 -3.15700 -4.90200
H 2.71400 -0.52200 -4.79800
H 3.48700 -2.12100 -4.52900
H 2.49500 -1.30300 -3.24000
H 0.86700 -6.33300 -0.08400
H 0.40400 -5.64200 -1.68000
H -0.89100 -5.99900 -0.46300
H -1.28300 -3.58100 4.02800
H 0.69800 -4.47800 7.75500
H 0.83300 -2.61900 7.68000
H 2.00000 -3.75400 6.97600
Mg 10.51961 0.95010 0.79386
C 13.01981 -1.20596 2.20080
C 12.18593 3.56374 2.21754
C 8.09922 2.82178 -0.04635
C 8.47911 -1.85672 0.47159
N 12.35426 1.04027 2.02600
C 13.25416 0.16332 2.44492
C 14.51376 0.79533 3.09572
C 13.87305 2.19647 3.54868
C 12.75371 2.29904 2.51464
C 13.24357 2.15147 4.93109
C 15.67868 1.00281 2.06523
C 17.03846 1.32615 2.68830
H 18.24054 0.80027 2.04726
N 10.42367 2.92463 0.61897
C 11.19115 3.83593 1.25284
C 10.71190 5.15078 0.79933
C 9.49134 4.94570 -0.02703
C 9.27404 3.52672 0.17135
C 11.44407 6.42849 1.09054
C 8.65050 5.87563 -0.84827
O 7.49862 5.52869 -1.29057
C 9.17418 7.23587 -1.04060
N 8.49689 0.58456 0.48190
C 7.67275 1.56408 0.07051
C 6.33303 1.00885 -0.35052
C 6.51187 -0.58030 -0.36479
C 7.96141 -0.67655 0.15957
C 5.14901 1.37948 0.54230
C 6.15266 -1.31712 -1.68416
C 7.13662 -0.94235 -2.76895
N 10.75009 -1.18035 1.06974
C 9.76033 -2.17388 0.90434
C 10.36025 -3.45911 1.31753
C 11.66039 -3.11787 1.71960
C 11.85027 -1.71580 1.58680
C 9.69768 -4.71879 1.33555
C 12.91188 -3.62342 2.23622
O 13.36900 -4.74283 2.46358
C 13.80615 -2.39032 2.69027
C 15.18971 -2.59058 2.13515
O 15.38680 -2.57287 0.90737
O 16.07908 -2.55247 3.14408
C 17.46706 -2.73544 2.64223
H 12.50061 4.42517 2.80727
H 7.26568 3.40568 -0.44351
H 7.93996 -2.79229 0.30823
H 14.89389 0.26366 3.95978
H 14.58082 3.01227 3.42664
H 13.22662 1.14957 5.33365
H 12.23610 2.52682 4.80793
H 13.74827 2.85614 5.59822
H 15.50207 1.93142 1.50734
H 15.77081 0.15238 1.41800
H 17.05706 1.12233 3.76582
H 17.20574 2.40358 2.61640
H 12.21552 6.28433 1.85702
H 10.72401 7.11095 1.55489
H 11.84621 6.89809 0.19031
H 9.31891 7.70749 -0.07153
H 8.47841 7.72256 -1.72684
H 10.16282 7.16730 -1.50803
H 6.07234 1.34212 -1.34755
H 5.87315 -1.06896 0.38559
H 4.33194 1.88677 -0.00461
H 5.51156 2.00327 1.34851
H 4.69729 0.54719 1.07938
H 5.16722 -1.00320 -2.03704
H 6.12963 -2.39707 -1.58329
H 6.73900 0.00449 -3.14641
H 7.15500 -1.70144 -3.54837
H 8.12808 -0.73903 -2.34786
H 10.39090 -5.44109 0.92539
H 8.77077 -4.68866 0.76661
H 9.51750 -4.82906 2.40823
H 13.80201 -2.36655 3.78068
H 17.89576 -3.58080 3.18928
H 17.96106 -1.75329 2.76512
H 17.59005 -3.06301 1.61655
