158

Mg 0.00000 0.00000 0.00000
C -0.21700 -2.21800 2.80100
C -1.25500 2.44200 2.02600
C -0.24500 1.85000 -2.56400
C 0.14600 -2.82400 -2.03700
N -0.61700 -0.00900 2.12600
C -0.59400 -0.90800 3.10500
C -0.93600 -0.30900 4.50200
C -1.77300 0.96400 4.03200
C -1.15500 1.16800 2.66000
C -3.26300 0.68500 3.86300
C 0.34500 0.11000 5.29900
C 0.12400 0.39700 6.78700
H 1.16800 0.03300 7.73300
N -0.18500 1.96100 -0.15200
C -0.70300 2.80000 0.77700
C -0.62000 4.15600 0.19300
C -0.18700 4.01500 -1.22500
C -0.21400 2.58300 -1.38000
C -0.88700 5.40600 0.97400
C 0.18100 5.01300 -2.27700
O 0.30300 4.69000 -3.50800
C 0.31000 6.41400 -1.83700
N -0.26500 -0.41300 -2.02900
C -0.27900 0.56900 -2.93700
C -0.19600 0.02400 -4.33200
C 0.12400 -1.53300 -4.18000
C 0.08600 -1.63200 -2.63500
C -1.45100 0.20500 -5.19700
C 1.37300 -2.07000 -4.92300
C 2.62600 -1.49000 -4.30600
N 0.15000 -2.14400 0.30300
C 0.17300 -3.13600 -0.68800
C 0.17300 -4.43800 0.00400
C 0.13300 -4.11100 1.35800
C 0.08300 -2.69500 1.50200
C 0.14900 -5.71500 -0.62300
C 0.09600 -4.62900 2.71600
O 0.20800 -5.74700 3.22100
C -0.25500 -3.42800 3.70100
C 0.71700 -3.48200 4.84800
O 1.93100 -3.25500 4.66900
O 0.03800 -3.55600 6.00300
C 0.94300 -3.58300 7.18300
H -1.85900 3.22000 2.49700
H -0.21800 2.45300 -3.47400
H 0.27600 -3.74700 -2.60500
H -1.55400 -0.94900 5.13200
H -1.58500 1.83100 4.66500
H -3.48400 -0.37700 3.96900
H -3.51100 1.02700 2.85800
H -3.85200 1.30100 4.54300
H 0.66900 1.09600 4.96600
H 1.13000 -0.63900 5.18900
H -0.84400 0.02600 7.12500
H 0.06200 1.47700 6.92100
H -1.34400 5.18600 1.93800
H -1.65100 5.96300 0.43200
H 0.00700 6.02000 1.08400
H -0.63500 6.74400 -1.40500
H 0.66500 6.97000 -2.70400
H 1.04800 6.46600 -1.03600
H 0.60800 0.50100 -4.89100
H -0.69200 -2.15600 -4.54700
H -1.26700 0.74000 -6.12900
H -2.20400 0.71400 -4.59600
H -1.96700 -0.72000 -5.45300
H 1.35600 -1.75900 -5.96700
H 1.45200 -3.15700 -4.90200
H 2.71400 -0.52200 -4.79800
H 3.48700 -2.12100 -4.52900
H 2.49500 -1.30300 -3.24000
H 0.86700 -6.33300 -0.08400
H 0.40400 -5.64200 -1.68000
H -0.89100 -5.99900 -0.46300
H -1.28300 -3.58100 4.02800
H 0.69800 -4.47800 7.75500
H 0.83300 -2.61900 7.68000
H 2.00000 -3.75400 6.97600
Mg 13.14581 1.18815 0.99244
C 12.55056 4.54258 2.12049
C 12.40395 2.27408 -2.15478
C 13.22168 -1.83687 0.03801
C 12.71943 0.15087 4.29213
N 12.56739 3.17471 0.21060
C 12.43313 4.38854 0.72338
C 12.23705 5.51307 -0.32854
C 11.64318 4.62199 -1.52527
C 12.26795 3.27662 -1.16154
C 10.13143 4.47604 -1.47398
C 13.59114 6.19308 -0.73603
C 13.44455 7.49821 -1.52146
H 14.42077 8.56033 -1.29485
N 13.33696 0.42010 -0.82749
C 13.00765 1.00718 -1.99718
C 13.32149 0.02238 -3.04400
C 13.70847 -1.25490 -2.38558
C 13.41081 -0.93942 -1.00284
C 13.31588 0.35988 -4.50670
C 14.24417 -2.55081 -2.91458
O 14.28528 -3.60793 -2.19096
C 14.63230 -2.56975 -4.33250
N 12.78475 -0.60919 1.97302
C 12.93900 -1.78530 1.33984
C 12.89403 -2.93889 2.31328
C 12.91950 -2.27482 3.76790
C 12.88315 -0.78396 3.36614
C 11.68068 -3.86111 2.19630
C 14.03348 -2.75149 4.73976
C 15.38594 -2.30387 4.23392
N 12.89756 2.15688 2.90764
C 12.70979 1.53364 4.16079
C 12.47353 2.60584 5.14923
C 12.51772 3.78651 4.39255
C 12.74403 3.47103 3.02553
C 12.20899 2.41628 6.53494
C 12.41380 5.22729 4.43771
O 12.31265 6.06325 5.33475
C 12.30446 5.77297 2.94886
C 13.26654 6.91996 2.80272
O 14.49293 6.73058 2.88464
O 12.59609 8.00588 2.37652
C 13.50961 9.16699 2.20590
H 11.97038 2.45617 -3.13852
H 13.34820 -2.89100 -0.21946
H 12.67533 -0.08432 5.35768
H 11.52494 6.27944 -0.04685
H 12.00806 4.96333 -2.49053
H 9.71624 4.89897 -0.57127
H 9.93693 3.41242 -1.51772
H 9.68080 4.90212 -2.37494
H 14.08954 5.57346 -1.49260
H 14.20942 6.35704 0.12506
H 12.42408 7.89707 -1.47131
H 13.59672 7.28389 -2.58209
H 12.83223 1.32640 -4.69466
H 12.66544 -0.36997 -5.00077
H 14.31038 0.30740 -4.95490
H 13.77406 -2.30473 -4.94541
H 15.07387 -3.55379 -4.50149
H 15.38891 -1.79476 -4.49849
H 13.76460 -3.57347 2.20138
H 11.99082 -2.47347 4.32281
H 11.95212 -4.92002 2.02567
H 11.05061 -3.49636 1.39599
H 11.00401 -3.84441 3.04897
H 14.06185 -3.84326 4.77704
H 13.89988 -2.39790 5.75667
H 15.64337 -3.07532 3.50202
H 16.10848 -2.27439 5.04701
H 15.30960 -1.35167 3.69619
H 12.79839 3.15061 7.06773
H 12.45265 1.40423 6.85141
H 11.13228 2.60478 6.55552
H 11.27101 6.08252 2.78847
H 13.10436 9.98395 2.81091
H 13.57895 9.33474 1.11466
H 14.51109 9.08053 2.61090
