79

Mg 7.87312 0.71270 0.60054
C 6.08733 -2.09749 -0.73844
C 6.25466 2.64582 -1.69689
C 9.75383 3.12270 1.45038
C 10.13732 -1.55532 1.96992
N 6.38567 0.22209 -0.96120
C 5.73581 -0.86936 -1.33641
C 4.59217 -0.61858 -2.35561
C 5.12788 0.75870 -2.98409
C 5.94771 1.26546 -1.79928
C 6.06576 0.55774 -4.16280
C 3.20012 -0.42812 -1.65708
C 1.99489 -0.48748 -2.59817
H 0.75719 -1.08697 -2.10706
N 7.65960 2.66667 0.32676
C 6.94821 3.27959 -0.64254
C 7.12634 4.72293 -0.42075
C 8.13379 4.91088 0.65834
C 8.57990 3.54456 0.84336
C 6.31904 5.76278 -1.14214
C 8.62484 6.12187 1.39222
O 9.67576 6.08495 2.12505
C 7.89314 7.37453 1.15360
N 9.79546 0.79101 1.38846
C 10.36043 1.96597 1.71743
C 11.62507 1.75847 2.51619
C 11.66255 0.19788 2.86367
C 10.40388 -0.26258 2.09613
C 12.92555 2.15550 1.81798
C 11.79595 -0.18634 4.36276
C 10.54287 0.20897 5.11035
N 8.00185 -1.43591 0.78751
C 9.04867 -2.17982 1.37475
C 8.74091 -3.60870 1.16021
C 7.53857 -3.59638 0.43723
C 7.13658 -2.25427 0.19923
C 9.55172 -4.70481 1.56917
C 6.52355 -4.41345 -0.18795
O 6.28720 -5.61993 -0.23557
C 5.60461 -3.47824 -1.08646
C 4.16885 -3.81412 -0.78930
O 3.68728 -3.59104 0.33539
O 3.54560 -4.13847 -1.93679
C 2.11584 -4.46898 -1.69523
H 5.97537 3.30200 -2.52170
H 10.38423 3.91548 1.85975
H 10.74314 -2.32599 2.45130
H 4.50128 -1.37034 -3.13044
H 4.30853 1.43949 -3.19985
H 6.31127 -0.48360 -4.30933
H 6.95612 1.12734 -3.93072
H 5.64284 1.01299 -5.06292
H 3.11412 0.60854 -1.30682
H 3.07282 -1.13657 -0.86177
H 2.25837 -0.89956 -3.57986
H 1.67253 0.53404 -2.81404
H 5.77655 5.33214 -1.99283
H 7.03014 6.46000 -1.59831
H 5.65676 6.31919 -0.47546
H 7.91912 7.61145 0.09263
H 8.33579 8.10549 1.83303
H 6.84053 7.22026 1.41593
H 11.59624 2.32354 3.43975
H 12.51976 -0.30421 2.39151
H 13.51506 2.90098 2.38438
H 12.68309 2.53137 0.83286
H 13.59853 1.33034 1.59123
H 12.61918 0.36534 4.82330
H 11.98664 -1.24230 4.52269
H 10.70969 1.26795 5.32902
H 10.44313 -0.37199 6.02499
H 9.66060 0.14099 4.46332
H 8.88457 -5.44619 1.98842
H 10.30569 -4.39459 2.28962
H 9.99285 -4.98956 0.61022
H 5.86251 -3.66949 -2.12880
H 1.94549 -5.46930 -2.10515
H 1.53770 -3.63724 -2.13988
H 1.79951 -4.60483 -0.66765
