158

Mg 0.00000 0.00000 0.00000
C -0.21700 -2.21800 2.80100
C -1.25500 2.44200 2.02600
C -0.24500 1.85000 -2.56400
C 0.14600 -2.82400 -2.03700
N -0.61700 -0.00900 2.12600
C -0.59400 -0.90800 3.10500
C -0.93600 -0.30900 4.50200
C -1.77300 0.96400 4.03200
C -1.15500 1.16800 2.66000
C -3.26300 0.68500 3.86300
C 0.34500 0.11000 5.29900
C 0.12400 0.39700 6.78700
H 1.16800 0.03300 7.73300
N -0.18500 1.96100 -0.15200
C -0.70300 2.80000 0.77700
C -0.62000 4.15600 0.19300
C -0.18700 4.01500 -1.22500
C -0.21400 2.58300 -1.38000
C -0.88700 5.40600 0.97400
C 0.18100 5.01300 -2.27700
O 0.30300 4.69000 -3.50800
C 0.31000 6.41400 -1.83700
N -0.26500 -0.41300 -2.02900
C -0.27900 0.56900 -2.93700
C -0.19600 0.02400 -4.33200
C 0.12400 -1.53300 -4.18000
C 0.08600 -1.63200 -2.63500
C -1.45100 0.20500 -5.19700
C 1.37300 -2.07000 -4.92300
C 2.62600 -1.49000 -4.30600
N 0.15000 -2.14400 0.30300
C 0.17300 -3.13600 -0.68800
C 0.17300 -4.43800 0.00400
C 0.13300 -4.11100 1.35800
C 0.08300 -2.69500 1.50200
C 0.14900 -5.71500 -0.62300
C 0.09600 -4.62900 2.71600
O 0.20800 -5.74700 3.22100
C -0.25500 -3.42800 3.70100
C 0.71700 -3.48200 4.84800
O 1.93100 -3.25500 4.66900
O 0.03800 -3.55600 6.00300
C 0.94300 -3.58300 7.18300
H -1.85900 3.22000 2.49700
H -0.21800 2.45300 -3.47400
H 0.27600 -3.74700 -2.60500
H -1.55400 -0.94900 5.13200
H -1.58500 1.83100 4.66500
H -3.48400 -0.37700 3.96900
H -3.51100 1.02700 2.85800
H -3.85200 1.30100 4.54300
H 0.66900 1.09600 4.96600
H 1.13000 -0.63900 5.18900
H -0.84400 0.02600 7.12500
H 0.06200 1.47700 6.92100
H -1.34400 5.18600 1.93800
H -1.65100 5.96300 0.43200
H 0.00700 6.02000 1.08400
H -0.63500 6.74400 -1.40500
H 0.66500 6.97000 -2.70400
H 1.04800 6.46600 -1.03600
H 0.60800 0.50100 -4.89100
H -0.69200 -2.15600 -4.54700
H -1.26700 0.74000 -6.12900
H -2.20400 0.71400 -4.59600
H -1.96700 -0.72000 -5.45300
H 1.35600 -1.75900 -5.96700
H 1.45200 -3.15700 -4.90200
H 2.71400 -0.52200 -4.79800
H 3.48700 -2.12100 -4.52900
H 2.49500 -1.30300 -3.24000
H 0.86700 -6.33300 -0.08400
H 0.40400 -5.64200 -1.68000
H -0.89100 -5.99900 -0.46300
H -1.28300 -3.58100 4.02800
H 0.69800 -4.47800 7.75500
H 0.83300 -2.61900 7.68000
H 2.00000 -3.75400 6.97600
Mg 15.76628 1.41940 1.19766
C 15.65471 -1.43084 3.36005
C 14.52287 3.25151 3.79388
C 15.42787 3.84421 -0.81788
C 15.90705 -0.80399 -1.48233
N 15.20254 0.86743 3.26604
C 15.26434 -0.24646 3.98895
C 14.94757 -0.02210 5.49782
C 14.07876 1.30931 5.37738
C 14.65910 1.86220 4.08763
C 12.58970 1.04882 5.17399
C 16.24107 0.21287 6.34833
C 16.05253 0.11511 7.86499
H 17.12545 -0.45031 8.66904
N 15.54601 3.35190 1.54376
C 15.03782 3.92142 2.66299
C 15.08443 5.38165 2.43445
C 15.48427 5.60795 1.01776
C 15.47648 4.25952 0.51075
C 14.81684 6.39146 3.50796
C 15.80989 6.84440 0.24104
O 15.90644 6.84110 -1.03381
C 15.92721 8.09402 1.01418
N 15.45761 1.51940 -0.86446
C 15.40524 2.69615 -1.49810
C 15.46230 2.51793 -2.98636
C 15.81101 0.97953 -3.23431
C 15.81302 0.49783 -1.76250
C 14.18344 2.88139 -3.75344
C 17.04964 0.67199 -4.11273
C 18.30809 1.10709 -3.39573
N 15.95826 -0.72867 0.95277
C 15.97259 -1.44166 -0.25475
C 16.01076 -2.87472 0.09017
C 15.99917 -2.89641 1.48345
C 15.92997 -1.56241 1.97735
C 15.99175 -3.95539 -0.83516
C 16.00428 -3.73717 2.66960
O 16.14678 -4.94304 2.87716
C 15.65858 -2.82748 3.93007
C 16.65953 -3.14442 5.00754
O 17.86490 -2.85357 4.86657
O 16.01073 -3.51870 6.12087
C 16.94510 -3.81918 7.23838
H 13.91831 3.87424 4.45621
H 15.42253 4.65540 -1.54889
H 16.03774 -1.55326 -2.26525
H 14.35580 -0.81222 5.96037
H 14.26845 1.99509 6.20287
H 12.38853 -0.01064 5.01593
H 12.31132 1.62500 4.29137
H 12.00794 1.46294 5.99791
H 16.54078 1.25757 6.26559
H 17.03505 -0.46779 6.03912
H 15.09933 -0.34942 8.11901
H 15.97650 1.12603 8.26557
H 14.38754 5.92826 4.39549
H 14.03073 7.04917 3.13761
H 15.70329 6.97801 3.74981
H 14.98805 8.28527 1.53374
H 16.25155 8.85614 0.30649
H 16.68396 7.96083 1.78783
H 16.24437 3.13659 -3.42459
H 14.99627 0.45002 -3.72877
H 14.33557 3.63565 -4.52587
H 13.43751 3.20802 -3.02943
H 13.67619 2.03835 -4.22185
H 17.00169 1.23290 -5.04548
H 17.14663 -0.38396 -4.36535
H 18.36823 2.16884 -3.63217
H 19.17332 0.57049 -3.78642
H 18.20063 1.01964 -2.31440
H 16.73278 -4.67241 -0.48201
H 16.21918 -3.61574 -1.84537
H 14.96075 -4.29290 -0.73030
H 14.64162 -3.07951 4.22906
H 16.72883 -4.83361 7.57364
H 16.83198 -3.01209 7.96240
H 17.99924 -3.91012 6.97409
