79

Mg 7.89014 0.71324 0.60596
C 7.20090 -1.46802 3.37113
C 7.07394 3.31848 2.65075
C 8.05183 2.62051 -1.92457
C 7.53913 -2.05326 -1.48425
N 7.23793 0.78837 2.71813
C 7.07093 -0.09947 3.68674
C 6.82533 0.51779 5.08968
C 6.24559 1.94228 4.62752
C 6.91810 2.04795 3.26032
C 4.74011 1.94084 4.42045
C 8.15147 0.67709 5.91309
C 7.95284 0.98298 7.39927
H 8.89696 0.41673 8.35868
N 8.08310 2.68526 0.49434
C 7.72027 3.59237 1.42535
C 8.05260 4.90770 0.85649
C 8.48898 4.71256 -0.55284
C 8.19870 3.30336 -0.72595
C 8.01765 6.17455 1.66104
C 9.05963 5.64346 -1.57947
O 9.14404 5.31316 -2.81503
C 9.43028 6.98720 -1.11207
N 7.59981 0.38666 -1.42662
C 7.78405 1.37548 -2.31893
C 7.78870 0.84165 -3.73151
C 7.81098 -0.75106 -3.58881
C 7.72135 -0.86867 -2.05144
C 6.60445 1.25768 -4.60379
C 8.95196 -1.50752 -4.32272
C 10.28275 -1.17810 -3.68564
N 7.63481 -1.41551 0.87302
C 7.48311 -2.38985 -0.13779
C 7.22474 -3.67915 0.53555
C 7.22116 -3.35872 1.90150
C 7.44033 -1.96441 2.06690
C 6.98394 -4.92296 -0.11333
C 7.07125 -3.88114 3.24064
O 6.95440 -5.00545 3.72645
C 6.92557 -2.65906 4.24647
C 7.84811 -2.90211 5.40938
O 9.08092 -2.91495 5.24623
O 7.13755 -2.86254 6.55127
C 8.01080 -3.08726 7.73396
H 6.62235 4.18498 3.13462
H 8.20914 3.21441 -2.82790
H 7.51610 -2.97976 -2.06197
H 6.09240 -0.00378 5.69346
H 6.58705 2.73920 5.28302
H 4.32285 0.94837 4.50424
H 4.57960 2.33602 3.42590
H 4.26462 2.64803 5.10611
H 8.66009 1.59736 5.59820
H 8.77492 -0.18877 5.80255
H 6.92071 0.80177 7.72305
H 8.09849 2.05462 7.55548
H 7.50065 6.02944 2.61762
H 7.38500 6.88273 1.11505
H 9.00761 6.61575 1.79523
H 8.55626 7.47595 -0.68817
H 9.90130 7.47469 -1.96786
H 10.15926 6.88652 -0.30024
H 8.67787 1.15941 -4.26209
H 6.89628 -1.20919 -3.99289
H 6.90785 1.77145 -5.53549
H 5.95287 1.89018 -4.01564
H 5.93839 0.44736 -4.89524
H 9.01610 -1.17912 -5.36301
H 8.81979 -2.58429 -4.33250
H 10.55576 -0.23081 -4.16018
H 11.01413 -1.95381 -3.90332
H 10.16886 -0.98819 -2.61204
H 7.55594 -5.66921 0.42187
H 7.26419 -4.88413 -1.16392
H 5.90204 -5.00632 0.02009
H 5.88070 -2.61203 4.55567
H 7.58698 -3.93021 8.28848
H 8.06092 -2.11407 8.25754
H 9.01957 -3.43926 7.55249
