158

Mg 0.00000 0.00000 0.00000
C -0.21700 -2.21800 2.80100
C -1.25500 2.44200 2.02600
C -0.24500 1.85000 -2.56400
C 0.14600 -2.82400 -2.03700
N -0.61700 -0.00900 2.12600
C -0.59400 -0.90800 3.10500
C -0.93600 -0.30900 4.50200
C -1.77300 0.96400 4.03200
C -1.15500 1.16800 2.66000
C -3.26300 0.68500 3.86300
C 0.34500 0.11000 5.29900
C 0.12400 0.39700 6.78700
H 1.16800 0.03300 7.73300
N -0.18500 1.96100 -0.15200
C -0.70300 2.80000 0.77700
C -0.62000 4.15600 0.19300
C -0.18700 4.01500 -1.22500
C -0.21400 2.58300 -1.38000
C -0.88700 5.40600 0.97400
C 0.18100 5.01300 -2.27700
O 0.30300 4.69000 -3.50800
C 0.31000 6.41400 -1.83700
N -0.26500 -0.41300 -2.02900
C -0.27900 0.56900 -2.93700
C -0.19600 0.02400 -4.33200
C 0.12400 -1.53300 -4.18000
C 0.08600 -1.63200 -2.63500
C -1.45100 0.20500 -5.19700
C 1.37300 -2.07000 -4.92300
C 2.62600 -1.49000 -4.30600
N 0.15000 -2.14400 0.30300
C 0.17300 -3.13600 -0.68800
C 0.17300 -4.43800 0.00400
C 0.13300 -4.11100 1.35800
C 0.08300 -2.69500 1.50200
C 0.14900 -5.71500 -0.62300
C 0.09600 -4.62900 2.71600
O 0.20800 -5.74700 3.22100
C -0.25500 -3.42800 3.70100
C 0.71700 -3.48200 4.84800
O 1.93100 -3.25500 4.66900
O 0.03800 -3.55600 6.00300
C 0.94300 -3.58300 7.18300
H -1.85900 3.22000 2.49700
H -0.21800 2.45300 -3.47400
H 0.27600 -3.74700 -2.60500
H -1.55400 -0.94900 5.13200
H -1.58500 1.83100 4.66500
H -3.48400 -0.37700 3.96900
H -3.51100 1.02700 2.85800
H -3.85200 1.30100 4.54300
H 0.66900 1.09600 4.96600
H 1.13000 -0.63900 5.18900
H -0.84400 0.02600 7.12500
H 0.06200 1.47700 6.92100
H -1.34400 5.18600 1.93800
H -1.65100 5.96300 0.43200
H 0.00700 6.02000 1.08400
H -0.63500 6.74400 -1.40500
H 0.66500 6.97000 -2.70400
H 1.04800 6.46600 -1.03600
H 0.60800 0.50100 -4.89100
H -0.69200 -2.15600 -4.54700
H -1.26700 0.74000 -6.12900
H -2.20400 0.71400 -4.59600
H -1.96700 -0.72000 -5.45300
H 1.35600 -1.75900 -5.96700
H 1.45200 -3.15700 -4.90200
H 2.71400 -0.52200 -4.79800
H 3.48700 -2.12100 -4.52900
H 2.49500 -1.30300 -3.24000
H 0.86700 -6.33300 -0.08400
H 0.40400 -5.64200 -1.68000
H -0.89100 -5.99900 -0.46300
H -1.28300 -3.58100 4.02800
H 0.69800 -4.47800 7.75500
H 0.83300 -2.61900 7.68000
H 2.00000 -3.75400 6.97600
Mg 13.13892 1.18535 0.98776
C 15.44592 -1.27772 -0.23292
C 15.32397 3.56136 -0.11437
C 11.35191 3.36358 2.44698
C 11.73226 -1.31465 2.96691
N 15.09832 1.03659 -0.02756
C 15.84637 0.04892 -0.49581
C 17.05139 0.50858 -1.35964
C 17.22064 1.99134 -0.76664
C 15.78595 2.23423 -0.30258
C 18.13236 2.05348 0.44754
C 16.71221 0.53777 -2.89134
C 17.92371 0.67748 -3.81574
H 17.90411 -0.01927 -5.09895
N 13.04739 3.15142 0.73333
C 14.01866 3.95584 0.25288
C 13.46423 5.31814 0.28288
C 12.14693 5.27336 0.97384
C 12.14036 3.90126 1.44010
C 14.13785 6.48555 -0.37806
C 11.07666 6.29970 1.19141
O 10.12147 6.11022 2.02480
C 11.23110 7.57111 0.46951
N 11.88287 1.10034 2.64229
C 11.18305 2.17915 3.03514
C 10.14583 1.80983 4.06866
C 10.13172 0.21120 4.11097
C 11.27639 -0.07840 3.11535
C 10.38658 2.35383 5.47666
C 8.76239 -0.48671 3.88626
C 8.29857 -0.26748 2.46422
N 13.37460 -0.95243 1.19375
C 12.70438 -1.80087 2.10206
C 13.28244 -3.15118 1.94414
C 14.27253 -2.98851 0.96346
C 14.32272 -1.62844 0.55457
C 12.91439 -4.30612 2.69031
C 15.29387 -3.65596 0.18881
O 15.64990 -4.82481 0.04464
C 16.18513 -2.55302 -0.52922
C 16.34506 -2.95140 -1.97083
O 15.36190 -2.97829 -2.73195
O 17.65597 -3.02336 -2.26527
C 17.86571 -3.40449 -3.68745
H 16.03837 4.37875 -0.21625
H 10.63854 4.05217 2.90571
H 11.28134 -2.16834 3.47737
H 17.96181 -0.05875 -1.20782
H 17.49468 2.69903 -1.54474
H 18.42308 1.06934 0.78385
H 17.56543 2.56353 1.21532
H 18.99655 2.69029 0.23784
H 16.18904 1.47409 -3.12445
H 16.14146 -0.32610 -3.17172
H 18.86741 0.48801 -3.28993
H 17.99890 1.72008 -4.13407
H 15.16988 6.24615 -0.66268
H 14.24017 7.26787 0.38179
H 13.56444 6.88214 -1.21864
H 12.17642 8.03140 0.74695
H 10.32420 8.14026 0.68272
H 11.28732 7.35926 -0.60407
H 9.16468 2.16226 3.77498
H 10.46000 -0.17345 5.08776
H 9.54540 2.96219 5.85928
H 11.30084 2.93226 5.46740
H 10.59781 1.59997 6.23315
H 8.00092 -0.04373 4.53287
H 8.78110 -1.55147 4.09350
H 7.82966 0.72013 2.50708
H 7.58168 -1.03248 2.17287
H 9.15099 -0.19819 1.77849
H 12.84470 -5.12341 1.98484
H 11.97560 -4.15528 3.21917
H 13.76437 -4.37539 3.37441
H 17.14174 -2.51381 -0.00679
H 18.50382 -4.29358 -3.68918
H 18.26215 -2.49897 -4.18406
H 17.00591 -3.76016 -4.24304
