79

Mg 7.88314 0.70970 0.59883
C 7.97813 -2.85654 0.89054
C 6.74991 0.79385 3.81625
C 7.35934 3.81413 0.21831
C 7.92153 0.28026 -2.85946
N 7.45994 -0.89464 2.06431
C 7.59488 -2.21711 2.07159
C 7.36369 -2.85401 3.47455
C 6.45398 -1.71540 4.12108
C 6.94061 -0.52661 3.31122
C 4.96286 -1.90761 3.86392
C 8.69934 -3.04080 4.27009
C 8.60517 -3.94622 5.50163
H 9.73928 -4.79458 5.83546
N 7.63261 2.14033 1.93801
C 7.17774 1.99252 3.20550
C 7.17151 3.34782 3.79694
C 7.47911 4.31957 2.71103
C 7.47679 3.45474 1.55889
C 6.94220 3.60867 5.25403
C 7.72423 5.79539 2.71026
O 7.74387 6.48105 1.63135
C 7.85452 6.44037 4.02938
N 7.44827 1.88202 -1.07275
C 7.32643 3.21012 -0.97137
C 7.29849 3.86060 -2.32268
C 7.67256 2.71646 -3.37186
C 7.77608 1.52204 -2.39160
C 5.96650 4.50768 -2.72654
C 8.86380 2.99604 -4.32224
C 10.15109 3.04748 -3.53019
N 8.11729 -0.95833 -0.77006
C 8.07789 -0.91120 -2.17110
C 8.17500 -2.30131 -2.65300
C 8.24793 -3.06683 -1.49088
C 8.17302 -2.21136 -0.35473
C 8.12913 -2.71700 -4.01298
C 8.34691 -4.41052 -0.94447
O 8.53380 -5.52989 -1.42362
C 8.05361 -4.33848 0.61905
C 9.12574 -5.12795 1.31946
O 10.31223 -4.74121 1.31328
O 8.55540 -6.07548 2.07934
C 9.56307 -6.87619 2.82475
H 6.16994 0.93042 4.73108
H 7.28833 4.88900 0.03930
H 8.02477 0.07569 -3.92667
H 6.82216 -3.80004 3.46057
H 6.67467 -1.56955 5.17831
H 4.78088 -2.72657 3.16815
H 4.61654 -0.96449 3.44074
H 4.42094 -2.03214 4.80179
H 8.96553 -2.09983 4.75153
H 9.49114 -3.40500 3.61455
H 7.68174 -4.52604 5.50038
H 8.52645 -3.31333 6.38563
H 6.57966 2.71927 5.76791
H 6.11794 4.31812 5.32463
H 7.82565 4.02191 5.74096
H 6.94358 6.27155 4.60406
H 8.11519 7.47949 3.83160
H 8.65977 5.95512 4.58169
H 8.03595 4.65958 -2.38741
H 6.84395 2.49058 -4.04347
H 6.05165 5.56542 -2.97680
H 5.25708 4.35396 -1.91389
H 5.45464 4.02056 -3.55608
H 8.74480 3.96581 -4.80424
H 8.97355 2.24706 -5.10661
H 10.16852 4.07203 -3.16027
H 11.00524 2.85222 -4.17943
H 10.11133 2.38846 -2.66267
H 8.90897 -3.46968 -4.12834
H 8.28617 -1.87703 -4.68928
H 7.11570 -3.11413 -4.06867
H 7.06359 -4.76686 0.77232
H 9.39454 -7.92239 2.56921
H 9.47226 -6.59038 3.87283
H 10.60143 -6.75334 2.51483
