158

Mg 0.00000 0.00000 0.00000
C -0.21700 -2.21800 2.80100
C -1.25500 2.44200 2.02600
C -0.24500 1.85000 -2.56400
C 0.14600 -2.82400 -2.03700
N -0.61700 -0.00900 2.12600
C -0.59400 -0.90800 3.10500
C -0.93600 -0.30900 4.50200
C -1.77300 0.96400 4.03200
C -1.15500 1.16800 2.66000
C -3.26300 0.68500 3.86300
C 0.34500 0.11000 5.29900
C 0.12400 0.39700 6.78700
H 1.16800 0.03300 7.73300
N -0.18500 1.96100 -0.15200
C -0.70300 2.80000 0.77700
C -0.62000 4.15600 0.19300
C -0.18700 4.01500 -1.22500
C -0.21400 2.58300 -1.38000
C -0.88700 5.40600 0.97400
C 0.18100 5.01300 -2.27700
O 0.30300 4.69000 -3.50800
C 0.31000 6.41400 -1.83700
N -0.26500 -0.41300 -2.02900
C -0.27900 0.56900 -2.93700
C -0.19600 0.02400 -4.33200
C 0.12400 -1.53300 -4.18000
C 0.08600 -1.63200 -2.63500
C -1.45100 0.20500 -5.19700
C 1.37300 -2.07000 -4.92300
C 2.62600 -1.49000 -4.30600
N 0.15000 -2.14400 0.30300
C 0.17300 -3.13600 -0.68800
C 0.17300 -4.43800 0.00400
C 0.13300 -4.11100 1.35800
C 0.08300 -2.69500 1.50200
C 0.14900 -5.71500 -0.62300
C 0.09600 -4.62900 2.71600
O 0.20800 -5.74700 3.22100
C -0.25500 -3.42800 3.70100
C 0.71700 -3.48200 4.84800
O 1.93100 -3.25500 4.66900
O 0.03800 -3.55600 6.00300
C 0.94300 -3.58300 7.18300
H -1.85900 3.22000 2.49700
H -0.21800 2.45300 -3.47400
H 0.27600 -3.74700 -2.60500
H -1.55400 -0.94900 5.13200
H -1.58500 1.83100 4.66500
H -3.48400 -0.37700 3.96900
H -3.51100 1.02700 2.85800
H -3.85200 1.30100 4.54300
H 0.66900 1.09600 4.96600
H 1.13000 -0.63900 5.18900
H -0.84400 0.02600 7.12500
H 0.06200 1.47700 6.92100
H -1.34400 5.18600 1.93800
H -1.65100 5.96300 0.43200
H 0.00700 6.02000 1.08400
H -0.63500 6.74400 -1.40500
H 0.66500 6.97000 -2.70400
H 1.04800 6.46600 -1.03600
H 0.60800 0.50100 -4.89100
H -0.69200 -2.15600 -4.54700
H -1.26700 0.74000 -6.12900
H -2.20400 0.71400 -4.59600
H -1.96700 -0.72000 -5.45300
H 1.35600 -1.75900 -5.96700
H 1.45200 -3.15700 -4.90200
H 2.71400 -0.52200 -4.79800
H 3.48700 -2.12100 -4.52900
H 2.49500 -1.30300 -3.24000
H 0.86700 -6.33300 -0.08400
H 0.40400 -5.64200 -1.68000
H -0.89100 -5.99900 -0.46300
H -1.28300 -3.58100 4.02800
H 0.69800 -4.47800 7.75500
H 0.83300 -2.61900 7.68000
H 2.00000 -3.75400 6.97600
Mg 15.76628 1.41940 1.19766
C 15.98287 -1.21370 -1.21731
C 14.92459 -0.95872 3.49530
C 15.12720 3.76657 3.23212
C 15.50560 3.64563 -1.47097
N 15.51960 -0.77478 1.03836
C 15.69014 -1.66945 0.07004
C 15.60302 -3.14312 0.56811
C 14.72475 -2.91430 1.87894
C 15.10460 -1.47470 2.17758
C 13.22227 -2.98336 1.62537
C 17.00923 -3.73685 0.91712
C 17.05036 -5.25722 1.09638
H 18.23224 -5.98261 0.65558
N 15.59862 1.39864 3.16599
C 15.26350 0.33784 3.93908
C 15.27397 0.83018 5.33342
C 15.45662 2.30771 5.29288
C 15.37413 2.55655 3.87632
C 15.16946 -0.07127 6.52514
C 15.66095 3.33401 6.36205
O 15.56522 4.58742 6.12891
C 15.89174 2.82473 7.72602
N 15.15176 3.39720 0.93631
C 15.00388 4.21778 1.98214
C 14.83727 5.64137 1.53992
C 15.14627 5.65669 -0.02662
C 15.36942 4.13886 -0.23799
C 13.45750 6.26400 1.79404
C 16.23944 6.63840 -0.51817
C 17.59078 6.20541 0.00479
N 15.92134 1.29870 -0.96392
C 15.75508 2.34658 -1.88097
C 15.84586 1.75848 -3.23003
C 16.04336 0.39793 -3.00257
C 16.04779 0.14786 -1.60053
C 15.68929 2.46073 -4.45753
C 16.22707 -0.90636 -3.61814
O 16.40020 -1.30453 -4.77096
C 16.07347 -2.01920 -2.48951
C 17.22497 -2.97633 -2.63525
O 18.39530 -2.60882 -2.40582
O 16.75081 -4.22230 -2.78788
C 17.84248 -5.22522 -2.90855
H 14.42562 -1.57984 4.24176
H 15.01155 4.62288 3.89979
H 15.51809 4.29124 -2.35102
H 15.08804 -3.82274 -0.11111
H 15.03546 -3.56544 2.69576
H 13.00065 -3.05032 0.56032
H 12.81415 -2.06228 2.04196
H 12.77027 -3.79586 2.19485
H 17.29218 -3.42382 1.92211
H 17.74849 -3.44159 0.17170
H 16.14646 -5.72874 0.70968
H 17.03433 -5.47578 2.16417
H 14.87855 -1.08125 6.23904
H 14.33610 0.29136 7.12657
H 16.08162 -0.06983 7.12204
H 15.04094 2.21525 8.03135
H 16.10558 3.69821 8.34096
H 16.75607 2.16011 7.71322
H 15.54421 6.29454 2.04985
H 14.26708 5.92178 -0.61435
H 13.49139 7.17359 2.39421
H 12.82829 5.50864 2.26395
H 12.88652 6.49265 0.89453
H 16.05164 7.63950 -0.13155
H 16.29842 6.70805 -1.60441
H 17.61381 6.63560 1.00541
H 18.38814 6.61638 -0.61531
H 17.64678 5.12221 0.11444
H 16.47556 2.09749 -5.11920
H 15.76235 3.53794 -4.30956
H 14.68599 2.14567 -4.74386
H 15.11308 -2.50558 -2.65750
H 17.67987 -5.76604 -3.84092
H 17.83847 -5.80053 -1.98259
H 18.84515 -4.82893 -3.07269
