158

Mg 0.00000 0.00000 0.00000
C -0.21700 -2.21800 2.80100
C -1.25500 2.44200 2.02600
C -0.24500 1.85000 -2.56400
C 0.14600 -2.82400 -2.03700
N -0.61700 -0.00900 2.12600
C -0.59400 -0.90800 3.10500
C -0.93600 -0.30900 4.50200
C -1.77300 0.96400 4.03200
C -1.15500 1.16800 2.66000
C -3.26300 0.68500 3.86300
C 0.34500 0.11000 5.29900
C 0.12400 0.39700 6.78700
H 1.16800 0.03300 7.73300
N -0.18500 1.96100 -0.15200
C -0.70300 2.80000 0.77700
C -0.62000 4.15600 0.19300
C -0.18700 4.01500 -1.22500
C -0.21400 2.58300 -1.38000
C -0.88700 5.40600 0.97400
C 0.18100 5.01300 -2.27700
O 0.30300 4.69000 -3.50800
C 0.31000 6.41400 -1.83700
N -0.26500 -0.41300 -2.02900
C -0.27900 0.56900 -2.93700
C -0.19600 0.02400 -4.33200
C 0.12400 -1.53300 -4.18000
C 0.08600 -1.63200 -2.63500
C -1.45100 0.20500 -5.19700
C 1.37300 -2.07000 -4.92300
C 2.62600 -1.49000 -4.30600
N 0.15000 -2.14400 0.30300
C 0.17300 -3.13600 -0.68800
C 0.17300 -4.43800 0.00400
C 0.13300 -4.11100 1.35800
C 0.08300 -2.69500 1.50200
C 0.14900 -5.71500 -0.62300
C 0.09600 -4.62900 2.71600
O 0.20800 -5.74700 3.22100
C -0.25500 -3.42800 3.70100
C 0.71700 -3.48200 4.84800
O 1.93100 -3.25500 4.66900
O 0.03800 -3.55600 6.00300
C 0.94300 -3.58300 7.18300
H -1.85900 3.22000 2.49700
H -0.21800 2.45300 -3.47400
H 0.27600 -3.74700 -2.60500
H -1.55400 -0.94900 5.13200
H -1.58500 1.83100 4.66500
H -3.48400 -0.37700 3.96900
H -3.51100 1.02700 2.85800
H -3.85200 1.30100 4.54300
H 0.66900 1.09600 4.96600
H 1.13000 -0.63900 5.18900
H -0.84400 0.02600 7.12500
H 0.06200 1.47700 6.92100
H -1.34400 5.18600 1.93800
H -1.65100 5.96300 0.43200
H 0.00700 6.02000 1.08400
H -0.63500 6.74400 -1.40500
H 0.66500 6.97000 -2.70400
H 1.04800 6.46600 -1.03600
H 0.60800 0.50100 -4.89100
H -0.69200 -2.15600 -4.54700
H -1.26700 0.74000 -6.12900
H -2.20400 0.71400 -4.59600
H -1.96700 -0.72000 -5.45300
H 1.35600 -1.75900 -5.96700
H 1.45200 -3.15700 -4.90200
H 2.71400 -0.52200 -4.79800
H 3.48700 -2.12100 -4.52900
H 2.49500 -1.30300 -3.24000
H 0.86700 -6.33300 -0.08400
H 0.40400 -5.64200 -1.68000
H -0.89100 -5.99900 -0.46300
H -1.28300 -3.58100 4.02800
H 0.69800 -4.47800 7.75500
H 0.83300 -2.61900 7.68000
H 2.00000 -3.75400 6.97600
Mg 7.87292 0.71240 0.59804
C 6.56147 -2.10891 -1.19062
C 6.81867 2.65856 -1.99727
C 9.40990 3.14779 1.92996
C 9.79308 -1.53021 2.44990
N 6.83575 0.22204 -1.29300
C 6.33273 -0.87608 -1.83656
C 5.47123 -0.62981 -3.10413
C 6.10456 0.77500 -3.55611
C 6.58855 1.27378 -2.19609
C 7.31155 0.62566 -4.46726
C 3.94417 -0.49089 -2.77126
C 3.01298 -0.55798 -3.98376
H 1.71072 -1.19975 -3.82657
N 7.67534 2.66639 0.31260
C 7.20901 3.28421 -0.79289
C 7.28284 4.72587 -0.50948
C 7.98438 4.91323 0.78954
C 8.41149 3.55448 1.05685
C 6.64918 5.76207 -1.39163
C 8.24091 6.11832 1.64286
O 9.07735 6.09028 2.61364
C 7.55405 7.35761 1.25061
N 9.53588 0.82001 1.84116
C 9.96568 2.00056 2.32020
C 10.99781 1.80581 3.40518
C 10.99478 0.23883 3.72475
C 9.98082 -0.23458 2.66025
C 12.41843 2.25175 3.05969
C 10.76297 -0.17749 5.20313
C 9.35208 0.16845 5.62157
N 8.01586 -1.43615 0.77502
C 8.90583 -2.16741 1.59190
C 8.70426 -3.59802 1.28347
C 7.71951 -3.59859 0.28410
C 7.34901 -2.26167 -0.02392
C 9.42066 -4.68294 1.86301
C 6.91681 -4.42568 -0.58785
O 6.73619 -5.63623 -0.71313
C 6.22222 -3.49264 -1.67108
C 4.76846 -3.87129 -1.74661
O 4.01599 -3.68715 -0.77373
O 4.46001 -4.18374 -3.01846
C 3.02570 -4.55556 -3.14625
H 6.73348 3.32698 -2.85450
H 9.89459 3.94612 2.49673
H 10.28320 -2.29672 3.05398
H 5.59846 -1.36496 -3.88972
H 5.34440 1.44002 -3.95768
H 7.61705 -0.40544 -4.56552
H 8.09872 1.21166 -4.01118
H 7.11208 1.09147 -5.43657
H 3.74261 0.53467 -2.43608
H 3.64463 -1.22103 -2.04476
H 3.52446 -0.93986 -4.87566
H 2.72374 0.46001 -4.25591
H 6.34836 5.33836 -2.35775
H 7.42999 6.48751 -1.64450
H 5.82554 6.28572 -0.90167
H 7.83573 7.62028 0.23369
H 7.79172 8.08305 2.03108
H 6.47441 7.17087 1.23985
H 10.72334 2.34785 4.30182
H 11.95717 -0.23029 3.47261
H 12.82593 2.99806 3.76753
H 12.41718 2.64476 2.05169
H 13.15120 1.44930 2.99387
H 11.42890 0.38350 5.86342
H 10.93967 -1.23186 5.38774
H 9.42732 1.22577 5.89269
H 9.04572 -0.43641 6.47264
H 8.66076 0.09384 4.77413
H 8.69291 -5.45054 2.09034
H 9.96223 -4.37118 2.75367
H 10.09464 -4.93367 1.03951
H 6.73672 -3.65252 -2.61939
H 2.99281 -5.54979 -3.60244
H 2.55140 -3.72819 -3.70683
H 2.46817 -4.72368 -2.23227
