79

Mg 7.89123 0.70550 0.59342
C 7.74234 2.61462 -2.44173
C 7.40368 -2.08153 -1.31166
C 7.56752 -0.95265 3.27917
C 7.22509 3.65861 2.32001
N 7.62247 0.43053 -1.58474
C 7.64579 1.22239 -2.64623
C 7.64169 0.47478 -4.00660
C 6.96369 -0.89869 -3.52413
C 7.38121 -0.87457 -2.05520
C 5.44562 -0.87598 -3.58963
C 9.08969 0.23648 -4.56205
C 9.15215 -0.20915 -6.02468
H 10.26140 0.26230 -6.84916
N 8.02586 -1.24718 0.92131
C 7.81754 -2.23833 0.02940
C 8.02009 -3.49396 0.76869
C 8.20319 -3.16613 2.20873
C 7.91221 -1.74655 2.19498
C 8.10552 -4.83154 0.09268
C 8.56601 -3.99578 3.40298
O 8.43601 -3.54956 4.59748
C 8.98941 -5.37828 3.13666
N 7.25115 1.22420 2.50224
C 7.25651 0.32452 3.50149
C 7.02030 0.99027 4.83617
C 7.09616 2.56217 4.55161
C 7.28256 2.53313 3.01870
C 5.69292 0.66033 5.51850
C 8.10240 3.38378 5.40313
C 9.51890 2.99386 5.04693
N 7.72559 2.79946 0.08753
C 7.41467 3.86568 0.95966
C 7.30296 5.08537 0.13364
C 7.53579 4.63649 -1.17510
C 7.75570 3.23254 -1.16786
C 6.97337 6.38551 0.61020
C 7.63502 5.02936 -2.56237
O 7.62637 6.10249 -3.16407
C 7.64798 3.71731 -3.45946
C 8.76625 3.84769 -4.45695
O 9.95065 3.87468 -4.07870
O 8.26875 3.70045 -5.69839
C 9.34169 3.81076 -6.72232
H 7.02950 -2.98964 -1.78517
H 7.55152 -1.45812 4.24752
H 7.11669 4.63586 2.79529
H 7.03687 0.93734 -4.77732
H 7.40154 -1.75470 -4.03098
H 5.06773 0.10448 -3.83874
H 5.10429 -1.17461 -2.60710
H 5.08655 -1.64466 -4.27994
H 9.51782 -0.65020 -4.07704
H 9.69914 1.10827 -4.42357
H 8.19719 -0.05845 -6.54263
H 9.30390 -1.29093 -6.05166
H 7.76895 -4.77751 -0.95001
H 7.37348 -5.48392 0.58093
H 9.09549 -5.28455 0.17879
H 8.19573 -5.90420 2.61136
H 9.29245 -5.78266 4.10440
H 9.85244 -5.35602 2.46189
H 7.79549 0.72347 5.54398
H 6.13270 3.05761 4.74168
H 5.81708 0.23717 6.53319
H 5.14464 -0.02454 4.88535
H 5.00042 1.49540 5.60965
H 7.97523 3.15574 6.46426
H 7.98998 4.45674 5.28860
H 9.68640 2.09571 5.64887
H 10.21395 3.78599 5.31801
H 9.59371 2.70283 3.99272
H 7.64449 7.07687 0.11815
H 7.06222 6.44646 1.69287
H 5.93392 6.45694 0.27898
H 6.67379 3.64219 -3.94410
H 9.03809 4.59760 -7.41974
H 9.46632 2.79213 -7.13538
H 10.30849 4.17735 -6.39772
