79

Mg 13.14618 1.18769 1.00360
C 13.41340 -0.99192 3.84208
C 12.33893 3.68336 3.18411
C 12.46424 3.01715 -1.49750
C 12.84567 -1.66137 -0.98090
N 12.93626 1.21848 3.20524
C 13.12246 0.34530 4.18363
C 13.06855 0.95604 5.60969
C 12.17551 2.25021 5.28342
C 12.52685 2.42380 3.80724
C 10.68163 1.99347 5.39185
C 14.48890 1.35759 6.14203
C 14.54965 1.67172 7.63849
H 15.75140 1.29903 8.37969
N 12.97787 3.16012 0.86302
C 12.66572 4.02277 1.85281
C 12.64878 5.35694 1.23324
C 12.81438 5.19365 -0.23667
C 12.73602 3.75122 -0.35214
C 12.56649 6.62456 2.03310
C 12.99834 6.17427 -1.35503
O 12.88276 5.82485 -2.58279
C 13.22536 7.57447 -0.96850
N 12.50571 0.75560 -0.92654
C 12.33475 1.73351 -1.83339
C 12.14030 1.16485 -3.21874
C 12.45875 -0.39712 -3.09059
C 12.70629 -0.48086 -1.56839
C 10.75006 1.35241 -3.82573
C 13.53625 -0.97653 -4.04765
C 14.89440 -0.41222 -3.69785
N 13.31246 -0.94478 1.30846
C 13.12342 -1.96125 0.34662
C 13.22866 -3.25432 1.05325
C 13.45050 -2.89727 2.39183
C 13.46121 -1.48152 2.51439
C 13.07297 -4.54008 0.46276
C 13.66745 -3.39610 3.73079
O 13.84311 -4.50886 4.22540
C 13.52705 -2.18476 4.75027
C 14.69523 -2.23620 5.69644
O 15.85290 -2.04994 5.28205
O 14.23673 -2.27979 6.96065
C 15.35834 -2.32071 7.93643
H 11.85664 4.47762 3.75457
H 12.33146 3.60099 -2.41127
H 12.86117 -2.59614 -1.54538
H 12.57285 0.33914 6.34961
H 12.50476 3.11230 5.85766
H 10.46325 0.94868 5.55576
H 10.25714 2.32605 4.45364
H 10.24432 2.63290 6.16400
H 14.76030 2.33924 5.73282
H 15.21312 0.60380 5.90134
H 13.65097 1.33228 8.16773
H 14.54185 2.75695 7.76585
H 12.28782 6.42526 3.07522
H 11.72574 7.20132 1.63266
H 13.47439 7.22731 1.96176
H 12.38696 7.92466 -0.37107
H 13.42272 8.10674 -1.90103
H 14.11119 7.62061 -0.32524
H 12.83590 1.60892 -3.92020
H 11.57111 -1.01236 -3.29894
H 10.76583 1.88055 -4.79779
H 10.13556 1.88612 -3.11292
H 10.18443 0.43456 -3.97677
H 13.33029 -0.67401 -5.07732
H 13.58785 -2.06011 -4.03455
H 14.90142 0.55222 -4.21447
H 15.68565 -1.06257 -4.06528
H 14.97206 -0.21101 -2.62307
H 13.85943 -5.16472 0.86501
H 13.12199 -4.48758 -0.62288
H 12.07093 -4.79711 0.81647
H 12.57472 -2.30176 5.26888
H 15.20469 -3.20479 8.56291
H 15.35004 -1.33708 8.44254
H 16.35324 -2.50640 7.54894
