158

Mg 0.00000 0.00000 0.00000
C -0.21700 -2.21800 2.80100
C -1.25500 2.44200 2.02600
C -0.24500 1.85000 -2.56400
C 0.14600 -2.82400 -2.03700
N -0.61700 -0.00900 2.12600
C -0.59400 -0.90800 3.10500
C -0.93600 -0.30900 4.50200
C -1.77300 0.96400 4.03200
C -1.15500 1.16800 2.66000
C -3.26300 0.68500 3.86300
C 0.34500 0.11000 5.29900
C 0.12400 0.39700 6.78700
H 1.16800 0.03300 7.73300
N -0.18500 1.96100 -0.15200
C -0.70300 2.80000 0.77700
C -0.62000 4.15600 0.19300
C -0.18700 4.01500 -1.22500
C -0.21400 2.58300 -1.38000
C -0.88700 5.40600 0.97400
C 0.18100 5.01300 -2.27700
O 0.30300 4.69000 -3.50800
C 0.31000 6.41400 -1.83700
N -0.26500 -0.41300 -2.02900
C -0.27900 0.56900 -2.93700
C -0.19600 0.02400 -4.33200
C 0.12400 -1.53300 -4.18000
C 0.08600 -1.63200 -2.63500
C -1.45100 0.20500 -5.19700
C 1.37300 -2.07000 -4.92300
C 2.62600 -1.49000 -4.30600
N 0.15000 -2.14400 0.30300
C 0.17300 -3.13600 -0.68800
C 0.17300 -4.43800 0.00400
C 0.13300 -4.11100 1.35800
C 0.08300 -2.69500 1.50200
C 0.14900 -5.71500 -0.62300
C 0.09600 -4.62900 2.71600
O 0.20800 -5.74700 3.22100
C -0.25500 -3.42800 3.70100
C 0.71700 -3.48200 4.84800
O 1.93100 -3.25500 4.66900
O 0.03800 -3.55600 6.00300
C 0.94300 -3.58300 7.18300
H -1.85900 3.22000 2.49700
H -0.21800 2.45300 -3.47400
H 0.27600 -3.74700 -2.60500
H -1.55400 -0.94900 5.13200
H -1.58500 1.83100 4.66500
H -3.48400 -0.37700 3.96900
H -3.51100 1.02700 2.85800
H -3.85200 1.30100 4.54300
H 0.66900 1.09600 4.96600
H 1.13000 -0.63900 5.18900
H -0.84400 0.02600 7.12500
H 0.06200 1.47700 6.92100
H -1.34400 5.18600 1.93800
H -1.65100 5.96300 0.43200
H 0.00700 6.02000 1.08400
H -0.63500 6.74400 -1.40500
H 0.66500 6.97000 -2.70400
H 1.04800 6.46600 -1.03600
H 0.60800 0.50100 -4.89100
H -0.69200 -2.15600 -4.54700
H -1.26700 0.74000 -6.12900
H -2.20400 0.71400 -4.59600
H -1.96700 -0.72000 -5.45300
H 1.35600 -1.75900 -5.96700
H 1.45200 -3.15700 -4.90200
H 2.71400 -0.52200 -4.79800
H 3.48700 -2.12100 -4.52900
H 2.49500 -1.30300 -3.24000
H 0.86700 -6.33300 -0.08400
H 0.40400 -5.64200 -1.68000
H -0.89100 -5.99900 -0.46300
H -1.28300 -3.58100 4.02800
H 0.69800 -4.47800 7.75500
H 0.83300 -2.61900 7.68000
H 2.00000 -3.75400 6.97600
Mg 10.52035 0.95042 0.79625
C 12.65628 -1.17529 2.74515
C 11.70102 3.57031 2.63386
C 8.32942 2.78044 -0.58877
C 8.70953 -1.89809 -0.07128
N 11.98766 1.05712 2.44788
C 12.78123 0.19323 3.06294
C 13.81994 0.84088 4.01751
C 13.04482 2.21438 4.32009
C 12.21501 2.31350 3.04171
C 12.09319 2.12078 5.50118
C 15.19761 1.10189 3.31330
C 16.34950 1.44422 4.26078
H 17.68846 0.96397 3.93062
N 10.41141 2.92554 0.63621
C 10.96945 3.84041 1.45650
C 10.57854 5.15328 0.92009
C 9.60838 4.93746 -0.18758
C 9.39148 3.50917 -0.07347
C 11.17650 6.44162 1.40594
C 8.97038 5.86534 -1.17662
O 7.97556 5.50033 -1.89767
C 9.48418 7.24244 -1.20953
N 8.65058 0.54193 -0.01581
C 7.92540 1.51005 -0.60299
C 6.74971 0.93166 -1.35372
C 6.97430 -0.65173 -1.34973
C 8.25028 -0.72415 -0.48253
C 5.37034 1.25121 -0.77787
C 6.97663 -1.36571 -2.72919
C 8.18755 -0.94075 -3.52823
N 10.73915 -1.17956 1.08497
C 9.85196 -2.19331 0.66157
C 10.36884 -3.47260 1.18949
C 11.51738 -3.10861 1.90842
C 11.69195 -1.69947 1.85070
C 9.76086 -4.74853 1.02072
C 12.61587 -3.59485 2.71191
O 13.03567 -4.70757 3.02710
C 13.33165 -2.35092 3.39506
C 14.81515 -2.50325 3.19878
O 15.31055 -2.45142 2.05927
O 15.42431 -2.46693 4.39794
C 16.89833 -2.60313 4.25462
H 11.83315 4.42507 3.29779
H 7.60352 3.35260 -1.17116
H 8.25634 -2.84270 -0.37950
H 13.98925 0.29848 4.93996
H 13.73579 3.05030 4.39194
H 12.00694 1.10948 5.86992
H 11.13709 2.47364 5.13729
H 12.39478 2.82178 6.28475
H 15.13727 2.03880 2.74470
H 15.47328 0.26966 2.69522
H 16.10587 1.21535 5.30539
H 16.49684 2.52690 4.25095
H 11.73725 6.29860 2.33788
H 10.34340 7.09461 1.68771
H 11.77541 6.94241 0.64228
H 9.36926 7.69434 -0.22717
H 8.96644 7.72776 -2.03917
H 10.55957 7.20976 -1.41706
H 6.73505 1.28193 -2.37852
H 6.18417 -1.17393 -0.79042
H 4.69991 1.75078 -1.50245
H 5.50218 1.86452 0.10361
H 4.82462 0.39535 -0.38431
H 6.10080 -1.06822 -3.31107
H 6.96182 -2.44799 -2.65541
H 7.86785 0.00456 -3.97686
H 8.42193 -1.68038 -4.29115
H 9.03667 -0.72277 -2.87010
H 10.55572 -5.44330 0.78407
H 9.00395 -4.72806 0.23942
H 9.32316 -4.88876 2.01270
H 13.05594 -2.35321 4.45032
H 17.20291 -3.45028 4.87692
H 17.31646 -1.61214 4.51319
H 17.28218 -2.90304 3.28655
