158

Mg 0.00000 0.00000 0.00000
C -0.21700 -2.21800 2.80100
C -1.25500 2.44200 2.02600
C -0.24500 1.85000 -2.56400
C 0.14600 -2.82400 -2.03700
N -0.61700 -0.00900 2.12600
C -0.59400 -0.90800 3.10500
C -0.93600 -0.30900 4.50200
C -1.77300 0.96400 4.03200
C -1.15500 1.16800 2.66000
C -3.26300 0.68500 3.86300
C 0.34500 0.11000 5.29900
C 0.12400 0.39700 6.78700
H 1.16800 0.03300 7.73300
N -0.18500 1.96100 -0.15200
C -0.70300 2.80000 0.77700
C -0.62000 4.15600 0.19300
C -0.18700 4.01500 -1.22500
C -0.21400 2.58300 -1.38000
C -0.88700 5.40600 0.97400
C 0.18100 5.01300 -2.27700
O 0.30300 4.69000 -3.50800
C 0.31000 6.41400 -1.83700
N -0.26500 -0.41300 -2.02900
C -0.27900 0.56900 -2.93700
C -0.19600 0.02400 -4.33200
C 0.12400 -1.53300 -4.18000
C 0.08600 -1.63200 -2.63500
C -1.45100 0.20500 -5.19700
C 1.37300 -2.07000 -4.92300
C 2.62600 -1.49000 -4.30600
N 0.15000 -2.14400 0.30300
C 0.17300 -3.13600 -0.68800
C 0.17300 -4.43800 0.00400
C 0.13300 -4.11100 1.35800
C 0.08300 -2.69500 1.50200
C 0.14900 -5.71500 -0.62300
C 0.09600 -4.62900 2.71600
O 0.20800 -5.74700 3.22100
C -0.25500 -3.42800 3.70100
C 0.71700 -3.48200 4.84800
O 1.93100 -3.25500 4.66900
O 0.03800 -3.55600 6.00300
C 0.94300 -3.58300 7.18300
H -1.85900 3.22000 2.49700
H -0.21800 2.45300 -3.47400
H 0.27600 -3.74700 -2.60500
H -1.55400 -0.94900 5.13200
H -1.58500 1.83100 4.66500
H -3.48400 -0.37700 3.96900
H -3.51100 1.02700 2.85800
H -3.85200 1.30100 4.54300
H 0.66900 1.09600 4.96600
H 1.13000 -0.63900 5.18900
H -0.84400 0.02600 7.12500
H 0.06200 1.47700 6.92100
H -1.34400 5.18600 1.93800
H -1.65100 5.96300 0.43200
H 0.00700 6.02000 1.08400
H -0.63500 6.74400 -1.40500
H 0.66500 6.97000 -2.70400
H 1.04800 6.46600 -1.03600
H 0.60800 0.50100 -4.89100
H -0.69200 -2.15600 -4.54700
H -1.26700 0.74000 -6.12900
H -2.20400 0.71400 -4.59600
H -1.96700 -0.72000 -5.45300
H 1.35600 -1.75900 -5.96700
H 1.45200 -3.15700 -4.90200
H 2.71400 -0.52200 -4.79800
H 3.48700 -2.12100 -4.52900
H 2.49500 -1.30300 -3.24000
H 0.86700 -6.33300 -0.08400
H 0.40400 -5.64200 -1.68000
H -0.89100 -5.99900 -0.46300
H -1.28300 -3.58100 4.02800
H 0.69800 -4.47800 7.75500
H 0.83300 -2.61900 7.68000
H 2.00000 -3.75400 6.97600
Mg 10.51307 0.94896 0.78843
C 13.06207 -1.44760 -0.01041
C 12.81254 3.38545 0.14768
C 8.43638 3.06672 1.91532
C 8.81649 -1.61156 2.43496
N 12.63079 0.85567 0.15693
C 13.47509 -0.10912 -0.17576
C 14.81007 0.38860 -0.79193
C 14.83224 1.86389 -0.15799
C 13.33098 2.07095 0.03182
C 15.49876 1.92267 1.20643
C 14.76325 0.43766 -2.35954
C 16.12305 0.61671 -3.03824
H 16.35968 -0.05803 -4.31151
N 10.42715 2.91700 0.54758
C 11.45310 3.74822 0.26869
C 10.87272 5.09883 0.21228
C 9.45063 5.01666 0.64313
C 9.38733 3.63685 1.08154
C 11.63211 6.29028 -0.29488
C 8.33601 6.01821 0.66967
O 7.24606 5.79594 1.30642
C 8.59465 7.30465 0.00659
N 8.97153 0.81113 2.17660
C 8.18670 1.86927 2.44550
C 6.98271 1.46217 3.26102
C 6.99647 -0.13692 3.27861
C 8.31353 -0.38710 2.51170
C 6.94330 1.98634 4.69632
C 5.70932 -0.85719 2.79166
C 5.51534 -0.62245 1.31090
N 10.75345 -1.18709 1.00646
C 9.94398 -2.06389 1.76148
C 10.57125 -3.39984 1.69684
C 11.72366 -3.20115 0.92162
C 11.81931 -1.83351 0.54759
C 10.09571 -4.57440 2.34523
C 12.88661 -3.83526 0.34356
O 13.28923 -4.99434 0.25318
C 13.87186 -2.70307 -0.17971
C 14.30782 -3.07333 -1.57089
O 13.48548 -3.10607 -2.50325
O 15.65195 -3.11483 -1.61504
C 16.13280 -3.46722 -2.97755
H 13.51503 4.21814 0.19256
H 7.63458 3.73336 2.24119
H 8.29703 -2.48250 2.84031
H 15.68831 -0.16356 -0.47955
H 15.23138 2.59008 -0.86134
H 15.74314 0.93868 1.57816
H 14.78685 2.40833 1.86092
H 16.37256 2.57960 1.17112
H 14.27233 1.36758 -2.67417
H 14.27447 -0.43211 -2.75353
H 16.95553 0.43647 -2.34727
H 16.23336 1.66592 -3.32287
H 12.70424 6.07582 -0.38396
H 11.57286 7.06120 0.48103
H 11.21764 6.69017 -1.22276
H 9.46079 7.77827 0.46260
H 7.65143 7.85239 0.05342
H 8.85567 7.11249 -1.04010
H 6.06636 1.80059 2.79318
H 7.14443 -0.53196 4.29443
H 6.03203 2.57162 4.92237
H 7.83002 2.58241 4.86648
H 7.02578 1.22375 5.46888
H 4.83056 -0.44025 3.28974
H 5.71255 -1.92480 2.98452
H 5.02487 0.35502 1.27817
H 4.88290 -1.39602 0.88003
H 6.47937 -0.52486 0.79829
H 10.17759 -5.38058 1.62838
H 9.07135 -4.45088 2.69050
H 10.80382 -4.63902 3.17569
H 14.71255 -2.65439 0.51342
H 16.77954 -4.34365 -2.87137
H 16.59502 -2.54577 -3.37883
H 15.40041 -3.82981 -3.68931
