158

Mg 0.00000 0.00000 0.00000
C -0.21700 -2.21800 2.80100
C -1.25500 2.44200 2.02600
C -0.24500 1.85000 -2.56400
C 0.14600 -2.82400 -2.03700
N -0.61700 -0.00900 2.12600
C -0.59400 -0.90800 3.10500
C -0.93600 -0.30900 4.50200
C -1.77300 0.96400 4.03200
C -1.15500 1.16800 2.66000
C -3.26300 0.68500 3.86300
C 0.34500 0.11000 5.29900
C 0.12400 0.39700 6.78700
H 1.16800 0.03300 7.73300
N -0.18500 1.96100 -0.15200
C -0.70300 2.80000 0.77700
C -0.62000 4.15600 0.19300
C -0.18700 4.01500 -1.22500
C -0.21400 2.58300 -1.38000
C -0.88700 5.40600 0.97400
C 0.18100 5.01300 -2.27700
O 0.30300 4.69000 -3.50800
C 0.31000 6.41400 -1.83700
N -0.26500 -0.41300 -2.02900
C -0.27900 0.56900 -2.93700
C -0.19600 0.02400 -4.33200
C 0.12400 -1.53300 -4.18000
C 0.08600 -1.63200 -2.63500
C -1.45100 0.20500 -5.19700
C 1.37300 -2.07000 -4.92300
C 2.62600 -1.49000 -4.30600
N 0.15000 -2.14400 0.30300
C 0.17300 -3.13600 -0.68800
C 0.17300 -4.43800 0.00400
C 0.13300 -4.11100 1.35800
C 0.08300 -2.69500 1.50200
C 0.14900 -5.71500 -0.62300
C 0.09600 -4.62900 2.71600
O 0.20800 -5.74700 3.22100
C -0.25500 -3.42800 3.70100
C 0.71700 -3.48200 4.84800
O 1.93100 -3.25500 4.66900
O 0.03800 -3.55600 6.00300
C 0.94300 -3.58300 7.18300
H -1.85900 3.22000 2.49700
H -0.21800 2.45300 -3.47400
H 0.27600 -3.74700 -2.60500
H -1.55400 -0.94900 5.13200
H -1.58500 1.83100 4.66500
H -3.48400 -0.37700 3.96900
H -3.51100 1.02700 2.85800
H -3.85200 1.30100 4.54300
H 0.66900 1.09600 4.96600
H 1.13000 -0.63900 5.18900
H -0.84400 0.02600 7.12500
H 0.06200 1.47700 6.92100
H -1.34400 5.18600 1.93800
H -1.65100 5.96300 0.43200
H 0.00700 6.02000 1.08400
H -0.63500 6.74400 -1.40500
H 0.66500 6.97000 -2.70400
H 1.04800 6.46600 -1.03600
H 0.60800 0.50100 -4.89100
H -0.69200 -2.15600 -4.54700
H -1.26700 0.74000 -6.12900
H -2.20400 0.71400 -4.59600
H -1.96700 -0.72000 -5.45300
H 1.35600 -1.75900 -5.96700
H 1.45200 -3.15700 -4.90200
H 2.71400 -0.52200 -4.79800
H 3.48700 -2.12100 -4.52900
H 2.49500 -1.30300 -3.24000
H 0.86700 -6.33300 -0.08400
H 0.40400 -5.64200 -1.68000
H -0.89100 -5.99900 -0.46300
H -1.28300 -3.58100 4.02800
H 0.69800 -4.47800 7.75500
H 0.83300 -2.61900 7.68000
H 2.00000 -3.75400 6.97600
Mg 8.93270 0.81299 0.68459
C 10.96539 0.05110 3.54234
C 6.27013 0.98052 2.80997
C 7.04560 1.03946 -1.85609
C 11.46885 -0.51849 -1.30056
N 8.76597 0.53351 2.87236
C 9.61600 0.30785 3.86275
C 9.00015 0.43966 5.28152
C 7.46468 0.15892 4.90420
C 7.48329 0.61704 3.44733
C 7.09680 -1.31517 4.93669
C 9.19015 1.87573 5.88454
C 8.89016 1.98978 7.38079
H 9.69593 2.90485 8.18444
N 7.06297 1.45945 0.52711
C 6.12352 1.47636 1.49583
C 4.91067 2.02604 0.87051
C 5.16287 2.17844 -0.58822
C 6.45463 1.53142 -0.70141
C 3.69753 2.42474 1.65965
C 4.36667 2.79214 -1.69981
O 4.67032 2.60155 -2.93038
C 3.16663 3.54576 -1.30809
N 9.11843 0.14111 -1.27409
C 8.17688 0.41962 -2.19271
C 8.65342 0.07583 -3.58380
C 10.20804 -0.26757 -3.43275
C 10.34667 -0.14406 -1.89948
C 7.93808 -1.09219 -4.26233
C 11.19493 0.52779 -4.33060
C 11.21545 1.98079 -3.91377
N 10.94407 0.09280 1.00671
C 11.82227 -0.44552 0.04076
C 13.03083 -0.90187 0.75739
C 12.76016 -0.61610 2.10408
C 11.46547 -0.04200 2.22098
C 14.15980 -1.53497 0.16516
C 13.27099 -0.67932 3.45454
O 14.34800 -0.98910 3.96229
C 12.08062 -0.36638 4.46027
C 12.57377 0.63801 5.46551
O 12.87862 1.79023 5.11046
O 12.39832 0.14387 6.70463
C 12.86242 1.10857 7.73701
H 5.33524 0.83338 3.35146
H 6.48031 1.19455 -2.77797
H 12.34466 -0.85496 -1.85950
H 9.34747 -0.29546 5.99758
H 6.79368 0.78090 5.49094
H 7.96142 -1.94283 5.09361
H 6.64490 -1.52681 3.97646
H 6.31674 -1.49267 5.68257
H 8.41067 2.53758 5.48565
H 10.17708 2.24538 5.68466
H 8.82677 1.00748 7.86452
H 7.89047 2.41371 7.50295
H 3.74235 2.04242 2.68689
H 2.84162 1.90639 1.21401
H 3.51232 3.50067 1.63257
H 2.49449 2.89307 -0.75611
H 2.78165 3.98279 -2.23149
H 3.46447 4.34504 -0.62029
H 8.54368 0.92240 -4.25041
H 10.41971 -1.31731 -3.68388
H 7.48489 -0.82105 -5.23453
H 7.18507 -1.47154 -3.58438
H 8.55473 -1.97194 -4.43836
H 10.86061 0.50799 -5.37079
H 12.20725 0.13820 -4.31023
H 10.34814 2.39887 -4.43346
H 12.13774 2.45912 -4.23721
H 11.03600 2.08399 -2.83730
H 15.03768 -1.08562 0.61003
H 14.15816 -1.41973 -0.91673
H 13.98375 -2.57064 0.46792
H 11.79230 -1.30771 4.92967
H 13.59454 0.58378 8.35852
H 11.94621 1.47394 8.23782
H 13.44168 1.96103 7.40203
