158

Mg 0.00000 0.00000 0.00000
C -0.21700 -2.21800 2.80100
C -1.25500 2.44200 2.02600
C -0.24500 1.85000 -2.56400
C 0.14600 -2.82400 -2.03700
N -0.61700 -0.00900 2.12600
C -0.59400 -0.90800 3.10500
C -0.93600 -0.30900 4.50200
C -1.77300 0.96400 4.03200
C -1.15500 1.16800 2.66000
C -3.26300 0.68500 3.86300
C 0.34500 0.11000 5.29900
C 0.12400 0.39700 6.78700
H 1.16800 0.03300 7.73300
N -0.18500 1.96100 -0.15200
C -0.70300 2.80000 0.77700
C -0.62000 4.15600 0.19300
C -0.18700 4.01500 -1.22500
C -0.21400 2.58300 -1.38000
C -0.88700 5.40600 0.97400
C 0.18100 5.01300 -2.27700
O 0.30300 4.69000 -3.50800
C 0.31000 6.41400 -1.83700
N -0.26500 -0.41300 -2.02900
C -0.27900 0.56900 -2.93700
C -0.19600 0.02400 -4.33200
C 0.12400 -1.53300 -4.18000
C 0.08600 -1.63200 -2.63500
C -1.45100 0.20500 -5.19700
C 1.37300 -2.07000 -4.92300
C 2.62600 -1.49000 -4.30600
N 0.15000 -2.14400 0.30300
C 0.17300 -3.13600 -0.68800
C 0.17300 -4.43800 0.00400
C 0.13300 -4.11100 1.35800
C 0.08300 -2.69500 1.50200
C 0.14900 -5.71500 -0.62300
C 0.09600 -4.62900 2.71600
O 0.20800 -5.74700 3.22100
C -0.25500 -3.42800 3.70100
C 0.71700 -3.48200 4.84800
O 1.93100 -3.25500 4.66900
O 0.03800 -3.55600 6.00300
C 0.94300 -3.58300 7.18300
H -1.85900 3.22000 2.49700
H -0.21800 2.45300 -3.47400
H 0.27600 -3.74700 -2.60500
H -1.55400 -0.94900 5.13200
H -1.58500 1.83100 4.66500
H -3.48400 -0.37700 3.96900
H -3.51100 1.02700 2.85800
H -3.85200 1.30100 4.54300
H 0.66900 1.09600 4.96600
H 1.13000 -0.63900 5.18900
H -0.84400 0.02600 7.12500
H 0.06200 1.47700 6.92100
H -1.34400 5.18600 1.93800
H -1.65100 5.96300 0.43200
H 0.00700 6.02000 1.08400
H -0.63500 6.74400 -1.40500
H 0.66500 6.97000 -2.70400
H 1.04800 6.46600 -1.03600
H 0.60800 0.50100 -4.89100
H -0.69200 -2.15600 -4.54700
H -1.26700 0.74000 -6.12900
H -2.20400 0.71400 -4.59600
H -1.96700 -0.72000 -5.45300
H 1.35600 -1.75900 -5.96700
H 1.45200 -3.15700 -4.90200
H 2.71400 -0.52200 -4.79800
H 3.48700 -2.12100 -4.52900
H 2.49500 -1.30300 -3.24000
H 0.86700 -6.33300 -0.08400
H 0.40400 -5.64200 -1.68000
H -0.89100 -5.99900 -0.46300
H -1.28300 -3.58100 4.02800
H 0.69800 -4.47800 7.75500
H 0.83300 -2.61900 7.68000
H 2.00000 -3.75400 6.97600
Mg 31.53505 2.84695 2.40163
C 32.78249 1.11577 5.28710
C 29.16462 4.21898 4.43465
C 30.13913 4.03014 -0.19046
C 33.22678 0.51349 0.44237
N 31.12915 2.61999 4.56403
C 31.70728 1.98327 5.57135
C 31.15056 2.35536 6.97178
C 29.69399 2.86255 6.52452
C 30.01433 3.29635 5.09558
C 28.66102 1.74952 6.46556
C 31.97316 3.50278 7.65645
C 31.67974 3.70447 9.14473
H 32.77876 4.09267 10.02446
N 30.21963 4.32064 2.21067
C 29.35039 4.76152 3.14412
C 28.58985 5.84658 2.50506
C 28.96752 5.90006 1.06658
C 29.79264 4.71295 0.96637
C 27.67522 6.75897 3.26955
C 28.63015 6.85381 -0.03920
O 28.87469 6.57573 -1.26627
C 27.92057 8.08186 0.34794
N 31.48665 2.22568 0.41819
C 30.84978 2.95079 -0.51804
C 31.18104 2.45974 -1.90711
C 32.36703 1.40368 -1.71801
C 32.45972 1.40062 -0.17632
C 30.03222 1.80290 -2.67207
C 33.66454 1.64859 -2.53602
C 34.35772 2.89809 -2.04242
N 32.92945 1.23555 2.75814
C 33.49405 0.36794 1.79764
C 34.29051 -0.63601 2.53260
C 34.11396 -0.29393 3.88178
C 33.25098 0.83069 3.98173
C 35.00743 -1.71848 1.94916
C 34.45286 -0.63496 5.24470
O 35.21677 -1.44108 5.77419
C 33.50446 0.18513 6.22161
C 34.36143 0.79675 7.29587
O 35.20290 1.66788 7.01361
O 33.89906 0.41348 8.49990
C 34.70996 1.00364 9.59807
H 28.24495 4.52641 4.93322
H 29.77219 4.46555 -1.12279
H 33.86307 -0.18806 -0.10137
H 31.05955 1.52366 7.66009
H 29.37265 3.71414 7.11856
H 29.10632 0.77798 6.62039
H 28.21900 1.81033 5.47968
H 27.85045 1.94968 7.17214
H 31.63268 4.47006 7.26505
H 33.02581 3.35507 7.51245
H 31.12386 2.86164 9.57319
H 31.00225 4.55497 9.25271
H 27.47150 6.37320 4.27607
H 26.70268 6.73183 2.76627
H 28.03248 7.79071 3.29272
H 26.98688 7.81964 0.83980
H 27.84711 8.67688 -0.56443
H 28.52623 8.61752 1.08745
H 31.53066 3.27272 -2.53155
H 32.06148 0.39007 -2.01646
H 29.82207 2.28713 -3.64440
H 29.15209 1.81532 -2.04298
H 30.15842 0.74019 -2.87186
H 33.42228 1.82276 -3.58726
H 34.36143 0.81792 -2.49948
H 33.83006 3.69798 -2.57046
H 35.41322 2.88026 -2.30633
H 34.18863 3.04411 -0.96923
H 35.96603 -1.76232 2.44882
H 35.12354 -1.58572 0.87554
H 34.33771 -2.54836 2.19009
H 32.77236 -0.51275 6.62974
H 35.06219 0.17277 10.21717
H 34.05558 1.75167 10.08386
H 35.64609 1.47929 9.32997
