79

Mg 15.77347 1.41790 1.20530
C 13.73531 -0.02241 3.78415
C 16.49287 3.93801 3.38845
C 17.20819 2.94083 -1.18001
C 14.02132 -0.54273 -1.08197
N 15.13640 1.79721 3.28917
C 14.40991 1.14891 4.18710
C 14.47081 1.74813 5.61776
C 14.87250 3.25405 5.23082
C 15.57730 2.98546 3.90275
C 13.67247 4.14701 4.96266
C 15.57352 1.06911 6.50375
C 15.48359 1.38674 7.99800
H 15.84265 0.34314 8.95426
N 17.09383 2.89919 1.23690
C 17.26480 3.81620 2.21218
C 18.34602 4.69957 1.74876
C 18.68703 4.32875 0.34843
C 17.63914 3.36796 0.06754
C 19.00174 5.71754 2.63601
C 19.76864 4.77562 -0.58785
O 19.73371 4.49781 -1.83863
C 20.82136 5.62701 -0.01479
N 15.49696 1.38892 -0.85505
C 16.29098 2.10618 -1.66930
C 16.08534 1.71665 -3.11372
C 15.15878 0.41362 -3.07957
C 14.90466 0.32359 -1.55881
C 15.43809 2.77788 -4.00324
C 15.68938 -0.84675 -3.81619
C 16.90928 -1.38541 -3.10410
N 14.29949 -0.15795 1.31535
C 13.67990 -0.82334 0.23487
C 12.66594 -1.73258 0.80725
C 12.75071 -1.51447 2.19063
C 13.73307 -0.52353 2.45990
C 11.78989 -2.57422 0.06544
C 12.22510 -1.88948 3.48360
O 11.43583 -2.74315 3.88613
C 12.75046 -0.84865 4.56391
C 13.26673 -1.62502 5.74426
O 14.26561 -2.35718 5.63123
O 12.63295 -1.20975 6.85612
C 13.11875 -1.94289 8.05542
H 16.60125 4.88851 3.91160
H 17.74969 3.35558 -2.03338
H 13.50180 -1.25888 -1.72220
H 13.52939 1.74050 6.15390
H 15.56718 3.67545 5.95276
H 12.74769 3.58941 4.96118
H 13.84775 4.59161 3.99176
H 13.65332 4.97673 5.67507
H 16.54661 1.52177 6.27367
H 15.57674 0.00614 6.35983
H 14.52099 1.83894 8.26608
H 16.21809 2.16088 8.23302
H 18.42937 5.87541 3.55844
H 18.94680 6.67915 2.11433
H 20.04917 5.48574 2.84051
H 20.37186 6.52358 0.40541
H 21.55002 5.76942 -0.81520
H 21.29075 5.09060 0.81741
H 17.02788 1.46539 -3.58445
H 14.18193 0.59580 -3.55117
H 16.05252 3.04271 -4.88439
H 15.24026 3.65419 -3.40035
H 14.44699 2.52570 -4.37650
H 16.01008 -0.58708 -4.82806
H 14.95201 -1.63756 -3.90504
H 17.71989 -0.76704 -3.50112
H 17.06031 -2.43592 -3.34423
H 16.84999 -1.19848 -2.02559
H 11.77436 -3.53045 0.57128
H 12.11584 -2.67534 -0.96766
H 10.85850 -2.00774 0.14843
H 11.91251 -0.20426 4.83256
H 12.24181 -2.39062 8.53313
H 13.69148 -1.20333 8.64599
H 13.73936 -2.81611 7.89174
