79

Mg 31.52610 2.84494 2.40106
C 33.69517 3.76992 5.10635
C 29.46525 1.44362 4.72997
C 29.82462 1.62538 0.01672
C 34.24009 3.28245 0.25898
N 31.66976 2.69137 4.60289
C 32.50869 3.13395 5.52736
C 32.01191 2.95215 6.98672
C 30.99661 1.73169 6.74483
C 30.65608 1.98417 5.27754
C 31.65811 0.36791 6.85380
C 31.26517 4.22219 7.52652
C 31.02552 4.23342 9.03788
H 31.09315 5.50993 9.74386
N 29.67068 2.14111 2.37609
C 28.97981 1.63097 3.41711
C 27.67068 1.23458 2.87563
C 27.70486 1.40054 1.39711
C 29.10544 1.71590 1.19957
C 26.51795 0.83006 3.74799
C 26.65399 1.28100 0.33524
O 26.95667 1.23360 -0.90933
C 25.26749 1.12711 0.79941
N 32.01506 2.29723 0.45600
C 31.07513 1.84256 -0.39119
C 31.60167 1.77509 -1.80491
C 33.02114 2.51096 -1.77025
C 33.11375 2.81107 -0.25805
C 31.77051 0.37128 -2.38561
C 33.23206 3.68066 -2.77024
C 32.33647 4.84177 -2.40264
N 33.54440 3.59473 2.58085
C 34.52175 3.66559 1.56407
C 35.77180 4.13793 2.19391
C 35.43851 4.28829 3.54846
C 34.08246 3.91534 3.75224
C 37.01814 4.32393 1.53198
C 35.92847 4.66756 4.85413
O 36.97494 5.15294 5.28198
C 34.85727 4.22818 5.94310
C 34.63637 5.39001 6.87255
O 34.11858 6.44182 6.45757
O 34.87028 4.99353 8.13685
C 34.65360 6.10847 9.09694
H 28.86462 0.77772 5.35022
H 29.25231 1.31481 -0.86048
H 35.10384 3.53795 -0.35854
H 32.77901 2.66286 7.69499
H 30.10872 1.82782 7.36433
H 32.72987 0.44728 6.95953
H 31.40571 -0.15526 5.94077
H 31.20445 -0.20729 7.66600
H 30.22663 4.20472 7.17174
H 31.77799 5.11820 7.23530
H 31.62550 3.47545 9.55600
H 29.99219 3.93300 9.22762
H 26.84046 0.64330 4.77974
H 26.17337 -0.14621 3.39019
H 25.68666 1.53682 3.70206
H 25.19228 0.24064 1.42469
H 24.65327 1.14762 -0.10292
H 25.01431 1.98298 1.43502
H 30.94780 2.30477 -2.48681
H 33.84418 1.81988 -2.00446
H 31.20793 0.21727 -3.32574
H 31.46380 -0.34698 -1.63690
H 32.79895 0.07395 -2.58338
H 32.94386 3.37350 -3.77858
H 34.25919 4.02638 -2.82011
H 31.38124 4.57198 -2.86289
H 32.72493 5.77075 -2.81512
H 32.17847 4.88922 -1.31893
H 37.42368 5.26110 1.88940
H 36.89724 4.32877 0.45072
H 37.55807 3.43953 1.88069
H 35.25777 3.35763 6.46397
H 35.57760 6.21815 9.67302
H 33.73788 5.84506 9.65893
H 34.53899 7.10596 8.68909
