79

Mg 15.76628 1.41940 1.19766
C 15.85555 1.17509 -2.37229
C 15.18256 -1.94183 1.26441
C 15.23264 1.68385 4.31245
C 15.22541 4.83950 0.80265
N 15.56782 -0.08346 -0.41561
C 15.68255 -0.05805 -1.73976
C 15.67737 -1.47494 -2.38765
C 14.90413 -2.27202 -1.24364
C 15.26752 -1.40198 -0.05330
C 13.38834 -2.26392 -1.41341
C 17.12336 -2.03679 -2.60018
C 17.22096 -3.25987 -3.51664
H 18.38203 -3.39466 -4.38331
N 15.76202 0.04618 2.61791
C 15.52107 -1.27796 2.46339
C 15.63284 -1.87274 3.81262
C 15.77078 -0.75844 4.79110
C 15.56503 0.38407 3.93804
C 15.65173 -3.34966 4.06179
C 16.03417 -0.72851 6.26347
O 15.88510 0.33341 6.95965
C 16.39050 -2.01279 6.89332
N 15.07810 2.98673 2.39245
C 14.99436 2.85629 3.72097
C 14.75276 4.17923 4.38535
C 14.93108 5.28471 3.24699
C 15.17776 4.34441 2.04147
C 13.38200 4.35185 5.05411
C 15.95259 6.41707 3.52028
C 17.35383 5.84881 3.54663
N 15.74597 2.82105 -0.45945
C 15.47592 4.19580 -0.39767
C 15.47139 4.69788 -1.78402
C 15.72434 3.56986 -2.56212
C 15.85116 2.43040 -1.71723
C 15.19493 6.03465 -2.18532
C 15.89254 3.05782 -3.91244
O 15.98098 3.56995 -5.02930
C 15.86315 1.46680 -3.85228
C 17.02465 0.95978 -4.66295
O 18.19933 1.15940 -4.29196
O 16.57400 0.12329 -5.61044
C 17.67921 -0.43869 -6.43194
H 14.76409 -2.94113 1.39944
H 15.14887 1.84029 5.38993
H 15.14756 5.91063 0.60750
H 15.12708 -1.54353 -3.32621
H 15.29890 -3.27919 -1.11140
H 13.08164 -1.60158 -2.22283
H 12.99073 -1.91127 -0.46155
H 13.00734 -3.27760 -1.54018
H 17.47943 -2.47477 -1.66773
H 17.79027 -1.25635 -2.96824
H 16.30160 -3.40710 -4.08410
H 17.29900 -4.14957 -2.89171
H 15.36615 -3.90959 3.17214
H 14.86110 -3.56131 4.78138
H 16.60959 -3.68672 4.45832
H 15.58485 -2.72908 6.73083
H 16.63016 -1.78261 7.93083
H 17.26881 -2.42031 6.39187
H 15.48106 4.35902 5.17508
H 13.99949 5.81151 3.03892
H 13.44017 4.60456 6.11310
H 12.81468 3.43414 4.90165
H 12.73277 5.08890 4.58223
H 15.76979 6.86518 4.49636
H 15.91993 7.21456 2.77786
H 17.44739 5.47897 4.56707
H 18.08577 6.63205 3.34659
H 17.44848 4.99182 2.87947
H 15.93371 6.28341 -2.94709
H 15.25025 6.72110 -1.34074
H 14.18050 5.92479 -2.56837
H 14.90594 1.15498 -4.26899
H 17.45528 -0.20650 -7.47318
H 17.76735 -1.48951 -6.15552
H 18.65365 0.03798 -6.31977
