158

Mg 0.00000 0.00000 0.00000
C -0.21700 -2.21800 2.80100
C -1.25500 2.44200 2.02600
C -0.24500 1.85000 -2.56400
C 0.14600 -2.82400 -2.03700
N -0.61700 -0.00900 2.12600
C -0.59400 -0.90800 3.10500
C -0.93600 -0.30900 4.50200
C -1.77300 0.96400 4.03200
C -1.15500 1.16800 2.66000
C -3.26300 0.68500 3.86300
C 0.34500 0.11000 5.29900
C 0.12400 0.39700 6.78700
H 1.16800 0.03300 7.73300
N -0.18500 1.96100 -0.15200
C -0.70300 2.80000 0.77700
C -0.62000 4.15600 0.19300
C -0.18700 4.01500 -1.22500
C -0.21400 2.58300 -1.38000
C -0.88700 5.40600 0.97400
C 0.18100 5.01300 -2.27700
O 0.30300 4.69000 -3.50800
C 0.31000 6.41400 -1.83700
N -0.26500 -0.41300 -2.02900
C -0.27900 0.56900 -2.93700
C -0.19600 0.02400 -4.33200
C 0.12400 -1.53300 -4.18000
C 0.08600 -1.63200 -2.63500
C -1.45100 0.20500 -5.19700
C 1.37300 -2.07000 -4.92300
C 2.62600 -1.49000 -4.30600
N 0.15000 -2.14400 0.30300
C 0.17300 -3.13600 -0.68800
C 0.17300 -4.43800 0.00400
C 0.13300 -4.11100 1.35800
C 0.08300 -2.69500 1.50200
C 0.14900 -5.71500 -0.62300
C 0.09600 -4.62900 2.71600
O 0.20800 -5.74700 3.22100
C -0.25500 -3.42800 3.70100
C 0.71700 -3.48200 4.84800
O 1.93100 -3.25500 4.66900
O 0.03800 -3.55600 6.00300
C 0.94300 -3.58300 7.18300
H -1.85900 3.22000 2.49700
H -0.21800 2.45300 -3.47400
H 0.27600 -3.74700 -2.60500
H -1.55400 -0.94900 5.13200
H -1.58500 1.83100 4.66500
H -3.48400 -0.37700 3.96900
H -3.51100 1.02700 2.85800
H -3.85200 1.30100 4.54300
H 0.66900 1.09600 4.96600
H 1.13000 -0.63900 5.18900
H -0.84400 0.02600 7.12500
H 0.06200 1.47700 6.92100
H -1.34400 5.18600 1.93800
H -1.65100 5.96300 0.43200
H 0.00700 6.02000 1.08400
H -0.63500 6.74400 -1.40500
H 0.66500 6.97000 -2.70400
H 1.04800 6.46600 -1.03600
H 0.60800 0.50100 -4.89100
H -0.69200 -2.15600 -4.54700
H -1.26700 0.74000 -6.12900
H -2.20400 0.71400 -4.59600
H -1.96700 -0.72000 -5.45300
H 1.35600 -1.75900 -5.96700
H 1.45200 -3.15700 -4.90200
H 2.71400 -0.52200 -4.79800
H 3.48700 -2.12100 -4.52900
H 2.49500 -1.30300 -3.24000
H 0.86700 -6.33300 -0.08400
H 0.40400 -5.64200 -1.68000
H -0.89100 -5.99900 -0.46300
H -1.28300 -3.58100 4.02800
H 0.69800 -4.47800 7.75500
H 0.83300 -2.61900 7.68000
H 2.00000 -3.75400 6.97600
Mg 15.76742 1.41218 1.20534
C 13.21166 2.45457 3.49894
C 18.02060 1.93124 3.71300
C 18.08284 0.93477 -0.91086
C 13.52278 2.06981 -1.37823
N 15.52537 2.10369 3.29232
C 14.49977 2.41137 4.07196
C 14.86552 2.61006 5.56739
C 16.41668 2.98490 5.38781
C 16.68981 2.26890 4.06667
C 16.65688 4.47154 5.18394
C 14.68542 1.29643 6.40641
C 14.72622 1.49175 7.92363
H 13.86592 0.65577 8.75640
N 17.68046 0.95836 1.47531
C 18.43378 1.22274 2.56338
C 19.77670 0.70535 2.25833
C 19.79703 0.26186 0.83790
C 18.49864 0.73058 0.39679
C 20.85994 0.59414 3.29159
C 20.82138 -0.45300 0.00972
O 20.72440 -0.52538 -1.26628
C 21.98922 -0.98506 0.72705
N 15.87632 1.68987 -0.85217
C 16.98326 1.35380 -1.53749
C 16.73282 1.38265 -3.02640
C 15.15381 1.57404 -3.19283
C 14.75839 1.71845 -1.70683
C 17.46266 2.47863 -3.80263
C 14.40494 0.52386 -4.05828
C 14.42517 -0.82164 -3.36937
N 13.68072 1.95251 1.05773
C 12.94630 2.20478 -0.12171
C 11.59886 2.64817 0.29090
C 11.65053 2.64514 1.69297
C 12.94545 2.24866 2.12363
C 10.54536 3.03366 -0.58526
C 10.90733 2.89744 2.90652
O 9.73708 3.17396 3.16689
C 11.92353 2.90710 4.12867
C 11.34163 2.05525 5.22333
O 11.19474 0.83104 5.06107
O 11.25781 2.78395 6.35131
C 10.69658 1.97905 7.46888
H 18.83159 2.27726 4.35444
H 18.81147 0.67711 -1.68299
H 12.73506 2.19958 -2.12343
H 14.34161 3.42079 6.05933
H 17.02083 2.55869 6.18450
H 15.73180 5.01791 5.07509
H 17.25231 4.55261 4.28397
H 17.27769 4.86748 5.99274
H 15.57207 0.66300 6.27461
H 13.78080 0.78976 6.13149
H 14.62683 2.54684 8.20621
H 15.71898 1.21036 8.28316
H 20.60587 1.15052 4.20224
H 21.73762 1.11356 2.89192
H 21.13049 -0.44146 3.50843
H 22.50102 -0.17226 1.23684
H 22.56318 -1.53834 -0.01882
H 21.63867 -1.67301 1.50452
H 17.02360 0.44584 -3.48568
H 14.90815 2.53025 -3.67774
H 18.09916 2.08602 -4.61798
H 18.05307 3.05636 -3.10393
H 16.81966 3.23777 -4.24473
H 14.91400 0.38991 -5.01591
H 13.37746 0.79637 -4.27509
H 15.40016 -1.22932 -3.65269
H 13.61415 -1.44993 -3.73205
H 14.42046 -0.70579 -2.27932
H 9.64086 2.57908 -0.20350
H 10.74579 2.72343 -1.60867
H 10.58412 4.12023 -0.47065
H 12.05060 3.94438 4.44088
H 9.82805 2.52451 7.85073
H 11.53640 1.81488 8.16995
H 10.25345 1.02104 7.22333
