79

Mg 13.14337 1.18774 1.00612
C 12.44974 -1.08700 3.69378
C 11.47595 3.56926 2.79012
C 13.34410 3.08549 -1.52878
C 13.72628 -1.59297 -1.01218
N 12.13774 1.12781 2.97522
C 11.99172 0.22531 3.93361
C 11.38906 0.77938 5.25246
C 10.61925 2.05286 4.64871
C 11.48009 2.29440 3.41044
C 9.20378 1.73996 4.19276
C 12.49397 1.21007 6.27993
C 11.98575 1.46929 7.69988
H 12.84689 1.11120 8.82357
N 12.94690 3.15696 0.85731
C 12.25301 3.97006 1.68113
C 12.40290 5.32530 1.12884
C 13.10458 5.22366 -0.17960
C 13.14138 3.78477 -0.34790
C 11.97347 6.55809 1.86996
C 13.64087 6.25175 -1.12914
O 14.00105 5.94520 -2.32041
C 13.64448 7.64341 -0.65507
N 13.27802 0.80679 -1.03326
C 13.40703 1.81173 -1.91723
C 13.76208 1.28942 -3.28891
C 14.08348 -0.26415 -3.08714
C 13.75780 -0.39669 -1.58323
C 12.68515 1.45094 -4.36153
C 15.46304 -0.76878 -3.59195
C 16.56970 -0.17082 -2.75343
N 13.28503 -0.94760 1.30328
C 13.51028 -1.93294 0.31716
C 13.40850 -3.24733 0.98382
C 13.10593 -2.93364 2.31744
C 13.00493 -1.52403 2.46679
C 13.54078 -4.51451 0.34908
C 12.83852 -3.47485 3.63056
O 12.87167 -4.59869 4.13019
C 12.27701 -2.30863 4.55307
C 13.01668 -2.35483 5.86199
O 14.23561 -2.11254 5.90805
O 12.12817 -2.46228 6.86666
C 12.81322 -2.50073 8.18615
H 10.78133 4.32396 3.16001
H 13.52945 3.69846 -2.41386
H 13.99167 -2.50459 -1.55180
H 10.68538 0.11792 5.74346
H 10.67388 2.90362 5.32293
H 8.98933 0.68270 4.24128
H 9.13886 2.09271 3.17178
H 8.48402 2.33398 4.76320
H 12.85077 2.21542 6.02162
H 13.29021 0.49180 6.30660
H 10.97230 1.07876 7.85266
H 11.88118 2.54799 7.83951
H 11.34087 6.30984 2.73112
H 11.31288 7.11974 1.20060
H 12.81492 7.19457 2.15195
H 12.62986 7.94113 -0.40136
H 14.14578 8.21719 -1.43697
H 14.22870 7.69623 0.27041
H 14.64534 1.78384 -3.67429
H 13.36422 -0.90182 -3.62182
H 13.03250 2.01571 -5.24723
H 11.82754 1.93541 -3.91393
H 12.25801 0.52019 -4.73093
H 15.63611 -0.43493 -4.61799
H 15.55659 -1.84961 -3.58486
H 16.72121 0.81213 -3.20943
H 17.46996 -0.77865 -2.81749
H 16.23742 -0.00783 -1.72159
H 14.15249 -5.12595 0.99904
H 13.98289 -4.41927 -0.64048
H 12.49200 -4.81972 0.30246
H 11.20728 -2.47850 4.68113
H 12.48139 -3.41273 8.69195
H 12.57370 -1.53786 8.67528
H 13.88838 -2.63662 8.18890
