158

Mg 0.00000 0.00000 0.00000
C -0.21700 -2.21800 2.80100
C -1.25500 2.44200 2.02600
C -0.24500 1.85000 -2.56400
C 0.14600 -2.82400 -2.03700
N -0.61700 -0.00900 2.12600
C -0.59400 -0.90800 3.10500
C -0.93600 -0.30900 4.50200
C -1.77300 0.96400 4.03200
C -1.15500 1.16800 2.66000
C -3.26300 0.68500 3.86300
C 0.34500 0.11000 5.29900
C 0.12400 0.39700 6.78700
H 1.16800 0.03300 7.73300
N -0.18500 1.96100 -0.15200
C -0.70300 2.80000 0.77700
C -0.62000 4.15600 0.19300
C -0.18700 4.01500 -1.22500
C -0.21400 2.58300 -1.38000
C -0.88700 5.40600 0.97400
C 0.18100 5.01300 -2.27700
O 0.30300 4.69000 -3.50800
C 0.31000 6.41400 -1.83700
N -0.26500 -0.41300 -2.02900
C -0.27900 0.56900 -2.93700
C -0.19600 0.02400 -4.33200
C 0.12400 -1.53300 -4.18000
C 0.08600 -1.63200 -2.63500
C -1.45100 0.20500 -5.19700
C 1.37300 -2.07000 -4.92300
C 2.62600 -1.49000 -4.30600
N 0.15000 -2.14400 0.30300
C 0.17300 -3.13600 -0.68800
C 0.17300 -4.43800 0.00400
C 0.13300 -4.11100 1.35800
C 0.08300 -2.69500 1.50200
C 0.14900 -5.71500 -0.62300
C 0.09600 -4.62900 2.71600
O 0.20800 -5.74700 3.22100
C -0.25500 -3.42800 3.70100
C 0.71700 -3.48200 4.84800
O 1.93100 -3.25500 4.66900
O 0.03800 -3.55600 6.00300
C 0.94300 -3.58300 7.18300
H -1.85900 3.22000 2.49700
H -0.21800 2.45300 -3.47400
H 0.27600 -3.74700 -2.60500
H -1.55400 -0.94900 5.13200
H -1.58500 1.83100 4.66500
H -3.48400 -0.37700 3.96900
H -3.51100 1.02700 2.85800
H -3.85200 1.30100 4.54300
H 0.66900 1.09600 4.96600
H 1.13000 -0.63900 5.18900
H -0.84400 0.02600 7.12500
H 0.06200 1.47700 6.92100
H -1.34400 5.18600 1.93800
H -1.65100 5.96300 0.43200
H 0.00700 6.02000 1.08400
H -0.63500 6.74400 -1.40500
H 0.66500 6.97000 -2.70400
H 1.04800 6.46600 -1.03600
H 0.60800 0.50100 -4.89100
H -0.69200 -2.15600 -4.54700
H -1.26700 0.74000 -6.12900
H -2.20400 0.71400 -4.59600
H -1.96700 -0.72000 -5.45300
H 1.35600 -1.75900 -5.96700
H 1.45200 -3.15700 -4.90200
H 2.71400 -0.52200 -4.79800
H 3.48700 -2.12100 -4.52900
H 2.49500 -1.30300 -3.24000
H 0.86700 -6.33300 -0.08400
H 0.40400 -5.64200 -1.68000
H -0.89100 -5.99900 -0.46300
H -1.28300 -3.58100 4.02800
H 0.69800 -4.47800 7.75500
H 0.83300 -2.61900 7.68000
H 2.00000 -3.75400 6.97600
Mg 31.52429 2.84186 2.40121
C 33.17951 4.72359 4.96994
C 30.33820 0.80418 4.86610
C 30.42809 0.90741 0.13765
C 33.71839 4.29479 0.11635
N 31.79313 2.86414 4.59654
C 32.39304 3.66308 5.46612
C 32.07046 3.35364 6.95264
C 31.66615 1.80758 6.79418
C 31.20167 1.82428 5.33930
C 32.84993 0.86136 6.90679
C 30.87133 4.20832 7.49451
C 30.70040 4.18511 9.01503
H 30.23992 5.39969 9.68230
N 30.14745 1.41514 2.48707
C 29.77576 0.70737 3.57435
C 28.74403 -0.23249 3.10921
C 28.65472 -0.13506 1.62689
C 29.77903 0.73692 1.35182
C 27.90426 -1.04896 4.04813
C 27.72076 -0.73843 0.62197
O 27.97300 -0.70899 -0.63435
C 26.54912 -1.44637 1.15821
N 32.13514 2.46657 0.44971
C 31.45171 1.61724 -0.33738
C 31.90916 1.71612 -1.77312
C 32.87871 2.98674 -1.82858
C 32.88467 3.36605 -0.33142
C 32.64186 0.49279 -2.32360
C 32.53642 4.08831 -2.86881
C 31.24356 4.77338 -2.48858
N 33.03385 4.38645 2.46061
C 33.85282 4.82018 1.39513
C 34.80167 5.80755 1.94938
C 34.48148 5.86314 3.31425
C 33.42221 4.95833 3.59490
C 35.82637 6.47591 1.22178
C 34.80580 6.47368 4.58341
O 35.55839 7.37704 4.94572
C 34.06181 5.67021 5.73550
C 33.39705 6.66851 6.64324
O 32.46615 7.38002 6.22636
O 33.81990 6.46708 7.90459
C 33.17999 7.42619 8.84398
H 30.10053 -0.02508 5.53298
H 30.01432 0.34338 -0.70147
H 34.36918 4.86520 -0.54983
H 32.91079 3.45071 7.62955
H 30.84346 1.54481 7.45409
H 33.78801 1.39390 6.95713
H 32.81482 0.23966 6.02174
H 32.71273 0.18532 7.75561
H 29.92852 3.73455 7.19220
H 30.94236 5.22313 7.15431
H 31.58352 3.77883 9.52295
H 29.90129 3.48254 9.26372
H 28.30985 -1.03369 5.06728
H 27.99787 -2.09420 3.73416
H 26.84974 -0.76595 4.02450
H 26.88058 -2.25120 1.81000
H 25.95524 -1.73014 0.28719
H 25.97604 -0.75168 1.78239
H 31.06937 1.88569 -2.43576
H 33.90973 2.70168 -2.08465
H 32.16791 0.07154 -3.23024
H 32.69641 -0.25290 -1.54162
H 33.69154 0.65265 -2.56403
H 32.37354 3.64229 -3.85303
H 33.31525 4.83553 -2.97876
H 30.48026 4.10222 -2.89355
H 31.18410 5.75957 -2.94457
H 31.11668 4.79824 -1.40003
H 35.80452 7.51172 1.53340
H 35.67898 6.37976 0.14809
H 36.70357 5.92213 1.56691
H 34.81285 5.07743 6.25906
H 33.98732 7.94461 9.37043
H 32.48378 6.82401 9.45751
H 32.63686 8.26047 8.41569
