79

Mg 31.53996 2.83324 2.40048
C 31.75282 -0.09315 0.33409
C 30.64724 0.77282 4.96803
C 30.90708 5.42027 4.12506
C 31.32381 4.71399 -0.52557
N 31.26984 0.64084 2.51286
C 31.43854 -0.37506 1.67989
C 31.33935 -1.77461 2.34397
C 30.44187 -1.37495 3.61428
C 30.83144 0.09686 3.73545
C 28.94840 -1.45308 3.34452
C 32.74033 -2.32900 2.78203
C 32.75697 -3.81335 3.15375
H 33.94195 -4.60031 2.82362
N 31.35468 3.05408 4.36402
C 31.00657 2.10694 5.26014
C 30.99239 2.77763 6.56939
C 31.19969 4.23520 6.35204
C 31.13977 4.29714 4.90544
C 30.87493 2.02964 7.86559
C 31.40366 5.38513 7.29132
O 31.32528 6.60118 6.89396
C 31.60523 5.04681 8.70780
N 30.95692 4.76181 1.88759
C 30.80039 5.70987 2.82812
C 30.64978 7.07703 2.20476
C 30.98114 6.88038 0.65263
C 31.18799 5.34999 0.62995
C 29.27468 7.72785 2.35284
C 32.09038 7.78519 0.04966
C 33.43245 7.42107 0.64266
N 31.72044 2.44220 0.28328
C 31.56844 3.36894 -0.77130
C 31.66808 2.61051 -2.03513
C 31.84958 1.28119 -1.62469
C 31.84196 1.21296 -0.20526
C 31.54215 3.15505 -3.34423
C 32.03524 -0.08130 -2.06947
O 32.20913 -0.62291 -3.16042
C 31.85431 -1.04929 -0.82181
C 32.99675 -2.02772 -0.82351
O 34.16325 -1.63766 -0.63977
O 32.50447 -3.27993 -0.82413
C 33.59945 -4.28628 -0.81472
H 30.14121 0.24648 5.77783
H 30.79308 6.35907 4.67200
H 31.36457 5.24146 -1.48097
H 30.83022 -2.52416 1.75005
H 30.74622 -1.92422 4.50143
H 28.73671 -1.65116 2.30428
H 28.54612 -0.49172 3.63608
H 28.48347 -2.18804 4.00784
H 33.01237 -1.88974 3.75043
H 33.47878 -2.13700 2.02807
H 31.84785 -4.33098 2.82434
H 32.73422 -3.89861 4.24290
H 30.57010 0.98846 7.70299
H 30.03934 2.47437 8.41683
H 31.77800 2.09974 8.47569
H 30.74721 4.48600 9.07078
H 31.82227 5.99351 9.20633
H 32.47267 4.38229 8.78876
H 31.35949 7.77616 2.62978
H 30.10607 7.08863 0.01961
H 29.31134 8.71874 2.84363
H 28.63538 7.05285 2.90620
H 28.72312 7.85857 1.42338
H 31.90935 8.83089 0.31023
H 32.15308 7.72903 -1.03196
H 33.44333 7.97405 1.58669
H 34.24026 7.74186 -0.01200
H 33.47867 6.35314 0.88564
H 32.32393 2.70811 -3.94387
H 31.62016 4.24020 -3.33265
H 30.53362 2.81871 -3.59919
H 30.88949 -1.54629 -0.92998
H 33.43817 -4.94197 -1.67597
H 33.56696 -4.75377 0.18735
H 34.60645 -3.93304 -1.00350
