158

Mg 0.00000 0.00000 0.00000
C -0.21700 -2.21800 2.80100
C -1.25500 2.44200 2.02600
C -0.24500 1.85000 -2.56400
C 0.14600 -2.82400 -2.03700
N -0.61700 -0.00900 2.12600
C -0.59400 -0.90800 3.10500
C -0.93600 -0.30900 4.50200
C -1.77300 0.96400 4.03200
C -1.15500 1.16800 2.66000
C -3.26300 0.68500 3.86300
C 0.34500 0.11000 5.29900
C 0.12400 0.39700 6.78700
H 1.16800 0.03300 7.73300
N -0.18500 1.96100 -0.15200
C -0.70300 2.80000 0.77700
C -0.62000 4.15600 0.19300
C -0.18700 4.01500 -1.22500
C -0.21400 2.58300 -1.38000
C -0.88700 5.40600 0.97400
C 0.18100 5.01300 -2.27700
O 0.30300 4.69000 -3.50800
C 0.31000 6.41400 -1.83700
N -0.26500 -0.41300 -2.02900
C -0.27900 0.56900 -2.93700
C -0.19600 0.02400 -4.33200
C 0.12400 -1.53300 -4.18000
C 0.08600 -1.63200 -2.63500
C -1.45100 0.20500 -5.19700
C 1.37300 -2.07000 -4.92300
C 2.62600 -1.49000 -4.30600
N 0.15000 -2.14400 0.30300
C 0.17300 -3.13600 -0.68800
C 0.17300 -4.43800 0.00400
C 0.13300 -4.11100 1.35800
C 0.08300 -2.69500 1.50200
C 0.14900 -5.71500 -0.62300
C 0.09600 -4.62900 2.71600
O 0.20800 -5.74700 3.22100
C -0.25500 -3.42800 3.70100
C 0.71700 -3.48200 4.84800
O 1.93100 -3.25500 4.66900
O 0.03800 -3.55600 6.00300
C 0.94300 -3.58300 7.18300
H -1.85900 3.22000 2.49700
H -0.21800 2.45300 -3.47400
H 0.27600 -3.74700 -2.60500
H -1.55400 -0.94900 5.13200
H -1.58500 1.83100 4.66500
H -3.48400 -0.37700 3.96900
H -3.51100 1.02700 2.85800
H -3.85200 1.30100 4.54300
H 0.66900 1.09600 4.96600
H 1.13000 -0.63900 5.18900
H -0.84400 0.02600 7.12500
H 0.06200 1.47700 6.92100
H -1.34400 5.18600 1.93800
H -1.65100 5.96300 0.43200
H 0.00700 6.02000 1.08400
H -0.63500 6.74400 -1.40500
H 0.66500 6.97000 -2.70400
H 1.04800 6.46600 -1.03600
H 0.60800 0.50100 -4.89100
H -0.69200 -2.15600 -4.54700
H -1.26700 0.74000 -6.12900
H -2.20400 0.71400 -4.59600
H -1.96700 -0.72000 -5.45300
H 1.35600 -1.75900 -5.96700
H 1.45200 -3.15700 -4.90200
H 2.71400 -0.52200 -4.79800
H 3.48700 -2.12100 -4.52900
H 2.49500 -1.30300 -3.24000
H 0.86700 -6.33300 -0.08400
H 0.40400 -5.64200 -1.68000
H -0.89100 -5.99900 -0.46300
H -1.28300 -3.58100 4.02800
H 0.69800 -4.47800 7.75500
H 0.83300 -2.61900 7.68000
H 2.00000 -3.75400 6.97600
Mg 13.13145 1.18818 1.00381
C 15.19821 2.40884 3.67168
C 11.28996 -0.43402 3.37278
C 11.56926 -0.26237 -1.34628
C 15.74409 1.93834 -1.17726
N 13.31866 1.07897 3.20501
C 14.10596 1.63385 4.11419
C 13.65283 1.40780 5.58155
C 12.79616 0.06690 5.36481
C 12.40970 0.25790 3.89960
C 13.62494 -1.20175 5.47871
C 12.75874 2.58017 6.11837
C 12.53703 2.57847 7.63250
H 12.45191 3.86135 8.32492
N 11.37898 0.25684 1.00968
C 10.76973 -0.32406 2.06450
C 9.51460 -0.88774 1.54385
C 9.51060 -0.73568 0.06346
C 10.85810 -0.24933 -0.15521
C 8.43196 -1.42374 2.43493
C 8.47089 -0.99825 -0.98356
O 8.76275 -1.02148 -2.23140
C 7.12016 -1.31960 -0.50009
N 13.66287 0.68401 -0.94189
C 12.77779 0.10535 -1.77238
C 13.29229 0.08836 -3.19202
C 14.60838 0.99689 -3.18292
C 14.67999 1.32348 -1.67507
C 13.62943 -1.28969 -3.76097
C 14.65915 2.17233 -4.19702
C 13.62909 3.21599 -3.82940
N 15.04152 2.18732 1.15018
C 15.99043 2.36866 0.12025
C 17.17842 3.00128 0.72925
C 16.84454 3.12407 2.08643
C 15.54852 2.58625 2.31133
C 18.38381 3.33465 0.04953
C 17.29801 3.57670 3.38188
O 18.28008 4.19440 3.79141
C 16.30312 3.01882 4.48883
C 15.94876 4.15427 5.40954
O 15.29819 5.12798 4.99091
O 16.24520 3.80472 6.67457
C 15.90126 4.89453 7.62633
H 10.78494 -1.16291 4.00725
H 11.03041 -0.65229 -2.21292
H 16.56172 2.29315 -1.80834
H 14.45831 1.22516 6.28270
H 11.91043 0.05791 5.99471
H 14.67939 -0.98732 5.56983
H 13.42975 -1.76284 4.57420
H 13.25653 -1.82003 6.30232
H 11.72660 2.42847 5.77717
H 13.15154 3.53007 5.81174
H 13.23341 1.90774 8.15031
H 11.55188 2.15294 7.83849
H 8.78725 -1.55677 3.46424
H 8.20864 -2.43955 2.09126
H 7.51800 -0.82745 2.39275
H 7.16412 -2.20131 0.13483
H 6.49785 -1.38663 -1.39458
H 6.76882 -0.49508 0.13026
H 12.56924 0.52399 -3.87064
H 15.50895 0.41193 -3.42087
H 13.07984 -1.52380 -4.69221
H 13.42403 -2.03217 -3.00132
H 14.68472 -1.45785 -3.96903
H 14.40020 1.81996 -5.19849
H 15.63406 2.64362 -4.26353
H 12.71007 2.82324 -4.27463
H 13.89299 4.18161 -4.25599
H 13.47889 3.25560 -2.74426
H 18.67251 4.31932 0.39243
H 18.25079 3.31195 -1.03009
H 19.03454 2.52904 0.39996
H 16.81578 2.21140 5.01307
H 16.81075 5.12586 8.18935
H 15.03244 4.52472 8.20264
H 15.65757 5.86503 7.21016
