158

Mg 0.00000 0.00000 0.00000
C -0.21700 -2.21800 2.80100
C -1.25500 2.44200 2.02600
C -0.24500 1.85000 -2.56400
C 0.14600 -2.82400 -2.03700
N -0.61700 -0.00900 2.12600
C -0.59400 -0.90800 3.10500
C -0.93600 -0.30900 4.50200
C -1.77300 0.96400 4.03200
C -1.15500 1.16800 2.66000
C -3.26300 0.68500 3.86300
C 0.34500 0.11000 5.29900
C 0.12400 0.39700 6.78700
H 1.16800 0.03300 7.73300
N -0.18500 1.96100 -0.15200
C -0.70300 2.80000 0.77700
C -0.62000 4.15600 0.19300
C -0.18700 4.01500 -1.22500
C -0.21400 2.58300 -1.38000
C -0.88700 5.40600 0.97400
C 0.18100 5.01300 -2.27700
O 0.30300 4.69000 -3.50800
C 0.31000 6.41400 -1.83700
N -0.26500 -0.41300 -2.02900
C -0.27900 0.56900 -2.93700
C -0.19600 0.02400 -4.33200
C 0.12400 -1.53300 -4.18000
C 0.08600 -1.63200 -2.63500
C -1.45100 0.20500 -5.19700
C 1.37300 -2.07000 -4.92300
C 2.62600 -1.49000 -4.30600
N 0.15000 -2.14400 0.30300
C 0.17300 -3.13600 -0.68800
C 0.17300 -4.43800 0.00400
C 0.13300 -4.11100 1.35800
C 0.08300 -2.69500 1.50200
C 0.14900 -5.71500 -0.62300
C 0.09600 -4.62900 2.71600
O 0.20800 -5.74700 3.22100
C -0.25500 -3.42800 3.70100
C 0.71700 -3.48200 4.84800
O 1.93100 -3.25500 4.66900
O 0.03800 -3.55600 6.00300
C 0.94300 -3.58300 7.18300
H -1.85900 3.22000 2.49700
H -0.21800 2.45300 -3.47400
H 0.27600 -3.74700 -2.60500
H -1.55400 -0.94900 5.13200
H -1.58500 1.83100 4.66500
H -3.48400 -0.37700 3.96900
H -3.51100 1.02700 2.85800
H -3.85200 1.30100 4.54300
H 0.66900 1.09600 4.96600
H 1.13000 -0.63900 5.18900
H -0.84400 0.02600 7.12500
H 0.06200 1.47700 6.92100
H -1.34400 5.18600 1.93800
H -1.65100 5.96300 0.43200
H 0.00700 6.02000 1.08400
H -0.63500 6.74400 -1.40500
H 0.66500 6.97000 -2.70400
H 1.04800 6.46600 -1.03600
H 0.60800 0.50100 -4.89100
H -0.69200 -2.15600 -4.54700
H -1.26700 0.74000 -6.12900
H -2.20400 0.71400 -4.59600
H -1.96700 -0.72000 -5.45300
H 1.35600 -1.75900 -5.96700
H 1.45200 -3.15700 -4.90200
H 2.71400 -0.52200 -4.79800
H 3.48700 -2.12100 -4.52900
H 2.49500 -1.30300 -3.24000
H 0.86700 -6.33300 -0.08400
H 0.40400 -5.64200 -1.68000
H -0.89100 -5.99900 -0.46300
H -1.28300 -3.58100 4.02800
H 0.69800 -4.47800 7.75500
H 0.83300 -2.61900 7.68000
H 2.00000 -3.75400 6.97600
Mg 31.52234 2.84150 2.39454
C 30.21089 0.02019 0.60587
C 30.46809 4.78766 -0.20077
C 33.05932 5.27689 3.72645
C 33.44250 0.59889 4.24639
N 30.48517 2.35114 0.50349
C 29.98214 1.25302 -0.04006
C 29.12065 1.49929 -1.30764
C 29.75398 2.90410 -1.75961
C 30.23797 3.40288 -0.39960
C 30.96097 2.75476 -2.67077
C 27.59359 1.63821 -0.97477
C 26.66240 1.57112 -2.18726
H 25.36014 0.92935 -2.03007
N 31.32476 4.79549 2.10910
C 30.85843 5.41331 1.00361
C 30.93226 6.85497 1.28701
C 31.63380 7.04233 2.58604
C 32.06090 5.68358 2.85334
C 30.29860 7.89117 0.40486
C 31.89033 8.24742 3.43936
O 32.72677 8.21938 4.41013
C 31.20347 9.48671 3.04711
N 33.18530 2.94911 3.63766
C 33.61510 4.12966 4.11670
C 34.64723 3.93491 5.20168
C 34.64420 2.36793 5.52124
C 33.63023 1.89453 4.45675
C 36.06785 4.38085 4.85619
C 34.41239 1.95161 6.99963
C 33.00150 2.29756 7.41807
N 31.66528 0.69295 2.57151
C 32.55525 -0.03831 3.38840
C 32.35368 -1.46892 3.07997
C 31.36892 -1.46949 2.08059
C 30.99843 -0.13257 1.77258
C 33.07007 -2.55384 3.65950
C 30.56623 -2.29658 1.20864
O 30.38560 -3.50712 1.08337
C 29.87164 -1.36354 0.12542
C 28.41788 -1.74219 0.04989
O 27.66541 -1.55805 1.02277
O 28.10943 -2.05464 -1.22196
C 26.67512 -2.42646 -1.34975
H 30.38290 5.45608 -1.05800
H 33.54401 6.07522 4.29322
H 33.93262 -0.16762 4.85047
H 29.24788 0.76414 -2.09322
H 28.99382 3.56912 -2.16118
H 31.26647 1.72366 -2.76902
H 31.74814 3.34076 -2.21468
H 30.76149 3.22058 -3.64007
H 27.39203 2.66377 -0.63958
H 27.29405 0.90807 -0.24826
H 27.17388 1.18924 -3.07917
H 26.37316 2.58911 -2.45941
H 29.99778 7.46746 -0.56125
H 31.07940 8.61661 0.15200
H 29.47496 8.41482 0.89483
H 31.48515 9.74938 2.03019
H 31.44114 10.21215 3.82758
H 30.12382 9.29997 3.03635
H 34.37276 4.47695 6.09832
H 35.60659 1.89881 5.26910
H 36.47535 5.12716 5.56403
H 36.06660 4.77387 3.84818
H 36.80062 3.57840 4.79037
H 35.07832 2.51260 7.65992
H 34.58909 0.89725 7.18423
H 33.07674 3.35487 7.68918
H 32.69514 1.69269 8.26914
H 32.31017 2.22294 6.57062
H 32.34233 -3.32143 3.88683
H 33.61165 -2.24208 4.55016
H 33.74406 -2.80457 2.83601
H 30.38614 -1.52342 -0.82290
H 26.64222 -3.42069 -1.80594
H 26.20082 -1.59909 -1.91033
H 26.11759 -2.59458 -0.43578
