79

Mg 31.53256 2.83880 2.39533
C 30.91398 5.65339 4.51846
C 30.67257 4.82707 -0.24101
C 31.63146 0.25721 0.55624
C 31.23583 0.82611 5.22494
N 30.89440 4.95546 2.28064
C 30.75517 5.94163 3.16113
C 30.49858 7.32874 2.49973
C 29.89031 6.83658 1.11056
C 30.55174 5.47232 1.02551
C 28.37706 6.64776 1.14079
C 31.82058 8.14131 2.29052
C 31.63042 9.62361 1.95591
H 32.58705 10.58772 2.47812
N 31.67696 2.66890 0.43239
C 31.29279 3.58362 -0.49010
C 31.60700 2.99043 -1.80770
C 32.02946 1.58011 -1.58269
C 31.76771 1.43583 -0.17342
C 31.54038 3.75769 -3.09246
C 32.57163 0.52597 -2.49536
O 32.65479 -0.70056 -2.14422
C 32.92505 0.95696 -3.86005
N 31.22979 0.80937 2.77921
C 31.39070 -0.10632 1.81764
C 31.40081 -1.49568 2.38290
C 31.45644 -1.32691 3.96978
C 31.38205 0.21808 4.04554
C 30.20473 -2.38050 2.00542
C 32.60900 -2.04720 4.71356
C 33.93246 -1.41627 4.34275
N 31.32132 3.16058 4.53142
C 31.19285 2.17774 5.52348
C 30.96800 2.87973 6.80048
C 30.96473 4.23042 6.45773
C 31.14806 4.36269 5.05161
C 30.74115 2.26235 8.06215
C 30.82441 5.59169 6.94875
O 30.74296 6.10694 8.06471
C 30.66413 6.56207 5.69634
C 31.59843 7.72369 5.89891
O 32.83553 7.56089 5.87778
O 30.90127 8.86907 5.84785
C 31.77354 10.06248 6.01237
H 30.19958 5.28305 -1.11296
H 31.77005 -0.65693 -0.02476
H 31.21869 0.26726 6.16241
H 29.77479 7.95448 3.02223
H 30.21090 7.46556 0.28030
H 27.98182 6.75870 2.15044
H 28.20251 5.63659 0.77261
H 27.88925 7.31419 0.42898
H 32.30782 7.80550 1.37515
H 32.47207 8.04872 3.16018
H 30.60994 9.95014 2.15815
H 31.74639 9.74832 0.87924
H 31.04049 4.71651 -2.96087
H 30.88646 3.20017 -3.76274
H 32.52219 3.87613 -3.55111
H 32.04211 1.37238 -4.34624
H 33.37872 0.09102 -4.34085
H 33.65076 1.76835 -3.79726
H 32.28007 -2.04642 2.05122
H 30.55347 -1.70109 4.45280
H 30.48717 -3.31379 1.51767
H 29.53852 -1.79465 1.37277
H 29.54609 -2.63692 2.83479
H 32.65762 -3.09371 4.41458
H 32.50658 -2.01662 5.79838
H 34.18611 -1.91440 3.40768
H 34.67993 -1.62163 5.10977
H 33.82009 -0.35380 4.12591
H 31.33964 2.81667 8.78500
H 31.01874 1.20870 8.04303
H 29.66644 2.40917 8.16848
H 29.62073 6.87502 5.67378
H 31.37610 10.63772 6.84866
H 31.81814 10.55032 5.03849
H 32.79027 9.87245 6.35803
