79

Mg 15.76325 1.42773 1.20348
C 17.95043 1.11108 4.03103
C 13.15258 1.13036 3.37847
C 13.82493 1.25142 -1.30237
C 18.47076 0.56075 -0.81232
N 15.68864 1.16055 3.39786
C 16.58239 1.11581 4.37436
C 15.97659 1.15478 5.80301
C 14.51509 0.58443 5.46012
C 14.42292 1.01215 3.99682
C 14.43125 -0.93169 5.52076
C 15.90352 2.61140 6.38175
C 15.61255 2.69353 7.88186
H 16.24542 3.75750 8.65639
N 13.80301 1.70916 1.07382
C 12.89345 1.56666 2.06058
C 11.58865 1.86800 1.45161
C 11.78327 2.03926 -0.01382
C 13.17149 1.64410 -0.14333
C 10.33559 2.04595 2.25884
C 10.86746 2.47304 -1.11805
O 11.18086 2.32112 -2.35156
C 9.55395 2.99501 -0.71342
N 16.03906 0.76818 -0.74877
C 15.04671 0.84892 -1.65246
C 15.55598 0.57613 -3.04768
C 17.14974 0.53312 -2.92252
C 17.28836 0.70744 -1.39420
C 15.06152 -0.71710 -3.69532
C 17.95449 1.48350 -3.85088
C 17.70868 2.92168 -3.45517
N 17.87921 1.10335 1.49598
C 18.82659 0.72233 0.52060
C 20.11119 0.51345 1.21960
C 19.81425 0.76709 2.56719
C 18.43690 1.09015 2.70150
C 21.32891 0.09299 0.61422
C 20.35040 0.82461 3.90806
O 21.47478 0.73133 4.39877
C 19.13944 0.92643 4.93257
C 19.45191 2.02305 5.91354
O 19.52891 3.20556 5.53624
O 19.39318 1.52669 7.16276
C 19.68502 2.57936 8.17199
H 12.27117 0.82006 3.94035
H 13.22522 1.28147 -2.21501
H 19.38470 0.38470 -1.38362
H 16.46776 0.51058 6.52242
H 13.74912 1.07977 6.05113
H 15.40088 -1.38319 5.66944
H 14.01114 -1.24123 4.57274
H 13.71102 -1.23916 6.28434
H 15.00703 3.10818 5.98899
H 16.79997 3.15600 6.15719
H 15.74291 1.72544 8.38063
H 14.55321 2.92452 8.01773
H 10.46862 1.69700 3.29031
H 9.58495 1.36850 1.83759
H 9.95115 3.06741 2.22017
H 9.02571 2.23768 -0.13907
H 9.07832 3.33574 -1.63514
H 9.70782 3.84796 -0.04304
H 15.27803 1.37521 -3.72393
H 17.55060 -0.46256 -3.16288
H 14.54926 -0.55295 -4.66213
H 14.40464 -1.21893 -2.99732
H 15.82941 -1.46855 -3.87101
H 17.61246 1.38302 -4.88387
H 19.02217 1.29111 -3.84499
H 16.76970 3.16046 -3.96350
H 18.51916 3.55872 -3.80351
H 17.53109 3.00836 -2.37693
H 22.11408 0.70679 1.03524
H 21.28754 0.18678 -0.46895
H 21.35564 -0.95181 0.93505
H 19.04098 -0.04385 5.42087
H 20.51299 2.21224 8.78629
H 18.72500 2.77519 8.68558
H 20.08815 3.51930 7.81359
