158

Mg 0.00000 0.00000 0.00000
C -0.21700 -2.21800 2.80100
C -1.25500 2.44200 2.02600
C -0.24500 1.85000 -2.56400
C 0.14600 -2.82400 -2.03700
N -0.61700 -0.00900 2.12600
C -0.59400 -0.90800 3.10500
C -0.93600 -0.30900 4.50200
C -1.77300 0.96400 4.03200
C -1.15500 1.16800 2.66000
C -3.26300 0.68500 3.86300
C 0.34500 0.11000 5.29900
C 0.12400 0.39700 6.78700
H 1.16800 0.03300 7.73300
N -0.18500 1.96100 -0.15200
C -0.70300 2.80000 0.77700
C -0.62000 4.15600 0.19300
C -0.18700 4.01500 -1.22500
C -0.21400 2.58300 -1.38000
C -0.88700 5.40600 0.97400
C 0.18100 5.01300 -2.27700
O 0.30300 4.69000 -3.50800
C 0.31000 6.41400 -1.83700
N -0.26500 -0.41300 -2.02900
C -0.27900 0.56900 -2.93700
C -0.19600 0.02400 -4.33200
C 0.12400 -1.53300 -4.18000
C 0.08600 -1.63200 -2.63500
C -1.45100 0.20500 -5.19700
C 1.37300 -2.07000 -4.92300
C 2.62600 -1.49000 -4.30600
N 0.15000 -2.14400 0.30300
C 0.17300 -3.13600 -0.68800
C 0.17300 -4.43800 0.00400
C 0.13300 -4.11100 1.35800
C 0.08300 -2.69500 1.50200
C 0.14900 -5.71500 -0.62300
C 0.09600 -4.62900 2.71600
O 0.20800 -5.74700 3.22100
C -0.25500 -3.42800 3.70100
C 0.71700 -3.48200 4.84800
O 1.93100 -3.25500 4.66900
O 0.03800 -3.55600 6.00300
C 0.94300 -3.58300 7.18300
H -1.85900 3.22000 2.49700
H -0.21800 2.45300 -3.47400
H 0.27600 -3.74700 -2.60500
H -1.55400 -0.94900 5.13200
H -1.58500 1.83100 4.66500
H -3.48400 -0.37700 3.96900
H -3.51100 1.02700 2.85800
H -3.85200 1.30100 4.54300
H 0.66900 1.09600 4.96600
H 1.13000 -0.63900 5.18900
H -0.84400 0.02600 7.12500
H 0.06200 1.47700 6.92100
H -1.34400 5.18600 1.93800
H -1.65100 5.96300 0.43200
H 0.00700 6.02000 1.08400
H -0.63500 6.74400 -1.40500
H 0.66500 6.97000 -2.70400
H 1.04800 6.46600 -1.03600
H 0.60800 0.50100 -4.89100
H -0.69200 -2.15600 -4.54700
H -1.26700 0.74000 -6.12900
H -2.20400 0.71400 -4.59600
H -1.96700 -0.72000 -5.45300
H 1.35600 -1.75900 -5.96700
H 1.45200 -3.15700 -4.90200
H 2.71400 -0.52200 -4.79800
H 3.48700 -2.12100 -4.52900
H 2.49500 -1.30300 -3.24000
H 0.86700 -6.33300 -0.08400
H 0.40400 -5.64200 -1.68000
H -0.89100 -5.99900 -0.46300
H -1.28300 -3.58100 4.02800
H 0.69800 -4.47800 7.75500
H 0.83300 -2.61900 7.68000
H 2.00000 -3.75400 6.97600
Mg 15.75641 1.42248 1.19999
C 13.87092 -1.38145 -0.00914
C 14.00994 3.35579 -1.00155
C 17.70316 3.82316 1.91711
C 18.08672 -0.85487 2.43654
N 14.17044 0.93482 -0.26260
C 13.49087 -0.15379 -0.59041
C 12.28717 0.10012 -1.53708
C 12.79168 1.47044 -2.20532
C 13.68778 1.97716 -1.07708
C 13.65223 1.25702 -3.43952
C 10.94310 0.30392 -0.75352
C 9.68073 0.24853 -1.61672
H 8.47230 -0.33971 -1.04563
N 15.53940 3.37656 0.92971
C 14.77268 3.98976 0.00375
C 14.97421 5.43287 0.20619
C 16.04875 5.61893 1.21884
C 16.49630 4.25039 1.38278
C 14.13026 6.47489 -0.46862
C 16.59318 6.82998 1.91395
O 17.68780 6.78917 2.57950
C 15.85647 8.08664 1.71506
N 17.72495 1.49096 1.86517
C 18.31746 2.66346 2.15172
C 19.62837 2.45088 2.87056
C 19.67699 0.89179 3.22334
C 18.36947 0.43655 2.53885
C 20.88507 2.83520 2.08993
C 19.90173 0.51399 4.71311
C 18.70082 0.92188 5.53581
N 15.88202 -0.72605 1.38998
C 16.95859 -1.47451 1.91428
C 16.62824 -2.90219 1.72714
C 15.38294 -2.88486 1.08105
C 14.97594 -1.54110 0.86160
C 17.45567 -4.00203 2.09021
C 14.32511 -3.69773 0.52524
O 14.07803 -4.90272 0.49901
C 13.35789 -2.76042 -0.31876
C 11.94140 -3.08459 0.06979
O 11.53299 -2.85258 1.22130
O 11.24507 -3.41012 -1.03454
C 9.83110 -3.72925 -0.70189
H 13.68384 4.00988 -1.81069
H 18.36342 4.61343 2.28183
H 18.71633 -1.62746 2.88303
H 12.14265 -0.65477 -2.30065
H 11.96504 2.15598 -2.37283
H 13.88096 0.21325 -3.59562
H 14.55927 1.82139 -3.26688
H 13.17668 1.71085 -4.31372
H 10.88634 1.34288 -0.40410
H 10.86122 -0.39969 0.05199
H 9.87918 -0.17023 -2.61080
H 9.35240 1.27125 -1.81737
H 13.53246 6.04396 -1.28123
H 14.81601 7.16478 -0.97227
H 13.51500 7.03927 0.23536
H 15.81733 8.31815 0.65331
H 16.34591 8.81775 2.36144
H 14.82140 7.94116 2.04382
H 19.66148 3.02066 3.79107
H 20.49939 0.38129 2.70095
H 21.51406 3.57924 2.61419
H 20.58373 3.20795 1.11998
H 21.53683 2.00416 1.82577
H 20.75601 1.06205 5.11808
H 20.09490 -0.54250 4.86640
H 18.88826 1.98070 5.73792
H 18.65482 0.34615 6.45801
H 17.77920 0.85701 4.94586
H 16.81116 -4.73657 2.55450
H 18.25553 -3.69366 2.76021
H 17.83371 -4.29462 1.10698
H 13.54846 -2.95861 -1.37421
H 9.62853 -4.73033 -1.09494
H 9.23183 -2.89560 -1.11377
H 9.57907 -3.85779 0.34425
