158

Mg 0.00000 0.00000 0.00000
C -0.21700 -2.21800 2.80100
C -1.25500 2.44200 2.02600
C -0.24500 1.85000 -2.56400
C 0.14600 -2.82400 -2.03700
N -0.61700 -0.00900 2.12600
C -0.59400 -0.90800 3.10500
C -0.93600 -0.30900 4.50200
C -1.77300 0.96400 4.03200
C -1.15500 1.16800 2.66000
C -3.26300 0.68500 3.86300
C 0.34500 0.11000 5.29900
C 0.12400 0.39700 6.78700
H 1.16800 0.03300 7.73300
N -0.18500 1.96100 -0.15200
C -0.70300 2.80000 0.77700
C -0.62000 4.15600 0.19300
C -0.18700 4.01500 -1.22500
C -0.21400 2.58300 -1.38000
C -0.88700 5.40600 0.97400
C 0.18100 5.01300 -2.27700
O 0.30300 4.69000 -3.50800
C 0.31000 6.41400 -1.83700
N -0.26500 -0.41300 -2.02900
C -0.27900 0.56900 -2.93700
C -0.19600 0.02400 -4.33200
C 0.12400 -1.53300 -4.18000
C 0.08600 -1.63200 -2.63500
C -1.45100 0.20500 -5.19700
C 1.37300 -2.07000 -4.92300
C 2.62600 -1.49000 -4.30600
N 0.15000 -2.14400 0.30300
C 0.17300 -3.13600 -0.68800
C 0.17300 -4.43800 0.00400
C 0.13300 -4.11100 1.35800
C 0.08300 -2.69500 1.50200
C 0.14900 -5.71500 -0.62300
C 0.09600 -4.62900 2.71600
O 0.20800 -5.74700 3.22100
C -0.25500 -3.42800 3.70100
C 0.71700 -3.48200 4.84800
O 1.93100 -3.25500 4.66900
O 0.03800 -3.55600 6.00300
C 0.94300 -3.58300 7.18300
H -1.85900 3.22000 2.49700
H -0.21800 2.45300 -3.47400
H 0.27600 -3.74700 -2.60500
H -1.55400 -0.94900 5.13200
H -1.58500 1.83100 4.66500
H -3.48400 -0.37700 3.96900
H -3.51100 1.02700 2.85800
H -3.85200 1.30100 4.54300
H 0.66900 1.09600 4.96600
H 1.13000 -0.63900 5.18900
H -0.84400 0.02600 7.12500
H 0.06200 1.47700 6.92100
H -1.34400 5.18600 1.93800
H -1.65100 5.96300 0.43200
H 0.00700 6.02000 1.08400
H -0.63500 6.74400 -1.40500
H 0.66500 6.97000 -2.70400
H 1.04800 6.46600 -1.03600
H 0.60800 0.50100 -4.89100
H -0.69200 -2.15600 -4.54700
H -1.26700 0.74000 -6.12900
H -2.20400 0.71400 -4.59600
H -1.96700 -0.72000 -5.45300
H 1.35600 -1.75900 -5.96700
H 1.45200 -3.15700 -4.90200
H 2.71400 -0.52200 -4.79800
H 3.48700 -2.12100 -4.52900
H 2.49500 -1.30300 -3.24000
H 0.86700 -6.33300 -0.08400
H 0.40400 -5.64200 -1.68000
H -0.89100 -5.99900 -0.46300
H -1.28300 -3.58100 4.02800
H 0.69800 -4.47800 7.75500
H 0.83300 -2.61900 7.68000
H 2.00000 -3.75400 6.97600
Mg 10.51771 0.95376 0.79541
C 9.89494 3.47998 3.26715
C 9.60714 3.24598 -1.56069
C 10.62186 -1.37008 -1.36244
C 10.26738 -1.40742 3.34647
N 9.85703 3.05849 0.95631
C 9.71749 3.93138 1.94269
C 9.44683 5.38789 1.47915
C 8.82027 5.06828 0.03549
C 9.49286 3.72309 -0.23050
C 7.31634 4.85248 0.06654
C 10.76431 6.23166 1.35951
C 10.55095 7.73984 1.21240
H 11.51095 8.64317 1.84077
N 10.64371 1.04315 -1.18315
C 10.24741 2.05869 -1.97870
C 10.53643 1.62775 -3.35526
C 10.98340 0.20874 -3.31848
C 10.74181 -0.10769 -1.92507
C 10.45595 2.55590 -4.53232
C 11.52506 -0.71493 -4.36711
O 11.62435 -1.97697 -4.16653
C 11.84832 -0.11182 -5.66836
N 10.24473 -1.10323 0.92423
C 10.39783 -1.88989 -0.15542
C 10.42487 -3.34912 0.23231
C 10.50097 -3.36789 1.82963
C 10.41082 -1.85087 2.10512
C 9.22974 -4.18248 -0.22983
C 11.66924 -4.16713 2.46919
C 12.98613 -3.49152 2.16141
N 10.33425 1.00278 2.94762
C 10.21884 -0.10223 3.81924
C 10.00254 0.43576 5.17799
C 9.98398 1.82703 4.99771
C 10.15503 2.13383 3.62071
C 9.80619 -0.33698 6.35716
C 9.84796 3.10556 5.65768
O 9.76804 3.47456 6.82866
C 9.65774 4.22874 4.54922
C 10.58456 5.36705 4.87755
O 11.81757 5.21133 4.83239
O 9.86967 6.50252 4.97760
C 10.74655 7.66202 5.29136
H 9.12486 3.81200 -2.35812
H 10.76154 -2.20777 -2.04964
H 10.27764 -2.07590 4.21000
H 8.73029 5.93118 2.08345
H 9.13243 5.80311 -0.70204
H 6.93289 4.83291 1.07585
H 7.14542 3.90193 -0.42161
H 6.81499 5.60301 -0.55127
H 11.24222 6.01460 0.39555
H 11.41722 6.03822 2.18831
H 9.52464 8.03703 1.46001
H 10.65954 8.00443 0.15778
H 9.94134 3.48960 -4.27388
H 9.80117 2.08021 -5.27045
H 11.42989 2.74032 -4.99068
H 10.95691 0.35367 -6.08207
H 12.30501 -0.91095 -6.25547
H 12.57789 0.69034 -5.51060
H 11.30427 -3.83917 -0.16719
H 9.60361 -3.82203 2.27499
H 9.51823 -5.05555 -0.84512
H 8.55524 -3.53763 -0.77733
H 8.59254 -4.55855 0.56876
H 11.72526 -5.16849 2.03526
H 11.57386 -4.28647 3.54328
H 13.22813 -3.86619 1.16233
H 13.74416 -3.78175 2.88611
H 12.86264 -2.40498 2.08502
H 10.40168 0.12376 7.13409
H 10.08808 -1.37645 6.20284
H 8.72736 -0.21959 6.48988
H 8.61096 4.53442 4.56883
H 10.35004 8.12583 6.19985
H 10.76192 8.28154 4.37500
H 11.76726 7.45239 5.58911
