79

Mg 7.88412 0.71227 0.58860
C 10.28074 -1.72848 -0.49676
C 10.11710 3.10895 -0.36235
C 5.99350 2.87047 1.94329
C 6.37377 -1.80779 2.46312
N 9.90443 0.58228 -0.30229
C 10.68745 -0.39777 -0.72744
C 11.94104 0.07470 -1.51156
C 12.06213 1.55538 -0.90183
C 10.59944 1.78603 -0.52767
C 12.89532 1.61723 0.36755
C 11.69854 0.10976 -3.06139
C 12.96468 0.26265 -3.90712
H 13.03070 -0.42734 -5.19243
N 7.79475 2.67901 0.33856
C 8.78852 3.49258 -0.07594
C 8.22361 4.85090 -0.07416
C 6.86586 4.79345 0.53242
C 6.83979 3.41887 0.99061
C 8.92908 6.02637 -0.68571
C 5.77675 5.81131 0.68733
O 4.77248 5.61088 1.45810
C 5.96717 7.08759 -0.01719
N 6.52726 0.60987 2.16047
C 5.79648 1.68179 2.51385
C 4.69904 1.29989 3.47831
C 4.69370 -0.29899 3.51181
C 5.90068 -0.57548 2.58869
C 4.84700 1.83799 4.90132
C 3.34619 -1.00500 3.19806
C 2.97106 -0.78133 1.75078
N 8.12162 -1.42492 0.79849
C 7.40173 -2.28275 1.65871
C 7.99818 -3.62823 1.53080
C 9.04673 -3.45359 0.61510
C 9.11281 -2.09104 0.21686
C 7.59222 -4.78962 2.24669
C 10.11944 -4.10993 -0.09709
O 10.49214 -5.27553 -0.22434
C 11.04616 -2.99713 -0.75227
C 11.29916 -3.38669 -2.18291
O 10.36598 -3.41620 -3.00444
O 12.62647 -3.44816 -2.39473
C 12.92783 -3.82024 -3.80277
H 10.83065 3.93172 -0.41512
H 5.24784 3.55172 2.35966
H 5.89777 -2.66724 2.94004
H 12.84414 -0.48723 -1.30561
H 12.37946 2.26907 -1.65768
H 13.17134 0.63331 0.71663
H 12.27766 2.11930 1.10067
H 13.76642 2.26102 0.21570
H 11.18439 1.04374 -3.32232
H 11.15270 -0.75645 -3.38132
H 13.87482 0.07680 -3.32398
H 13.05230 1.30744 -4.21497
H 9.97863 5.79552 -0.90608
H 8.97789 6.80530 0.08290
H 8.40679 6.42355 -1.55871
H 6.88989 7.55281 0.32137
H 5.04463 7.64941 0.14140
H 6.09222 6.88187 -1.08614
H 3.73579 1.64721 3.12529
H 4.96270 -0.68662 4.50540
H 3.97913 2.43855 5.23329
H 5.75589 2.42266 4.95237
H 5.01566 1.08155 5.66588
H 2.54248 -0.57067 3.79770
H 3.35944 -2.07069 3.40084
H 2.49336 0.20283 1.76892
H 2.27935 -1.54961 1.41119
H 3.86436 -0.70257 1.12032
H 7.57281 -5.60358 1.53423
H 6.62102 -4.64800 2.71623
H 8.39803 -4.85676 2.98251
H 11.96776 -2.95420 -0.17056
H 13.57111 -4.70495 -3.76875
H 13.34822 -2.90940 -4.26903
H 12.10718 -4.17878 -4.41304
