158

Mg 0.00000 0.00000 0.00000
C -0.21700 -2.21800 2.80100
C -1.25500 2.44200 2.02600
C -0.24500 1.85000 -2.56400
C 0.14600 -2.82400 -2.03700
N -0.61700 -0.00900 2.12600
C -0.59400 -0.90800 3.10500
C -0.93600 -0.30900 4.50200
C -1.77300 0.96400 4.03200
C -1.15500 1.16800 2.66000
C -3.26300 0.68500 3.86300
C 0.34500 0.11000 5.29900
C 0.12400 0.39700 6.78700
H 1.16800 0.03300 7.73300
N -0.18500 1.96100 -0.15200
C -0.70300 2.80000 0.77700
C -0.62000 4.15600 0.19300
C -0.18700 4.01500 -1.22500
C -0.21400 2.58300 -1.38000
C -0.88700 5.40600 0.97400
C 0.18100 5.01300 -2.27700
O 0.30300 4.69000 -3.50800
C 0.31000 6.41400 -1.83700
N -0.26500 -0.41300 -2.02900
C -0.27900 0.56900 -2.93700
C -0.19600 0.02400 -4.33200
C 0.12400 -1.53300 -4.18000
C 0.08600 -1.63200 -2.63500
C -1.45100 0.20500 -5.19700
C 1.37300 -2.07000 -4.92300
C 2.62600 -1.49000 -4.30600
N 0.15000 -2.14400 0.30300
C 0.17300 -3.13600 -0.68800
C 0.17300 -4.43800 0.00400
C 0.13300 -4.11100 1.35800
C 0.08300 -2.69500 1.50200
C 0.14900 -5.71500 -0.62300
C 0.09600 -4.62900 2.71600
O 0.20800 -5.74700 3.22100
C -0.25500 -3.42800 3.70100
C 0.71700 -3.48200 4.84800
O 1.93100 -3.25500 4.66900
O 0.03800 -3.55600 6.00300
C 0.94300 -3.58300 7.18300
H -1.85900 3.22000 2.49700
H -0.21800 2.45300 -3.47400
H 0.27600 -3.74700 -2.60500
H -1.55400 -0.94900 5.13200
H -1.58500 1.83100 4.66500
H -3.48400 -0.37700 3.96900
H -3.51100 1.02700 2.85800
H -3.85200 1.30100 4.54300
H 0.66900 1.09600 4.96600
H 1.13000 -0.63900 5.18900
H -0.84400 0.02600 7.12500
H 0.06200 1.47700 6.92100
H -1.34400 5.18600 1.93800
H -1.65100 5.96300 0.43200
H 0.00700 6.02000 1.08400
H -0.63500 6.74400 -1.40500
H 0.66500 6.97000 -2.70400
H 1.04800 6.46600 -1.03600
H 0.60800 0.50100 -4.89100
H -0.69200 -2.15600 -4.54700
H -1.26700 0.74000 -6.12900
H -2.20400 0.71400 -4.59600
H -1.96700 -0.72000 -5.45300
H 1.35600 -1.75900 -5.96700
H 1.45200 -3.15700 -4.90200
H 2.71400 -0.52200 -4.79800
H 3.48700 -2.12100 -4.52900
H 2.49500 -1.30300 -3.24000
H 0.86700 -6.33300 -0.08400
H 0.40400 -5.64200 -1.68000
H -0.89100 -5.99900 -0.46300
H -1.28300 -3.58100 4.02800
H 0.69800 -4.47800 7.75500
H 0.83300 -2.61900 7.68000
H 2.00000 -3.75400 6.97600
Mg 15.76628 1.41940 1.19766
C 15.30467 1.28882 4.74479
C 14.58824 4.61975 1.31181
C 15.73518 1.40561 -1.97337
C 15.81501 -2.06522 1.22411
N 15.06868 2.68373 2.87560
C 14.99825 2.53552 4.19478
C 14.64063 3.85263 4.94625
C 13.90288 4.62532 3.76275
C 14.58460 3.96327 2.57832
C 12.40604 4.34136 3.68967
C 15.91359 4.62589 5.42936
C 15.65380 5.74166 6.44569
H 16.63610 5.97761 7.49296
N 15.70924 2.91696 -0.08955
C 15.20896 4.15635 0.13163
C 15.39828 4.90348 -1.13037
C 15.87586 3.94101 -2.16170
C 15.76607 2.69490 -1.44718
C 15.17951 6.38025 -1.25304
C 16.34520 4.11529 -3.57148
O 16.49413 3.12486 -4.36611
C 16.54384 5.50178 -4.03107
N 15.55433 -0.10396 -0.21375
C 15.63616 0.15287 -1.52383
C 15.73873 -1.11239 -2.32292
C 15.95547 -2.28770 -1.26394
C 15.85207 -1.45475 0.03751
C 14.53154 -1.44240 -3.21162
C 17.19639 -3.19371 -1.46315
C 18.45831 -2.39601 -1.22167
N 15.77126 -0.13574 2.71179
C 15.77075 -1.52158 2.49704
C 15.66341 -2.16368 3.82001
C 15.59178 -1.09969 4.71703
C 15.62420 0.12913 3.99783
C 15.58437 -3.56337 4.06306
C 15.47057 -0.71519 6.11392
O 15.49353 -1.32227 7.18557
C 15.15715 0.84474 6.17886
C 16.07914 1.45140 7.20121
O 17.31086 1.49561 7.00557
O 15.35298 2.09195 8.13016
C 16.20856 2.74171 9.15873
H 14.01600 5.54200 1.19369
H 15.83447 1.35435 -3.05963
H 15.90924 -3.14869 1.31716
H 13.96038 3.72501 5.78851
H 14.11983 5.69324 3.77652
H 12.11569 3.55313 4.38415
H 12.21852 4.03100 2.66156
H 11.83068 5.25583 3.83627
H 16.31067 5.21601 4.60344
H 16.65427 3.93512 5.83378
H 14.65239 5.66836 6.87078
H 15.65380 6.69381 5.91503
H 14.67304 6.78419 -0.37733
H 14.47291 6.53076 -2.06899
H 16.10498 6.91603 -1.46464
H 15.60522 6.04890 -3.94048
H 16.96569 5.42897 -5.03287
H 17.25232 5.99619 -3.36582
H 16.59165 -1.07949 -2.99958
H 15.11711 -2.98454 -1.24902
H 14.78404 -1.56581 -4.26505
H 13.78902 -0.65638 -3.07694
H 13.96938 -2.32563 -2.90947
H 17.23883 -3.55844 -2.48888
H 17.20695 -4.06051 -0.80224
H 18.62502 -1.90777 -2.18118
H 19.28645 -3.06035 -0.97256
H 18.29830 -1.61244 -0.48079
H 16.24141 -3.76360 4.90932
H 15.88383 -4.13525 3.18507
H 14.52338 -3.66955 4.28863
H 14.10984 0.94248 6.46294
H 15.88673 2.36389 10.12924
H 16.13955 3.81582 8.98569
H 17.26009 2.45258 9.16373
