158

Mg 0.00000 0.00000 0.00000
C -0.21700 -2.21800 2.80100
C -1.25500 2.44200 2.02600
C -0.24500 1.85000 -2.56400
C 0.14600 -2.82400 -2.03700
N -0.61700 -0.00900 2.12600
C -0.59400 -0.90800 3.10500
C -0.93600 -0.30900 4.50200
C -1.77300 0.96400 4.03200
C -1.15500 1.16800 2.66000
C -3.26300 0.68500 3.86300
C 0.34500 0.11000 5.29900
C 0.12400 0.39700 6.78700
H 1.16800 0.03300 7.73300
N -0.18500 1.96100 -0.15200
C -0.70300 2.80000 0.77700
C -0.62000 4.15600 0.19300
C -0.18700 4.01500 -1.22500
C -0.21400 2.58300 -1.38000
C -0.88700 5.40600 0.97400
C 0.18100 5.01300 -2.27700
O 0.30300 4.69000 -3.50800
C 0.31000 6.41400 -1.83700
N -0.26500 -0.41300 -2.02900
C -0.27900 0.56900 -2.93700
C -0.19600 0.02400 -4.33200
C 0.12400 -1.53300 -4.18000
C 0.08600 -1.63200 -2.63500
C -1.45100 0.20500 -5.19700
C 1.37300 -2.07000 -4.92300
C 2.62600 -1.49000 -4.30600
N 0.15000 -2.14400 0.30300
C 0.17300 -3.13600 -0.68800
C 0.17300 -4.43800 0.00400
C 0.13300 -4.11100 1.35800
C 0.08300 -2.69500 1.50200
C 0.14900 -5.71500 -0.62300
C 0.09600 -4.62900 2.71600
O 0.20800 -5.74700 3.22100
C -0.25500 -3.42800 3.70100
C 0.71700 -3.48200 4.84800
O 1.93100 -3.25500 4.66900
O 0.03800 -3.55600 6.00300
C 0.94300 -3.58300 7.18300
H -1.85900 3.22000 2.49700
H -0.21800 2.45300 -3.47400
H 0.27600 -3.74700 -2.60500
H -1.55400 -0.94900 5.13200
H -1.58500 1.83100 4.66500
H -3.48400 -0.37700 3.96900
H -3.51100 1.02700 2.85800
H -3.85200 1.30100 4.54300
H 0.66900 1.09600 4.96600
H 1.13000 -0.63900 5.18900
H -0.84400 0.02600 7.12500
H 0.06200 1.47700 6.92100
H -1.34400 5.18600 1.93800
H -1.65100 5.96300 0.43200
H 0.00700 6.02000 1.08400
H -0.63500 6.74400 -1.40500
H 0.66500 6.97000 -2.70400
H 1.04800 6.46600 -1.03600
H 0.60800 0.50100 -4.89100
H -0.69200 -2.15600 -4.54700
H -1.26700 0.74000 -6.12900
H -2.20400 0.71400 -4.59600
H -1.96700 -0.72000 -5.45300
H 1.35600 -1.75900 -5.96700
H 1.45200 -3.15700 -4.90200
H 2.71400 -0.52200 -4.79800
H 3.48700 -2.12100 -4.52900
H 2.49500 -1.30300 -3.24000
H 0.86700 -6.33300 -0.08400
H 0.40400 -5.64200 -1.68000
H -0.89100 -5.99900 -0.46300
H -1.28300 -3.58100 4.02800
H 0.69800 -4.47800 7.75500
H 0.83300 -2.61900 7.68000
H 2.00000 -3.75400 6.97600
Mg 10.52047 0.95071 0.79875
C 12.16813 -1.16668 3.18223
C 11.12789 3.55485 2.91633
C 8.68833 2.75779 -1.05736
C 9.06877 -1.92075 -0.54026
N 11.52738 1.05474 2.76537
C 12.16887 0.19659 3.54409
C 12.91775 0.84712 4.73805
C 12.05072 2.19322 4.86109
C 11.56204 2.30194 3.41816
C 10.83869 2.04778 5.76616
C 14.41870 1.15918 4.40370
C 15.28812 1.50757 5.61385
H 16.68098 1.06896 5.61958
N 10.39523 2.92573 0.64986
C 10.70407 3.83450 1.59856
C 10.41933 5.14957 1.00385
C 9.76185 4.93597 -0.31403
C 9.56655 3.50039 -0.28158
C 10.83868 6.44054 1.64493
C 9.36199 5.87087 -1.41506
O 8.58904 5.49835 -2.36721
C 9.82609 7.26079 -1.29580
N 8.92436 0.51502 -0.46020
C 8.33901 1.47839 -1.19313
C 7.40476 0.88880 -2.22267
C 7.66894 -0.68813 -2.18949
C 8.69096 -0.74921 -1.03314
C 5.91657 1.15997 -2.00326
C 8.03554 -1.36880 -3.53669
C 9.39367 -0.89480 -4.00166
N 10.72476 -1.17940 1.09701
C 10.00160 -2.20467 0.44898
C 10.40938 -3.48282 1.06742
C 11.33171 -3.10743 2.05579
C 11.47259 -1.69338 2.06708
C 9.90117 -4.76918 0.73110
C 12.21020 -3.58502 3.09928
O 12.57185 -4.69408 3.49035
C 12.69591 -2.34018 3.96001
C 14.18555 -2.45065 4.13691
O 14.94680 -2.35935 3.15774
O 14.47621 -2.42764 5.45044
C 15.94301 -2.52349 5.67653
H 11.06505 4.39661 3.60652
H 8.11304 3.32531 -1.79250
H 8.73509 -2.86880 -0.96749
H 12.86878 0.28733 5.66435
H 12.67663 3.04421 5.11682
H 10.69403 1.02615 6.08474
H 9.99283 2.38517 5.18158
H 10.91481 2.73726 6.61183
H 14.47334 2.10755 3.85383
H 14.86428 0.34905 3.85985
H 14.79954 1.24790 6.56085
H 15.40058 2.59353 5.65924
H 11.15428 6.28946 2.68463
H 9.94239 7.06560 1.72124
H 11.59321 6.97418 1.06305
H 9.45707 7.68617 -0.36556
H 9.51639 7.75260 -2.21996
H 10.91981 7.25995 -1.22943
H 7.63469 1.26287 -3.21277
H 6.78071 -1.24308 -1.85348
H 5.43250 1.65971 -2.86349
H 5.80666 1.75524 -1.10654
H 5.31622 0.28160 -1.77249
H 7.32324 -1.07955 -4.31330
H 8.03549 -2.45256 -3.48714
H 9.16714 0.05263 -4.49982
H 9.83248 -1.60997 -4.69449
H 10.04562 -0.67137 -3.14920
H 10.75047 -5.43803 0.68825
H 9.36191 -4.74907 -0.21366
H 9.23511 -4.94387 1.58028
H 12.16681 -2.37448 4.91314
H 16.10878 -3.37732 6.34074
H 16.25370 -1.52878 6.04772
H 16.56426 -2.79058 4.82967
