158

Mg 0.00000 0.00000 0.00000
C -0.21700 -2.21800 2.80100
C -1.25500 2.44200 2.02600
C -0.24500 1.85000 -2.56400
C 0.14600 -2.82400 -2.03700
N -0.61700 -0.00900 2.12600
C -0.59400 -0.90800 3.10500
C -0.93600 -0.30900 4.50200
C -1.77300 0.96400 4.03200
C -1.15500 1.16800 2.66000
C -3.26300 0.68500 3.86300
C 0.34500 0.11000 5.29900
C 0.12400 0.39700 6.78700
H 1.16800 0.03300 7.73300
N -0.18500 1.96100 -0.15200
C -0.70300 2.80000 0.77700
C -0.62000 4.15600 0.19300
C -0.18700 4.01500 -1.22500
C -0.21400 2.58300 -1.38000
C -0.88700 5.40600 0.97400
C 0.18100 5.01300 -2.27700
O 0.30300 4.69000 -3.50800
C 0.31000 6.41400 -1.83700
N -0.26500 -0.41300 -2.02900
C -0.27900 0.56900 -2.93700
C -0.19600 0.02400 -4.33200
C 0.12400 -1.53300 -4.18000
C 0.08600 -1.63200 -2.63500
C -1.45100 0.20500 -5.19700
C 1.37300 -2.07000 -4.92300
C 2.62600 -1.49000 -4.30600
N 0.15000 -2.14400 0.30300
C 0.17300 -3.13600 -0.68800
C 0.17300 -4.43800 0.00400
C 0.13300 -4.11100 1.35800
C 0.08300 -2.69500 1.50200
C 0.14900 -5.71500 -0.62300
C 0.09600 -4.62900 2.71600
O 0.20800 -5.74700 3.22100
C -0.25500 -3.42800 3.70100
C 0.71700 -3.48200 4.84800
O 1.93100 -3.25500 4.66900
O 0.03800 -3.55600 6.00300
C 0.94300 -3.58300 7.18300
H -1.85900 3.22000 2.49700
H -0.21800 2.45300 -3.47400
H 0.27600 -3.74700 -2.60500
H -1.55400 -0.94900 5.13200
H -1.58500 1.83100 4.66500
H -3.48400 -0.37700 3.96900
H -3.51100 1.02700 2.85800
H -3.85200 1.30100 4.54300
H 0.66900 1.09600 4.96600
H 1.13000 -0.63900 5.18900
H -0.84400 0.02600 7.12500
H 0.06200 1.47700 6.92100
H -1.34400 5.18600 1.93800
H -1.65100 5.96300 0.43200
H 0.00700 6.02000 1.08400
H -0.63500 6.74400 -1.40500
H 0.66500 6.97000 -2.70400
H 1.04800 6.46600 -1.03600
H 0.60800 0.50100 -4.89100
H -0.69200 -2.15600 -4.54700
H -1.26700 0.74000 -6.12900
H -2.20400 0.71400 -4.59600
H -1.96700 -0.72000 -5.45300
H 1.35600 -1.75900 -5.96700
H 1.45200 -3.15700 -4.90200
H 2.71400 -0.52200 -4.79800
H 3.48700 -2.12100 -4.52900
H 2.49500 -1.30300 -3.24000
H 0.86700 -6.33300 -0.08400
H 0.40400 -5.64200 -1.68000
H -0.89100 -5.99900 -0.46300
H -1.28300 -3.58100 4.02800
H 0.69800 -4.47800 7.75500
H 0.83300 -2.61900 7.68000
H 2.00000 -3.75400 6.97600
Mg 10.50152 0.94864 0.79400
C 10.07216 -1.84724 -1.41457
C 10.38563 2.95343 -1.96317
C 11.32622 3.38429 2.65274
C 11.70877 -1.29372 3.17310
N 10.25605 0.49411 -1.35667
C 10.03973 -0.59963 -2.07173
C 9.69398 -0.33593 -3.56186
C 10.38297 1.10632 -3.71700
C 10.30943 1.56994 -2.26361
C 11.84592 1.03399 -4.12182
C 8.14678 -0.26336 -3.81267
C 7.73064 -0.31713 -5.28430
H 6.49314 -1.00967 -5.63283
N 10.33196 2.90389 0.49938
C 10.27640 3.54636 -0.68613
C 10.17370 4.97797 -0.36346
C 10.33913 5.14053 1.10655
C 10.70084 3.78845 1.48222
C 9.86114 6.02394 -1.39384
C 10.20766 6.32072 2.02091
O 10.62908 6.28532 3.23087
C 9.65617 7.54912 1.43067
N 11.58422 1.06739 2.56488
C 11.75241 2.24332 3.19482
C 12.32136 2.04397 4.57936
C 12.27403 0.46687 4.84032
C 11.74552 -0.00118 3.46665
C 13.74712 2.55221 4.79221
C 11.53471 -0.01296 6.11932
C 10.05432 0.26721 5.99547
N 10.66926 -1.19874 0.96335
C 11.22968 -1.92872 2.03440
C 11.22241 -3.35283 1.64161
C 10.67509 -3.35011 0.34975
C 10.38194 -2.01631 -0.04337
C 11.72531 -4.43310 2.42022
C 10.28850 -4.17126 -0.77496
O 10.22313 -5.38179 -0.98493
C 9.99806 -3.22284 -2.01694
C 8.69314 -3.64912 -2.63174
O 7.62806 -3.52843 -2.00114
O 8.88866 -3.92384 -3.93431
C 7.62070 -4.34064 -4.59033
H 10.59047 3.65041 -2.77628
H 11.53093 4.17711 3.37593
H 11.97766 -2.06488 3.89814
H 10.13512 -1.03592 -4.26128
H 9.79355 1.75899 -4.35572
H 12.21379 0.01870 -4.12339
H 12.38216 1.62956 -3.39464
H 11.99523 1.52886 -5.08573
H 7.78863 0.74108 -3.55273
H 7.63551 -1.03052 -3.26431
H 8.55132 -0.64682 -5.93294
H 7.51463 0.69965 -5.62121
H 9.95655 5.62681 -2.41196
H 10.64555 6.78537 -1.32468
H 8.89165 6.49947 -1.23067
H 10.27935 7.85979 0.59545
H 9.55629 8.25239 2.25971
H 8.66601 7.32517 1.01831
H 11.71163 2.54173 5.32338
H 13.28244 0.04167 4.95054
H 13.83071 3.28503 5.61686
H 14.09816 2.98280 3.86382
H 14.48928 1.77903 4.98345
H 11.88444 0.54565 6.99098
H 11.68006 -1.06671 6.33257
H 9.97534 1.31550 6.29868
H 9.48510 -0.37980 6.65986
H 9.72714 0.20051 4.95136
H 11.00153 -5.23380 2.34596
H 11.88647 -4.13646 3.45453
H 12.66569 -4.62869 1.89801
H 10.83194 -3.32858 -2.71195
H 7.80410 -5.31743 -5.04850
H 7.34768 -3.50979 -5.26777
H 6.77473 -4.56267 -3.95042
