79

Mg 8.94218 0.79734 0.67829
C 9.06453 0.10158 -2.84023
C 8.32112 -2.52165 1.16122
C 8.38258 1.44818 3.73291
C 8.43396 4.14598 -0.14267
N 8.74269 -0.89172 -0.73576
C 8.87009 -1.04697 -2.04496
C 8.86452 -2.52444 -2.52101
C 8.06411 -3.17128 -1.28820
C 8.42167 -2.15581 -0.20485
C 6.55620 -3.15801 -1.47632
C 10.31157 -3.11900 -2.64170
C 10.39963 -4.44934 -3.39282
H 11.57460 -4.70423 -4.22165
N 8.91331 -0.39857 2.26181
C 8.66643 -1.72528 2.27517
C 8.74172 -2.13433 3.68626
C 8.89020 -0.91179 4.52176
C 8.70961 0.11731 3.51755
C 8.75210 -3.57225 4.11719
C 9.13914 -0.70336 5.98490
O 8.99483 0.44501 6.53559
C 9.46597 -1.90165 6.77153
N 8.26599 2.50325 1.65551
C 8.16145 2.53668 2.99562
C 7.92241 3.94367 3.48918
C 8.13003 4.88714 2.21469
C 8.37636 3.80751 1.13806
C 6.54679 4.20960 4.10021
C 9.16049 6.04106 2.35366
C 10.55637 5.47421 2.47852
N 8.95829 1.97434 -1.13346
C 8.69445 3.35624 -1.25525
C 8.71046 3.67710 -2.69721
C 8.96168 2.44546 -3.32046
C 9.07293 1.42520 -2.33752
C 8.46215 4.95750 -3.26733
C 9.14751 1.77459 -4.58699
O 9.24575 2.14037 -5.75758
C 9.09671 0.20528 -4.33984
C 10.26163 -0.41634 -5.06029
O 11.42812 -0.16942 -4.70680
O 9.80563 -1.36266 -5.90108
C 10.92495 -2.01577 -6.63072
H 7.89821 -3.49598 1.40762
H 8.28822 1.74714 4.77943
H 8.38133 5.18501 -0.47482
H 8.32902 -2.70164 -3.44600
H 8.45552 -4.15305 -1.03468
H 6.26505 -2.60704 -2.35825
H 6.15300 -2.69020 -0.58770
H 6.16792 -4.18052 -1.48121
H 10.65028 -3.44116 -1.64861
H 10.97981 -2.40774 -3.08688
H 9.48106 -4.66960 -3.95018
H 10.46906 -5.25738 -2.66052
H 8.46369 -4.24030 3.29626
H 7.95285 -3.69015 4.85689
H 9.70010 -3.86918 4.57085
H 8.65654 -2.62257 6.68458
H 9.69721 -1.53852 7.77479
H 10.35510 -2.37295 6.33802
H 8.64521 4.21507 4.24879
H 7.20038 5.40395 1.93453
H 6.59647 4.59629 5.13562
H 5.97409 3.29241 4.06391
H 5.91713 4.89752 3.53851
H 8.97283 6.60822 3.26868
H 9.13537 6.74435 1.52799
H 10.62977 5.23126 3.54279
H 11.29835 6.21641 2.19101
H 10.65183 4.53643 1.91897
H 9.20386 5.10277 -4.04145
H 8.51094 5.74331 -2.51640
H 7.44568 4.81035 -3.64204
H 8.14031 -0.15548 -4.72028
H 10.71136 -1.91548 -7.69937
H 10.98802 -3.04252 -6.22384
H 11.90286 -1.55319 -6.56618
