158

Mg 0.00000 0.00000 0.00000
C -0.21700 -2.21800 2.80100
C -1.25500 2.44200 2.02600
C -0.24500 1.85000 -2.56400
C 0.14600 -2.82400 -2.03700
N -0.61700 -0.00900 2.12600
C -0.59400 -0.90800 3.10500
C -0.93600 -0.30900 4.50200
C -1.77300 0.96400 4.03200
C -1.15500 1.16800 2.66000
C -3.26300 0.68500 3.86300
C 0.34500 0.11000 5.29900
C 0.12400 0.39700 6.78700
H 1.16800 0.03300 7.73300
N -0.18500 1.96100 -0.15200
C -0.70300 2.80000 0.77700
C -0.62000 4.15600 0.19300
C -0.18700 4.01500 -1.22500
C -0.21400 2.58300 -1.38000
C -0.88700 5.40600 0.97400
C 0.18100 5.01300 -2.27700
O 0.30300 4.69000 -3.50800
C 0.31000 6.41400 -1.83700
N -0.26500 -0.41300 -2.02900
C -0.27900 0.56900 -2.93700
C -0.19600 0.02400 -4.33200
C 0.12400 -1.53300 -4.18000
C 0.08600 -1.63200 -2.63500
C -1.45100 0.20500 -5.19700
C 1.37300 -2.07000 -4.92300
C 2.62600 -1.49000 -4.30600
N 0.15000 -2.14400 0.30300
C 0.17300 -3.13600 -0.68800
C 0.17300 -4.43800 0.00400
C 0.13300 -4.11100 1.35800
C 0.08300 -2.69500 1.50200
C 0.14900 -5.71500 -0.62300
C 0.09600 -4.62900 2.71600
O 0.20800 -5.74700 3.22100
C -0.25500 -3.42800 3.70100
C 0.71700 -3.48200 4.84800
O 1.93100 -3.25500 4.66900
O 0.03800 -3.55600 6.00300
C 0.94300 -3.58300 7.18300
H -1.85900 3.22000 2.49700
H -0.21800 2.45300 -3.47400
H 0.27600 -3.74700 -2.60500
H -1.55400 -0.94900 5.13200
H -1.58500 1.83100 4.66500
H -3.48400 -0.37700 3.96900
H -3.51100 1.02700 2.85800
H -3.85200 1.30100 4.54300
H 0.66900 1.09600 4.96600
H 1.13000 -0.63900 5.18900
H -0.84400 0.02600 7.12500
H 0.06200 1.47700 6.92100
H -1.34400 5.18600 1.93800
H -1.65100 5.96300 0.43200
H 0.00700 6.02000 1.08400
H -0.63500 6.74400 -1.40500
H 0.66500 6.97000 -2.70400
H 1.04800 6.46600 -1.03600
H 0.60800 0.50100 -4.89100
H -0.69200 -2.15600 -4.54700
H -1.26700 0.74000 -6.12900
H -2.20400 0.71400 -4.59600
H -1.96700 -0.72000 -5.45300
H 1.35600 -1.75900 -5.96700
H 1.45200 -3.15700 -4.90200
H 2.71400 -0.52200 -4.79800
H 3.48700 -2.12100 -4.52900
H 2.49500 -1.30300 -3.24000
H 0.86700 -6.33300 -0.08400
H 0.40400 -5.64200 -1.68000
H -0.89100 -5.99900 -0.46300
H -1.28300 -3.58100 4.02800
H 0.69800 -4.47800 7.75500
H 0.83300 -2.61900 7.68000
H 2.00000 -3.75400 6.97600
Mg 8.93384 0.79692 0.68624
C 6.57413 2.26822 2.95475
C 11.19440 0.84790 3.24004
C 11.15998 -0.07689 -1.39898
C 6.90386 1.90103 -1.92255
N 8.78459 1.49193 2.78075
C 7.81970 1.97570 3.54840
C 8.18661 2.08094 5.05302
C 9.78379 2.16024 4.90607
C 9.94382 1.42447 3.57727
C 10.30252 3.57803 4.73249
C 7.74680 0.81277 5.86562
C 7.79352 0.97542 7.38651
H 6.77542 0.30421 8.18989
N 10.72210 -0.01196 0.98017
C 11.49000 0.09076 2.08518
C 12.71781 -0.66530 1.79359
C 12.68266 -1.08454 0.36610
C 11.50419 -0.37407 -0.08835
C 13.74034 -0.99265 2.84273
C 13.57092 -1.96728 -0.45728
O 13.48731 -2.00206 -1.73581
C 14.60384 -2.71935 0.27001
N 9.13352 1.07833 -1.36394
C 10.17110 0.55006 -2.03645
C 9.95998 0.64654 -3.52860
C 8.44849 1.13347 -3.71804
C 8.05789 1.32851 -2.23656
C 10.89761 1.59681 -4.27306
C 7.53320 0.25503 -4.61429
C 7.28710 -1.07995 -3.94897
N 6.98884 1.72163 0.51326
C 6.33821 2.12406 -0.67368
C 5.08995 2.80677 -0.27594
C 5.11243 2.77422 1.12653
C 6.30125 2.13549 1.57176
C 4.14497 3.39567 -1.16268
C 4.40591 3.14440 2.33173
O 3.30338 3.63211 2.57729
C 5.38154 2.94568 3.57070
C 4.62869 2.20288 4.64027
O 4.25805 1.03047 4.45403
O 4.66076 2.91829 5.77936
C 3.93656 2.21739 6.87302
H 12.04306 1.02629 3.90097
H 11.84246 -0.45587 -2.16323
H 6.16933 2.18700 -2.67844
H 7.81444 2.96860 5.55033
H 10.28142 1.61688 5.70513
H 9.49866 4.28993 4.61781
H 10.92025 3.55856 3.84419
H 10.97047 3.83881 5.55843
H 8.50134 0.02600 5.73754
H 6.76881 0.48900 5.56670
H 7.88821 2.02628 7.68595
H 8.70858 0.50749 7.75760
H 13.57718 -0.41140 3.75866
H 14.70759 -0.64173 2.46702
H 13.80753 -2.06360 3.04577
H 15.24883 -2.02447 0.80255
H 15.07847 -3.35997 -0.47578
H 14.11520 -3.34015 1.02925
H 10.07891 -0.32161 -3.99940
H 8.39615 2.12558 -4.19007
H 11.46516 1.10322 -5.08443
H 11.57198 2.04338 -3.55450
H 10.41726 2.46941 -4.71241
H 8.02692 0.04143 -5.56549
H 6.57954 0.71874 -4.84344
H 8.17373 -1.65946 -4.22307
H 6.37996 -1.53950 -4.33620
H 7.28267 -0.98074 -2.85728
H 3.16390 3.11372 -0.80420
H 4.30383 3.06785 -2.18790
H 4.38455 4.45388 -1.02830
H 5.69470 3.93610 3.90323
H 3.17837 2.91082 7.24983
H 4.71667 1.88847 7.58505
H 3.32656 1.36324 6.60323
