79

Mg 7.87555 0.71192 0.59177
C 8.25620 -2.02664 -1.69612
C 8.53978 2.79587 -2.02559
C 7.99240 3.11329 2.66233
C 8.37434 -1.56475 3.18284
N 8.32351 0.31632 -1.53780
C 8.38048 -0.76102 -2.30620
C 8.50176 -0.46236 -3.82464
C 9.14929 1.00417 -3.73029
C 8.61303 1.42058 -2.36219
C 10.66740 0.98859 -3.66370
C 7.10595 -0.42898 -4.54060
C 7.16676 -0.45018 -6.06953
H 6.12473 -1.16885 -6.79765
N 7.73054 2.66926 0.29789
C 8.01908 3.34580 -0.83362
C 7.76710 4.76308 -0.53032
C 7.46435 4.88543 0.92161
C 7.74389 3.53403 1.36396
C 7.74808 5.83021 -1.58592
C 7.01201 6.03251 1.77354
O 7.04039 5.97280 3.05356
C 6.62306 7.26118 1.06600
N 8.35337 0.80904 2.61281
C 8.27378 1.96965 3.28702
C 8.39477 1.74527 4.77544
C 8.32957 0.16020 4.97766
C 8.26920 -0.28130 3.49887
C 9.66465 2.28966 5.42921
C 7.25048 -0.38078 5.95520
C 5.87103 -0.14188 5.38474
N 8.06485 -1.43358 0.76218
C 8.29480 -2.17875 1.93944
C 8.46362 -3.58972 1.53558
C 8.34211 -3.56397 0.13806
C 8.13382 -2.22822 -0.30001
C 8.74258 -4.67764 2.41008
C 8.35329 -4.36157 -1.06709
O 8.40229 -5.56652 -1.31091
C 8.42434 -3.38474 -2.31895
C 7.39023 -3.83127 -3.31582
O 6.17872 -3.76225 -3.04364
O 7.98863 -4.05988 -4.49904
C 7.00201 -4.49455 -5.52347
H 8.95877 3.52333 -2.72138
H 7.93339 3.88940 3.42891
H 8.43560 -2.34929 3.94010
H 9.16370 -1.12689 -4.36686
H 8.76129 1.65798 -4.50705
H 11.05635 -0.01458 -3.57142
H 10.92978 1.57754 -2.79461
H 11.08790 1.51708 -4.52406
H 6.64690 0.55572 -4.38447
H 6.48013 -1.22771 -4.19275
H 8.15957 -0.73484 -6.43865
H 7.02656 0.56945 -6.43656
H 8.16822 5.46754 -2.53215
H 8.44310 6.61255 -1.26228
H 6.75811 6.27096 -1.72151
H 7.46126 7.61603 0.47105
H 6.24533 7.93535 1.83715
H 5.81787 7.02010 0.36304
H 7.56657 2.20130 5.30386
H 9.27021 -0.23747 5.38619
H 9.46150 2.99905 6.25357
H 10.26837 2.75893 4.66381
H 10.34055 1.53379 5.82547
H 7.29244 0.16118 6.90319
H 7.36312 -1.43569 6.18207
H 5.66227 0.89375 5.66929
H 5.14973 -0.82588 5.82734
H 5.88493 -0.18640 4.28953
H 8.10826 -5.49722 2.09958
H 8.56512 -4.40811 3.44913
H 9.80499 -4.82858 2.20085
H 9.43544 -3.44384 -2.72363
H 7.35512 -5.45085 -5.92160
H 6.91986 -3.65198 -6.23556
H 6.00898 -4.76161 -5.18139
