158

Mg 0.00000 0.00000 0.00000
C -0.21700 -2.21800 2.80100
C -1.25500 2.44200 2.02600
C -0.24500 1.85000 -2.56400
C 0.14600 -2.82400 -2.03700
N -0.61700 -0.00900 2.12600
C -0.59400 -0.90800 3.10500
C -0.93600 -0.30900 4.50200
C -1.77300 0.96400 4.03200
C -1.15500 1.16800 2.66000
C -3.26300 0.68500 3.86300
C 0.34500 0.11000 5.29900
C 0.12400 0.39700 6.78700
H 1.16800 0.03300 7.73300
N -0.18500 1.96100 -0.15200
C -0.70300 2.80000 0.77700
C -0.62000 4.15600 0.19300
C -0.18700 4.01500 -1.22500
C -0.21400 2.58300 -1.38000
C -0.88700 5.40600 0.97400
C 0.18100 5.01300 -2.27700
O 0.30300 4.69000 -3.50800
C 0.31000 6.41400 -1.83700
N -0.26500 -0.41300 -2.02900
C -0.27900 0.56900 -2.93700
C -0.19600 0.02400 -4.33200
C 0.12400 -1.53300 -4.18000
C 0.08600 -1.63200 -2.63500
C -1.45100 0.20500 -5.19700
C 1.37300 -2.07000 -4.92300
C 2.62600 -1.49000 -4.30600
N 0.15000 -2.14400 0.30300
C 0.17300 -3.13600 -0.68800
C 0.17300 -4.43800 0.00400
C 0.13300 -4.11100 1.35800
C 0.08300 -2.69500 1.50200
C 0.14900 -5.71500 -0.62300
C 0.09600 -4.62900 2.71600
O 0.20800 -5.74700 3.22100
C -0.25500 -3.42800 3.70100
C 0.71700 -3.48200 4.84800
O 1.93100 -3.25500 4.66900
O 0.03800 -3.55600 6.00300
C 0.94300 -3.58300 7.18300
H -1.85900 3.22000 2.49700
H -0.21800 2.45300 -3.47400
H 0.27600 -3.74700 -2.60500
H -1.55400 -0.94900 5.13200
H -1.58500 1.83100 4.66500
H -3.48400 -0.37700 3.96900
H -3.51100 1.02700 2.85800
H -3.85200 1.30100 4.54300
H 0.66900 1.09600 4.96600
H 1.13000 -0.63900 5.18900
H -0.84400 0.02600 7.12500
H 0.06200 1.47700 6.92100
H -1.34400 5.18600 1.93800
H -1.65100 5.96300 0.43200
H 0.00700 6.02000 1.08400
H -0.63500 6.74400 -1.40500
H 0.66500 6.97000 -2.70400
H 1.04800 6.46600 -1.03600
H 0.60800 0.50100 -4.89100
H -0.69200 -2.15600 -4.54700
H -1.26700 0.74000 -6.12900
H -2.20400 0.71400 -4.59600
H -1.96700 -0.72000 -5.45300
H 1.35600 -1.75900 -5.96700
H 1.45200 -3.15700 -4.90200
H 2.71400 -0.52200 -4.79800
H 3.48700 -2.12100 -4.52900
H 2.49500 -1.30300 -3.24000
H 0.86700 -6.33300 -0.08400
H 0.40400 -5.64200 -1.68000
H -0.89100 -5.99900 -0.46300
H -1.28300 -3.58100 4.02800
H 0.69800 -4.47800 7.75500
H 0.83300 -2.61900 7.68000
H 2.00000 -3.75400 6.97600
Mg 10.51787 0.94967 0.79126
C 13.26434 -1.27219 1.42316
C 12.62136 3.52531 1.55024
C 8.01408 2.89558 0.68223
C 8.39388 -1.78285 1.20080
N 12.64567 0.99395 1.39355
C 13.60407 0.09168 1.54091
C 15.02179 0.68778 1.75143
C 14.59548 2.12110 2.33686
C 13.21467 2.24594 1.69619
C 14.42381 2.12760 3.84677
C 15.81621 0.83011 0.40582
C 17.31120 1.11345 0.56851
H 18.23930 0.52938 -0.39584
N 10.43231 2.92258 0.59408
C 11.38552 3.81621 0.93184
C 10.82945 5.13920 0.60833
C 9.40741 4.96466 0.20577
C 9.21936 3.55923 0.50495
C 11.65412 6.39348 0.62000
C 8.38220 5.90963 -0.34392
O 7.14003 5.59834 -0.39821
C 8.86153 7.24477 -0.73011
N 8.48785 0.65568 1.13027
C 7.60688 1.65769 0.96353
C 6.18648 1.14590 0.99383
C 6.30393 -0.44890 0.97378
C 7.84098 -0.59015 1.02778
C 5.34879 1.57916 2.19672
C 5.53181 -1.19741 -0.14705
C 6.14250 -0.88211 -1.49354
N 10.75784 -1.18216 1.04771
C 9.73591 -2.14017 1.22644
C 10.39508 -3.43898 1.47347
C 11.76553 -3.13985 1.44393
C 11.94732 -1.74897 1.21608
C 9.73284 -4.67179 1.73374
C 13.09957 -3.68258 1.56426
O 13.57052 -4.81394 1.67362
C 14.12735 -2.47586 1.68206
C 15.26438 -2.73986 0.73339
O 15.07215 -2.75401 -0.49520
O 16.42312 -2.71584 1.41687
C 17.58135 -2.96168 0.51694
H 13.12906 4.38558 1.98734
H 7.11661 3.50298 0.54405
H 7.80258 -2.70016 1.24060
H 15.63445 0.15917 2.47183
H 15.25505 2.90665 1.97736
H 14.50199 1.13525 4.26541
H 13.43955 2.53871 4.02916
H 15.13131 2.82551 4.30360
H 15.50375 1.75357 -0.09850
H 15.67767 -0.03588 -0.21184
H 17.65627 0.93044 1.59340
H 17.48053 2.18206 0.41550
H 12.62021 6.23511 1.11496
H 11.13417 7.11205 1.26279
H 11.77185 6.82943 -0.37436
H 9.31335 7.72959 0.13202
H 8.00258 7.74404 -1.18265
H 9.65436 7.12918 -1.47755
H 5.64016 1.46909 0.11623
H 5.91440 -0.89782 1.89929
H 4.41830 2.10642 1.91345
H 5.96181 2.20446 2.83213
H 5.06054 0.77556 2.87226
H 4.49552 -0.85306 -0.18795
H 5.50847 -2.27348 -0.01093
H 5.67641 0.07159 -1.75867
H 5.89572 -1.65663 -2.21691
H 7.22129 -0.70858 -1.40549
H 10.24284 -5.42806 1.15198
H 8.67669 -4.61748 1.47805
H 9.89032 -4.75382 2.81251
H 14.46169 -2.43037 2.71924
H 18.13255 -3.81182 0.93060
H 18.11862 -1.99691 0.45117
H 17.37082 -3.31396 -0.48607
