158

Mg 0.00000 0.00000 0.00000
C -0.21700 -2.21800 2.80100
C -1.25500 2.44200 2.02600
C -0.24500 1.85000 -2.56400
C 0.14600 -2.82400 -2.03700
N -0.61700 -0.00900 2.12600
C -0.59400 -0.90800 3.10500
C -0.93600 -0.30900 4.50200
C -1.77300 0.96400 4.03200
C -1.15500 1.16800 2.66000
C -3.26300 0.68500 3.86300
C 0.34500 0.11000 5.29900
C 0.12400 0.39700 6.78700
H 1.16800 0.03300 7.73300
N -0.18500 1.96100 -0.15200
C -0.70300 2.80000 0.77700
C -0.62000 4.15600 0.19300
C -0.18700 4.01500 -1.22500
C -0.21400 2.58300 -1.38000
C -0.88700 5.40600 0.97400
C 0.18100 5.01300 -2.27700
O 0.30300 4.69000 -3.50800
C 0.31000 6.41400 -1.83700
N -0.26500 -0.41300 -2.02900
C -0.27900 0.56900 -2.93700
C -0.19600 0.02400 -4.33200
C 0.12400 -1.53300 -4.18000
C 0.08600 -1.63200 -2.63500
C -1.45100 0.20500 -5.19700
C 1.37300 -2.07000 -4.92300
C 2.62600 -1.49000 -4.30600
N 0.15000 -2.14400 0.30300
C 0.17300 -3.13600 -0.68800
C 0.17300 -4.43800 0.00400
C 0.13300 -4.11100 1.35800
C 0.08300 -2.69500 1.50200
C 0.14900 -5.71500 -0.62300
C 0.09600 -4.62900 2.71600
O 0.20800 -5.74700 3.22100
C -0.25500 -3.42800 3.70100
C 0.71700 -3.48200 4.84800
O 1.93100 -3.25500 4.66900
O 0.03800 -3.55600 6.00300
C 0.94300 -3.58300 7.18300
H -1.85900 3.22000 2.49700
H -0.21800 2.45300 -3.47400
H 0.27600 -3.74700 -2.60500
H -1.55400 -0.94900 5.13200
H -1.58500 1.83100 4.66500
H -3.48400 -0.37700 3.96900
H -3.51100 1.02700 2.85800
H -3.85200 1.30100 4.54300
H 0.66900 1.09600 4.96600
H 1.13000 -0.63900 5.18900
H -0.84400 0.02600 7.12500
H 0.06200 1.47700 6.92100
H -1.34400 5.18600 1.93800
H -1.65100 5.96300 0.43200
H 0.00700 6.02000 1.08400
H -0.63500 6.74400 -1.40500
H 0.66500 6.97000 -2.70400
H 1.04800 6.46600 -1.03600
H 0.60800 0.50100 -4.89100
H -0.69200 -2.15600 -4.54700
H -1.26700 0.74000 -6.12900
H -2.20400 0.71400 -4.59600
H -1.96700 -0.72000 -5.45300
H 1.35600 -1.75900 -5.96700
H 1.45200 -3.15700 -4.90200
H 2.71400 -0.52200 -4.79800
H 3.48700 -2.12100 -4.52900
H 2.49500 -1.30300 -3.24000
H 0.86700 -6.33300 -0.08400
H 0.40400 -5.64200 -1.68000
H -0.89100 -5.99900 -0.46300
H -1.28300 -3.58100 4.02800
H 0.69800 -4.47800 7.75500
H 0.83300 -2.61900 7.68000
H 2.00000 -3.75400 6.97600
Mg 7.89071 0.70339 0.60274
C 8.10283 -1.77903 -1.98022
C 7.07124 -1.81654 2.75053
C 7.25672 2.91006 2.79273
C 7.59730 3.09659 -1.91366
N 7.65049 -1.47511 0.30496
C 7.81680 -2.31366 -0.70673
C 7.74750 -3.81443 -0.31626
C 6.86840 -3.67479 1.02036
C 7.24144 -2.24594 1.41010
C 5.37136 -3.72457 0.76400
C 9.16317 -4.41891 -0.01214
C 9.20541 -5.94621 0.07348
H 10.39404 -6.63823 -0.41717
N 7.73855 0.54852 2.57541
C 7.41891 -0.55549 3.28271
C 7.42016 -0.14297 4.69480
C 7.60496 1.33259 4.75225
C 7.51784 1.66418 3.34423
C 7.33590 -1.12288 5.82886
C 7.81148 2.28872 5.88776
O 7.71044 3.55637 5.72746
C 8.04317 1.69361 7.21201
N 7.27400 2.68446 0.47085
C 7.12268 3.43638 1.57522
C 6.94339 4.89373 1.22253
C 7.24879 4.99740 -0.34385
C 7.47457 3.50199 -0.65717
C 5.56309 5.48323 1.51176
C 8.33528 6.01687 -0.78308
C 9.69247 5.56920 -0.29011
N 8.03741 0.71990 -1.55278
C 7.85443 1.82569 -2.41175
C 7.94056 1.31983 -3.79707
C 8.14636 -0.05987 -3.64683
C 8.16554 -0.39362 -2.26562
C 7.78384 2.09849 -4.97827
C 8.34111 -1.31145 -4.34276
O 8.50188 -1.63567 -5.51868
C 8.19529 -2.49930 -3.29676
C 9.34982 -3.44173 -3.50022
O 10.51444 -3.07465 -3.26458
O 8.87352 -4.67919 -3.72867
C 9.98116 -5.65188 -3.92575
H 6.58680 -2.49358 3.45467
H 7.14084 3.72749 3.50818
H 7.61391 3.79471 -2.75332
H 7.23715 -4.44707 -1.03255
H 7.19584 -4.37601 1.78353
H 5.14322 -3.72707 -0.29150
H 4.96232 -2.84160 1.23739
H 4.92798 -4.57833 1.28442
H 9.44728 -4.16510 1.01724
H 9.88522 -4.07701 -0.72794
H 8.29706 -6.40712 -0.33321
H 9.20365 -6.23487 1.12737
H 7.04137 -2.11969 5.47811
H 6.50495 -0.80293 6.46684
H 8.24901 -1.15429 6.42712
H 7.19910 1.06105 7.47635
H 8.25727 2.53314 7.87626
H 8.92030 1.03957 7.15304
H 7.65183 5.51176 1.76035
H 6.35973 5.30691 -0.91271
H 5.59615 6.36475 2.17952
H 4.94261 4.70623 1.93817
H 4.99302 5.77743 0.63217
H 8.14580 6.99200 -0.32771
H 8.37890 6.16586 -1.85681
H 9.71359 5.93512 0.74079
H 10.48404 6.02003 -0.88526
H 9.75664 4.47551 -0.25306
H 8.56012 1.78461 -5.66336
H 7.84829 3.16325 -4.76402
H 6.77516 1.80005 -5.27620
H 7.23504 -2.98240 -3.48144
H 9.81248 -6.13661 -4.89233
H 9.97291 -6.29972 -3.02910
H 10.97998 -5.25352 -4.06038
