79

Mg 10.51212 0.95103 0.80782
C 8.98587 -1.44670 2.99882
C 8.19678 3.20339 1.90358
C 11.54194 2.94921 -1.43142
C 11.92482 -1.72916 -0.91454
N 8.85709 0.78140 2.26534
C 8.41121 -0.16129 3.08196
C 7.34090 0.32101 4.09753
C 6.78851 1.58863 3.28092
C 8.03197 1.90690 2.45316
C 5.65592 1.24376 2.32821
C 7.96949 0.75100 5.46939
C 6.96345 0.93832 6.60718
H 7.36696 0.56838 7.96099
N 10.29266 2.91637 0.64090
C 9.30751 3.67287 1.16859
C 9.58664 5.05246 0.74083
C 10.72405 5.02508 -0.21847
C 10.88707 3.59577 -0.39332
C 8.85799 6.24050 1.29855
C 11.52333 6.10654 -0.88014
O 12.31000 5.85810 -1.86109
C 11.28766 7.47854 -0.40732
N 11.40451 0.65248 -1.04605
C 11.80247 1.69405 -1.79751
C 12.66073 1.23680 -2.95280
C 12.95741 -0.31106 -2.68134
C 12.10831 -0.51176 -1.40693
C 12.04716 1.40092 -4.34312
C 14.44783 -0.74754 -2.65284
C 15.13970 -0.14329 -1.45218
N 10.63387 -1.18774 1.08868
C 11.25141 -2.12656 0.23349
C 10.97302 -3.46800 0.78619
C 10.18720 -3.21579 1.92081
C 9.97288 -1.81726 2.05371
C 11.38817 -4.70482 0.21695
C 9.48138 -3.81535 3.03033
O 9.38083 -4.95543 3.48182
C 8.56646 -2.70529 3.70641
C 8.77455 -2.77501 5.19448
O 9.87853 -2.49203 5.69225
O 7.58499 -2.95150 5.79795
C 7.73810 -3.01580 7.27587
H 7.38051 3.91873 2.00790
H 12.01089 3.60136 -2.17186
H 12.41210 -2.60984 -1.33838
H 6.53762 -0.38283 4.27953
H 6.55183 2.41466 3.94651
H 5.48811 0.17855 2.27067
H 5.95446 1.63239 1.36339
H 4.75006 1.79016 2.60604
H 8.34904 1.77729 5.38333
H 8.73269 0.06060 5.77187
H 5.98414 0.50697 6.36667
H 6.76479 2.00662 6.72236
H 7.96544 5.93781 1.85992
H 8.46429 6.80357 0.44542
H 9.50629 6.89499 1.88510
H 10.23813 7.73067 -0.53915
H 12.01396 8.09872 -0.93622
H 11.48767 7.51675 0.66932
H 13.59976 1.77612 -2.97414
H 12.51554 -0.95288 -3.45766
H 12.66905 2.01063 -5.02545
H 11.06352 1.83773 -4.23272
H 11.82952 0.47040 -4.86463
H 14.97017 -0.36924 -3.53500
H 14.58243 -1.82391 -2.63580
H 15.40228 0.86092 -1.79816
H 16.02774 -0.71631 -1.19320
H 14.44423 -0.03121 -0.61229
H 11.74592 -5.31859 1.03292
H 12.15811 -4.55676 -0.53740
H 10.44537 -5.04465 -0.21998
H 7.53370 -2.91729 3.42708
H 7.28642 -3.95736 7.60320
H 7.29102 -2.08111 7.66348
H 8.74206 -3.11390 7.67195
