79

Mg 15.77437 1.41520 1.19226
C 15.62548 3.32432 -1.84289
C 15.28682 -1.37183 -0.71283
C 15.45066 -0.24295 3.87800
C 15.10823 4.36831 2.91884
N 15.50561 1.14023 -0.98591
C 15.52893 1.93209 -2.04740
C 15.52483 1.18448 -3.40777
C 14.84683 -0.18899 -2.92530
C 15.26435 -0.16487 -1.45637
C 13.32876 -0.16628 -2.99080
C 16.97283 0.94618 -3.96322
C 17.03529 0.50055 -5.42584
H 18.14454 0.97200 -6.25033
N 15.90900 -0.53748 1.52014
C 15.70068 -1.52863 0.62824
C 15.90322 -2.78426 1.36752
C 16.08633 -2.45643 2.80756
C 15.79534 -1.03685 2.79381
C 15.98866 -4.12184 0.69151
C 16.44915 -3.28608 4.00182
O 16.31915 -2.83986 5.19631
C 16.87255 -4.66858 3.73549
N 15.13429 1.93390 3.10108
C 15.13964 1.03422 4.10032
C 14.90344 1.69997 5.43500
C 14.97929 3.27187 5.15044
C 15.16570 3.24283 3.61753
C 13.57606 1.37003 6.11733
C 15.98554 4.09348 6.00197
C 17.40204 3.70356 5.64576
N 15.60873 3.50916 0.68636
C 15.29781 4.57538 1.55849
C 15.18610 5.79507 0.73247
C 15.41893 5.34619 -0.57627
C 15.63884 3.94224 -0.56902
C 14.85651 7.09521 1.20903
C 15.51816 5.73906 -1.96354
O 15.50951 6.81219 -2.56523
C 15.53112 4.42702 -2.86063
C 16.64939 4.55739 -3.85812
O 17.83379 4.58438 -3.47987
O 16.15188 4.41015 -5.09956
C 17.22483 4.52046 -6.12349
H 14.91264 -2.27994 -1.18634
H 15.43466 -0.74842 4.84636
H 14.99983 5.34557 3.39412
H 14.92001 1.64704 -4.17849
H 15.28468 -1.04500 -3.43215
H 12.95087 0.81418 -3.23991
H 12.98743 -0.46491 -2.00827
H 12.96969 -0.93496 -3.68111
H 17.40096 0.05950 -3.47821
H 17.58228 1.81797 -3.82474
H 16.08033 0.65125 -5.94380
H 17.18704 -0.58123 -5.45283
H 15.65209 -4.06781 -0.35118
H 15.25662 -4.77422 1.17976
H 16.97863 -4.57485 0.77763
H 16.07887 -5.19450 3.21020
H 17.17559 -5.07296 4.70323
H 17.73558 -4.64632 3.06072
H 15.67863 1.43317 6.14282
H 14.01584 3.76731 5.34051
H 13.70022 0.94688 7.13202
H 13.02778 0.68516 5.48418
H 12.88356 2.20510 6.20848
H 15.85837 3.86544 7.06309
H 15.87312 5.16644 5.88744
H 17.56954 2.80541 6.24771
H 18.09709 4.49569 5.91684
H 17.47685 3.41253 4.59155
H 15.52763 7.78657 0.71698
H 14.94536 7.15616 2.29170
H 13.81706 7.16664 0.87781
H 14.55693 4.35189 -3.34527
H 16.92123 5.30730 -6.82091
H 17.34946 3.50183 -6.53655
H 18.19163 4.88705 -5.79889
