79

Mg 13.14609 1.18601 0.99130
C 12.61783 4.73562 1.00614
C 12.51114 1.25597 -2.35930
C 13.16034 -1.98672 1.02306
C 12.61127 1.23191 4.43478
N 12.64252 2.84268 -0.38497
C 12.52993 4.15803 -0.27764
C 12.39085 4.90427 -1.63165
C 11.80137 3.69742 -2.51192
C 12.37929 2.51958 -1.73001
C 10.28533 3.60349 -2.46583
C 13.77288 5.39832 -2.18656
C 13.68187 6.39794 -3.34165
H 14.68166 7.45911 -3.42419
N 13.35959 -0.11225 -0.49448
C 13.07519 0.08918 -1.79825
C 13.38655 -1.17760 -2.47832
C 13.72163 -2.19474 -1.44496
C 13.39959 -1.46024 -0.23794
C 13.42572 -1.31047 -3.97306
C 14.23349 -3.60081 -1.52959
O 14.22752 -4.38188 -0.51336
C 14.65508 -4.06611 -2.85898
N 12.71131 -0.21121 2.46815
C 12.84785 -1.52844 2.23535
C 12.74713 -2.32205 3.51614
C 12.75601 -1.24009 4.69379
C 12.77110 0.05298 3.84933
C 11.51164 -3.21170 3.65206
C 13.83242 -1.41294 5.80020
C 15.20870 -1.17026 5.22371
N 12.87884 2.70564 2.50369
C 12.64350 2.50563 3.88162
C 12.41351 3.83587 4.48160
C 12.50898 4.72248 3.39841
C 12.75933 3.99421 2.20407
C 12.11037 4.09064 5.84883
C 12.44434 6.10790 2.99204
O 12.34497 7.18267 3.58257
C 12.38631 6.16676 1.40472
C 13.38334 7.19321 0.94123
O 14.60162 7.01520 1.11650
O 12.75402 8.10593 0.17882
C 13.70353 9.13915 -0.31385
H 12.10673 1.13214 -3.36429
H 13.26350 -3.07093 1.10869
H 12.53488 1.33977 5.51885
H 11.69386 5.73368 -1.62371
H 12.19887 3.71543 -3.52337
H 9.86044 4.29346 -1.75199
H 10.06226 2.58270 -2.18430
H 9.86869 3.73758 -3.46821
H 14.27188 4.56515 -2.69800
H 14.37452 5.80947 -1.39942
H 12.67205 6.81210 -3.44974
H 13.85356 5.86230 -4.27846
H 12.97398 -0.44090 -4.46618
H 12.76724 -2.14502 -4.23725
H 14.42890 -1.51840 -4.35130
H 13.81965 -3.98796 -3.55065
H 15.07291 -5.06227 -2.70099
H 15.43686 -3.39546 -3.23269
H 13.60205 -2.97655 3.63379
H 11.80900 -1.23901 5.25327
H 11.75739 -4.27628 3.82628
H 10.91153 -3.10125 2.75864
H 10.81530 -2.91837 4.43582
H 13.82933 -2.43961 6.17449
H 13.68423 -0.75884 6.65295
H 15.46205 -2.13547 4.77509
H 15.91193 -0.90380 6.01016
H 15.17203 -0.43058 4.41550
H 12.70704 4.94263 6.14651
H 12.31790 3.22224 6.47059
H 11.03917 4.29676 5.77597
H 11.36609 6.43096 1.12378
H 13.30679 10.11108 -0.00460
H 13.80387 8.95874 -1.40065
H 14.69212 9.16348 0.12949
