79

Mg 13.14282 1.18773 1.00643
C 12.29796 -1.10601 3.63398
C 11.34970 3.54828 2.69378
C 13.48885 3.10032 -1.50150
C 13.87115 -1.57812 -0.98487
N 12.01594 1.11044 2.90812
C 11.81644 0.20185 3.85099
C 11.12820 0.74475 5.13206
C 10.38878 2.01617 4.48738
C 11.32396 2.27017 3.30687
C 9.00701 1.69609 3.94184
C 12.16330 1.17745 6.22904
C 11.56505 1.42561 7.61550
H 12.35644 1.06738 8.78932
N 12.94205 3.15634 0.85524
C 12.19201 3.96028 1.63779
C 12.36664 5.31944 1.10268
C 13.14983 5.22957 -0.15956
C 13.20738 3.79189 -0.33228
C 11.88273 6.54530 1.82138
C 13.73736 6.26635 -1.06846
O 14.17383 5.96863 -2.23623
C 13.70127 7.65545 -0.58828
N 13.40802 0.81862 -1.02230
C 13.58513 1.82912 -1.89147
C 14.02936 1.31658 -3.24068
C 14.34850 -0.23582 -3.02673
C 13.92996 -0.37862 -1.54693
C 13.02080 1.47650 -4.37805
C 15.76061 -0.72835 -3.44631
C 16.80813 -0.12737 -2.53696
N 13.28074 -0.94815 1.30143
C 13.57451 -1.92666 0.32658
C 13.44042 -3.24526 0.97907
C 13.05245 -2.94076 2.29256
C 12.93223 -1.53269 2.44218
C 13.62134 -4.50809 0.34769
C 12.70696 -3.49079 3.58360
O 12.71666 -4.61703 4.07881
C 12.08031 -2.33337 4.47471
C 12.73661 -2.38153 5.82729
O 13.94848 -2.13120 5.95105
O 11.78753 -2.50040 6.77359
C 12.38860 -2.54124 8.13332
H 10.62786 4.29625 3.02298
H 13.72506 3.71927 -2.37016
H 14.17640 -2.48502 -1.51121
H 10.39980 0.07590 5.57461
H 10.39489 2.86366 5.16788
H 8.79747 0.63715 3.97160
H 9.00384 2.05384 2.92055
H 8.24862 2.28214 4.46883
H 12.52844 2.18656 5.99861
H 12.96138 0.46447 6.30218
H 10.54681 1.02737 7.70237
H 11.44423 2.50280 7.75358
H 11.19907 6.28815 2.63985
H 11.26151 7.10601 1.11460
H 12.70025 7.18598 2.15882
H 12.67063 7.94490 -0.39737
H 14.24659 8.23679 -1.33430
H 14.22581 7.70729 0.37234
H 14.93153 1.81905 -3.56735
H 13.66882 -0.87550 -3.60868
H 13.41906 2.04835 -5.23738
H 12.13334 1.95273 -3.98287
H 12.62435 0.54485 -4.77813
H 15.99540 -0.38785 -4.45779
H 15.86123 -1.80854 -3.43866
H 16.98098 0.85901 -2.97772
H 17.71495 -0.72871 -2.54731
H 16.41054 0.02784 -1.52727
H 14.19536 -5.11882 1.03179
H 14.12404 -4.40456 -0.61166
H 12.57976 -4.82017 0.23374
H 11.00589 -2.51119 4.53445
H 12.03217 -3.45817 8.61279
H 12.11198 -1.58264 8.61115
H 13.46241 -2.66982 8.20297
