79

Mg 10.51933 0.95001 0.79330
C 13.08829 -1.21687 2.05193
C 12.28958 3.55867 2.09550
C 8.06370 2.83474 0.09678
C 8.44356 -1.84374 0.61485
N 12.42836 1.03316 1.90726
C 13.34682 0.15189 2.27351
C 14.64911 0.77808 2.84052
C 14.04768 2.18596 3.32533
C 12.86629 2.29143 2.36311
C 13.50604 2.15224 4.74478
C 15.74835 0.97221 1.73779
C 17.14677 1.28889 2.27248
H 18.30257 0.75133 1.56002
N 10.42602 2.92430 0.61423
C 11.23800 3.83320 1.19375
C 10.74016 5.14919 0.76422
C 9.46870 4.94876 0.01727
C 9.25466 3.53236 0.23649
C 11.49786 6.42307 1.00203
C 8.58426 5.88061 -0.75450
O 7.40452 5.53973 -1.12171
C 9.10406 7.23613 -0.98660
N 8.47856 0.59737 0.61097
C 7.63688 1.58071 0.24692
C 6.26960 1.03298 -0.08614
C 6.43637 -0.55746 -0.10313
C 7.91532 -0.66146 0.32965
C 5.14659 1.41641 0.87729
C 5.98995 -1.29816 -1.39337
C 6.90631 -0.93575 -2.53981
N 10.75219 -1.18065 1.06554
C 9.74726 -2.16790 0.96796
C 10.36320 -3.45532 1.34951
C 11.68834 -3.12139 1.66729
C 11.87903 -1.72137 1.51533
C 9.69453 -4.71015 1.41585
C 12.96636 -3.63330 2.10698
O 13.42924 -4.75481 2.31115
C 13.89576 -2.40439 2.49735
C 15.24030 -2.61723 1.85750
O 15.35995 -2.60695 0.61969
O 16.19156 -2.58050 2.80836
C 17.54398 -2.77581 2.22130
H 12.64655 4.42073 2.65969
H 7.21084 3.42262 -0.25035
H 7.88885 -2.77624 0.49068
H 15.07917 0.24797 3.68183
H 14.75191 2.99609 3.15471
H 13.50761 1.15248 5.15295
H 12.49540 2.53415 4.68314
H 14.05645 2.85656 5.37511
H 15.54334 1.89930 1.18714
H 15.79382 0.11797 1.09062
H 17.23167 1.09025 3.34779
H 17.31652 2.36474 2.18446
H 12.31496 6.27718 1.71929
H 10.81306 7.11291 1.50704
H 11.84581 6.88537 0.07581
H 9.31262 7.71146 -0.03108
H 8.36987 7.72439 -1.63038
H 10.06088 7.15822 -1.51484
H 5.94903 1.36319 -1.06660
H 5.84277 -1.03787 0.68850
H 4.30022 1.92682 0.38008
H 5.56332 2.04155 1.65579
H 4.72386 0.59001 1.44612
H 4.98644 -0.97897 -1.68532
H 5.96596 -2.37741 -1.28548
H 6.49220 0.01204 -2.89661
H 6.87051 -1.69877 -3.31477
H 7.92364 -0.73743 -2.18292
H 10.35567 -5.43937 0.96682
H 8.73392 -4.67621 0.90610
H 9.58137 -4.81386 2.49831
H 13.96032 -2.37524 3.58573
H 18.00045 -3.62151 2.74486
H 18.05140 -1.79662 2.30766
H 17.60003 -3.10929 1.19169
