79

Mg 31.52323 2.84117 2.39089
C 31.09386 0.04530 0.18231
C 31.40734 4.84596 -0.36628
C 32.34792 5.27683 4.24962
C 32.73048 0.59882 4.76999
N 31.27776 2.38664 0.24021
C 31.06143 1.29291 -0.47484
C 30.71568 1.55660 -1.96497
C 31.40468 2.99885 -2.12011
C 31.33113 3.46248 -0.66673
C 32.86763 2.92652 -2.52493
C 29.16848 1.62918 -2.21579
C 28.75234 1.57540 -3.68741
H 27.51485 0.88286 -4.03594
N 31.35367 4.79643 2.09626
C 31.29810 5.43890 0.91076
C 31.19540 6.87051 1.23342
C 31.36083 7.03307 2.70343
C 31.72254 5.68099 3.07911
C 30.88284 7.91648 0.20305
C 31.22937 8.21326 3.61780
O 31.65078 8.17786 4.82775
C 30.67788 9.44166 3.02755
N 32.60592 2.95992 4.16177
C 32.77411 4.13585 4.79171
C 33.34307 3.93651 6.17624
C 33.29574 2.35941 6.43721
C 32.76722 1.89135 5.06353
C 34.76882 4.44475 6.38909
C 32.55641 1.87958 7.71620
C 31.07602 2.15974 7.59235
N 31.69096 0.69379 2.56024
C 32.25138 -0.03618 3.63129
C 32.24411 -1.46029 3.23850
C 31.69679 -1.45758 1.94663
C 31.40364 -0.12378 1.55352
C 32.74702 -2.54056 4.01710
C 31.31020 -2.27873 0.82193
O 31.24483 -3.48926 0.61196
C 31.01976 -1.33030 -0.42006
C 29.71484 -1.75658 -1.03486
O 28.64977 -1.63589 -0.40426
O 29.91036 -2.03130 -2.33742
C 28.64240 -2.44810 -2.99345
H 31.61218 5.54294 -1.17939
H 32.55264 6.06965 4.97282
H 32.99936 -0.17234 5.49503
H 31.15682 0.85662 -2.66440
H 30.81526 3.65152 -2.75883
H 33.23550 1.91123 -2.52651
H 33.40387 3.52210 -1.79776
H 33.01694 3.42140 -3.48885
H 28.81033 2.63362 -1.95584
H 28.65721 0.86202 -1.66742
H 29.57302 1.24572 -4.33606
H 28.53633 2.59218 -4.02433
H 30.97825 7.51934 -0.81508
H 31.66726 8.67791 0.27220
H 29.91335 8.39201 0.36621
H 31.30106 9.75233 2.19234
H 30.57800 10.14492 3.85660
H 29.68771 9.21770 2.61520
H 32.73333 4.43427 6.92026
H 34.30415 1.93421 6.54742
H 34.85241 5.17757 7.21375
H 35.11986 4.87534 5.46071
H 35.51099 3.67156 6.58034
H 32.90615 2.43818 8.58787
H 32.70176 0.82582 7.92945
H 30.99704 3.20803 7.89556
H 30.50680 1.51273 8.25674
H 30.74885 2.09305 6.54825
H 32.02324 -3.34127 3.94285
H 32.90817 -2.24393 5.05142
H 33.68739 -2.73616 3.49489
H 31.85365 -1.43604 -1.11506
H 28.82580 -3.42490 -3.45162
H 28.36938 -1.61726 -3.67088
H 27.79644 -2.67014 -2.35353
