79

Mg 31.53102 2.84117 2.38511
C 33.51993 0.31137 0.79659
C 33.51598 5.15311 0.85232
C 30.09202 5.07785 4.11542
C 30.47265 0.39967 4.63559
N 33.26185 2.63537 1.02344
C 33.88951 1.62516 0.44048
C 34.91969 2.04636 -0.64159
C 35.22584 3.53277 -0.11649
C 33.90869 3.81366 0.60385
C 36.35023 3.59081 0.90416
C 34.29975 2.06265 -2.08292
C 35.31874 2.16306 -3.22016
H 35.04524 1.44987 -4.46476
N 31.43141 4.80522 2.11841
C 32.31063 5.58138 1.45071
C 31.79813 6.95595 1.56051
C 30.63327 6.94967 2.48668
C 30.68777 5.58440 2.96954
C 32.35820 8.09917 0.76504
C 29.64288 8.00236 2.88313
O 28.85756 7.84528 3.88384
C 29.68367 9.26028 2.12323
N 30.60634 2.80617 4.24685
C 30.01366 3.90542 4.74516
C 29.18185 3.57305 5.96090
C 29.14503 1.97584 6.03270
C 30.07673 1.64761 4.84543
C 29.69300 4.13030 7.28927
C 27.74462 1.30560 6.08056
C 27.02653 1.51611 4.76701
N 31.75979 0.70162 2.58018
C 31.25564 -0.11953 3.61247
C 31.76758 -1.48434 3.37240
C 32.55903 -1.35681 2.22095
C 32.55788 -0.00376 1.78649
C 31.52382 -2.62076 4.19414
C 33.40377 -2.05707 1.28034
O 33.70375 -3.23535 1.09223
C 34.16561 -0.98389 0.38913
C 34.04446 -1.40491 -1.04982
O 32.93562 -1.42008 -1.61272
O 35.27520 -1.50991 -1.58333
C 35.20694 -1.91453 -3.01282
H 34.21424 5.95300 0.60432
H 29.49085 5.78818 4.68770
H 30.10911 -0.43690 5.23614
H 35.83128 1.46101 -0.65323
H 35.36264 4.22376 -0.94425
H 36.67981 2.60503 1.19700
H 35.94741 4.12353 1.75563
H 37.17187 4.20541 0.52532
H 33.76034 3.00719 -2.23003
H 33.66994 1.20802 -2.23646
H 36.34050 1.95969 -2.87725
H 35.35301 3.19940 -3.56490
H 33.31367 7.83311 0.29631
H 32.61639 8.88909 1.47865
H 31.64503 8.49717 0.04003
H 30.67297 9.70311 2.21069
H 28.84406 9.85225 2.49270
H 29.53333 9.03294 1.06194
H 28.17002 3.94326 5.85017
H 29.64327 1.59704 6.93719
H 28.95048 4.76225 7.81212
H 30.60029 4.68809 7.09892
H 30.02782 3.38208 8.00570
H 27.12672 1.77398 6.85061
H 27.78131 0.24355 6.29898
H 26.59318 2.51438 4.87988
H 26.25305 0.76342 4.62835
H 27.73631 1.55729 3.93264
H 31.30721 -3.44563 3.52843
H 30.70404 -2.44205 4.88681
H 32.48558 -2.69978 4.70800
H 35.20384 -0.95898 0.72237
H 35.81608 -2.81754 -3.11870
H 35.52058 -1.02475 -3.59046
H 34.25144 -2.25839 -3.39129
