79

Mg 15.76628 1.41940 1.19766
C 15.72297 2.51150 -2.21081
C 15.25858 -1.74767 0.03363
C 15.34765 0.49851 4.20321
C 15.13655 4.72348 2.10990
N 15.53832 0.61120 -0.85063
C 15.60128 1.12687 -2.07427
C 15.60182 0.04931 -3.19954
C 14.89077 -1.13944 -2.41006
C 15.28089 -0.75751 -0.99307
C 13.36974 -1.12148 -2.52251
C 17.05037 -0.34453 -3.64488
C 17.13902 -1.13950 -4.95083
H 18.26841 -0.90529 -5.83794
N 15.84661 -0.37992 2.00934
C 15.62864 -1.56130 1.38315
C 15.80526 -2.60733 2.41334
C 15.95668 -1.92817 3.73012
C 15.69344 -0.55946 3.36582
C 15.86578 -4.07051 2.09837
C 16.27600 -2.43406 5.10134
O 16.13092 -1.70936 6.14457
C 16.68413 -3.84700 5.20174
N 15.09092 2.41126 2.90580
C 15.06136 1.79747 4.09382
C 14.81696 2.77318 5.20656
C 14.92720 4.22587 4.55289
C 15.14750 3.80526 3.07884
C 13.46961 2.63987 5.92969
C 15.93371 5.21217 5.19677
C 17.34692 4.72278 4.97217
N 15.65164 3.33161 0.17719
C 15.35445 4.57660 0.75019
C 15.28552 5.55390 -0.35173
C 15.53265 4.80156 -1.49836
C 15.71665 3.43599 -1.13832
C 14.96486 6.93410 -0.22269
C 15.65966 4.82946 -2.94645
O 15.69381 5.71995 -3.79694
C 15.66711 3.32831 -3.47779
C 16.80717 3.19611 -4.45046
O 17.99070 3.28520 -4.06485
O 16.33854 2.75283 -5.62708
C 17.42313 2.57163 -6.62856
H 14.86739 -2.74012 -0.19863
H 15.30216 0.24377 5.26410
H 15.02802 5.78775 2.32670
H 15.01733 0.31265 -4.08127
H 15.31209 -2.11021 -2.67049
H 13.01774 -0.21838 -3.02094
H 13.00162 -1.15844 -1.49703
H 13.00620 -2.02950 -3.00429
H 17.45158 -1.08286 -2.95064
H 17.68550 0.53907 -3.71686
H 16.20184 -1.09871 -5.50667
H 17.26038 -2.19366 -4.70141
H 15.55827 -4.27252 1.07310
H 15.10828 -4.55957 2.71051
H 16.84531 -4.49684 2.31539
H 15.88853 -4.48021 4.80854
H 16.95861 -4.00739 6.24375
H 17.55105 -4.01050 4.56092
H 15.57113 2.67413 5.98620
H 13.97708 4.75990 4.58030
H 13.56312 2.48625 7.00503
H 12.91686 1.82405 5.46471
H 12.78683 3.47616 5.78191
H 15.77905 5.26234 6.27404
H 15.85514 6.22554 4.80289
H 17.48778 4.00627 5.78063
H 18.05343 5.54928 5.05547
H 17.43430 4.17587 4.03316
H 15.66812 7.47141 -0.85884
H 15.03785 7.26234 0.81391
H 13.93903 6.93835 -0.59079
H 14.70152 3.15933 -3.95339
H 17.15420 3.16345 -7.50358
H 17.54464 1.49662 -6.76267
H 18.39062 3.00660 -6.37536
