158

Mg 0.00000 0.00000 0.00000
C -0.21700 -2.21800 2.80100
C -1.25500 2.44200 2.02600
C -0.24500 1.85000 -2.56400
C 0.14600 -2.82400 -2.03700
N -0.61700 -0.00900 2.12600
C -0.59400 -0.90800 3.10500
C -0.93600 -0.30900 4.50200
C -1.77300 0.96400 4.03200
C -1.15500 1.16800 2.66000
C -3.26300 0.68500 3.86300
C 0.34500 0.11000 5.29900
C 0.12400 0.39700 6.78700
H 1.16800 0.03300 7.73300
N -0.18500 1.96100 -0.15200
C -0.70300 2.80000 0.77700
C -0.62000 4.15600 0.19300
C -0.18700 4.01500 -1.22500
C -0.21400 2.58300 -1.38000
C -0.88700 5.40600 0.97400
C 0.18100 5.01300 -2.27700
O 0.30300 4.69000 -3.50800
C 0.31000 6.41400 -1.83700
N -0.26500 -0.41300 -2.02900
C -0.27900 0.56900 -2.93700
C -0.19600 0.02400 -4.33200
C 0.12400 -1.53300 -4.18000
C 0.08600 -1.63200 -2.63500
C -1.45100 0.20500 -5.19700
C 1.37300 -2.07000 -4.92300
C 2.62600 -1.49000 -4.30600
N 0.15000 -2.14400 0.30300
C 0.17300 -3.13600 -0.68800
C 0.17300 -4.43800 0.00400
C 0.13300 -4.11100 1.35800
C 0.08300 -2.69500 1.50200
C 0.14900 -5.71500 -0.62300
C 0.09600 -4.62900 2.71600
O 0.20800 -5.74700 3.22100
C -0.25500 -3.42800 3.70100
C 0.71700 -3.48200 4.84800
O 1.93100 -3.25500 4.66900
O 0.03800 -3.55600 6.00300
C 0.94300 -3.58300 7.18300
H -1.85900 3.22000 2.49700
H -0.21800 2.45300 -3.47400
H 0.27600 -3.74700 -2.60500
H -1.55400 -0.94900 5.13200
H -1.58500 1.83100 4.66500
H -3.48400 -0.37700 3.96900
H -3.51100 1.02700 2.85800
H -3.85200 1.30100 4.54300
H 0.66900 1.09600 4.96600
H 1.13000 -0.63900 5.18900
H -0.84400 0.02600 7.12500
H 0.06200 1.47700 6.92100
H -1.34400 5.18600 1.93800
H -1.65100 5.96300 0.43200
H 0.00700 6.02000 1.08400
H -0.63500 6.74400 -1.40500
H 0.66500 6.97000 -2.70400
H 1.04800 6.46600 -1.03600
H 0.60800 0.50100 -4.89100
H -0.69200 -2.15600 -4.54700
H -1.26700 0.74000 -6.12900
H -2.20400 0.71400 -4.59600
H -1.96700 -0.72000 -5.45300
H 1.35600 -1.75900 -5.96700
H 1.45200 -3.15700 -4.90200
H 2.71400 -0.52200 -4.79800
H 3.48700 -2.12100 -4.52900
H 2.49500 -1.30300 -3.24000
H 0.86700 -6.33300 -0.08400
H 0.40400 -5.64200 -1.68000
H -0.89100 -5.99900 -0.46300
H -1.28300 -3.58100 4.02800
H 0.69800 -4.47800 7.75500
H 0.83300 -2.61900 7.68000
H 2.00000 -3.75400 6.97600
Mg 31.53256 2.83880 2.39533
C 31.10762 6.21941 1.29845
C 30.98290 1.87934 -0.83273
C 31.45205 -0.16272 3.41562
C 30.92175 3.96886 5.63501
N 31.11182 3.99601 0.55563
C 31.03433 5.28951 0.25895
C 30.94355 5.56804 -1.27127
C 30.34765 4.16785 -1.74707
C 30.87408 3.28690 -0.62783
C 28.82320 4.11880 -1.73507
C 32.34684 5.84031 -1.91030
C 32.31799 6.43806 -3.31998
H 33.34271 7.40136 -3.69327
N 31.74056 1.14265 1.40404
C 31.48708 0.93670 0.08927
C 31.79541 -0.48662 -0.16718
C 32.06688 -1.13696 1.14486
C 31.73408 -0.07074 2.05470
C 31.85808 -1.08037 -1.54097
C 32.53960 -2.50598 1.51963
O 32.48664 -2.93850 2.72158
C 32.98999 -3.37095 0.41418
N 31.01526 1.97376 4.22337
C 31.12461 0.65503 4.41827
C 30.97408 0.30310 5.86859
C 30.98042 1.68847 6.66262
C 31.05587 2.65314 5.45349
C 29.71312 -0.49066 6.23728
C 32.02446 1.84421 7.79669
C 33.41795 1.87929 7.21012
N 31.26594 4.76575 3.35805
C 31.00013 5.00083 4.71480
C 30.79306 6.45249 4.86922
C 30.93736 6.96234 3.58039
C 31.19086 5.89356 2.67389
C 30.45436 7.12203 6.07812
C 30.91194 8.15852 2.75435
O 30.83567 9.36705 2.98049
C 30.90021 7.71181 1.22591
C 31.93547 8.53138 0.50490
O 33.15026 8.38936 0.75286
O 31.35752 9.17501 -0.52090
C 32.33581 9.98374 -1.29618
H 30.59372 1.44894 -1.75752
H 31.52362 -1.17107 3.82861
H 30.81074 4.40429 6.62976
H 30.26409 6.37477 -1.54687
H 30.76284 3.85304 -2.70427
H 28.39942 5.01273 -1.27766
H 28.56503 3.23419 -1.15256
H 28.43344 3.94153 -2.73778
H 32.83599 4.88952 -2.12193
H 32.94947 6.47656 -1.26118
H 31.32724 6.81740 -3.57185
H 32.49014 5.63396 -4.03552
H 31.45030 -0.40207 -2.28941
H 31.18060 -1.93397 -1.55012
H 32.86492 -1.40733 -1.80118
H 32.17326 -3.50195 -0.29598
H 33.37545 -4.27744 0.87953
H 33.78905 -2.86414 -0.12766
H 31.80763 -0.30872 6.21108
H 30.02571 1.88411 7.15142
H 29.92196 -1.43794 6.73503
H 29.13477 -0.64636 5.32703
H 28.99864 0.04895 6.85837
H 31.98184 0.98976 8.47127
H 31.88077 2.74519 8.39321
H 33.65964 0.82344 7.09351
H 34.10912 2.36410 7.90038
H 33.42011 2.32583 6.21559
H 31.07424 8.01779 6.11469
H 30.62710 6.48509 6.94533
H 29.39592 7.31997 5.90961
H 29.89465 7.90129 0.85166
H 31.96286 11.00786 -1.31426
H 32.46861 9.47667 -2.25203
H 33.31364 10.12892 -0.83561
