79

Mg 13.12854 1.18583 0.99977
C 11.34276 -1.62435 -0.33922
C 11.51008 3.11896 -1.29767
C 15.00926 3.59584 1.84960
C 15.39275 -1.08219 2.36914
N 11.64110 0.69522 -0.56198
C 10.99124 -0.39622 -0.93719
C 9.84760 -0.14545 -1.95639
C 10.38331 1.23183 -2.58487
C 11.20313 1.73859 -1.40006
C 11.32118 1.03087 -3.76357
C 8.45555 0.04502 -1.25786
C 7.25032 -0.01435 -2.19895
H 6.01262 -0.61384 -1.70783
N 12.91502 3.13981 0.72598
C 12.20363 3.75272 -0.24332
C 12.38176 5.19607 -0.02153
C 13.38922 5.38402 1.05756
C 13.83532 4.01769 1.24258
C 11.57446 6.23591 -0.74292
C 13.88027 6.59500 1.79144
O 14.93118 6.55809 2.52427
C 13.14857 7.84767 1.55282
N 15.05089 1.26415 1.78768
C 15.61585 2.43910 2.11666
C 16.88050 2.23160 2.91541
C 16.91798 0.67101 3.26289
C 15.65930 0.21056 2.49536
C 18.18098 2.62863 2.21720
C 17.05138 0.28680 4.76198
C 15.79829 0.68210 5.50957
N 13.25728 -0.96278 1.18673
C 14.30410 -1.70669 1.77397
C 13.99634 -3.13556 1.55944
C 12.79399 -3.12325 0.83645
C 12.39201 -1.78114 0.59845
C 14.80714 -4.23168 1.96839
C 11.77898 -3.94032 0.21127
O 11.54263 -5.14680 0.16365
C 10.86003 -3.00511 -0.68723
C 9.42427 -3.34098 -0.39008
O 8.94270 -3.11791 0.73461
O 8.80103 -3.66533 -1.53757
C 7.37126 -3.99585 -1.29601
H 11.23080 3.77513 -2.12248
H 15.63965 4.38861 2.25897
H 15.99856 -1.85286 2.85052
H 9.75671 -0.89721 -2.73122
H 9.56396 1.91262 -2.80063
H 11.56669 -0.01047 -3.91011
H 12.21155 1.60047 -3.53150
H 10.89826 1.48612 -4.66370
H 8.36955 1.08168 -0.90760
H 8.32825 -0.66343 -0.46255
H 7.51380 -0.42642 -3.18064
H 6.92796 1.00717 -2.41482
H 11.03197 5.80528 -1.59361
H 12.28556 6.93313 -1.19908
H 10.91219 6.79232 -0.07624
H 13.17455 8.08458 0.49185
H 13.59122 8.57863 2.23226
H 12.09596 7.69340 1.81515
H 16.85166 2.79667 3.83897
H 17.77518 0.16892 2.79073
H 18.77048 3.37412 2.78361
H 17.93852 3.00450 1.23208
H 18.85395 1.80347 1.99045
H 17.87461 0.83848 5.22252
H 17.24207 -0.76916 4.92191
H 15.96511 1.74108 5.72824
H 15.69855 0.10115 6.42422
H 14.91603 0.61412 4.86254
H 14.14000 -4.97306 2.38764
H 15.56112 -3.92145 2.68885
H 15.24828 -4.51642 1.00944
H 11.11793 -3.19635 -1.72958
H 7.20092 -4.99616 -1.70593
H 6.79312 -3.16410 -1.74065
H 7.05494 -4.13169 -0.26843
