158

Mg 0.00000 0.00000 0.00000
C -0.21700 -2.21800 2.80100
C -1.25500 2.44200 2.02600
C -0.24500 1.85000 -2.56400
C 0.14600 -2.82400 -2.03700
N -0.61700 -0.00900 2.12600
C -0.59400 -0.90800 3.10500
C -0.93600 -0.30900 4.50200
C -1.77300 0.96400 4.03200
C -1.15500 1.16800 2.66000
C -3.26300 0.68500 3.86300
C 0.34500 0.11000 5.29900
C 0.12400 0.39700 6.78700
H 1.16800 0.03300 7.73300
N -0.18500 1.96100 -0.15200
C -0.70300 2.80000 0.77700
C -0.62000 4.15600 0.19300
C -0.18700 4.01500 -1.22500
C -0.21400 2.58300 -1.38000
C -0.88700 5.40600 0.97400
C 0.18100 5.01300 -2.27700
O 0.30300 4.69000 -3.50800
C 0.31000 6.41400 -1.83700
N -0.26500 -0.41300 -2.02900
C -0.27900 0.56900 -2.93700
C -0.19600 0.02400 -4.33200
C 0.12400 -1.53300 -4.18000
C 0.08600 -1.63200 -2.63500
C -1.45100 0.20500 -5.19700
C 1.37300 -2.07000 -4.92300
C 2.62600 -1.49000 -4.30600
N 0.15000 -2.14400 0.30300
C 0.17300 -3.13600 -0.68800
C 0.17300 -4.43800 0.00400
C 0.13300 -4.11100 1.35800
C 0.08300 -2.69500 1.50200
C 0.14900 -5.71500 -0.62300
C 0.09600 -4.62900 2.71600
O 0.20800 -5.74700 3.22100
C -0.25500 -3.42800 3.70100
C 0.71700 -3.48200 4.84800
O 1.93100 -3.25500 4.66900
O 0.03800 -3.55600 6.00300
C 0.94300 -3.58300 7.18300
H -1.85900 3.22000 2.49700
H -0.21800 2.45300 -3.47400
H 0.27600 -3.74700 -2.60500
H -1.55400 -0.94900 5.13200
H -1.58500 1.83100 4.66500
H -3.48400 -0.37700 3.96900
H -3.51100 1.02700 2.85800
H -3.85200 1.30100 4.54300
H 0.66900 1.09600 4.96600
H 1.13000 -0.63900 5.18900
H -0.84400 0.02600 7.12500
H 0.06200 1.47700 6.92100
H -1.34400 5.18600 1.93800
H -1.65100 5.96300 0.43200
H 0.00700 6.02000 1.08400
H -0.63500 6.74400 -1.40500
H 0.66500 6.97000 -2.70400
H 1.04800 6.46600 -1.03600
H 0.60800 0.50100 -4.89100
H -0.69200 -2.15600 -4.54700
H -1.26700 0.74000 -6.12900
H -2.20400 0.71400 -4.59600
H -1.96700 -0.72000 -5.45300
H 1.35600 -1.75900 -5.96700
H 1.45200 -3.15700 -4.90200
H 2.71400 -0.52200 -4.79800
H 3.48700 -2.12100 -4.52900
H 2.49500 -1.30300 -3.24000
H 0.86700 -6.33300 -0.08400
H 0.40400 -5.64200 -1.68000
H -0.89100 -5.99900 -0.46300
H -1.28300 -3.58100 4.02800
H 0.69800 -4.47800 7.75500
H 0.83300 -2.61900 7.68000
H 2.00000 -3.75400 6.97600
Mg 31.53256 2.83880 2.39533
C 30.95570 4.24818 5.63463
C 30.48388 5.80781 1.08067
C 31.59973 1.47146 -0.46518
C 31.43737 -0.30012 3.90655
N 30.83550 4.71530 3.34059
C 30.71798 5.14699 4.59239
C 30.39149 6.66703 4.69364
C 29.72330 6.87693 3.26135
C 30.41384 5.75606 2.50455
C 28.21907 6.62470 3.24793
C 31.67944 7.54205 4.85874
C 31.43413 8.99104 5.28957
H 32.39218 9.62859 6.18009
N 31.57716 3.64323 0.59151
C 31.12153 4.86973 0.24026
C 31.38057 5.00091 -1.20969
C 31.85015 3.67885 -1.70946
C 31.66710 2.86081 -0.53784
C 31.22653 6.28823 -1.95991
C 32.36994 3.22250 -3.03599
O 32.50278 1.98419 -3.32501
C 32.63954 4.27427 -4.03305
N 31.30233 0.86380 1.75970
C 31.43541 0.53390 0.47035
C 31.51081 -0.95357 0.29232
C 31.64603 -1.56815 1.75989
C 31.53641 -0.25658 2.57600
C 30.31936 -1.60298 -0.42513
C 32.85432 -2.50162 2.02276
C 34.13979 -1.70754 1.95862
N 31.42653 2.08059 4.42632
C 31.37583 0.73641 4.82291
C 31.20106 0.72426 6.28693
C 31.14525 2.07097 6.64063
C 31.25047 2.87323 5.46863
C 31.05710 -0.43486 7.09944
C 30.99647 3.01850 7.73329
O 30.96109 2.92746 8.96128
C 30.74546 4.46344 7.11281
C 31.65928 5.42678 7.82007
O 32.89727 5.35377 7.68076
O 30.93144 6.42006 8.35317
C 31.78050 7.42659 9.04464
H 29.95394 6.60437 0.55475
H 31.73063 0.95840 -1.42020
H 31.48411 -1.24172 4.45669
H 29.68067 6.92796 5.47790
H 29.98337 7.84273 2.82856
H 27.87512 6.21618 4.19805
H 28.05110 5.90918 2.44275
H 27.67745 7.52748 2.96435
H 32.12595 7.71281 3.87918
H 32.37818 7.07306 5.55237
H 30.41780 9.13036 5.65910
H 31.48975 9.62465 4.40433
H 30.71003 7.03970 -1.36402
H 30.55247 6.09224 -2.79354
H 32.17936 6.65993 -2.33713
H 31.72181 4.82978 -4.22728
H 33.08905 3.77017 -4.88785
H 33.34665 4.98860 -3.61035
H 32.38503 -1.23341 -0.29408
H 30.77972 -2.17155 2.03205
H 30.59928 -2.17086 -1.31274
H 29.60590 -0.81740 -0.67237
H 29.71229 -2.25861 0.19859
H 32.91369 -3.27073 1.25341
H 32.80870 -3.00266 2.98978
H 34.35620 -1.68048 0.89126
H 34.93180 -2.22113 2.50467
H 33.98907 -0.67890 2.28673
H 31.67869 -0.26967 7.97938
H 31.36004 -1.33414 6.56361
H 29.98614 -0.40912 7.30000
H 29.69470 4.69814 7.27995
H 31.41335 7.50771 10.06780
H 31.76106 8.32493 8.42737
H 32.81861 7.14241 9.22044
