79

Mg 15.77593 1.42378 1.19735
C 17.55569 -0.69357 3.48390
C 16.53294 4.03388 3.25863
C 13.84309 3.23473 -0.54966
C 14.22343 -1.44381 -0.03246
N 16.90513 1.53029 3.09624
C 17.58844 0.67141 3.83771
C 18.41529 1.32244 4.97878
C 17.56688 2.67527 5.14884
C 16.98924 2.78039 3.73889
C 16.41317 2.54292 6.12902
C 19.89434 1.62216 4.54914
C 20.84046 1.97028 5.70042
H 22.22791 1.52179 5.62099
N 15.65501 3.39889 1.04606
C 16.02905 4.31008 1.96861
C 15.71645 5.62421 1.38594
C 14.97600 5.40883 0.11312
C 14.77336 3.97485 0.16545
C 16.18403 6.91528 1.99250
C 14.51410 6.34114 -0.96560
O 13.68031 5.96946 -1.86532
C 14.99422 7.72828 -0.88316
N 14.10092 0.99330 0.04349
C 13.47723 1.95721 -0.65637
C 12.47614 1.36924 -1.62203
C 12.73114 -0.20935 -1.59707
C 13.82338 -0.27204 -0.50689
C 11.00656 1.65208 -1.31102
C 13.00770 -0.89922 -2.96099
C 14.33712 -0.43719 -3.51288
N 15.98406 -0.70624 1.49357
C 15.21464 -1.72950 0.89773
C 15.65179 -3.00748 1.49616
C 16.63694 -2.63382 2.42262
C 16.78787 -1.22078 2.41748
C 15.11470 -4.29182 1.19931
C 17.57600 -3.11253 3.41141
O 17.95396 -4.22220 3.78491
C 18.12331 -1.86698 4.23327
C 19.62034 -1.98719 4.31683
O 20.31915 -1.90612 3.29131
O 19.99312 -1.95980 5.60936
C 21.47055 -2.06499 5.74338
H 16.51933 4.87945 3.94690
H 13.22660 3.80273 -1.25023
H 13.85712 -2.39154 -0.43282
H 18.42083 0.76757 5.90930
H 18.21341 3.52303 5.36020
H 16.28187 1.52392 6.46151
H 15.53456 2.88345 5.59692
H 16.54698 3.23598 6.96454
H 19.92077 2.56741 3.99187
H 20.29935 0.80622 3.98272
H 20.41061 1.71875 6.67761
H 20.96293 3.05562 5.73284
H 16.56332 6.76707 3.01111
H 15.29858 7.54709 2.12162
H 16.90411 7.44067 1.36153
H 14.68730 8.16085 0.06613
H 14.63040 8.21775 -1.78866
H 16.08992 7.71998 -0.88562
H 12.64592 1.73680 -2.62660
H 11.86203 -0.75630 -1.20298
H 10.47279 2.15103 -2.14181
H 10.95728 2.25251 -0.41236
H 10.41593 0.77915 -1.03831
H 12.24999 -0.60872 -3.69286
H 13.00340 -1.98269 -2.90574
H 14.08619 0.50937 -4.00088
H 14.72665 -1.15887 -4.22806
H 15.04286 -0.21423 -2.70426
H 15.95506 -4.96691 1.10677
H 14.51728 -4.27250 0.29019
H 14.50215 -4.45759 2.08957
H 17.65494 -1.89282 5.21791
H 21.67192 -2.91671 6.40043
H 21.81071 -1.07071 6.08901
H 22.03552 -2.34066 4.86062
