79

Mg 31.54037 2.84238 2.38912
C 34.21800 0.65023 3.33983
C 33.49445 5.43708 3.43011
C 29.04196 4.75602 1.98499
C 29.42177 0.07756 2.50330
N 33.57503 2.90817 3.25403
C 34.52043 2.01710 3.51204
C 35.89175 2.62957 3.90436
C 35.37463 4.05052 4.44506
C 34.08334 4.16415 3.63739
C 35.01498 4.03797 5.92148
C 36.84641 2.79735 2.67046
C 38.30494 3.09866 3.02211
H 39.35498 2.53769 2.17642
N 31.45151 4.81604 2.20123
C 32.34177 5.71843 2.66428
C 31.81145 7.03744 2.28595
C 30.45377 6.84855 1.70652
C 30.25017 5.43752 1.96656
C 32.60982 8.30234 2.41274
C 29.49191 7.78590 1.04139
O 28.27100 7.45879 0.82875
C 29.99640 9.13148 0.73092
N 29.48836 2.51776 2.46794
C 28.62076 3.50979 2.20136
C 27.21535 2.97891 2.04840
C 27.35758 1.38612 2.02832
C 28.87763 1.26468 2.27345
C 26.22729 3.38763 3.14068
C 26.74300 0.63995 0.81251
C 27.51299 0.97825 -0.44369
N 31.77729 0.71119 2.65368
C 30.75505 -0.26221 2.69380
C 31.39689 -1.55482 3.00942
C 32.75574 -1.23724 3.15488
C 32.94440 0.15837 2.96467
C 30.72525 -2.79912 3.17299
C 34.07192 -1.76354 3.43657
O 34.54186 -2.88971 3.59357
C 35.05917 -0.54468 3.69370
C 36.30986 -0.78304 2.89278
O 36.27337 -0.78609 1.64969
O 37.37332 -0.75125 3.71644
C 38.63867 -0.97170 2.96670
H 33.93080 6.29910 3.93550
H 28.16014 5.35297 1.74098
H 28.84355 -0.84789 2.46000
H 36.41691 2.10115 4.69097
H 36.06256 4.84869 4.17853
H 35.05451 3.04215 6.33733
H 34.00975 4.43394 5.98276
H 35.64942 4.74007 6.46999
H 36.58623 3.72213 2.13959
H 36.79899 1.93652 2.03222
H 38.52146 2.90887 4.08043
H 38.47655 4.17105 2.90156
H 33.50846 8.15130 3.02351
H 32.00301 9.00676 2.99191
H 32.84490 8.75083 1.44514
H 30.32949 9.61264 1.64743
H 29.19376 9.62432 0.17886
H 30.87825 9.03472 0.08782
H 26.77870 3.30456 1.11225
H 26.86168 0.92183 2.89339
H 25.33207 3.90563 2.74782
H 26.74667 4.01391 3.85381
H 25.86836 2.57283 3.76715
H 25.71511 0.97096 0.64512
H 26.71843 -0.43778 0.93454
H 27.06998 1.92858 -0.75628
H 27.37011 0.20862 -1.19953
H 28.56960 1.16508 -0.21936
H 31.31509 -3.54205 2.65276
H 29.70880 -2.75598 2.78731
H 30.74745 -2.89104 4.26217
H 35.26018 -0.50630 4.76501
H 39.14598 -1.81901 3.43828
H 39.16585 0.00077 2.97790
H 38.56066 -1.31558 1.94195
