79

Mg 15.76056 1.42625 1.20340
C 17.99355 2.04469 3.94390
C 13.51034 0.27200 3.49224
C 13.95035 0.45367 -1.21418
C 18.53537 1.54047 -0.90211
N 15.85545 1.23413 3.40484
C 16.73132 1.55868 4.34392
C 16.19690 1.42632 5.79528
C 15.03967 0.34552 5.52779
C 14.75244 0.65325 4.05963
C 15.52335 -1.09156 5.62882
C 15.60855 2.77472 6.34088
C 15.35275 2.80105 7.84940
H 15.57094 4.05193 8.57063
N 13.83197 0.96134 1.14899
C 13.06920 0.53178 2.17609
C 11.72775 0.30834 1.61505
C 11.80153 0.48327 0.13902
C 13.23304 0.62213 -0.03875
C 10.52224 0.04325 2.46938
C 10.75772 0.50718 -0.93620
O 11.06807 0.43441 -2.17766
C 9.35702 0.52410 -0.48985
N 16.20194 0.84067 -0.74202
C 15.22337 0.51605 -1.60513
C 15.75545 0.39692 -3.01335
C 17.25547 0.94828 -2.95393
C 17.36553 1.21945 -1.43744
C 15.75426 -1.01117 -3.60804
C 17.62438 2.09203 -3.93801
C 16.87691 3.35276 -3.56755
N 17.85452 1.91475 1.41499
C 18.84605 1.87230 0.41043
C 20.13727 2.17763 1.06000
C 19.80807 2.35530 2.41224
C 18.41343 2.15365 2.59610
C 21.40553 2.21212 0.41466
C 20.32490 2.65712 3.72772
O 21.41840 3.00295 4.17312
C 19.19309 2.34506 4.79918
C 19.10778 3.51621 5.73920
O 18.73146 4.62877 5.33030
O 19.27379 3.08103 7.00152
C 19.18638 4.20483 7.97170
H 12.82296 -0.31927 4.09787
H 13.35493 0.22612 -2.10141
H 19.43223 1.69153 -1.50666
H 16.91245 1.03599 6.50900
H 14.16296 0.54631 6.13805
H 16.59514 -1.14850 5.74780
H 15.21907 -1.56984 4.70702
H 14.99067 -1.61320 6.42912
H 14.58068 2.89135 5.97396
H 16.23346 3.60204 6.06583
H 15.84615 1.96864 8.36573
H 14.28754 2.63096 8.02376
H 10.80545 -0.19271 3.50258
H 10.06251 -0.87843 2.09652
H 9.78687 0.84925 2.42193
H 9.16312 -0.35202 0.12437
H 8.76190 0.63051 -1.39891
H 9.20508 1.39868 0.15251
H 15.18205 1.01125 -3.69667
H 17.98823 0.16163 -3.18650
H 15.18895 -1.08401 -4.55630
H 15.35022 -1.69256 -2.87116
H 16.73972 -1.43337 -3.79731
H 17.31292 1.83347 -4.95305
H 18.68732 2.30646 -3.97209
H 15.90138 3.20966 -4.04184
H 17.38415 4.22961 -3.96490
H 16.71216 3.40898 -2.48526
H 21.92082 3.08735 0.78740
H 21.30012 2.24278 -0.66780
H 21.82567 1.26351 0.75947
H 19.47444 1.42599 5.31467
H 20.10935 4.19187 8.55962
H 18.23769 4.05300 8.52005
H 19.20312 5.21278 7.57395
