158

Mg 0.00000 0.00000 0.00000
C -0.21700 -2.21800 2.80100
C -1.25500 2.44200 2.02600
C -0.24500 1.85000 -2.56400
C 0.14600 -2.82400 -2.03700
N -0.61700 -0.00900 2.12600
C -0.59400 -0.90800 3.10500
C -0.93600 -0.30900 4.50200
C -1.77300 0.96400 4.03200
C -1.15500 1.16800 2.66000
C -3.26300 0.68500 3.86300
C 0.34500 0.11000 5.29900
C 0.12400 0.39700 6.78700
H 1.16800 0.03300 7.73300
N -0.18500 1.96100 -0.15200
C -0.70300 2.80000 0.77700
C -0.62000 4.15600 0.19300
C -0.18700 4.01500 -1.22500
C -0.21400 2.58300 -1.38000
C -0.88700 5.40600 0.97400
C 0.18100 5.01300 -2.27700
O 0.30300 4.69000 -3.50800
C 0.31000 6.41400 -1.83700
N -0.26500 -0.41300 -2.02900
C -0.27900 0.56900 -2.93700
C -0.19600 0.02400 -4.33200
C 0.12400 -1.53300 -4.18000
C 0.08600 -1.63200 -2.63500
C -1.45100 0.20500 -5.19700
C 1.37300 -2.07000 -4.92300
C 2.62600 -1.49000 -4.30600
N 0.15000 -2.14400 0.30300
C 0.17300 -3.13600 -0.68800
C 0.17300 -4.43800 0.00400
C 0.13300 -4.11100 1.35800
C 0.08300 -2.69500 1.50200
C 0.14900 -5.71500 -0.62300
C 0.09600 -4.62900 2.71600
O 0.20800 -5.74700 3.22100
C -0.25500 -3.42800 3.70100
C 0.71700 -3.48200 4.84800
O 1.93100 -3.25500 4.66900
O 0.03800 -3.55600 6.00300
C 0.94300 -3.58300 7.18300
H -1.85900 3.22000 2.49700
H -0.21800 2.45300 -3.47400
H 0.27600 -3.74700 -2.60500
H -1.55400 -0.94900 5.13200
H -1.58500 1.83100 4.66500
H -3.48400 -0.37700 3.96900
H -3.51100 1.02700 2.85800
H -3.85200 1.30100 4.54300
H 0.66900 1.09600 4.96600
H 1.13000 -0.63900 5.18900
H -0.84400 0.02600 7.12500
H 0.06200 1.47700 6.92100
H -1.34400 5.18600 1.93800
H -1.65100 5.96300 0.43200
H 0.00700 6.02000 1.08400
H -0.63500 6.74400 -1.40500
H 0.66500 6.97000 -2.70400
H 1.04800 6.46600 -1.03600
H 0.60800 0.50100 -4.89100
H -0.69200 -2.15600 -4.54700
H -1.26700 0.74000 -6.12900
H -2.20400 0.71400 -4.59600
H -1.96700 -0.72000 -5.45300
H 1.35600 -1.75900 -5.96700
H 1.45200 -3.15700 -4.90200
H 2.71400 -0.52200 -4.79800
H 3.48700 -2.12100 -4.52900
H 2.49500 -1.30300 -3.24000
H 0.86700 -6.33300 -0.08400
H 0.40400 -5.64200 -1.68000
H -0.89100 -5.99900 -0.46300
H -1.28300 -3.58100 4.02800
H 0.69800 -4.47800 7.75500
H 0.83300 -2.61900 7.68000
H 2.00000 -3.75400 6.97600
Mg 15.77404 1.41249 1.19972
C 15.96184 -0.34269 -1.92489
C 15.04890 -1.58043 2.66642
C 15.15924 2.98942 3.88351
C 15.37968 4.35030 -0.63316
N 15.56160 -0.62778 0.37241
C 15.71620 -1.18393 -0.81971
C 15.68080 -2.73579 -0.81495
C 14.83306 -2.95285 0.53157
C 15.19261 -1.65842 1.25810
C 13.33110 -2.96978 0.30097
C 17.11314 -3.36599 -0.69981
C 17.18208 -4.86514 -0.99905
H 18.36914 -5.38698 -1.67065
N 15.67348 0.76761 3.07391
C 15.38933 -0.48452 3.48948
C 15.41904 -0.43699 4.95952
C 15.58143 0.98136 5.37980
C 15.45402 1.65140 4.10117
C 15.37878 -1.67020 5.81450
C 15.80069 1.62861 6.71366
O 15.67530 2.89370 6.87695
C 16.07478 0.72747 7.84251
N 15.12243 3.34999 1.57895
C 14.98652 3.79949 2.83887
C 14.77508 5.29449 2.86483
C 15.03974 5.79187 1.36812
C 15.28171 4.42701 0.68695
C 13.39308 5.76308 3.31968
C 16.09842 6.91206 1.17560
C 17.47447 6.38536 1.51389
N 15.86683 1.96883 -0.88593
C 15.64478 3.24954 -1.43780
C 15.70458 3.10687 -2.90698
C 15.93624 1.73808 -3.11009
C 15.99512 1.07116 -1.85660
C 15.50603 4.15173 -3.85301
C 16.13376 0.70398 -4.10019
O 16.27045 0.68661 -5.32279
C 16.03313 -0.70996 -3.38113
C 17.19727 -1.54656 -3.83653
O 18.36133 -1.22449 -3.54012
O 16.73542 -2.69812 -4.35707
C 17.85334 -3.56663 -4.81291
H 14.59307 -2.42198 3.18882
H 15.04803 3.60003 4.78254
H 15.36417 5.23583 -1.27212
H 15.16305 -3.18094 -1.65611
H 15.19062 -3.81483 1.08880
H 13.07687 -2.71414 -0.71694
H 12.91980 -2.24177 0.98790
H 12.91460 -3.93575 0.60056
H 17.41862 -3.37059 0.35442
H 17.81158 -2.84084 -1.32193
H 16.27143 -5.22985 -1.48962
H 17.21116 -5.40731 -0.05077
H 15.09171 -2.55433 5.23200
H 14.55891 -1.53752 6.52869
H 16.30687 -1.82980 6.36754
H 15.24783 0.03074 7.95743
H 16.29178 1.37943 8.69087
H 16.96059 0.12803 7.60454
H 15.48663 5.77428 3.52559
H 14.13195 6.21393 0.91249
H 13.42853 6.45089 4.18556
H 12.79599 4.89100 3.55098
H 12.79666 6.25470 2.55300
H 15.90464 7.73858 1.86369
H 16.11293 7.32485 0.17241
H 17.51532 6.48319 2.60286
H 18.24365 6.98742 1.03438
H 17.55715 5.31861 1.27544
H 16.27000 4.03547 -4.61020
H 15.55864 5.13064 -3.38107
H 14.49519 3.91504 -4.19573
H 15.07649 -1.15260 -3.66127
H 17.66851 -3.79875 -5.86630
H 17.87781 -4.41751 -4.10639
H 18.84196 -3.12562 -4.86382
