79

Mg 15.77212 1.42432 1.20501
C 15.39113 -0.81484 3.98351
C 14.37346 3.84643 3.15737
C 15.67832 3.29513 -1.35598
C 16.06025 -1.38335 -0.83942
N 15.02082 1.39745 3.28517
C 14.98426 0.50617 4.26427
C 14.55926 1.08127 5.64202
C 13.73672 2.36010 5.12540
C 14.43850 2.57750 3.78640
C 12.27121 2.06357 4.85397
C 15.78998 1.50545 6.51804
C 15.46743 1.78531 7.98753
H 16.45794 1.42526 8.99834
N 15.58465 3.39471 1.06013
C 15.01046 4.22548 1.95534
C 15.10782 5.57317 1.37360
C 15.63836 5.44909 -0.01126
C 15.63467 4.00831 -0.16686
C 14.79116 6.81896 2.14895
C 16.06484 6.46034 -1.03190
O 16.26859 6.13745 -2.25544
C 16.14636 7.85618 -0.57751
N 15.64474 1.02238 -0.83081
C 15.67512 2.01701 -1.73508
C 15.84829 1.47678 -3.13457
C 16.17184 -0.07934 -2.95742
C 16.03572 -0.19306 -1.42317
C 14.64751 1.64390 -4.06547
C 17.47034 -0.60869 -3.62553
C 18.68130 -0.01907 -2.93901
N 15.92163 -0.70998 1.50578
C 16.00828 -1.70769 0.51021
C 15.97355 -3.01416 1.19893
C 15.84489 -2.68363 2.55639
C 15.78213 -1.27137 2.70154
C 16.00832 -4.28901 0.56673
C 15.73722 -3.20859 3.89860
O 15.81790 -4.32806 4.40259
C 15.31142 -2.02574 4.87120
C 16.20881 -2.07044 6.07752
O 17.42698 -1.84548 5.96774
O 15.45204 -2.15555 7.18676
C 16.29667 -2.19161 8.41033
H 13.74081 4.61458 3.60299
H 15.75926 3.89704 -2.26408
H 16.24372 -2.30375 -1.39789
H 13.91405 0.43474 6.22466
H 13.88680 3.21625 5.77797
H 12.05054 1.01005 4.94073
H 12.08336 2.40766 3.84533
H 11.63665 2.67332 5.50350
H 16.12484 2.50303 6.20590
H 16.57368 0.77595 6.45269
H 14.47607 1.41100 8.27046
H 15.39552 2.86667 8.12718
H 14.26838 6.58801 3.08531
H 14.05930 7.38387 1.56148
H 15.66970 7.44575 2.31616
H 15.17563 8.17098 -0.20194
H 16.55314 8.41526 -1.42240
H 16.84274 7.90915 0.26681
H 16.68268 1.95467 -3.63308
H 15.38279 -0.71146 -3.39061
H 14.88843 2.19525 -4.99393
H 13.85935 2.14496 -3.51932
H 14.16509 0.71604 -4.36805
H 17.51770 -0.28701 -4.66881
H 17.54971 -1.69065 -3.61821
H 18.78741 0.95726 -3.42131
H 19.55828 -0.64050 -3.10866
H 18.48332 0.15839 -1.87554
H 16.68860 -4.90318 1.14164
H 16.32399 -4.20948 -0.47144
H 14.95803 -4.57936 0.65532
H 14.26405 -2.17882 5.13421
H 16.01888 -3.09391 8.96384
H 16.13321 -1.22081 8.91490
H 17.36179 -2.34308 8.27980
