79

Mg 10.51188 0.95485 0.80458
C 12.11043 -0.46052 3.68909
C 7.96029 1.89358 2.86438
C 8.87535 1.80935 -1.77593
C 12.57877 -1.05409 -1.15446
N 10.19210 0.69395 2.97758
C 10.89632 0.19481 3.98220
C 10.30315 0.48052 5.38794
C 8.76996 0.69756 4.96240
C 8.97914 1.15849 3.52141
C 7.96361 -0.59032 4.93964
C 10.90692 1.77374 6.03990
C 10.60580 1.94303 7.53068
H 11.62691 2.54592 8.38293
N 8.94004 2.15208 0.61878
C 8.01920 2.43850 1.56287
C 7.05779 3.35023 0.92365
C 7.39456 3.44822 -0.52262
C 8.42618 2.43535 -0.62228
C 6.00099 4.08822 1.69305
C 6.86557 4.30212 -1.63493
O 7.13741 4.05326 -2.86253
C 5.94452 5.38193 -1.25129
N 10.54783 0.30065 -1.16851
C 9.77051 0.87684 -2.10216
C 10.16481 0.43221 -3.49041
C 11.53105 -0.37917 -3.30982
C 11.64847 -0.33761 -1.77038
C 9.14718 -0.44181 -4.22313
C 12.74558 0.09028 -4.15669
C 13.19988 1.45612 -3.69464
N 12.18991 -0.35990 1.15627
C 12.89128 -1.12301 0.19720
C 13.87433 -1.94666 0.93044
C 13.65929 -1.62003 2.27786
C 12.60221 -0.67563 2.37889
C 14.77195 -2.88558 0.34835
C 14.07899 -1.86737 3.63851
O 14.98948 -2.50645 4.16417
C 13.00991 -1.22260 4.62225
C 13.75461 -0.44227 5.67059
O 14.41262 0.56610 5.35944
O 13.39269 -0.88417 6.88883
C 14.09657 -0.13314 7.96229
H 7.00772 2.03181 3.37662
H 8.41759 2.15172 -2.70691
H 13.32632 -1.63333 -1.70066
H 10.38152 -0.34122 6.08963
H 8.30436 1.48411 5.55054
H 8.58600 -1.45822 5.09940
H 7.50159 -0.63087 3.96192
H 7.14182 -0.53331 5.65918
H 10.38430 2.65295 5.64163
H 11.96601 1.82357 5.87723
H 10.22539 1.01859 7.98193
H 9.78251 2.65315 7.63995
H 5.89024 3.68889 2.70876
H 5.04257 3.87029 1.20952
H 6.15843 5.16890 1.69453
H 5.08508 4.95797 -0.73741
H 5.74533 5.93644 -2.17037
H 6.45107 6.03463 -0.53156
H 10.34499 1.28521 -4.13309
H 11.41639 -1.43720 -3.58779
H 8.83356 -0.02281 -5.19789
H 8.29104 -0.58360 -3.57702
H 9.46738 -1.46536 -4.41030
H 12.45734 0.19737 -5.20531
H 13.58662 -0.59417 -4.12217
H 12.52259 2.13342 -4.22344
H 14.23537 1.63192 -3.97908
H 13.02436 1.58673 -2.62050
H 15.72996 -2.74003 0.82954
H 14.84307 -2.75234 -0.72913
H 14.27418 -3.82196 0.61420
H 12.42888 -2.03810 5.05461
H 14.60892 -0.87216 8.58602
H 13.32156 0.48733 8.45026
H 14.92206 0.50484 7.66904
