158

Mg 0.00000 0.00000 0.00000
C -0.21700 -2.21800 2.80100
C -1.25500 2.44200 2.02600
C -0.24500 1.85000 -2.56400
C 0.14600 -2.82400 -2.03700
N -0.61700 -0.00900 2.12600
C -0.59400 -0.90800 3.10500
C -0.93600 -0.30900 4.50200
C -1.77300 0.96400 4.03200
C -1.15500 1.16800 2.66000
C -3.26300 0.68500 3.86300
C 0.34500 0.11000 5.29900
C 0.12400 0.39700 6.78700
H 1.16800 0.03300 7.73300
N -0.18500 1.96100 -0.15200
C -0.70300 2.80000 0.77700
C -0.62000 4.15600 0.19300
C -0.18700 4.01500 -1.22500
C -0.21400 2.58300 -1.38000
C -0.88700 5.40600 0.97400
C 0.18100 5.01300 -2.27700
O 0.30300 4.69000 -3.50800
C 0.31000 6.41400 -1.83700
N -0.26500 -0.41300 -2.02900
C -0.27900 0.56900 -2.93700
C -0.19600 0.02400 -4.33200
C 0.12400 -1.53300 -4.18000
C 0.08600 -1.63200 -2.63500
C -1.45100 0.20500 -5.19700
C 1.37300 -2.07000 -4.92300
C 2.62600 -1.49000 -4.30600
N 0.15000 -2.14400 0.30300
C 0.17300 -3.13600 -0.68800
C 0.17300 -4.43800 0.00400
C 0.13300 -4.11100 1.35800
C 0.08300 -2.69500 1.50200
C 0.14900 -5.71500 -0.62300
C 0.09600 -4.62900 2.71600
O 0.20800 -5.74700 3.22100
C -0.25500 -3.42800 3.70100
C 0.71700 -3.48200 4.84800
O 1.93100 -3.25500 4.66900
O 0.03800 -3.55600 6.00300
C 0.94300 -3.58300 7.18300
H -1.85900 3.22000 2.49700
H -0.21800 2.45300 -3.47400
H 0.27600 -3.74700 -2.60500
H -1.55400 -0.94900 5.13200
H -1.58500 1.83100 4.66500
H -3.48400 -0.37700 3.96900
H -3.51100 1.02700 2.85800
H -3.85200 1.30100 4.54300
H 0.66900 1.09600 4.96600
H 1.13000 -0.63900 5.18900
H -0.84400 0.02600 7.12500
H 0.06200 1.47700 6.92100
H -1.34400 5.18600 1.93800
H -1.65100 5.96300 0.43200
H 0.00700 6.02000 1.08400
H -0.63500 6.74400 -1.40500
H 0.66500 6.97000 -2.70400
H 1.04800 6.46600 -1.03600
H 0.60800 0.50100 -4.89100
H -0.69200 -2.15600 -4.54700
H -1.26700 0.74000 -6.12900
H -2.20400 0.71400 -4.59600
H -1.96700 -0.72000 -5.45300
H 1.35600 -1.75900 -5.96700
H 1.45200 -3.15700 -4.90200
H 2.71400 -0.52200 -4.79800
H 3.48700 -2.12100 -4.52900
H 2.49500 -1.30300 -3.24000
H 0.86700 -6.33300 -0.08400
H 0.40400 -5.64200 -1.68000
H -0.89100 -5.99900 -0.46300
H -1.28300 -3.58100 4.02800
H 0.69800 -4.47800 7.75500
H 0.83300 -2.61900 7.68000
H 2.00000 -3.75400 6.97600
Mg 7.87773 0.71379 0.60698
C 5.52975 -1.92227 1.25292
C 5.20388 2.75148 0.03002
C 9.91099 2.93001 -0.40380
C 10.29467 -1.74817 0.11416
N 5.69743 0.34626 0.66578
C 4.92107 -0.67867 0.98380
C 3.41186 -0.33259 1.09365
C 3.39295 0.96411 0.14649
C 4.84435 1.40953 0.31290
C 3.15909 0.63577 -1.31872
C 2.98521 0.02192 2.56140
C 1.47411 0.06818 2.79846
H 0.95760 -0.38403 4.08734
N 7.63969 2.67212 0.39055
C 6.48101 3.33340 0.18695
C 6.84354 4.75458 0.07298
C 8.32791 4.86055 0.06132
C 8.69168 3.45944 -0.00686
C 5.82415 5.85650 0.06779
C 9.26479 6.02996 0.09189
O 10.51342 5.89934 -0.16634
C 8.66124 7.34718 0.34125
N 9.76604 0.60632 -0.25620
C 10.45543 1.72216 -0.55212
C 11.88832 1.40083 -0.90419
C 12.08200 -0.14593 -0.54699
C 10.63930 -0.48844 -0.11491
C 12.28515 1.64006 -2.36079
C 13.24690 -0.50544 0.41552
C 12.96192 0.03910 1.79670
N 7.98396 -1.43111 0.84399
C 9.08461 -2.26763 0.55610
C 8.63995 -3.66045 0.76762
C 7.29409 -3.53792 1.14465
C 6.92032 -2.16687 1.14699
C 9.43038 -4.82631 0.56238
C 6.10165 -4.25736 1.53090
O 5.83974 -5.43265 1.78357
C 4.87113 -3.25190 1.49565
C 4.09258 -3.42573 2.77086
O 4.59876 -3.12528 3.86636
O 2.81225 -3.70984 2.47021
C 1.99746 -3.88034 3.70264
H 4.44723 3.41331 -0.39229
H 10.68266 3.66096 -0.65621
H 11.01637 -2.56695 0.07624
H 2.74264 -1.08910 0.70173
H 2.71504 1.72275 0.52895
H 3.16195 -0.42905 -1.49841
H 3.96591 1.11289 -1.85950
H 2.23864 1.11133 -1.66934
H 3.23950 1.07009 2.76493
H 3.44071 -0.64933 3.26324
H 0.91360 -0.39343 1.97646
H 1.15310 1.11263 2.78843
H 4.80978 5.46539 -0.07883
H 6.01315 6.46275 -0.82474
H 5.89102 6.49634 0.95029
H 7.91681 7.55400 -0.42393
H 9.49904 8.04325 0.41505
H 8.12801 7.31224 1.29784
H 12.57447 1.98814 -0.30638
H 12.29289 -0.74776 -1.44318
H 13.14111 2.33219 -2.47195
H 11.42105 2.01543 -2.89274
H 12.53221 0.74268 -2.92548
H 14.17396 -0.03341 0.08099
H 13.43554 -1.57148 0.48607
H 13.29338 1.07933 1.72507
H 13.53036 -0.50544 2.54796
H 11.88500 0.04961 2.00112
H 9.24190 -5.48203 1.40202
H 10.48693 -4.58058 0.47819
H 9.01438 -5.17971 -0.38489
H 4.27463 -3.49489 0.61546
H 1.52711 -4.86656 3.64078
H 1.32480 -3.00290 3.73982
H 2.52545 -3.95662 4.64596
