158

Mg 0.00000 0.00000 0.00000
C -0.21700 -2.21800 2.80100
C -1.25500 2.44200 2.02600
C -0.24500 1.85000 -2.56400
C 0.14600 -2.82400 -2.03700
N -0.61700 -0.00900 2.12600
C -0.59400 -0.90800 3.10500
C -0.93600 -0.30900 4.50200
C -1.77300 0.96400 4.03200
C -1.15500 1.16800 2.66000
C -3.26300 0.68500 3.86300
C 0.34500 0.11000 5.29900
C 0.12400 0.39700 6.78700
H 1.16800 0.03300 7.73300
N -0.18500 1.96100 -0.15200
C -0.70300 2.80000 0.77700
C -0.62000 4.15600 0.19300
C -0.18700 4.01500 -1.22500
C -0.21400 2.58300 -1.38000
C -0.88700 5.40600 0.97400
C 0.18100 5.01300 -2.27700
O 0.30300 4.69000 -3.50800
C 0.31000 6.41400 -1.83700
N -0.26500 -0.41300 -2.02900
C -0.27900 0.56900 -2.93700
C -0.19600 0.02400 -4.33200
C 0.12400 -1.53300 -4.18000
C 0.08600 -1.63200 -2.63500
C -1.45100 0.20500 -5.19700
C 1.37300 -2.07000 -4.92300
C 2.62600 -1.49000 -4.30600
N 0.15000 -2.14400 0.30300
C 0.17300 -3.13600 -0.68800
C 0.17300 -4.43800 0.00400
C 0.13300 -4.11100 1.35800
C 0.08300 -2.69500 1.50200
C 0.14900 -5.71500 -0.62300
C 0.09600 -4.62900 2.71600
O 0.20800 -5.74700 3.22100
C -0.25500 -3.42800 3.70100
C 0.71700 -3.48200 4.84800
O 1.93100 -3.25500 4.66900
O 0.03800 -3.55600 6.00300
C 0.94300 -3.58300 7.18300
H -1.85900 3.22000 2.49700
H -0.21800 2.45300 -3.47400
H 0.27600 -3.74700 -2.60500
H -1.55400 -0.94900 5.13200
H -1.58500 1.83100 4.66500
H -3.48400 -0.37700 3.96900
H -3.51100 1.02700 2.85800
H -3.85200 1.30100 4.54300
H 0.66900 1.09600 4.96600
H 1.13000 -0.63900 5.18900
H -0.84400 0.02600 7.12500
H 0.06200 1.47700 6.92100
H -1.34400 5.18600 1.93800
H -1.65100 5.96300 0.43200
H 0.00700 6.02000 1.08400
H -0.63500 6.74400 -1.40500
H 0.66500 6.97000 -2.70400
H 1.04800 6.46600 -1.03600
H 0.60800 0.50100 -4.89100
H -0.69200 -2.15600 -4.54700
H -1.26700 0.74000 -6.12900
H -2.20400 0.71400 -4.59600
H -1.96700 -0.72000 -5.45300
H 1.35600 -1.75900 -5.96700
H 1.45200 -3.15700 -4.90200
H 2.71400 -0.52200 -4.79800
H 3.48700 -2.12100 -4.52900
H 2.49500 -1.30300 -3.24000
H 0.86700 -6.33300 -0.08400
H 0.40400 -5.64200 -1.68000
H -0.89100 -5.99900 -0.46300
H -1.28300 -3.58100 4.02800
H 0.69800 -4.47800 7.75500
H 0.83300 -2.61900 7.68000
H 2.00000 -3.75400 6.97600
Mg 31.53256 2.83880 2.39533
C 31.71603 -0.57829 1.34555
C 30.52279 1.69196 5.44626
C 30.92729 5.84488 3.20388
C 31.44674 3.71602 -0.97644
N 31.20112 0.79369 3.17526
C 31.36487 -0.43285 2.68949
C 31.20187 -1.54961 3.76357
C 30.29331 -0.76153 4.81022
C 30.72245 0.65806 4.48385
C 28.79790 -0.89658 4.54189
C 32.57096 -1.97043 4.39620
C 32.54405 -3.26874 5.20801
H 33.70832 -4.14086 5.17292
N 31.30295 3.66549 4.17485
C 30.90065 3.04531 5.31011
C 30.88787 4.08607 6.36051
C 31.13219 5.39964 5.70253
C 31.10416 5.02090 4.31288
C 30.70938 3.78337 7.81662
C 31.34505 6.77931 6.24044
O 31.30817 7.81464 5.49124
C 31.51214 6.89667 7.70036
N 31.00818 4.52905 1.28820
C 30.86158 5.72121 1.87661
C 30.76741 6.82263 0.86274
C 31.12543 6.15943 -0.54500
C 31.29257 4.69209 -0.07889
C 29.40711 7.52679 0.76392
C 32.27275 6.81045 -1.35755
C 33.58824 6.61055 -0.63877
N 31.74981 1.80196 0.50091
C 31.65534 2.36085 -0.78182
C 31.76389 1.25050 -1.74588
C 31.89820 0.11350 -0.95150
C 31.84868 0.48679 0.42200
C 31.67459 1.36410 -3.16135
C 32.04731 -1.33272 -0.94338
O 32.23978 -2.18949 -1.80732
C 31.81307 -1.85225 0.54358
C 32.92831 -2.80693 0.87245
O 34.10501 -2.40458 0.97659
O 32.40839 -3.98686 1.24390
C 33.46120 -4.97079 1.61220
H 29.97574 1.46164 6.36257
H 30.82614 6.90692 3.43686
H 31.51312 3.92294 -2.04612
H 30.68084 -2.44189 3.41603
H 30.55144 -1.00818 5.83991
H 28.60700 -1.40713 3.59806
H 28.41515 0.12361 4.50707
H 28.29541 -1.37662 5.38203
H 32.83507 -1.26465 5.18371
H 33.34458 -2.03987 3.63068
H 31.63405 -3.83866 5.01828
H 32.48581 -3.00940 6.26515
H 30.38630 2.75527 7.97528
H 29.87327 4.38803 8.16737
H 31.60179 4.01814 8.39698
H 30.62794 6.49667 8.19709
H 31.74239 7.94383 7.89345
H 32.34845 6.27001 8.01154
H 31.48433 7.61407 1.07738
H 30.27660 6.16867 -1.22917
H 29.45959 8.60455 0.92004
H 28.73309 7.06003 1.48164
H 28.87430 7.36247 -0.17232
H 32.11425 7.88490 -1.44348
H 32.36836 6.40761 -2.36593
H 33.59772 7.42653 0.08298
H 34.42072 6.69787 -1.33773
H 33.59629 5.67719 -0.07550
H 32.46552 0.73426 -3.56841
H 31.78716 2.39909 -3.48342
H 30.66862 0.98086 -3.33162
H 30.83923 -2.34074 0.55520
H 33.30566 -5.85424 0.99288
H 33.40474 -5.09475 2.69379
H 34.48392 -4.70670 1.34083
