158

Mg 0.00000 0.00000 0.00000
C -0.21700 -2.21800 2.80100
C -1.25500 2.44200 2.02600
C -0.24500 1.85000 -2.56400
C 0.14600 -2.82400 -2.03700
N -0.61700 -0.00900 2.12600
C -0.59400 -0.90800 3.10500
C -0.93600 -0.30900 4.50200
C -1.77300 0.96400 4.03200
C -1.15500 1.16800 2.66000
C -3.26300 0.68500 3.86300
C 0.34500 0.11000 5.29900
C 0.12400 0.39700 6.78700
H 1.16800 0.03300 7.73300
N -0.18500 1.96100 -0.15200
C -0.70300 2.80000 0.77700
C -0.62000 4.15600 0.19300
C -0.18700 4.01500 -1.22500
C -0.21400 2.58300 -1.38000
C -0.88700 5.40600 0.97400
C 0.18100 5.01300 -2.27700
O 0.30300 4.69000 -3.50800
C 0.31000 6.41400 -1.83700
N -0.26500 -0.41300 -2.02900
C -0.27900 0.56900 -2.93700
C -0.19600 0.02400 -4.33200
C 0.12400 -1.53300 -4.18000
C 0.08600 -1.63200 -2.63500
C -1.45100 0.20500 -5.19700
C 1.37300 -2.07000 -4.92300
C 2.62600 -1.49000 -4.30600
N 0.15000 -2.14400 0.30300
C 0.17300 -3.13600 -0.68800
C 0.17300 -4.43800 0.00400
C 0.13300 -4.11100 1.35800
C 0.08300 -2.69500 1.50200
C 0.14900 -5.71500 -0.62300
C 0.09600 -4.62900 2.71600
O 0.20800 -5.74700 3.22100
C -0.25500 -3.42800 3.70100
C 0.71700 -3.48200 4.84800
O 1.93100 -3.25500 4.66900
O 0.03800 -3.55600 6.00300
C 0.94300 -3.58300 7.18300
H -1.85900 3.22000 2.49700
H -0.21800 2.45300 -3.47400
H 0.27600 -3.74700 -2.60500
H -1.55400 -0.94900 5.13200
H -1.58500 1.83100 4.66500
H -3.48400 -0.37700 3.96900
H -3.51100 1.02700 2.85800
H -3.85200 1.30100 4.54300
H 0.66900 1.09600 4.96600
H 1.13000 -0.63900 5.18900
H -0.84400 0.02600 7.12500
H 0.06200 1.47700 6.92100
H -1.34400 5.18600 1.93800
H -1.65100 5.96300 0.43200
H 0.00700 6.02000 1.08400
H -0.63500 6.74400 -1.40500
H 0.66500 6.97000 -2.70400
H 1.04800 6.46600 -1.03600
H 0.60800 0.50100 -4.89100
H -0.69200 -2.15600 -4.54700
H -1.26700 0.74000 -6.12900
H -2.20400 0.71400 -4.59600
H -1.96700 -0.72000 -5.45300
H 1.35600 -1.75900 -5.96700
H 1.45200 -3.15700 -4.90200
H 2.71400 -0.52200 -4.79800
H 3.48700 -2.12100 -4.52900
H 2.49500 -1.30300 -3.24000
H 0.86700 -6.33300 -0.08400
H 0.40400 -5.64200 -1.68000
H -0.89100 -5.99900 -0.46300
H -1.28300 -3.58100 4.02800
H 0.69800 -4.47800 7.75500
H 0.83300 -2.61900 7.68000
H 2.00000 -3.75400 6.97600
Mg 10.50600 0.95043 0.80689
C 8.18537 -1.66562 1.61313
C 7.81509 3.00427 0.38814
C 12.48673 3.14712 -0.34144
C 12.87038 -1.53107 0.17640
N 8.33125 0.59874 1.00449
C 7.56946 -0.41906 1.37612
C 6.07253 -0.06169 1.57870
C 6.00294 1.23044 0.62769
C 7.46494 1.66632 0.70022
C 5.67524 0.89659 -0.81816
C 5.74139 0.30305 3.06844
C 4.24853 0.36124 3.39970
H 3.81098 -0.08095 4.72087
N 10.26815 2.90932 0.59538
C 9.10349 3.57784 0.46143
C 9.46780 4.99582 0.31731
C 10.94919 5.09115 0.21187
C 11.29842 3.68717 0.12846
C 8.45762 6.10494 0.37027
C 11.89407 6.25400 0.17728
O 13.12309 6.11321 -0.15817
C 11.31637 7.57669 0.45701
N 12.33555 0.82528 -0.17261
C 13.01255 1.93471 -0.51721
C 14.41826 1.60146 -0.95687
C 14.62348 0.05513 -0.60427
C 13.20849 -0.27497 -0.08060
C 14.72437 1.83070 -2.43678
C 15.84410 -0.30795 0.28508
C 15.65020 0.24538 1.67850
N 10.61231 -1.19398 1.04822
C 11.68698 -2.03972 0.69624
C 11.24702 -3.42828 0.94272
C 9.92839 -3.29432 1.40288
C 9.56484 -1.92064 1.42137
C 12.01504 -4.60074 0.69447
C 8.75771 -4.00334 1.86711
O 8.50422 -5.17548 2.14202
C 7.53428 -2.98932 1.90385
C 6.83626 -3.15134 3.22636
O 7.41231 -2.84913 4.28628
O 5.53765 -3.42779 3.00825
C 4.80079 -3.58643 4.29032
H 7.03792 3.66940 0.01066
H 13.24597 3.87131 -0.64573
H 13.58268 -2.35515 0.09760
H 5.37486 -0.81533 1.23365
H 5.35559 1.99576 1.04791
H 5.65955 -0.16909 -0.99199
H 6.44970 1.36528 -1.41110
H 4.73782 1.37696 -1.11281
H 6.01509 1.35036 3.24999
H 6.23552 -0.36798 3.74386
H 3.63433 -0.10040 2.61701
H 3.93463 1.40788 3.40427
H 7.43340 5.72036 0.28975
H 8.59427 6.70544 -0.53560
H 8.58417 6.74861 1.24339
H 10.52673 7.78505 -0.26099
H 12.16186 8.26713 0.47431
H 10.84408 7.55025 1.44537
H 15.14460 2.18679 -0.40649
H 14.77353 -0.55259 -1.50870
H 15.57635 2.51616 -2.60518
H 13.83112 2.20960 -2.91539
H 14.92935 0.92882 -3.01106
H 16.75149 0.15581 -0.10954
H 16.02954 -1.37494 0.34934
H 15.98357 1.28286 1.58063
H 16.26102 -0.29950 2.39547
H 14.58836 0.26457 1.95010
H 11.87525 -5.25097 1.54779
H 13.06586 -4.36296 0.54277
H 11.53794 -4.95581 -0.22290
H 6.88200 -3.23238 1.06418
H 4.32079 -4.56956 4.26340
H 4.13778 -2.70405 4.36498
H 5.38649 -3.66184 5.19901
