158

Mg 0.00000 0.00000 0.00000
C -0.21700 -2.21800 2.80100
C -1.25500 2.44200 2.02600
C -0.24500 1.85000 -2.56400
C 0.14600 -2.82400 -2.03700
N -0.61700 -0.00900 2.12600
C -0.59400 -0.90800 3.10500
C -0.93600 -0.30900 4.50200
C -1.77300 0.96400 4.03200
C -1.15500 1.16800 2.66000
C -3.26300 0.68500 3.86300
C 0.34500 0.11000 5.29900
C 0.12400 0.39700 6.78700
H 1.16800 0.03300 7.73300
N -0.18500 1.96100 -0.15200
C -0.70300 2.80000 0.77700
C -0.62000 4.15600 0.19300
C -0.18700 4.01500 -1.22500
C -0.21400 2.58300 -1.38000
C -0.88700 5.40600 0.97400
C 0.18100 5.01300 -2.27700
O 0.30300 4.69000 -3.50800
C 0.31000 6.41400 -1.83700
N -0.26500 -0.41300 -2.02900
C -0.27900 0.56900 -2.93700
C -0.19600 0.02400 -4.33200
C 0.12400 -1.53300 -4.18000
C 0.08600 -1.63200 -2.63500
C -1.45100 0.20500 -5.19700
C 1.37300 -2.07000 -4.92300
C 2.62600 -1.49000 -4.30600
N 0.15000 -2.14400 0.30300
C 0.17300 -3.13600 -0.68800
C 0.17300 -4.43800 0.00400
C 0.13300 -4.11100 1.35800
C 0.08300 -2.69500 1.50200
C 0.14900 -5.71500 -0.62300
C 0.09600 -4.62900 2.71600
O 0.20800 -5.74700 3.22100
C -0.25500 -3.42800 3.70100
C 0.71700 -3.48200 4.84800
O 1.93100 -3.25500 4.66900
O 0.03800 -3.55600 6.00300
C 0.94300 -3.58300 7.18300
H -1.85900 3.22000 2.49700
H -0.21800 2.45300 -3.47400
H 0.27600 -3.74700 -2.60500
H -1.55400 -0.94900 5.13200
H -1.58500 1.83100 4.66500
H -3.48400 -0.37700 3.96900
H -3.51100 1.02700 2.85800
H -3.85200 1.30100 4.54300
H 0.66900 1.09600 4.96600
H 1.13000 -0.63900 5.18900
H -0.84400 0.02600 7.12500
H 0.06200 1.47700 6.92100
H -1.34400 5.18600 1.93800
H -1.65100 5.96300 0.43200
H 0.00700 6.02000 1.08400
H -0.63500 6.74400 -1.40500
H 0.66500 6.97000 -2.70400
H 1.04800 6.46600 -1.03600
H 0.60800 0.50100 -4.89100
H -0.69200 -2.15600 -4.54700
H -1.26700 0.74000 -6.12900
H -2.20400 0.71400 -4.59600
H -1.96700 -0.72000 -5.45300
H 1.35600 -1.75900 -5.96700
H 1.45200 -3.15700 -4.90200
H 2.71400 -0.52200 -4.79800
H 3.48700 -2.12100 -4.52900
H 2.49500 -1.30300 -3.24000
H 0.86700 -6.33300 -0.08400
H 0.40400 -5.64200 -1.68000
H -0.89100 -5.99900 -0.46300
H -1.28300 -3.58100 4.02800
H 0.69800 -4.47800 7.75500
H 0.83300 -2.61900 7.68000
H 2.00000 -3.75400 6.97600
Mg 7.87533 0.71337 0.60499
C 5.54528 -2.01110 0.44003
C 5.43423 2.68594 -0.73090
C 10.03493 3.02006 0.31736
C 10.41870 -1.65805 0.83594
N 5.79909 0.27839 -0.02133
C 5.00229 -0.77883 0.02038
C 3.52079 -0.48211 -0.33553
C 3.74556 0.84185 -1.21615
C 5.05657 1.32568 -0.59983
C 3.98815 0.55166 -2.68798
C 2.64868 -0.18584 0.93477
C 1.13759 -0.19262 0.69327
H 0.26616 -0.69956 1.74973
N 7.64097 2.66931 0.36431
C 6.57731 3.30116 -0.17484
C 6.90266 4.73548 -0.14283
C 8.31295 4.88664 0.30769
C 8.73333 3.49993 0.32774
C 5.89327 5.80569 -0.44152
C 9.14917 6.08238 0.64992
O 10.42058 5.99758 0.78837
C 8.44819 7.37246 0.72622
N 9.94053 0.68961 0.36680
C 10.64437 1.83435 0.32098
C 12.12716 1.56748 0.42348
C 12.26015 0.01707 0.79240
C 10.76874 -0.38203 0.74978
C 12.94476 1.86316 -0.83369
C 13.08392 -0.33636 2.06093
C 12.36591 0.15670 3.29654
N 7.98519 -1.43359 0.82073
C 9.15213 -2.22719 0.87120
C 8.71752 -3.63866 0.90706
C 7.31735 -3.56854 0.85130
C 6.90894 -2.21014 0.76496
C 9.57670 -4.77322 0.93356
C 6.09236 -4.33524 0.83511
O 5.81042 -5.52511 0.97098
C 4.89528 -3.36687 0.44058
C 3.76838 -3.60320 1.40845
O 3.89979 -3.32130 2.61255
O 2.65523 -3.91658 0.72066
C 1.50696 -4.14936 1.63669
H 4.82015 3.33720 -1.35351
H 10.81827 3.78142 0.33074
H 11.14764 -2.45306 1.00708
H 3.03468 -1.24616 -0.93026
H 2.95420 1.56754 -1.04740
H 4.08707 -0.50658 -2.87901
H 4.90362 1.06933 -2.94288
H 3.20338 1.00966 -3.29683
H 2.78742 0.86281 1.22773
H 2.89062 -0.86420 1.72970
H 0.87628 -0.64557 -0.27083
H 0.79563 0.84145 0.60504
H 4.98944 5.38874 -0.90266
H 6.32521 6.44446 -1.21951
H 5.65994 6.41990 0.43081
H 7.96896 7.58002 -0.22757
H 9.19502 8.09098 1.06950
H 7.64747 7.29209 1.46986
H 12.57227 2.15669 1.21583
H 12.76024 -0.55035 -0.00621
H 13.76610 2.58395 -0.66069
H 12.27336 2.22833 -1.59946
H 13.38821 0.99140 -1.31181
H 14.05019 0.17354 2.03923
H 13.28222 -1.39786 2.16529
H 12.66323 1.20820 3.35164
H 12.69509 -0.39316 4.17593
H 11.27890 0.12834 3.15771
H 9.16348 -5.45978 1.66046
H 10.59743 -4.49316 1.18546
H 9.48726 -5.10984 -0.10276
H 4.60936 -3.60071 -0.58565
H 1.11677 -5.14700 1.41276
H 0.82261 -3.29423 1.48118
H 1.72050 -4.23851 2.69542
