79

Mg 8.92406 0.80696 0.67726
C 7.74768 -2.01360 -1.20412
C 8.02107 2.75975 -1.96960
C 10.35695 3.24560 2.11508
C 10.74004 -1.43240 2.63510
N 8.01124 0.31967 -1.27762
C 7.55119 -0.77892 -1.85710
C 6.76928 -0.53174 -3.17508
C 7.41972 0.87974 -3.57946
C 7.81377 1.37452 -2.18928
C 8.68260 0.74349 -4.41368
C 5.22338 -0.40500 -2.93817
C 4.37069 -0.47193 -4.20710
H 3.06573 -1.12338 -4.13523
N 8.73088 2.76106 0.38956
C 8.33052 3.38159 -0.74001
C 8.37613 4.82219 -0.44545
C 8.99333 5.00737 0.89600
C 9.41247 3.65014 1.18295
C 7.79176 5.85875 -1.36058
C 9.18716 6.20959 1.76966
O 9.96115 6.18205 2.79094
C 8.51748 7.44627 1.34111
N 10.50484 0.91923 2.02295
C 10.89528 2.10011 2.53384
C 11.85858 1.90658 3.68058
C 11.84665 0.33793 3.99163
C 10.90495 -0.13666 2.86320
C 13.29488 2.36401 3.42725
C 11.52540 -0.08785 5.45046
C 10.08859 0.24624 5.78109
N 9.07090 -1.34149 0.85232
C 9.91299 -2.07102 1.71993
C 9.74139 -3.50131 1.39242
C 8.82139 -3.50323 0.33314
C 8.46145 -2.16723 0.00901
C 10.42768 -4.58441 2.01050
C 8.08096 -4.33109 -0.59159
O 7.91719 -5.54215 -0.73391
C 7.44916 -3.39702 -1.71173
C 6.00574 -3.78514 -1.88034
O 5.19236 -3.61133 -0.95578
O 5.78003 -4.09287 -3.17058
C 4.35926 -4.47376 -3.39008
H 7.98513 3.43215 -2.82719
H 10.79938 4.04416 2.71510
H 11.19670 -2.19878 3.26502
H 6.95084 -1.26180 -3.95472
H 6.68157 1.54171 -4.02475
H 9.00101 -0.28497 -4.49760
H 9.43537 1.33238 -3.90615
H 8.54109 1.21311 -5.39130
H 4.99386 0.61736 -2.61129
H 4.88400 -1.14103 -2.23552
H 4.93989 -0.84555 -5.06697
H 4.09187 0.54550 -4.49190
H 7.55525 5.43818 -2.34576
H 8.58172 6.59083 -1.56031
H 6.93526 6.37416 -0.92079
H 8.86060 7.71628 0.34520
H 8.70048 8.16912 2.13853
H 7.44201 7.25224 1.26160
H 11.52447 2.44194 4.56084
H 12.82629 -0.12328 3.79817
H 13.65179 3.10928 4.16296
H 13.35415 2.76240 2.42310
H 14.03604 1.56694 3.40368
H 12.14453 0.47411 6.15404
H 11.69767 -1.14197 5.64063
H 10.13911 1.30258 6.06158
H 9.73369 -0.36524 6.60825
H 9.45241 0.17146 4.89152
H 9.69258 -5.35814 2.18787
H 10.91001 -4.27374 2.93496
H 11.15384 -4.82614 1.22977
H 8.02333 -3.54832 -2.62661
H 4.36217 -5.46573 -3.85232
H 3.91522 -3.64665 -3.97530
H 3.74664 -4.65055 -2.51379
