79

Mg 31.53256 2.83880 2.39533
C 31.03165 3.15949 5.92498
C 30.38627 6.03838 2.09234
C 31.53530 2.42655 -0.74898
C 31.54523 -0.61511 2.86005
N 30.83003 4.31025 3.89264
C 30.74395 4.32977 5.21906
C 30.39184 5.73405 5.79473
C 29.67478 6.35823 4.51480
C 30.36232 5.54646 3.43117
C 28.17597 6.08057 4.46014
C 31.66742 6.55065 6.19197
C 31.40822 7.78764 7.05686
H 32.38161 8.14475 8.07781
N 31.50469 4.16301 0.92954
C 31.01482 5.42475 0.98723
C 31.22531 6.00552 -0.35631
C 31.70401 4.91678 -1.25274
C 31.57378 3.77146 -0.38865
C 31.02303 7.45700 -0.66619
C 32.19019 4.90820 -2.66755
O 32.33746 3.82442 -3.32959
C 32.40797 6.22407 -3.29534
N 31.32012 1.15195 1.18412
C 31.41861 1.24123 -0.14679
C 31.51675 -0.11535 -0.77925
C 31.71006 -1.15000 0.42153
C 31.60127 -0.15909 1.60667
C 30.31582 -0.54383 -1.63376
C 32.94367 -2.08480 0.35257
C 34.21105 -1.27425 0.50692
N 31.50535 1.48647 4.09283
C 31.49292 0.08469 4.05396
C 31.36482 -0.38495 5.44576
C 31.29450 0.78401 6.20103
C 31.34724 1.91228 5.33355
C 31.26881 -1.74219 5.86181
C 31.16229 1.34222 7.53699
O 31.16753 0.87457 8.67662
C 30.86422 2.90063 7.40163
C 31.78138 3.62290 8.35056
O 33.01552 3.63125 8.16561
O 31.05192 4.38159 9.18292
C 31.90305 5.14798 10.13180
H 29.82483 6.94346 1.85244
H 31.64570 2.23819 -1.81892
H 31.62733 -1.67907 3.08964
H 29.70133 5.71940 6.63817
H 29.90252 7.41744 4.39683
H 27.87012 5.38855 5.24466
H 27.99631 5.64503 3.47702
H 27.60850 7.01127 4.48379
H 32.07936 7.02867 5.30323
H 32.39659 5.90972 6.68879
H 30.40161 7.77724 7.47582
H 31.42368 8.66545 6.41079
H 30.51139 7.97234 0.14571
H 30.32681 7.50992 -1.50296
H 31.95617 7.95371 -0.93240
H 31.47410 6.78652 -3.28542
H 32.83976 6.02211 -4.27494
H 33.11432 6.79195 -2.68910
H 32.37717 -0.17535 -1.44447
H 30.86447 -1.83200 0.51392
H 30.57832 -0.80100 -2.66025
H 29.58002 0.25941 -1.60779
H 29.74142 -1.37705 -1.22974
H 32.99336 -2.57601 -0.61861
H 32.93825 -2.86165 1.11726
H 34.39304 -0.91206 -0.50429
H 35.02961 -1.90927 0.84739
H 34.05117 -0.40233 1.14149
H 31.91467 -1.84019 6.73430
H 31.57178 -2.42259 5.06628
H 30.20443 -1.80977 6.08627
H 29.81498 3.04258 7.65868
H 31.56698 4.89808 11.13820
H 31.84693 6.19235 9.82435
H 32.95145 4.85249 10.18564
