158

Mg 0.00000 0.00000 0.00000
C -0.21700 -2.21800 2.80100
C -1.25500 2.44200 2.02600
C -0.24500 1.85000 -2.56400
C 0.14600 -2.82400 -2.03700
N -0.61700 -0.00900 2.12600
C -0.59400 -0.90800 3.10500
C -0.93600 -0.30900 4.50200
C -1.77300 0.96400 4.03200
C -1.15500 1.16800 2.66000
C -3.26300 0.68500 3.86300
C 0.34500 0.11000 5.29900
C 0.12400 0.39700 6.78700
H 1.16800 0.03300 7.73300
N -0.18500 1.96100 -0.15200
C -0.70300 2.80000 0.77700
C -0.62000 4.15600 0.19300
C -0.18700 4.01500 -1.22500
C -0.21400 2.58300 -1.38000
C -0.88700 5.40600 0.97400
C 0.18100 5.01300 -2.27700
O 0.30300 4.69000 -3.50800
C 0.31000 6.41400 -1.83700
N -0.26500 -0.41300 -2.02900
C -0.27900 0.56900 -2.93700
C -0.19600 0.02400 -4.33200
C 0.12400 -1.53300 -4.18000
C 0.08600 -1.63200 -2.63500
C -1.45100 0.20500 -5.19700
C 1.37300 -2.07000 -4.92300
C 2.62600 -1.49000 -4.30600
N 0.15000 -2.14400 0.30300
C 0.17300 -3.13600 -0.68800
C 0.17300 -4.43800 0.00400
C 0.13300 -4.11100 1.35800
C 0.08300 -2.69500 1.50200
C 0.14900 -5.71500 -0.62300
C 0.09600 -4.62900 2.71600
O 0.20800 -5.74700 3.22100
C -0.25500 -3.42800 3.70100
C 0.71700 -3.48200 4.84800
O 1.93100 -3.25500 4.66900
O 0.03800 -3.55600 6.00300
C 0.94300 -3.58300 7.18300
H -1.85900 3.22000 2.49700
H -0.21800 2.45300 -3.47400
H 0.27600 -3.74700 -2.60500
H -1.55400 -0.94900 5.13200
H -1.58500 1.83100 4.66500
H -3.48400 -0.37700 3.96900
H -3.51100 1.02700 2.85800
H -3.85200 1.30100 4.54300
H 0.66900 1.09600 4.96600
H 1.13000 -0.63900 5.18900
H -0.84400 0.02600 7.12500
H 0.06200 1.47700 6.92100
H -1.34400 5.18600 1.93800
H -1.65100 5.96300 0.43200
H 0.00700 6.02000 1.08400
H -0.63500 6.74400 -1.40500
H 0.66500 6.97000 -2.70400
H 1.04800 6.46600 -1.03600
H 0.60800 0.50100 -4.89100
H -0.69200 -2.15600 -4.54700
H -1.26700 0.74000 -6.12900
H -2.20400 0.71400 -4.59600
H -1.96700 -0.72000 -5.45300
H 1.35600 -1.75900 -5.96700
H 1.45200 -3.15700 -4.90200
H 2.71400 -0.52200 -4.79800
H 3.48700 -2.12100 -4.52900
H 2.49500 -1.30300 -3.24000
H 0.86700 -6.33300 -0.08400
H 0.40400 -5.64200 -1.68000
H -0.89100 -5.99900 -0.46300
H -1.28300 -3.58100 4.02800
H 0.69800 -4.47800 7.75500
H 0.83300 -2.61900 7.68000
H 2.00000 -3.75400 6.97600
Mg 31.53256 2.83880 2.39533
C 31.74360 0.53242 -0.33383
C 30.73936 0.18228 4.38449
C 30.89707 4.90501 4.71558
C 31.22042 5.37995 0.03084
N 31.30340 0.67962 1.96396
C 31.47028 -0.08447 0.88903
C 31.40213 -1.60987 1.19870
C 30.53756 -1.55662 2.53723
C 30.90821 -0.16214 3.01048
C 29.03284 -1.60868 2.29310
C 32.81759 -2.22828 1.45517
C 32.87428 -3.75862 1.44133
H 34.05719 -4.41070 0.90015
N 31.38857 2.56913 4.34709
C 31.07207 1.41620 4.98417
C 31.09482 1.72950 6.42916
C 31.26391 3.20220 6.57284
C 31.16234 3.62622 5.19979
C 31.01249 0.68440 7.49909
C 31.47188 4.08804 7.76034
O 31.36232 5.35977 7.68775
C 31.72341 3.41379 9.04687
N 30.89752 4.82736 2.39141
C 30.75486 5.50843 3.53367
C 30.57043 6.97453 3.27583
C 30.86058 7.18976 1.72044
C 31.09460 5.71290 1.31746
C 29.18834 7.54609 3.62102
C 31.93909 8.23664 1.34458
C 33.30035 7.75525 1.79442
N 31.66290 2.99230 0.23419
C 31.47647 4.14536 -0.54194
C 31.55635 3.73242 -1.95515
C 31.76856 2.35617 -1.90276
C 31.79191 1.93195 -0.54343
C 31.37895 4.58172 -3.08283
C 31.95643 1.14153 -2.67942
O 32.11932 0.89319 -3.87495
C 31.82614 -0.10584 -1.69814
C 32.98424 -1.02520 -1.97544
O 34.15392 -0.67744 -1.71416
O 32.51932 -2.24690 -2.27848
C 33.61829 -3.21546 -2.53603
H 30.25484 -0.53281 5.05220
H 30.78182 5.66940 5.48685
H 31.21671 6.13113 -0.76109
H 30.88511 -2.20399 0.44495
H 30.86373 -2.30202 3.26229
H 28.79913 -1.54355 1.23053
H 28.62159 -0.75150 2.82659
H 28.59485 -2.49090 2.76068
H 33.10972 -2.04114 2.48846
H 33.54527 -1.83411 0.74493
H 31.97004 -4.18707 1.00810
H 32.87292 -4.10979 2.47326
H 30.72712 -0.28455 7.09136
H 30.18319 0.96000 8.15025
H 31.93165 0.62018 8.08162
H 30.88173 2.76207 9.28222
H 31.93684 4.20521 9.76447
H 32.59337 2.76496 8.94132
H 31.27760 7.56566 3.85626
H 29.97214 7.51757 1.18017
H 29.22134 8.37335 4.33042
H 28.57147 6.73125 3.99890
H 28.60468 7.88009 2.76358
H 31.74708 9.17923 1.85604
H 31.98450 8.44283 0.27516
H 33.33151 8.05650 2.84090
H 34.08659 8.24905 1.22242
H 33.36722 6.66749 1.76635
H 32.16046 4.31259 -3.79332
H 31.44425 5.63248 -2.80134
H 30.37514 4.29486 -3.39575
H 30.86815 -0.57708 -1.91567
H 33.44936 -3.63646 -3.52722
H 33.63041 -3.90258 -1.68980
H 34.61539 -2.79141 -2.65976
