158

Mg 0.00000 0.00000 0.00000
C -0.21700 -2.21800 2.80100
C -1.25500 2.44200 2.02600
C -0.24500 1.85000 -2.56400
C 0.14600 -2.82400 -2.03700
N -0.61700 -0.00900 2.12600
C -0.59400 -0.90800 3.10500
C -0.93600 -0.30900 4.50200
C -1.77300 0.96400 4.03200
C -1.15500 1.16800 2.66000
C -3.26300 0.68500 3.86300
C 0.34500 0.11000 5.29900
C 0.12400 0.39700 6.78700
H 1.16800 0.03300 7.73300
N -0.18500 1.96100 -0.15200
C -0.70300 2.80000 0.77700
C -0.62000 4.15600 0.19300
C -0.18700 4.01500 -1.22500
C -0.21400 2.58300 -1.38000
C -0.88700 5.40600 0.97400
C 0.18100 5.01300 -2.27700
O 0.30300 4.69000 -3.50800
C 0.31000 6.41400 -1.83700
N -0.26500 -0.41300 -2.02900
C -0.27900 0.56900 -2.93700
C -0.19600 0.02400 -4.33200
C 0.12400 -1.53300 -4.18000
C 0.08600 -1.63200 -2.63500
C -1.45100 0.20500 -5.19700
C 1.37300 -2.07000 -4.92300
C 2.62600 -1.49000 -4.30600
N 0.15000 -2.14400 0.30300
C 0.17300 -3.13600 -0.68800
C 0.17300 -4.43800 0.00400
C 0.13300 -4.11100 1.35800
C 0.08300 -2.69500 1.50200
C 0.14900 -5.71500 -0.62300
C 0.09600 -4.62900 2.71600
O 0.20800 -5.74700 3.22100
C -0.25500 -3.42800 3.70100
C 0.71700 -3.48200 4.84800
O 1.93100 -3.25500 4.66900
O 0.03800 -3.55600 6.00300
C 0.94300 -3.58300 7.18300
H -1.85900 3.22000 2.49700
H -0.21800 2.45300 -3.47400
H 0.27600 -3.74700 -2.60500
H -1.55400 -0.94900 5.13200
H -1.58500 1.83100 4.66500
H -3.48400 -0.37700 3.96900
H -3.51100 1.02700 2.85800
H -3.85200 1.30100 4.54300
H 0.66900 1.09600 4.96600
H 1.13000 -0.63900 5.18900
H -0.84400 0.02600 7.12500
H 0.06200 1.47700 6.92100
H -1.34400 5.18600 1.93800
H -1.65100 5.96300 0.43200
H 0.00700 6.02000 1.08400
H -0.63500 6.74400 -1.40500
H 0.66500 6.97000 -2.70400
H 1.04800 6.46600 -1.03600
H 0.60800 0.50100 -4.89100
H -0.69200 -2.15600 -4.54700
H -1.26700 0.74000 -6.12900
H -2.20400 0.71400 -4.59600
H -1.96700 -0.72000 -5.45300
H 1.35600 -1.75900 -5.96700
H 1.45200 -3.15700 -4.90200
H 2.71400 -0.52200 -4.79800
H 3.48700 -2.12100 -4.52900
H 2.49500 -1.30300 -3.24000
H 0.86700 -6.33300 -0.08400
H 0.40400 -5.64200 -1.68000
H -0.89100 -5.99900 -0.46300
H -1.28300 -3.58100 4.02800
H 0.69800 -4.47800 7.75500
H 0.83300 -2.61900 7.68000
H 2.00000 -3.75400 6.97600
Mg 13.13505 1.19099 1.00384
C 15.35461 1.02813 3.81918
C 10.56125 0.74204 3.19669
C 11.19680 0.87930 -1.48884
C 15.87971 0.48487 -1.02445
N 13.09046 0.93177 3.19999
C 13.99104 0.94872 4.17108
C 13.39251 0.95739 5.60329
C 11.96777 0.29438 5.27252
C 11.84017 0.70738 3.80765
C 11.97985 -1.22366 5.34147
C 13.23137 2.40971 6.17498
C 12.94473 2.48166 7.67645
H 13.51401 3.58758 8.44152
N 11.16025 1.34787 0.88507
C 10.26735 1.15390 1.87823
C 8.94257 1.36922 1.27594
C 9.11731 1.54429 -0.19155
C 10.52685 1.23650 -0.32775
C 7.68563 1.47248 2.09010
C 8.16947 1.91352 -1.29222
O 8.48446 1.77480 -2.52687
C 6.82815 2.35408 -0.88202
N 13.44020 0.53932 -0.94668
C 12.43938 0.55250 -1.84453
C 12.95649 0.30458 -3.24149
C 14.55052 0.36257 -3.12614
C 14.68699 0.55370 -1.59963
C 12.54054 -1.02074 -3.87937
C 15.28834 1.35654 -4.06440
C 14.95488 2.77858 -3.67455
N 15.26893 1.00193 1.28471
C 16.23259 0.67587 0.30536
C 17.53192 0.55205 0.99734
C 17.22763 0.79395 2.34545
C 15.83351 1.03049 2.48674
C 18.77006 0.20567 0.38649
C 17.76707 0.89248 3.68261
O 18.89799 0.87280 4.16672
C 16.55822 0.92360 4.71417
C 16.80690 2.04309 5.68751
O 16.80710 3.22600 5.30367
O 16.78695 1.55093 6.93961
C 17.01798 2.62543 7.94156
H 9.70447 0.38004 3.76569
H 10.59096 0.86654 -2.39783
H 16.79950 0.36350 -1.60057
H 13.92750 0.34934 6.32289
H 11.17568 0.74382 5.86578
H 12.97684 -1.61245 5.48638
H 11.57441 -1.56423 4.39771
H 11.28495 -1.57159 6.11113
H 12.30308 2.84695 5.78532
H 14.09042 3.00836 5.94201
H 13.13872 1.52646 8.17936
H 11.87379 2.64632 7.81778
H 7.84648 1.13828 3.12249
H 6.97660 0.74685 1.67706
H 7.23745 2.46751 2.04861
H 6.35204 1.56821 -0.30049
H 6.32655 2.65912 -1.80247
H 6.93204 3.21871 -0.21702
H 12.62479 1.08085 -3.92008
H 15.01179 -0.60724 -3.36389
H 12.01322 -0.89447 -4.84377
H 11.92069 -1.55903 -3.17469
H 13.35313 -1.72337 -4.05602
H 14.94717 1.22904 -5.09470
H 16.36602 1.23171 -4.06424
H 13.99973 2.95502 -4.17819
H 15.72159 3.46339 -4.03125
H 14.77861 2.85987 -2.59567
H 19.51755 0.86994 0.79941
H 18.71643 0.29069 -0.69687
H 18.86438 -0.83360 0.71250
H 16.52391 -0.04824 5.20805
H 17.87105 2.31450 8.55253
H 16.05061 2.76333 8.46016
H 17.35903 3.58686 7.57582
