158

Mg 0.00000 0.00000 0.00000
C -0.21700 -2.21800 2.80100
C -1.25500 2.44200 2.02600
C -0.24500 1.85000 -2.56400
C 0.14600 -2.82400 -2.03700
N -0.61700 -0.00900 2.12600
C -0.59400 -0.90800 3.10500
C -0.93600 -0.30900 4.50200
C -1.77300 0.96400 4.03200
C -1.15500 1.16800 2.66000
C -3.26300 0.68500 3.86300
C 0.34500 0.11000 5.29900
C 0.12400 0.39700 6.78700
H 1.16800 0.03300 7.73300
N -0.18500 1.96100 -0.15200
C -0.70300 2.80000 0.77700
C -0.62000 4.15600 0.19300
C -0.18700 4.01500 -1.22500
C -0.21400 2.58300 -1.38000
C -0.88700 5.40600 0.97400
C 0.18100 5.01300 -2.27700
O 0.30300 4.69000 -3.50800
C 0.31000 6.41400 -1.83700
N -0.26500 -0.41300 -2.02900
C -0.27900 0.56900 -2.93700
C -0.19600 0.02400 -4.33200
C 0.12400 -1.53300 -4.18000
C 0.08600 -1.63200 -2.63500
C -1.45100 0.20500 -5.19700
C 1.37300 -2.07000 -4.92300
C 2.62600 -1.49000 -4.30600
N 0.15000 -2.14400 0.30300
C 0.17300 -3.13600 -0.68800
C 0.17300 -4.43800 0.00400
C 0.13300 -4.11100 1.35800
C 0.08300 -2.69500 1.50200
C 0.14900 -5.71500 -0.62300
C 0.09600 -4.62900 2.71600
O 0.20800 -5.74700 3.22100
C -0.25500 -3.42800 3.70100
C 0.71700 -3.48200 4.84800
O 1.93100 -3.25500 4.66900
O 0.03800 -3.55600 6.00300
C 0.94300 -3.58300 7.18300
H -1.85900 3.22000 2.49700
H -0.21800 2.45300 -3.47400
H 0.27600 -3.74700 -2.60500
H -1.55400 -0.94900 5.13200
H -1.58500 1.83100 4.66500
H -3.48400 -0.37700 3.96900
H -3.51100 1.02700 2.85800
H -3.85200 1.30100 4.54300
H 0.66900 1.09600 4.96600
H 1.13000 -0.63900 5.18900
H -0.84400 0.02600 7.12500
H 0.06200 1.47700 6.92100
H -1.34400 5.18600 1.93800
H -1.65100 5.96300 0.43200
H 0.00700 6.02000 1.08400
H -0.63500 6.74400 -1.40500
H 0.66500 6.97000 -2.70400
H 1.04800 6.46600 -1.03600
H 0.60800 0.50100 -4.89100
H -0.69200 -2.15600 -4.54700
H -1.26700 0.74000 -6.12900
H -2.20400 0.71400 -4.59600
H -1.96700 -0.72000 -5.45300
H 1.35600 -1.75900 -5.96700
H 1.45200 -3.15700 -4.90200
H 2.71400 -0.52200 -4.79800
H 3.48700 -2.12100 -4.52900
H 2.49500 -1.30300 -3.24000
H 0.86700 -6.33300 -0.08400
H 0.40400 -5.64200 -1.68000
H -0.89100 -5.99900 -0.46300
H -1.28300 -3.58100 4.02800
H 0.69800 -4.47800 7.75500
H 0.83300 -2.61900 7.68000
H 2.00000 -3.75400 6.97600
Mg 31.53885 2.84519 2.40098
C 31.21334 1.39790 5.66877
C 30.29535 5.73448 3.72018
C 31.38896 4.00974 -0.54669
C 31.65828 -0.39719 1.12881
N 30.87705 3.37429 4.44409
C 30.85698 2.76168 5.61825
C 30.50817 3.68248 6.81826
C 29.70127 4.81990 6.02200
C 30.35089 4.66433 4.64851
C 28.21755 4.52124 5.88519
C 31.78702 4.26651 7.51503
C 31.53600 4.92113 8.87525
H 32.55824 4.79040 9.90986
N 31.40196 4.72062 1.76648
C 30.89079 5.77232 2.44020
C 31.00173 6.92429 1.53201
C 31.46858 6.43363 0.20686
C 31.41687 5.00158 0.42285
C 30.75453 8.33694 1.97558
C 31.87971 7.13664 -1.05129
O 32.02142 6.50720 -2.15879
C 32.02068 8.59780 -0.96973
N 31.31274 1.94672 0.53980
C 31.33281 2.67840 -0.58810
C 31.43019 1.79555 -1.80936
C 31.71625 0.32351 -1.25364
C 31.64289 0.60682 0.26285
C 30.19585 1.76811 -2.71050
C 32.96915 -0.40737 -1.80928
C 34.22488 0.28944 -1.33707
N 31.63981 0.85219 3.22912
C 31.65499 -0.36743 2.51751
C 31.61236 -1.45492 3.51649
C 31.55162 -0.78714 4.74891
C 31.53570 0.61726 4.53236
C 31.58337 -2.84857 3.22833
C 31.48663 -0.95104 6.18335
O 31.55670 -1.90893 6.95230
C 31.13708 0.45486 6.83730
C 32.08376 0.68202 7.98391
O 33.30206 0.82465 7.77892
O 31.37316 0.90950 9.10359
C 32.26814 1.15142 10.26647
H 29.70471 6.61421 3.97729
H 31.44809 4.35885 -1.58019
H 31.79112 -1.43528 0.81671
H 29.87027 3.22974 7.56785
H 29.90371 5.80679 6.42997
H 27.97066 3.53324 6.24442
H 27.99654 4.60607 4.82925
H 27.62921 5.29947 6.37971
H 32.13667 5.13902 6.94827
H 32.54593 3.51446 7.61048
H 30.54736 4.66914 9.27780
H 31.50121 6.00460 8.73780
H 30.26600 8.37067 2.95721
H 30.01465 8.76277 1.28920
H 31.65706 8.95120 1.94778
H 31.07640 9.03461 -0.65352
H 32.40671 8.90889 -1.94240
H 32.75388 8.83560 -0.19096
H 32.25579 2.09923 -2.44124
H 30.89152 -0.36663 -1.48464
H 30.41244 2.05700 -3.75630
H 29.44656 2.42107 -2.28302
H 29.67447 0.81325 -2.75058
H 32.98091 -0.36205 -2.90105
H 33.01768 -1.45454 -1.52988
H 34.33818 1.10722 -2.05505
H 35.07557 -0.38811 -1.37308
H 34.07790 0.73758 -0.34751
H 32.26979 -3.32320 3.91684
H 31.85635 -3.04642 2.19387
H 30.52995 -3.06626 3.42371
H 30.09800 0.41386 7.16628
H 31.98858 0.42985 11.04034
H 32.15441 2.22382 10.51297
H 33.32189 0.93081 10.14236
