79

Mg 7.88377 0.70239 0.60648
C 5.38427 1.89172 2.89055
C 10.14934 1.06576 3.13032
C 10.17784 0.09111 -1.49852
C 5.70121 1.51321 -1.98673
N 7.67258 1.39703 2.69577
C 6.66348 1.76461 3.47097
C 7.03160 1.93221 4.96963
C 8.60436 2.20963 4.80135
C 8.84021 1.48466 3.47793
C 8.93885 3.67924 4.60712
C 6.76398 0.62823 5.80030
C 6.80744 0.81279 7.31879
H 5.89106 0.02834 8.14180
N 9.76275 0.12771 0.88531
C 10.52436 0.33858 1.97928
C 11.83397 -0.26071 1.67938
C 11.83530 -0.69729 0.25667
C 10.57175 -0.14555 -0.18956
C 12.90156 -0.44516 2.71844
C 12.81785 -1.47093 -0.56934
O 12.72453 -1.53050 -1.84628
C 13.94539 -2.07909 0.15197
N 8.02285 0.98323 -1.44879
C 9.11075 0.58171 -2.12936
C 8.87198 0.63390 -3.61954
C 7.30921 0.92512 -3.79430
C 6.91432 1.08649 -2.30991
C 9.67416 1.68576 -4.38536
C 6.50124 -0.07140 -4.66998
C 6.43248 -1.41903 -3.98840
N 5.83615 1.37369 0.44944
C 5.12648 1.67772 -0.73293
C 3.80702 2.20288 -0.32591
C 3.84959 2.18942 1.07641
C 5.11428 1.71003 1.51257
C 2.78538 2.65839 -1.20618
C 3.11612 2.48173 2.28689
O 1.96396 2.83000 2.54181
C 4.12321 2.42116 3.51510
C 3.48203 1.60200 4.60156
O 3.25947 0.39030 4.43167
O 3.43711 2.32873 5.73302
C 2.81936 1.55501 6.84278
H 10.97644 1.35676 3.77848
H 10.89366 -0.20792 -2.26772
H 4.92791 1.69611 -2.73587
H 6.55663 2.77177 5.46291
H 9.17549 1.74216 5.59925
H 8.05066 4.28328 4.49579
H 9.54384 3.72731 3.71118
H 9.57823 4.03118 5.42178
H 7.60985 -0.05905 5.67028
H 5.83103 0.18090 5.51721
H 6.77283 1.87058 7.60660
H 7.77826 0.46766 7.68266
H 12.67726 0.12142 3.63062
H 13.81266 0.02005 2.32686
H 13.10509 -1.49683 2.93116
H 14.50407 -1.30274 0.66928
H 14.48809 -2.66355 -0.59351
H 13.54739 -2.74760 0.92354
H 9.10615 -0.31697 -4.08226
H 7.12722 1.89737 -4.27538
H 10.28982 1.25807 -5.19906
H 10.29533 2.22160 -3.67998
H 9.08296 2.48612 -4.82707
H 7.00687 -0.23220 -5.62530
H 5.49431 0.26633 -4.89139
H 7.38166 -1.88579 -4.26817
H 5.58584 -1.99318 -4.35936
H 6.42821 -1.30872 -2.89778
H 1.85170 2.25967 -0.83232
H 2.97233 2.34143 -2.23007
H 2.89167 3.73977 -1.08534
H 4.31329 3.44677 3.83378
H 1.98447 2.15207 7.22246
H 3.64277 1.33472 7.54791
H 2.31842 0.62804 6.58931
