158

Mg 0.00000 0.00000 0.00000
C -0.21700 -2.21800 2.80100
C -1.25500 2.44200 2.02600
C -0.24500 1.85000 -2.56400
C 0.14600 -2.82400 -2.03700
N -0.61700 -0.00900 2.12600
C -0.59400 -0.90800 3.10500
C -0.93600 -0.30900 4.50200
C -1.77300 0.96400 4.03200
C -1.15500 1.16800 2.66000
C -3.26300 0.68500 3.86300
C 0.34500 0.11000 5.29900
C 0.12400 0.39700 6.78700
H 1.16800 0.03300 7.73300
N -0.18500 1.96100 -0.15200
C -0.70300 2.80000 0.77700
C -0.62000 4.15600 0.19300
C -0.18700 4.01500 -1.22500
C -0.21400 2.58300 -1.38000
C -0.88700 5.40600 0.97400
C 0.18100 5.01300 -2.27700
O 0.30300 4.69000 -3.50800
C 0.31000 6.41400 -1.83700
N -0.26500 -0.41300 -2.02900
C -0.27900 0.56900 -2.93700
C -0.19600 0.02400 -4.33200
C 0.12400 -1.53300 -4.18000
C 0.08600 -1.63200 -2.63500
C -1.45100 0.20500 -5.19700
C 1.37300 -2.07000 -4.92300
C 2.62600 -1.49000 -4.30600
N 0.15000 -2.14400 0.30300
C 0.17300 -3.13600 -0.68800
C 0.17300 -4.43800 0.00400
C 0.13300 -4.11100 1.35800
C 0.08300 -2.69500 1.50200
C 0.14900 -5.71500 -0.62300
C 0.09600 -4.62900 2.71600
O 0.20800 -5.74700 3.22100
C -0.25500 -3.42800 3.70100
C 0.71700 -3.48200 4.84800
O 1.93100 -3.25500 4.66900
O 0.03800 -3.55600 6.00300
C 0.94300 -3.58300 7.18300
H -1.85900 3.22000 2.49700
H -0.21800 2.45300 -3.47400
H 0.27600 -3.74700 -2.60500
H -1.55400 -0.94900 5.13200
H -1.58500 1.83100 4.66500
H -3.48400 -0.37700 3.96900
H -3.51100 1.02700 2.85800
H -3.85200 1.30100 4.54300
H 0.66900 1.09600 4.96600
H 1.13000 -0.63900 5.18900
H -0.84400 0.02600 7.12500
H 0.06200 1.47700 6.92100
H -1.34400 5.18600 1.93800
H -1.65100 5.96300 0.43200
H 0.00700 6.02000 1.08400
H -0.63500 6.74400 -1.40500
H 0.66500 6.97000 -2.70400
H 1.04800 6.46600 -1.03600
H 0.60800 0.50100 -4.89100
H -0.69200 -2.15600 -4.54700
H -1.26700 0.74000 -6.12900
H -2.20400 0.71400 -4.59600
H -1.96700 -0.72000 -5.45300
H 1.35600 -1.75900 -5.96700
H 1.45200 -3.15700 -4.90200
H 2.71400 -0.52200 -4.79800
H 3.48700 -2.12100 -4.52900
H 2.49500 -1.30300 -3.24000
H 0.86700 -6.33300 -0.08400
H 0.40400 -5.64200 -1.68000
H -0.89100 -5.99900 -0.46300
H -1.28300 -3.58100 4.02800
H 0.69800 -4.47800 7.75500
H 0.83300 -2.61900 7.68000
H 2.00000 -3.75400 6.97600
Mg 10.51098 0.93889 0.80605
C 8.07691 2.27139 3.08175
C 12.77900 1.14603 3.34529
C 12.77525 0.19530 -1.28861
C 8.40007 1.89874 -1.79557
N 10.33076 1.63470 2.89785
C 9.34192 2.06106 3.66906
C 9.71042 2.19747 5.17078
C 11.29855 2.37624 5.01340
C 11.49666 1.64467 3.68741
C 11.72601 3.82287 4.82928
C 9.35612 0.90866 5.99263
C 9.40156 1.08232 7.51235
H 8.43251 0.35286 8.32555
N 12.34831 0.24570 1.09288
C 13.11478 0.40261 2.19251
C 14.38597 -0.27634 1.89709
C 14.36878 -0.70483 0.47203
C 13.14526 -0.07240 0.02135
C 15.43330 -0.53294 2.94145
C 15.30591 -1.53450 -0.35238
O 15.21705 -1.58153 -1.63016
C 16.38841 -2.21610 0.37226
N 10.68035 1.22098 -1.24677
C 11.74511 0.75530 -1.92306
C 11.51945 0.83007 -3.41433
C 9.97922 1.21993 -3.59677
C 9.58595 1.39820 -2.11389
C 12.39100 1.83329 -4.16954
C 9.11570 0.28073 -4.48273
C 8.95805 -1.06338 -3.80902
N 8.51065 1.73849 0.64055
C 7.82895 2.09265 -0.54433
C 6.54260 2.69769 -0.14227
C 6.57542 2.67437 1.26018
C 7.80470 2.11412 1.70120
C 5.55717 3.22109 -1.02607
C 5.85419 3.00603 2.46788
O 4.72464 3.42479 2.71786
C 6.84774 2.87590 3.70170
C 6.14950 2.09315 4.77978
O 5.85225 0.89874 4.60189
O 6.14327 2.81544 5.91496
C 5.47112 2.07643 7.01673
H 13.61868 1.38108 3.99996
H 13.47566 -0.14422 -2.05517
H 7.64452 2.13377 -2.54829
H 9.28611 3.06270 5.66586
H 11.83413 1.86967 5.81209
H 10.87828 4.48216 4.71600
H 12.33845 3.83738 3.93723
H 12.38113 4.12969 5.64965
H 10.15789 0.17020 5.86386
H 8.39869 0.52238 5.70153
H 9.43173 2.13870 7.80578
H 10.34645 0.67492 7.88008
H 15.23934 0.04195 3.85540
H 16.37430 -0.12396 2.55788
H 15.56894 -1.59640 3.14957
H 16.99155 -1.47910 0.89716
H 16.89796 -2.82971 -0.37320
H 15.94432 -2.86220 1.13774
H 11.69627 -0.13126 -3.88089
H 9.86176 2.20416 -4.07355
H 12.98365 1.37190 -4.98192
H 13.04019 2.32536 -3.45753
H 11.85409 2.67152 -4.61034
H 9.61622 0.09335 -5.43589
H 8.13342 0.68228 -4.70826
H 9.87774 -1.58749 -4.08571
H 8.07933 -1.58121 -4.18818
H 8.95388 -0.95862 -2.71785
H 4.59794 2.87999 -0.65998
H 5.73025 2.89825 -2.05057
H 5.73049 4.29300 -0.89864
H 7.09994 3.88588 4.02716
H 4.67305 2.72287 7.39473
H 6.27460 1.80115 7.72552
H 4.91447 1.18413 6.75517
