158

Mg 0.00000 0.00000 0.00000
C -0.21700 -2.21800 2.80100
C -1.25500 2.44200 2.02600
C -0.24500 1.85000 -2.56400
C 0.14600 -2.82400 -2.03700
N -0.61700 -0.00900 2.12600
C -0.59400 -0.90800 3.10500
C -0.93600 -0.30900 4.50200
C -1.77300 0.96400 4.03200
C -1.15500 1.16800 2.66000
C -3.26300 0.68500 3.86300
C 0.34500 0.11000 5.29900
C 0.12400 0.39700 6.78700
H 1.16800 0.03300 7.73300
N -0.18500 1.96100 -0.15200
C -0.70300 2.80000 0.77700
C -0.62000 4.15600 0.19300
C -0.18700 4.01500 -1.22500
C -0.21400 2.58300 -1.38000
C -0.88700 5.40600 0.97400
C 0.18100 5.01300 -2.27700
O 0.30300 4.69000 -3.50800
C 0.31000 6.41400 -1.83700
N -0.26500 -0.41300 -2.02900
C -0.27900 0.56900 -2.93700
C -0.19600 0.02400 -4.33200
C 0.12400 -1.53300 -4.18000
C 0.08600 -1.63200 -2.63500
C -1.45100 0.20500 -5.19700
C 1.37300 -2.07000 -4.92300
C 2.62600 -1.49000 -4.30600
N 0.15000 -2.14400 0.30300
C 0.17300 -3.13600 -0.68800
C 0.17300 -4.43800 0.00400
C 0.13300 -4.11100 1.35800
C 0.08300 -2.69500 1.50200
C 0.14900 -5.71500 -0.62300
C 0.09600 -4.62900 2.71600
O 0.20800 -5.74700 3.22100
C -0.25500 -3.42800 3.70100
C 0.71700 -3.48200 4.84800
O 1.93100 -3.25500 4.66900
O 0.03800 -3.55600 6.00300
C 0.94300 -3.58300 7.18300
H -1.85900 3.22000 2.49700
H -0.21800 2.45300 -3.47400
H 0.27600 -3.74700 -2.60500
H -1.55400 -0.94900 5.13200
H -1.58500 1.83100 4.66500
H -3.48400 -0.37700 3.96900
H -3.51100 1.02700 2.85800
H -3.85200 1.30100 4.54300
H 0.66900 1.09600 4.96600
H 1.13000 -0.63900 5.18900
H -0.84400 0.02600 7.12500
H 0.06200 1.47700 6.92100
H -1.34400 5.18600 1.93800
H -1.65100 5.96300 0.43200
H 0.00700 6.02000 1.08400
H -0.63500 6.74400 -1.40500
H 0.66500 6.97000 -2.70400
H 1.04800 6.46600 -1.03600
H 0.60800 0.50100 -4.89100
H -0.69200 -2.15600 -4.54700
H -1.26700 0.74000 -6.12900
H -2.20400 0.71400 -4.59600
H -1.96700 -0.72000 -5.45300
H 1.35600 -1.75900 -5.96700
H 1.45200 -3.15700 -4.90200
H 2.71400 -0.52200 -4.79800
H 3.48700 -2.12100 -4.52900
H 2.49500 -1.30300 -3.24000
H 0.86700 -6.33300 -0.08400
H 0.40400 -5.64200 -1.68000
H -0.89100 -5.99900 -0.46300
H -1.28300 -3.58100 4.02800
H 0.69800 -4.47800 7.75500
H 0.83300 -2.61900 7.68000
H 2.00000 -3.75400 6.97600
Mg 8.94199 0.79741 0.68073
C 9.12979 -0.95776 -2.44388
C 8.21684 -2.19550 2.14743
C 8.32718 2.37434 3.36452
C 8.54762 3.73522 -1.15215
N 8.72955 -1.24285 -0.14658
C 8.88415 -1.79900 -1.33870
C 8.84874 -3.35086 -1.33393
C 8.00100 -3.56792 0.01258
C 8.36056 -2.27350 0.73912
C 6.49905 -3.58485 -0.21801
C 10.28109 -3.98107 -1.21880
C 10.35002 -5.48022 -1.51803
H 11.53708 -6.00206 -2.18964
N 8.84143 0.15254 2.55492
C 8.55728 -1.09959 2.97049
C 8.58699 -1.05207 4.44053
C 8.74938 0.36628 4.86081
C 8.62196 1.03633 3.58218
C 8.54673 -2.28528 5.29552
C 8.96863 1.01354 6.19467
O 8.84325 2.27863 6.35797
C 9.24272 0.11239 7.32352
N 8.29037 2.73491 1.05997
C 8.15446 3.18442 2.31989
C 7.94302 4.67941 2.34584
C 8.20769 5.17680 0.84913
C 8.44966 3.81194 0.16796
C 6.56103 5.14801 2.80070
C 9.26636 6.29699 0.65661
C 10.64242 5.77028 0.99491
N 9.03478 1.35376 -1.40492
C 8.81273 2.63447 -1.95679
C 8.87253 2.49179 -3.42597
C 9.10418 1.12301 -3.62908
C 9.16307 0.45609 -2.37558
C 8.67398 3.53665 -4.37200
C 9.30171 0.08890 -4.61918
O 9.43840 0.07154 -5.84178
C 9.20108 -1.32503 -3.90012
C 10.36522 -2.16163 -4.35552
O 11.52927 -1.83957 -4.05911
O 9.90337 -3.31320 -4.87606
C 11.02128 -4.18170 -5.33189
H 7.76102 -3.03705 2.66983
H 8.21597 2.98495 4.26355
H 8.53212 4.62076 -1.79110
H 8.33100 -3.79601 -2.17510
H 8.35856 -4.42990 0.56981
H 6.24481 -3.32921 -1.23593
H 6.08774 -2.85684 0.46892
H 6.08254 -4.55083 0.08157
H 10.58656 -3.98566 -0.16456
H 10.97952 -3.45591 -1.84091
H 9.43938 -5.84492 -2.00861
H 10.37911 -6.02238 -0.56976
H 8.25966 -3.16940 4.71301
H 7.72685 -2.15259 6.00970
H 9.47481 -2.44488 5.84856
H 8.41578 -0.58433 7.43845
H 9.45973 0.76436 8.17188
H 10.12853 -0.48705 7.08556
H 8.65457 5.15920 3.00660
H 7.29989 5.59886 0.39350
H 6.59648 5.83581 3.66657
H 5.96393 4.27593 3.03199
H 5.96461 5.63963 2.03402
H 9.07259 7.12351 1.34471
H 9.28088 6.70978 -0.34657
H 10.68326 5.86812 2.08387
H 11.41160 6.37234 0.51540
H 10.72510 4.70353 0.75645
H 9.43795 3.42040 -5.12918
H 8.72658 4.51557 -3.90006
H 7.66314 3.29997 -4.71471
H 8.24443 -1.76768 -4.18026
H 10.83646 -4.41382 -6.38529
H 11.04576 -5.03258 -4.62538
H 12.00991 -3.74070 -5.38281
