158

Mg 0.00000 0.00000 0.00000
C -0.21700 -2.21800 2.80100
C -1.25500 2.44200 2.02600
C -0.24500 1.85000 -2.56400
C 0.14600 -2.82400 -2.03700
N -0.61700 -0.00900 2.12600
C -0.59400 -0.90800 3.10500
C -0.93600 -0.30900 4.50200
C -1.77300 0.96400 4.03200
C -1.15500 1.16800 2.66000
C -3.26300 0.68500 3.86300
C 0.34500 0.11000 5.29900
C 0.12400 0.39700 6.78700
H 1.16800 0.03300 7.73300
N -0.18500 1.96100 -0.15200
C -0.70300 2.80000 0.77700
C -0.62000 4.15600 0.19300
C -0.18700 4.01500 -1.22500
C -0.21400 2.58300 -1.38000
C -0.88700 5.40600 0.97400
C 0.18100 5.01300 -2.27700
O 0.30300 4.69000 -3.50800
C 0.31000 6.41400 -1.83700
N -0.26500 -0.41300 -2.02900
C -0.27900 0.56900 -2.93700
C -0.19600 0.02400 -4.33200
C 0.12400 -1.53300 -4.18000
C 0.08600 -1.63200 -2.63500
C -1.45100 0.20500 -5.19700
C 1.37300 -2.07000 -4.92300
C 2.62600 -1.49000 -4.30600
N 0.15000 -2.14400 0.30300
C 0.17300 -3.13600 -0.68800
C 0.17300 -4.43800 0.00400
C 0.13300 -4.11100 1.35800
C 0.08300 -2.69500 1.50200
C 0.14900 -5.71500 -0.62300
C 0.09600 -4.62900 2.71600
O 0.20800 -5.74700 3.22100
C -0.25500 -3.42800 3.70100
C 0.71700 -3.48200 4.84800
O 1.93100 -3.25500 4.66900
O 0.03800 -3.55600 6.00300
C 0.94300 -3.58300 7.18300
H -1.85900 3.22000 2.49700
H -0.21800 2.45300 -3.47400
H 0.27600 -3.74700 -2.60500
H -1.55400 -0.94900 5.13200
H -1.58500 1.83100 4.66500
H -3.48400 -0.37700 3.96900
H -3.51100 1.02700 2.85800
H -3.85200 1.30100 4.54300
H 0.66900 1.09600 4.96600
H 1.13000 -0.63900 5.18900
H -0.84400 0.02600 7.12500
H 0.06200 1.47700 6.92100
H -1.34400 5.18600 1.93800
H -1.65100 5.96300 0.43200
H 0.00700 6.02000 1.08400
H -0.63500 6.74400 -1.40500
H 0.66500 6.97000 -2.70400
H 1.04800 6.46600 -1.03600
H 0.60800 0.50100 -4.89100
H -0.69200 -2.15600 -4.54700
H -1.26700 0.74000 -6.12900
H -2.20400 0.71400 -4.59600
H -1.96700 -0.72000 -5.45300
H 1.35600 -1.75900 -5.96700
H 1.45200 -3.15700 -4.90200
H 2.71400 -0.52200 -4.79800
H 3.48700 -2.12100 -4.52900
H 2.49500 -1.30300 -3.24000
H 0.86700 -6.33300 -0.08400
H 0.40400 -5.64200 -1.68000
H -0.89100 -5.99900 -0.46300
H -1.28300 -3.58100 4.02800
H 0.69800 -4.47800 7.75500
H 0.83300 -2.61900 7.68000
H 2.00000 -3.75400 6.97600
Mg 15.76142 1.42357 1.20612
C 13.44080 -1.19249 2.01235
C 13.07052 3.47741 0.78736
C 17.74216 3.62026 0.05778
C 18.12581 -1.05794 0.57562
N 13.58668 1.07187 1.40371
C 12.82489 0.05408 1.77535
C 11.32795 0.41144 1.97793
C 11.25837 1.70357 1.02691
C 12.72036 2.13946 1.09944
C 10.93066 1.36972 -0.41894
C 10.99681 0.77618 3.46767
C 9.50395 0.83437 3.79892
H 9.06641 0.39219 5.12010
N 15.52357 3.38246 0.99460
C 14.35892 4.05097 0.86065
C 14.72323 5.46896 0.71653
C 16.20462 5.56429 0.61109
C 16.55384 4.16030 0.52768
C 13.71304 6.57807 0.76949
C 17.14950 6.72713 0.57650
O 18.37851 6.58634 0.24105
C 16.57179 8.04982 0.85623
N 17.59097 1.29841 0.22661
C 18.26797 2.40785 -0.11799
C 19.67369 2.07459 -0.55764
C 19.87890 0.52826 -0.20505
C 18.46391 0.19816 0.31862
C 19.97980 2.30383 -2.03755
C 21.09952 0.16518 0.68430
C 20.90563 0.71851 2.07772
N 15.86774 -0.72085 1.44745
C 16.94241 -1.56659 1.09546
C 16.50245 -2.95515 1.34194
C 15.18382 -2.82119 1.80211
C 14.82027 -1.44751 1.82059
C 17.27047 -4.12760 1.09370
C 14.01314 -3.53021 2.26633
O 13.75964 -4.70234 2.54124
C 12.78970 -2.51619 2.30307
C 12.09168 -2.67820 3.62558
O 12.66774 -2.37600 4.68551
O 10.79308 -2.95466 3.40747
C 10.05622 -3.11329 4.68954
H 12.29334 4.14253 0.40988
H 18.50139 4.34444 -0.24651
H 18.83810 -1.88201 0.49682
H 10.63029 -0.34220 1.63287
H 10.61102 2.46889 1.44713
H 10.91497 0.30404 -0.59277
H 11.70513 1.83842 -1.01188
H 9.99324 1.85010 -0.71359
H 11.27052 1.82350 3.64921
H 11.49094 0.10516 4.14308
H 8.88976 0.37273 3.01623
H 9.19005 1.88102 3.80350
H 12.68883 6.19349 0.68897
H 13.84970 7.17857 -0.13638
H 13.83960 7.22174 1.64261
H 15.78216 8.25819 0.13823
H 17.41729 8.74026 0.87353
H 16.09951 8.02338 1.84460
H 20.40003 2.65992 -0.00727
H 20.02896 -0.07945 -1.10948
H 20.83178 2.98929 -2.20596
H 19.08655 2.68273 -2.51617
H 20.18477 1.40196 -2.61184
H 22.00691 0.62895 0.28968
H 21.28497 -0.90181 0.74856
H 21.23899 1.75600 1.97985
H 21.51644 0.17363 2.79469
H 19.84378 0.73770 2.34932
H 17.13067 -4.77783 1.94702
H 18.32129 -3.88982 0.94200
H 16.79337 -4.48268 0.17633
H 12.13743 -2.75924 1.46341
H 9.57621 -4.09643 4.66262
H 9.39321 -2.23091 4.76420
H 10.64192 -3.18870 5.59823
