158

Mg 0.00000 0.00000 0.00000
C -0.21700 -2.21800 2.80100
C -1.25500 2.44200 2.02600
C -0.24500 1.85000 -2.56400
C 0.14600 -2.82400 -2.03700
N -0.61700 -0.00900 2.12600
C -0.59400 -0.90800 3.10500
C -0.93600 -0.30900 4.50200
C -1.77300 0.96400 4.03200
C -1.15500 1.16800 2.66000
C -3.26300 0.68500 3.86300
C 0.34500 0.11000 5.29900
C 0.12400 0.39700 6.78700
H 1.16800 0.03300 7.73300
N -0.18500 1.96100 -0.15200
C -0.70300 2.80000 0.77700
C -0.62000 4.15600 0.19300
C -0.18700 4.01500 -1.22500
C -0.21400 2.58300 -1.38000
C -0.88700 5.40600 0.97400
C 0.18100 5.01300 -2.27700
O 0.30300 4.69000 -3.50800
C 0.31000 6.41400 -1.83700
N -0.26500 -0.41300 -2.02900
C -0.27900 0.56900 -2.93700
C -0.19600 0.02400 -4.33200
C 0.12400 -1.53300 -4.18000
C 0.08600 -1.63200 -2.63500
C -1.45100 0.20500 -5.19700
C 1.37300 -2.07000 -4.92300
C 2.62600 -1.49000 -4.30600
N 0.15000 -2.14400 0.30300
C 0.17300 -3.13600 -0.68800
C 0.17300 -4.43800 0.00400
C 0.13300 -4.11100 1.35800
C 0.08300 -2.69500 1.50200
C 0.14900 -5.71500 -0.62300
C 0.09600 -4.62900 2.71600
O 0.20800 -5.74700 3.22100
C -0.25500 -3.42800 3.70100
C 0.71700 -3.48200 4.84800
O 1.93100 -3.25500 4.66900
O 0.03800 -3.55600 6.00300
C 0.94300 -3.58300 7.18300
H -1.85900 3.22000 2.49700
H -0.21800 2.45300 -3.47400
H 0.27600 -3.74700 -2.60500
H -1.55400 -0.94900 5.13200
H -1.58500 1.83100 4.66500
H -3.48400 -0.37700 3.96900
H -3.51100 1.02700 2.85800
H -3.85200 1.30100 4.54300
H 0.66900 1.09600 4.96600
H 1.13000 -0.63900 5.18900
H -0.84400 0.02600 7.12500
H 0.06200 1.47700 6.92100
H -1.34400 5.18600 1.93800
H -1.65100 5.96300 0.43200
H 0.00700 6.02000 1.08400
H -0.63500 6.74400 -1.40500
H 0.66500 6.97000 -2.70400
H 1.04800 6.46600 -1.03600
H 0.60800 0.50100 -4.89100
H -0.69200 -2.15600 -4.54700
H -1.26700 0.74000 -6.12900
H -2.20400 0.71400 -4.59600
H -1.96700 -0.72000 -5.45300
H 1.35600 -1.75900 -5.96700
H 1.45200 -3.15700 -4.90200
H 2.71400 -0.52200 -4.79800
H 3.48700 -2.12100 -4.52900
H 2.49500 -1.30300 -3.24000
H 0.86700 -6.33300 -0.08400
H 0.40400 -5.64200 -1.68000
H -0.89100 -5.99900 -0.46300
H -1.28300 -3.58100 4.02800
H 0.69800 -4.47800 7.75500
H 0.83300 -2.61900 7.68000
H 2.00000 -3.75400 6.97600
Mg 13.14492 1.19072 1.00119
C 12.67889 1.06109 4.55718
C 11.96526 4.38922 1.11337
C 13.11736 1.18633 -2.17161
C 13.18814 -2.29404 1.01947
N 12.44503 2.45169 2.67820
C 12.37120 2.31701 3.99378
C 12.02097 3.62346 4.75543
C 11.27617 4.40325 3.56545
C 11.95807 3.73702 2.37221
C 9.78744 4.10742 3.49121
C 13.29924 4.39578 5.23664
C 13.03308 5.51206 6.24898
H 14.02099 5.75084 7.29754
N 13.09035 2.70134 -0.28473
C 12.59709 3.93840 -0.06641
C 12.77286 4.67044 -1.33029
C 13.25929 3.71476 -2.36217
C 13.15235 2.46542 -1.63566
C 12.56213 6.15200 -1.44859
C 13.72926 3.89390 -3.77399
O 13.88003 2.89679 -4.56511
C 13.91808 5.27831 -4.23141
N 12.93998 -0.32688 -0.40495
C 13.01663 -0.06449 -1.72146
C 13.11757 -1.33809 -2.52654
C 13.33722 -2.50634 -1.45672
C 13.23143 -1.68108 -0.15551
C 11.90861 -1.66988 -3.40102
C 14.57924 -3.41780 -1.65501
C 15.84455 -2.62321 -1.42482
N 13.15414 -0.35677 2.50892
C 13.14718 -1.75306 2.29816
C 13.03935 -2.39314 3.62523
C 12.96730 -1.31599 4.52136
C 13.00574 -0.09108 3.80192
C 12.97048 -3.79362 3.87020
C 12.85677 -0.93668 5.91155
O 12.87240 -1.54382 6.98153
C 12.53770 0.61859 5.98718
C 13.45932 1.23287 7.00492
O 14.68704 1.26319 6.80897
O 12.72604 1.87341 7.93356
C 13.59607 2.50853 8.95899
H 11.39831 5.31427 1.00507
H 13.21724 1.12737 -3.25790
H 13.29384 -3.37658 1.11740
H 11.34724 3.49376 5.59390
H 11.50100 5.46640 3.58838
H 9.49680 3.32774 4.17953
H 9.59899 3.80074 2.47068
H 9.21267 5.02587 3.64092
H 13.69435 4.98924 4.40211
H 14.02888 3.71600 5.63180
H 12.02553 5.44819 6.67759
H 13.03942 6.46849 5.72057
H 12.04789 6.55673 -0.56816
H 11.85675 6.30994 -2.27162
H 13.48568 6.69278 -1.66601
H 12.98094 5.82143 -4.13520
H 14.34153 5.19944 -5.23458
H 14.63704 5.77115 -3.56747
H 13.97041 -1.30743 -3.19349
H 12.49600 -3.21494 -1.44870
H 12.16405 -1.79273 -4.47047
H 11.17060 -0.88908 -3.27361
H 11.35600 -2.56039 -3.10639
H 14.62297 -3.77947 -2.68527
H 14.58391 -4.28836 -1.00762
H 16.00587 -2.13136 -2.38875
H 16.67210 -3.28436 -1.17568
H 15.68555 -1.83799 -0.67662
H 13.62071 -3.99494 4.71114
H 13.26520 -4.36567 2.99289
H 11.90515 -3.90080 4.09126
H 11.48907 0.72462 6.26772
H 13.27039 2.13032 9.93293
H 13.51247 3.59830 8.78822
H 14.64465 2.23489 8.96571
