158

Mg 0.00000 0.00000 0.00000
C -0.21700 -2.21800 2.80100
C -1.25500 2.44200 2.02600
C -0.24500 1.85000 -2.56400
C 0.14600 -2.82400 -2.03700
N -0.61700 -0.00900 2.12600
C -0.59400 -0.90800 3.10500
C -0.93600 -0.30900 4.50200
C -1.77300 0.96400 4.03200
C -1.15500 1.16800 2.66000
C -3.26300 0.68500 3.86300
C 0.34500 0.11000 5.29900
C 0.12400 0.39700 6.78700
H 1.16800 0.03300 7.73300
N -0.18500 1.96100 -0.15200
C -0.70300 2.80000 0.77700
C -0.62000 4.15600 0.19300
C -0.18700 4.01500 -1.22500
C -0.21400 2.58300 -1.38000
C -0.88700 5.40600 0.97400
C 0.18100 5.01300 -2.27700
O 0.30300 4.69000 -3.50800
C 0.31000 6.41400 -1.83700
N -0.26500 -0.41300 -2.02900
C -0.27900 0.56900 -2.93700
C -0.19600 0.02400 -4.33200
C 0.12400 -1.53300 -4.18000
C 0.08600 -1.63200 -2.63500
C -1.45100 0.20500 -5.19700
C 1.37300 -2.07000 -4.92300
C 2.62600 -1.49000 -4.30600
N 0.15000 -2.14400 0.30300
C 0.17300 -3.13600 -0.68800
C 0.17300 -4.43800 0.00400
C 0.13300 -4.11100 1.35800
C 0.08300 -2.69500 1.50200
C 0.14900 -5.71500 -0.62300
C 0.09600 -4.62900 2.71600
O 0.20800 -5.74700 3.22100
C -0.25500 -3.42800 3.70100
C 0.71700 -3.48200 4.84800
O 1.93100 -3.25500 4.66900
O 0.03800 -3.55600 6.00300
C 0.94300 -3.58300 7.18300
H -1.85900 3.22000 2.49700
H -0.21800 2.45300 -3.47400
H 0.27600 -3.74700 -2.60500
H -1.55400 -0.94900 5.13200
H -1.58500 1.83100 4.66500
H -3.48400 -0.37700 3.96900
H -3.51100 1.02700 2.85800
H -3.85200 1.30100 4.54300
H 0.66900 1.09600 4.96600
H 1.13000 -0.63900 5.18900
H -0.84400 0.02600 7.12500
H 0.06200 1.47700 6.92100
H -1.34400 5.18600 1.93800
H -1.65100 5.96300 0.43200
H 0.00700 6.02000 1.08400
H -0.63500 6.74400 -1.40500
H 0.66500 6.97000 -2.70400
H 1.04800 6.46600 -1.03600
H 0.60800 0.50100 -4.89100
H -0.69200 -2.15600 -4.54700
H -1.26700 0.74000 -6.12900
H -2.20400 0.71400 -4.59600
H -1.96700 -0.72000 -5.45300
H 1.35600 -1.75900 -5.96700
H 1.45200 -3.15700 -4.90200
H 2.71400 -0.52200 -4.79800
H 3.48700 -2.12100 -4.52900
H 2.49500 -1.30300 -3.24000
H 0.86700 -6.33300 -0.08400
H 0.40400 -5.64200 -1.68000
H -0.89100 -5.99900 -0.46300
H -1.28300 -3.58100 4.02800
H 0.69800 -4.47800 7.75500
H 0.83300 -2.61900 7.68000
H 2.00000 -3.75400 6.97600
Mg 7.88466 0.71817 0.60502
C 9.37289 -0.80977 3.49113
C 5.38427 1.80499 2.65476
C 6.32136 1.68719 -1.98042
C 9.83340 -1.40675 -1.35275
N 7.53546 0.46675 2.77460
C 8.20058 -0.08086 3.78063
C 7.61773 0.23437 5.18437
C 6.10392 0.54964 4.75093
C 6.35072 1.00388 3.31377
C 5.21834 -0.68482 4.71626
C 8.29751 1.48368 5.84704
C 7.99828 1.66392 7.33691
H 9.04990 2.19698 8.19854
N 6.39242 2.01287 0.41649
C 5.48551 2.35180 1.35665
C 4.58737 3.32549 0.71677
C 4.93871 3.40953 -0.72691
C 5.90521 2.33428 -0.82602
C 3.57426 4.12454 1.48393
C 4.47147 4.30072 -1.83761
O 4.73484 4.04155 -3.06493
C 3.61776 5.43436 -1.45350
N 7.89180 0.07315 -1.37140
C 7.15813 0.70189 -2.30646
C 7.53241 0.24048 -3.69477
C 8.84376 -0.65618 -3.51055
C 8.95388 -0.63000 -1.97023
C 6.46645 -0.56402 -4.43836
C 10.09071 -0.25974 -4.34757
C 10.62709 1.07242 -3.87529
N 9.47445 -0.70134 0.95943
C 10.13245 -1.50214 0.00034
C 11.05714 -2.38976 0.73485
C 10.85460 -2.05717 2.08276
C 9.85839 -1.04867 2.18271
C 11.89758 -3.38030 0.15294
C 11.24936 -2.33742 3.44450
O 12.11453 -3.03521 3.97203
C 10.21678 -1.63172 4.42540
C 11.00247 -0.90519 5.48245
O 11.72454 0.06137 5.18079
O 10.60584 -1.32969 6.69605
C 11.34879 -0.62996 7.77782
H 4.43908 2.00025 3.16208
H 5.89190 2.06246 -2.91220
H 10.54646 -2.02906 -1.89768
H 7.63985 -0.59426 5.88197
H 5.68502 1.36090 5.34062
H 5.78390 -1.59097 4.87492
H 4.76083 -0.69120 3.73560
H 4.39725 -0.57991 5.43120
H 7.83374 2.39606 5.45053
H 9.35865 1.46760 5.69095
H 7.55765 0.76294 7.78078
H 7.22060 2.42386 7.44521
H 3.43223 3.72777 2.49675
H 2.60709 3.96984 0.99351
H 3.79933 5.19316 1.49232
H 2.73014 5.06268 -0.94710
H 3.45961 6.00501 -2.37068
H 4.15982 6.05018 -0.72718
H 7.76991 1.08373 -4.33165
H 8.66454 -1.70346 -3.79503
H 6.18594 -0.12111 -5.41263
H 5.59905 -0.65497 -3.79814
H 6.72283 -1.60470 -4.62926
H 9.81637 -0.12934 -5.39728
H 10.88680 -0.99591 -4.31183
H 9.99707 1.79370 -4.40436
H 11.67335 1.18418 -4.15259
H 10.45338 1.20830 -2.80151
H 12.85980 -3.29779 0.64062
H 11.98370 -3.24626 -0.92335
H 11.34024 -4.28485 0.41065
H 9.58291 -2.41126 4.84979
H 11.80972 -1.40294 8.40049
H 10.61128 0.03553 8.26459
H 12.21459 -0.04368 7.49300
