79

Mg 8.92584 0.80284 0.68499
C 9.40870 3.42972 3.08195
C 9.11784 -1.39943 3.28263
C 8.95411 -1.55094 -1.44253
C 9.90427 3.06245 -1.78129
N 9.22575 1.09848 2.85638
C 9.33551 2.14536 3.66032
C 9.28794 1.80214 5.17343
C 9.77218 0.27335 5.08856
C 9.31533 -0.04921 3.66732
C 11.28232 0.11599 5.15212
C 7.83952 1.91381 5.76642
C 7.76717 1.89498 7.29487
H 6.75242 2.71266 7.95376
N 8.53621 -1.13078 0.90377
C 8.64583 -1.86017 2.03393
C 8.26379 -3.23230 1.66585
C 8.07852 -3.28780 0.19028
C 8.54624 -1.96822 -0.18394
C 8.03176 -4.31266 2.68193
C 7.57699 -4.35678 -0.73273
O 7.72476 -4.27318 -2.00317
C 6.99139 -5.54761 -0.09990
N 9.56619 0.69504 -1.29002
C 9.41637 -0.43398 -2.00471
C 9.69271 -0.19298 -3.46961
C 9.82433 1.39307 -3.62673
C 9.68373 1.80665 -2.14532
C 10.94602 -0.86535 -4.02956
C 8.90345 2.07526 -4.67519
C 7.46095 1.98406 -4.23216
N 9.36957 2.91560 0.59886
C 9.78487 3.65461 -0.53051
C 10.07503 5.02785 -0.06958
C 9.82854 4.98614 1.31100
C 9.43347 3.67402 1.68751
C 10.55067 6.09512 -0.88248
C 9.82296 5.75107 2.53719
O 9.98547 6.93689 2.82205
C 9.67292 4.74582 3.75922
C 8.61168 5.28654 4.67787
O 7.42887 5.36293 4.30139
O 9.12523 5.41943 5.91439
C 8.10722 5.94233 6.86416
H 9.38930 -2.18499 3.98839
H 8.87607 -2.29846 -2.23537
H 10.11997 3.85088 -2.50553
H 9.96997 2.37447 5.79071
H 9.24607 -0.34816 5.80848
H 11.78826 1.06963 5.12490
H 11.55247 -0.48035 4.29047
H 11.56313 -0.47567 6.02814
H 7.28821 0.99190 5.54085
H 7.34068 2.78640 5.39177
H 8.74922 2.05577 7.75602
H 7.48132 0.89052 7.61639
H 8.40487 -4.02107 3.67145
H 8.66021 -5.16247 2.39427
H 6.99043 -4.63967 2.71873
H 7.72855 -6.00906 0.55288
H 6.60976 -6.15721 -0.92125
H 6.15955 -5.23089 0.53911
H 8.86837 -0.53945 -4.08077
H 10.83609 1.68883 -3.94090
H 10.73792 -1.52882 -4.89013
H 11.42320 -1.41719 -3.23062
H 11.73497 -0.18371 -4.34281
H 8.96768 1.55260 -5.63272
H 9.15361 3.11490 -4.85836
H 7.16296 0.98561 -4.56589
H 6.86306 2.75571 -4.71291
H 7.38306 2.00311 -3.13890
H 9.98765 6.97523 -0.60157
H 10.43642 5.87018 -1.94084
H 11.60068 6.11858 -0.57884
H 10.64456 4.67974 4.25026
H 8.52913 6.84298 7.32080
H 7.86829 5.09963 7.53981
H 7.18462 6.32891 6.44725
