79

Mg 7.88314 0.70970 0.59883
C 7.74549 -1.99810 2.93573
C 6.63453 2.70745 3.06724
C 7.56790 3.00424 -1.56735
C 8.02767 -1.67875 -1.93496
N 7.30526 0.29174 2.69454
C 7.35754 -0.77467 3.48652
C 7.03356 -0.45424 4.97639
C 6.17205 0.87093 4.76729
C 6.76223 1.33879 3.44869
C 4.68286 0.60501 4.57204
C 8.32350 -0.17210 5.81793
C 8.12611 -0.17325 7.33661
H 9.19175 -0.69183 8.18091
N 7.67056 2.66116 0.82126
C 7.15903 3.30240 1.89942
C 7.21415 4.74510 1.57965
C 7.62292 4.87985 0.15387
C 7.61124 3.50220 -0.26725
C 6.94565 5.82175 2.58586
C 7.95895 6.06340 -0.69726
O 8.06252 5.97934 -1.96879
C 8.07821 7.35868 -0.00368
N 7.58636 0.68100 -1.46726
C 7.54332 1.81573 -2.17404
C 7.60772 1.54384 -3.64776
C 7.95015 -0.00872 -3.79631
C 7.94165 -0.39675 -2.29710
C 6.33493 1.86413 -4.44364
C 9.19207 -0.37670 -4.64640
C 10.44868 0.09691 -3.95090
N 8.06581 -1.45039 0.49082
C 8.08327 -2.23811 -0.66930
C 8.11241 -3.64674 -0.23460
C 8.09302 -3.58056 1.15719
C 8.02772 -2.21779 1.56569
C 8.09314 -4.78346 -1.09013
C 8.08741 -4.34494 2.39394
O 8.22278 -5.53597 2.67786
C 7.73928 -3.35605 3.59258
C 8.73269 -3.60909 4.69369
O 9.94024 -3.33326 4.54170
O 8.07590 -3.90949 5.82459
C 9.00258 -4.14327 6.96422
H 6.02942 3.37344 3.68550
H 7.57062 3.76778 -2.34801
H 8.15895 -2.47645 -2.66837
H 6.43534 -1.21091 5.48433
H 6.36058 1.60648 5.54905
H 4.47731 -0.46137 4.47985
H 4.41222 1.12571 3.65328
H 4.09863 1.07289 5.36485
H 8.62884 0.86391 5.67131
H 9.11579 -0.87455 5.55682
H 7.16923 -0.61646 7.61383
H 8.05289 0.86124 7.67229
H 6.50917 5.41737 3.49828
H 6.16487 6.45844 2.17025
H 7.83366 6.41828 2.79545
H 7.13715 7.58662 0.49733
H 8.41023 8.07320 -0.75606
H 8.83000 7.27102 0.78122
H 8.39526 2.13005 -4.11952
H 7.13554 -0.56458 -4.26118
H 6.49507 2.56752 -5.26114
H 5.58664 2.23916 -3.74599
H 5.82610 0.99560 -4.86098
H 9.15205 0.12455 -5.61288
H 9.28521 -1.44690 -4.83144
H 10.51540 1.14137 -4.25338
H 11.31339 -0.46721 -4.30198
H 10.33482 0.07825 -2.86685
H 8.82865 -5.48022 -0.68823
H 8.32784 -4.50919 -2.11838
H 7.05992 -5.10894 -0.97023
H 6.71945 -3.58406 3.90094
H 8.77944 -5.13356 7.36143
H 8.88947 -3.29165 7.63530
H 10.05770 -4.25554 6.71232
