158

Mg 0.00000 0.00000 0.00000
C -0.21700 -2.21800 2.80100
C -1.25500 2.44200 2.02600
C -0.24500 1.85000 -2.56400
C 0.14600 -2.82400 -2.03700
N -0.61700 -0.00900 2.12600
C -0.59400 -0.90800 3.10500
C -0.93600 -0.30900 4.50200
C -1.77300 0.96400 4.03200
C -1.15500 1.16800 2.66000
C -3.26300 0.68500 3.86300
C 0.34500 0.11000 5.29900
C 0.12400 0.39700 6.78700
H 1.16800 0.03300 7.73300
N -0.18500 1.96100 -0.15200
C -0.70300 2.80000 0.77700
C -0.62000 4.15600 0.19300
C -0.18700 4.01500 -1.22500
C -0.21400 2.58300 -1.38000
C -0.88700 5.40600 0.97400
C 0.18100 5.01300 -2.27700
O 0.30300 4.69000 -3.50800
C 0.31000 6.41400 -1.83700
N -0.26500 -0.41300 -2.02900
C -0.27900 0.56900 -2.93700
C -0.19600 0.02400 -4.33200
C 0.12400 -1.53300 -4.18000
C 0.08600 -1.63200 -2.63500
C -1.45100 0.20500 -5.19700
C 1.37300 -2.07000 -4.92300
C 2.62600 -1.49000 -4.30600
N 0.15000 -2.14400 0.30300
C 0.17300 -3.13600 -0.68800
C 0.17300 -4.43800 0.00400
C 0.13300 -4.11100 1.35800
C 0.08300 -2.69500 1.50200
C 0.14900 -5.71500 -0.62300
C 0.09600 -4.62900 2.71600
O 0.20800 -5.74700 3.22100
C -0.25500 -3.42800 3.70100
C 0.71700 -3.48200 4.84800
O 1.93100 -3.25500 4.66900
O 0.03800 -3.55600 6.00300
C 0.94300 -3.58300 7.18300
H -1.85900 3.22000 2.49700
H -0.21800 2.45300 -3.47400
H 0.27600 -3.74700 -2.60500
H -1.55400 -0.94900 5.13200
H -1.58500 1.83100 4.66500
H -3.48400 -0.37700 3.96900
H -3.51100 1.02700 2.85800
H -3.85200 1.30100 4.54300
H 0.66900 1.09600 4.96600
H 1.13000 -0.63900 5.18900
H -0.84400 0.02600 7.12500
H 0.06200 1.47700 6.92100
H -1.34400 5.18600 1.93800
H -1.65100 5.96300 0.43200
H 0.00700 6.02000 1.08400
H -0.63500 6.74400 -1.40500
H 0.66500 6.97000 -2.70400
H 1.04800 6.46600 -1.03600
H 0.60800 0.50100 -4.89100
H -0.69200 -2.15600 -4.54700
H -1.26700 0.74000 -6.12900
H -2.20400 0.71400 -4.59600
H -1.96700 -0.72000 -5.45300
H 1.35600 -1.75900 -5.96700
H 1.45200 -3.15700 -4.90200
H 2.71400 -0.52200 -4.79800
H 3.48700 -2.12100 -4.52900
H 2.49500 -1.30300 -3.24000
H 0.86700 -6.33300 -0.08400
H 0.40400 -5.64200 -1.68000
H -0.89100 -5.99900 -0.46300
H -1.28300 -3.58100 4.02800
H 0.69800 -4.47800 7.75500
H 0.83300 -2.61900 7.68000
H 2.00000 -3.75400 6.97600
Mg 13.13715 1.17546 1.00553
C 10.95171 2.90907 3.26329
C 15.35317 0.91687 3.58565
C 15.26272 0.04954 -1.06370
C 11.29554 2.55151 -1.61375
N 13.04934 1.86302 3.10596
C 12.14298 2.45656 3.86790
C 12.50078 2.50002 5.37775
C 14.09705 2.37951 5.25016
C 14.18059 1.64261 3.91499
C 14.79179 3.72255 5.09876
C 11.89488 1.28919 6.17071
C 11.94205 1.42967 7.69380
H 10.83751 0.88378 8.47767
N 14.80584 0.14549 1.31082
C 15.56626 0.14002 2.42572
C 16.69314 -0.76137 2.13971
C 16.62405 -1.15876 0.70723
C 15.55001 -0.30143 0.24734
C 17.65292 -1.22491 3.19677
C 17.40505 -2.13793 -0.11587
O 17.33421 -2.14931 -1.39559
C 18.32598 -3.02093 0.61466
N 13.39695 1.44978 -1.03887
C 14.36862 0.80201 -1.70535
C 14.19050 0.93896 -3.19863
C 12.75463 1.61375 -3.39994
C 12.37255 1.84169 -1.92094
C 15.24948 1.77122 -3.92134
C 11.74796 0.86614 -4.31665
C 11.32774 -0.43385 -3.66948
N 11.32596 2.33884 0.82068
C 10.74632 2.83150 -0.36902
C 9.58858 3.66164 0.02205
C 9.58873 3.61270 1.42423
C 10.68216 2.82532 1.87582
C 8.73646 4.37330 -0.86876
C 8.91879 4.05678 2.62533
O 7.88310 4.67668 2.86371
C 9.84573 3.72487 3.87313
C 8.99191 3.07200 4.92541
O 8.47950 1.95734 4.72153
O 9.09883 3.76645 6.07288
C 8.27838 3.15131 7.15004
H 16.20892 0.98070 4.25832
H 15.90203 -0.40460 -1.82430
H 10.61250 2.93494 -2.37475
H 12.23658 3.42245 5.88083
H 14.51223 1.77008 6.04865
H 14.08516 4.53088 4.98294
H 15.41359 3.63440 4.21748
H 15.47649 3.88919 5.93527
H 12.54632 0.41517 6.04238
H 10.88793 1.09380 5.85686
H 12.16401 2.45731 8.00627
H 12.78631 0.84686 8.07006
H 17.55221 -0.63683 4.11733
H 18.66131 -0.99458 2.83628
H 17.58257 -2.29776 3.38835
H 19.04615 -2.41787 1.16250
H 18.72603 -3.70871 -0.13286
H 17.75356 -3.58290 1.36109
H 14.19306 -0.03176 -3.67904
H 12.83329 2.60919 -3.86119
H 15.76101 1.21827 -4.73169
H 15.96525 2.12243 -3.19000
H 14.88813 2.70154 -4.35622
H 12.22318 0.60160 -5.26446
H 10.86307 1.44821 -4.55148
H 12.13810 -1.11741 -3.93993
H 10.37516 -0.77197 -4.07237
H 11.32173 -0.34565 -2.57685
H 7.72323 4.21330 -0.52486
H 8.86612 4.03826 -1.89575
H 9.10519 5.39166 -0.71957
H 10.27639 4.66477 4.22052
H 7.60841 3.93074 7.52596
H 9.00181 2.71999 7.86722
H 7.56954 2.38326 6.86351
