79

Mg 15.76628 1.41940 1.19766
C 15.93490 0.07798 -2.11661
C 15.08732 -1.74349 2.28311
C 15.16516 2.64725 4.05907
C 15.33099 4.55789 -0.25356
N 15.56488 -0.50572 0.12341
C 15.71224 -0.89454 -1.13923
C 15.68308 -2.44215 -1.31651
C 14.86043 -2.83007 -0.00702
C 15.21916 -1.64079 0.86639
C 13.35001 -2.84608 -0.21883
C 17.11750 -3.06973 -1.29882
C 17.20296 -4.51841 -1.78809
H 18.38039 -4.93757 -2.53327
N 15.68929 0.55488 2.97236
C 15.41520 -0.74701 3.22777
C 15.47766 -0.89589 4.69768
C 15.62304 0.46412 5.28701
C 15.47000 1.28934 4.11612
C 15.44921 -2.22273 5.39226
C 15.85153 0.94431 6.68535
O 15.71544 2.17246 7.01353
C 16.15647 -0.08777 7.69276
N 15.09355 3.29291 1.82619
C 14.97413 3.58267 3.12648
C 14.75364 5.05081 3.34071
C 14.99027 5.74497 1.92230
C 15.23960 4.47255 1.07551
C 13.37250 5.44854 3.87947
C 16.03616 6.88652 1.86382
C 17.41991 6.32780 2.10910
N 15.82522 2.23793 -0.81171
C 15.59233 3.56892 -1.18710
C 15.63533 3.61613 -2.66019
C 15.87535 2.29776 -3.04247
C 15.94980 1.47442 -1.88279
C 15.40615 4.76748 -3.46412
C 16.06173 1.38896 -4.16193
O 16.19143 1.52756 -5.37909
C 15.98641 -0.10404 -3.61319
C 17.15251 -0.85962 -4.18991
O 18.32301 -0.57724 -3.86197
O 16.70166 -1.94001 -4.84568
C 17.81024 -2.75012 -5.41747
H 14.63792 -2.64340 2.70753
H 15.05979 3.13180 5.03198
H 15.28787 5.51691 -0.77306
H 15.15392 -2.78799 -2.20466
H 15.22356 -3.75388 0.44292
H 13.08160 -2.46179 -1.20280
H 12.93954 -2.20801 0.56403
H 12.94398 -3.84160 -0.03757
H 17.43855 -3.20355 -0.26582
H 17.81468 -2.45487 -1.86909
H 16.29381 -4.81682 -2.31089
H 17.24096 -5.17166 -0.91630
H 15.16965 -3.02546 4.71107
H 14.63581 -2.18555 6.11662
H 16.38741 -2.43838 5.90375
H 15.33526 -0.80360 7.73458
H 16.37734 0.44829 8.61510
H 17.03489 -0.64745 7.37014
H 15.46740 5.45277 4.05863
H 14.07908 6.19894 1.53201
H 13.41212 6.01615 4.80950
H 12.78358 4.53983 4.00071
H 12.75573 6.01510 3.18231
H 15.84244 7.61873 2.64694
H 16.04376 7.41482 0.91036
H 17.47840 6.29106 3.19633
H 18.17809 6.99621 1.69970
H 17.50663 5.30448 1.74335
H 16.16979 4.75348 -4.24170
H 15.46023 5.68089 -2.87221
H 14.39860 4.56361 -3.82624
H 15.03120 -0.51139 -3.94297
H 17.61811 -2.84817 -6.48597
H 17.86225 -3.66483 -4.82670
H 18.79464 -2.28089 -5.42759
