79

Mg 7.88314 0.70970 0.59883
C 8.09999 -2.07129 -1.64422
C 7.01699 -1.51504 3.03673
C 7.24450 3.18330 2.47769
C 7.64825 2.76456 -2.20617
N 7.62646 -1.48900 0.57659
C 7.79790 -2.44367 -0.33246
C 7.70072 -3.88262 0.25691
C 6.81637 -3.56762 1.54559
C 7.20171 -2.11383 1.75519
C 5.31499 -3.64560 1.28813
C 9.10201 -4.45965 0.65080
C 9.13460 -5.96588 0.92569
H 10.31528 -6.72304 0.53833
N 7.70452 0.81377 2.56355
C 7.35988 -0.19467 3.39995
C 7.36509 0.38449 4.76054
C 7.55530 1.85567 4.62811
C 7.48186 2.01514 3.19823
C 7.24954 -0.43961 6.00604
C 7.75881 2.94633 5.63169
O 7.67059 4.18300 5.31953
C 7.97953 2.52294 7.02635
N 7.27990 2.66992 0.20987
C 7.13032 3.55542 1.20108
C 6.97323 4.94908 0.66912
C 7.29093 4.86425 -0.89345
C 7.50771 3.33511 -1.00751
C 5.59518 5.59283 0.87549
C 8.39166 5.80800 -1.43948
C 9.73793 5.40259 -0.88243
N 8.04953 0.45235 -1.54992
C 7.89354 1.44112 -2.53209
C 7.98884 0.76878 -3.84089
C 8.17833 -0.57563 -3.52706
C 8.17377 -0.73689 -2.11204
C 7.84253 1.39302 -5.11107
C 8.35895 -1.91695 -4.05819
O 8.53646 -2.38775 -5.18261
C 8.19360 -2.95575 -2.86263
C 9.34113 -3.92546 -2.94110
O 10.51198 -3.54961 -2.72845
O 8.86164 -5.17636 -3.01771
C 9.94897 -6.18991 -3.06863
H 6.51083 -2.08559 3.81790
H 7.12942 4.08050 3.08942
H 7.66880 3.35337 -3.12504
H 7.18613 -4.60130 -0.38114
H 7.11933 -4.16743 2.40359
H 5.09892 -3.77851 0.22815
H 4.90915 -2.69824 1.64351
H 4.85583 -4.41852 1.90501
H 9.38096 -4.08523 1.63571
H 9.84683 -4.21535 -0.10742
H 8.23052 -6.45666 0.56419
H 9.11160 -6.11666 2.00501
H 6.95519 -1.46425 5.78242
H 6.41468 -0.03597 6.57858
H 8.15838 -0.40476 6.60697
H 7.12405 1.93784 7.36450
H 8.19431 3.43243 7.58629
H 8.84061 1.85487 7.06046
H 7.68057 5.62982 1.14101
H 6.41633 5.09583 -1.50182
H 5.63027 6.53826 1.41737
H 4.95964 4.87148 1.38836
H 5.03032 5.76698 -0.03995
H 8.20670 6.83232 -1.11777
H 8.45698 5.80880 -2.52759
H 9.75757 5.89486 0.08923
H 10.54073 5.77001 -1.52253
H 9.78795 4.32820 -0.70446
H 8.63063 0.98519 -5.74396
H 7.92012 2.47706 -5.03081
H 6.83928 1.06517 -5.38283
H 7.23176 -3.44731 -3.00524
H 9.78882 -6.78765 -3.96602
H 9.93700 -6.70572 -2.10832
H 10.95448 -5.80938 -3.25156
