79

Mg 7.88466 0.71817 0.60502
C 9.37289 -0.80977 3.49113
C 5.38427 1.80499 2.65476
C 6.32136 1.68719 -1.98042
C 9.83340 -1.40675 -1.35275
N 7.53546 0.46675 2.77460
C 8.20058 -0.08086 3.78063
C 7.61773 0.23437 5.18437
C 6.10392 0.54964 4.75093
C 6.35072 1.00388 3.31377
C 5.21834 -0.68482 4.71626
C 8.29751 1.48368 5.84704
C 7.99828 1.66392 7.33691
H 9.04990 2.19698 8.19854
N 6.39242 2.01287 0.41649
C 5.48551 2.35180 1.35665
C 4.58737 3.32549 0.71677
C 4.93871 3.40953 -0.72691
C 5.90521 2.33428 -0.82602
C 3.57426 4.12454 1.48393
C 4.47147 4.30072 -1.83761
O 4.73484 4.04155 -3.06493
C 3.61776 5.43436 -1.45350
N 7.89180 0.07315 -1.37140
C 7.15813 0.70189 -2.30646
C 7.53241 0.24048 -3.69477
C 8.84376 -0.65618 -3.51055
C 8.95388 -0.63000 -1.97023
C 6.46645 -0.56402 -4.43836
C 10.09071 -0.25974 -4.34757
C 10.62709 1.07242 -3.87529
N 9.47445 -0.70134 0.95943
C 10.13245 -1.50214 0.00034
C 11.05714 -2.38976 0.73485
C 10.85460 -2.05717 2.08276
C 9.85839 -1.04867 2.18271
C 11.89758 -3.38030 0.15294
C 11.24936 -2.33742 3.44450
O 12.11453 -3.03521 3.97203
C 10.21678 -1.63172 4.42540
C 11.00247 -0.90519 5.48245
O 11.72454 0.06137 5.18079
O 10.60584 -1.32969 6.69605
C 11.34879 -0.62996 7.77782
H 4.43908 2.00025 3.16208
H 5.89190 2.06246 -2.91220
H 10.54646 -2.02906 -1.89768
H 7.63985 -0.59426 5.88197
H 5.68502 1.36090 5.34062
H 5.78390 -1.59097 4.87492
H 4.76083 -0.69120 3.73560
H 4.39725 -0.57991 5.43120
H 7.83374 2.39606 5.45053
H 9.35865 1.46760 5.69095
H 7.55765 0.76294 7.78078
H 7.22060 2.42386 7.44521
H 3.43223 3.72777 2.49675
H 2.60709 3.96984 0.99351
H 3.79933 5.19316 1.49232
H 2.73014 5.06268 -0.94710
H 3.45961 6.00501 -2.37068
H 4.15982 6.05018 -0.72718
H 7.76991 1.08373 -4.33165
H 8.66454 -1.70346 -3.79503
H 6.18594 -0.12111 -5.41263
H 5.59905 -0.65497 -3.79814
H 6.72283 -1.60470 -4.62926
H 9.81637 -0.12934 -5.39728
H 10.88680 -0.99591 -4.31183
H 9.99707 1.79370 -4.40436
H 11.67335 1.18418 -4.15259
H 10.45338 1.20830 -2.80151
H 12.85980 -3.29779 0.64062
H 11.98370 -3.24626 -0.92335
H 11.34024 -4.28485 0.41065
H 9.58291 -2.41126 4.84979
H 11.80972 -1.40294 8.40049
H 10.61128 0.03553 8.26459
H 12.21459 -0.04368 7.49300
