158

Mg 0.00000 0.00000 0.00000
C -0.21700 -2.21800 2.80100
C -1.25500 2.44200 2.02600
C -0.24500 1.85000 -2.56400
C 0.14600 -2.82400 -2.03700
N -0.61700 -0.00900 2.12600
C -0.59400 -0.90800 3.10500
C -0.93600 -0.30900 4.50200
C -1.77300 0.96400 4.03200
C -1.15500 1.16800 2.66000
C -3.26300 0.68500 3.86300
C 0.34500 0.11000 5.29900
C 0.12400 0.39700 6.78700
H 1.16800 0.03300 7.73300
N -0.18500 1.96100 -0.15200
C -0.70300 2.80000 0.77700
C -0.62000 4.15600 0.19300
C -0.18700 4.01500 -1.22500
C -0.21400 2.58300 -1.38000
C -0.88700 5.40600 0.97400
C 0.18100 5.01300 -2.27700
O 0.30300 4.69000 -3.50800
C 0.31000 6.41400 -1.83700
N -0.26500 -0.41300 -2.02900
C -0.27900 0.56900 -2.93700
C -0.19600 0.02400 -4.33200
C 0.12400 -1.53300 -4.18000
C 0.08600 -1.63200 -2.63500
C -1.45100 0.20500 -5.19700
C 1.37300 -2.07000 -4.92300
C 2.62600 -1.49000 -4.30600
N 0.15000 -2.14400 0.30300
C 0.17300 -3.13600 -0.68800
C 0.17300 -4.43800 0.00400
C 0.13300 -4.11100 1.35800
C 0.08300 -2.69500 1.50200
C 0.14900 -5.71500 -0.62300
C 0.09600 -4.62900 2.71600
O 0.20800 -5.74700 3.22100
C -0.25500 -3.42800 3.70100
C 0.71700 -3.48200 4.84800
O 1.93100 -3.25500 4.66900
O 0.03800 -3.55600 6.00300
C 0.94300 -3.58300 7.18300
H -1.85900 3.22000 2.49700
H -0.21800 2.45300 -3.47400
H 0.27600 -3.74700 -2.60500
H -1.55400 -0.94900 5.13200
H -1.58500 1.83100 4.66500
H -3.48400 -0.37700 3.96900
H -3.51100 1.02700 2.85800
H -3.85200 1.30100 4.54300
H 0.66900 1.09600 4.96600
H 1.13000 -0.63900 5.18900
H -0.84400 0.02600 7.12500
H 0.06200 1.47700 6.92100
H -1.34400 5.18600 1.93800
H -1.65100 5.96300 0.43200
H 0.00700 6.02000 1.08400
H -0.63500 6.74400 -1.40500
H 0.66500 6.97000 -2.70400
H 1.04800 6.46600 -1.03600
H 0.60800 0.50100 -4.89100
H -0.69200 -2.15600 -4.54700
H -1.26700 0.74000 -6.12900
H -2.20400 0.71400 -4.59600
H -1.96700 -0.72000 -5.45300
H 1.35600 -1.75900 -5.96700
H 1.45200 -3.15700 -4.90200
H 2.71400 -0.52200 -4.79800
H 3.48700 -2.12100 -4.52900
H 2.49500 -1.30300 -3.24000
H 0.86700 -6.33300 -0.08400
H 0.40400 -5.64200 -1.68000
H -0.89100 -5.99900 -0.46300
H -1.28300 -3.58100 4.02800
H 0.69800 -4.47800 7.75500
H 0.83300 -2.61900 7.68000
H 2.00000 -3.75400 6.97600
Mg 31.53769 2.83379 2.40313
C 28.91376 2.48415 4.82630
C 33.25430 4.62847 4.74130
C 33.66241 3.54176 0.15551
C 29.19288 2.03072 -0.04690
N 31.04332 3.41356 4.47960
C 30.04434 3.17149 5.31494
C 30.30383 3.62521 6.77657
C 31.40203 4.75996 6.48473
C 31.96555 4.22259 5.17082
C 30.79739 6.12892 6.22073
C 30.89083 2.47270 7.66492
C 30.87924 2.75107 9.16962
H 30.63628 1.63686 10.08174
N 33.40362 3.49102 2.56108
C 33.93843 4.18273 3.58908
C 35.33589 4.44656 3.21269
C 35.53612 3.99761 1.80804
C 34.17330 3.67135 1.43877
C 36.34836 4.99491 4.17583
C 36.75102 3.89292 0.93667
O 36.65858 3.70271 -0.32749
C 38.04865 4.11271 1.59189
N 31.40013 3.00136 0.33544
C 32.48655 3.26873 -0.41029
C 32.20215 3.06883 -1.87983
C 30.76269 2.37540 -1.94840
C 30.40980 2.37565 -0.44479
C 32.19768 4.33580 -2.73490
C 30.66265 1.03735 -2.73090
C 31.42968 -0.04397 -2.00441
N 29.48375 2.16399 2.37596
C 28.68361 1.91226 1.23996
C 27.32631 1.59015 1.72616
C 27.42600 1.70022 3.12130
C 28.74668 2.08486 3.47819
C 26.19758 1.29838 0.90948
C 26.71157 1.58884 4.37265
O 25.58728 1.21167 4.70047
C 27.60995 2.21463 5.52491
C 27.62021 1.25183 6.68052
O 28.14817 0.13175 6.56532
O 27.20183 1.88946 7.78901
C 27.20516 0.97867 8.96471
H 33.77644 5.39275 5.31760
H 34.38464 3.66757 -0.65445
H 28.43058 1.67355 -0.74260
H 29.44589 4.05802 7.27696
H 32.17103 4.77223 7.25275
H 29.72022 6.08793 6.15610
H 31.22037 6.46121 5.28173
H 31.13899 6.84370 6.97488
H 31.97305 2.40518 7.49466
H 30.39043 1.54516 7.46517
H 30.23942 3.60419 9.42606
H 31.88075 3.06677 9.47184
H 35.87072 5.38308 5.08390
H 36.79297 5.87790 3.70412
H 37.14132 4.28005 4.40574
H 38.06275 5.10234 2.04233
H 38.80051 3.90826 0.82718
H 38.15338 3.39256 2.41106
H 32.93275 2.40706 -2.32860
H 30.02293 3.02043 -2.44492
H 32.91315 4.29599 -3.57786
H 32.41169 5.18084 -2.09408
H 31.23080 4.60481 -3.15678
H 31.12620 1.13873 -3.71527
H 29.64222 0.70425 -2.88823
H 32.45909 0.11683 -2.33840
H 31.07008 -1.02926 -2.29414
H 31.40586 0.11721 -0.92039
H 25.69484 0.45460 1.36311
H 26.49334 1.08213 -0.11499
H 25.65067 2.24174 0.98839
H 27.17160 3.17567 5.79663
H 26.19521 0.99690 9.38585
H 28.02812 1.33204 9.61403
H 27.33725 -0.08060 8.77774
