158

Mg 0.00000 0.00000 0.00000
C -0.21700 -2.21800 2.80100
C -1.25500 2.44200 2.02600
C -0.24500 1.85000 -2.56400
C 0.14600 -2.82400 -2.03700
N -0.61700 -0.00900 2.12600
C -0.59400 -0.90800 3.10500
C -0.93600 -0.30900 4.50200
C -1.77300 0.96400 4.03200
C -1.15500 1.16800 2.66000
C -3.26300 0.68500 3.86300
C 0.34500 0.11000 5.29900
C 0.12400 0.39700 6.78700
H 1.16800 0.03300 7.73300
N -0.18500 1.96100 -0.15200
C -0.70300 2.80000 0.77700
C -0.62000 4.15600 0.19300
C -0.18700 4.01500 -1.22500
C -0.21400 2.58300 -1.38000
C -0.88700 5.40600 0.97400
C 0.18100 5.01300 -2.27700
O 0.30300 4.69000 -3.50800
C 0.31000 6.41400 -1.83700
N -0.26500 -0.41300 -2.02900
C -0.27900 0.56900 -2.93700
C -0.19600 0.02400 -4.33200
C 0.12400 -1.53300 -4.18000
C 0.08600 -1.63200 -2.63500
C -1.45100 0.20500 -5.19700
C 1.37300 -2.07000 -4.92300
C 2.62600 -1.49000 -4.30600
N 0.15000 -2.14400 0.30300
C 0.17300 -3.13600 -0.68800
C 0.17300 -4.43800 0.00400
C 0.13300 -4.11100 1.35800
C 0.08300 -2.69500 1.50200
C 0.14900 -5.71500 -0.62300
C 0.09600 -4.62900 2.71600
O 0.20800 -5.74700 3.22100
C -0.25500 -3.42800 3.70100
C 0.71700 -3.48200 4.84800
O 1.93100 -3.25500 4.66900
O 0.03800 -3.55600 6.00300
C 0.94300 -3.58300 7.18300
H -1.85900 3.22000 2.49700
H -0.21800 2.45300 -3.47400
H 0.27600 -3.74700 -2.60500
H -1.55400 -0.94900 5.13200
H -1.58500 1.83100 4.66500
H -3.48400 -0.37700 3.96900
H -3.51100 1.02700 2.85800
H -3.85200 1.30100 4.54300
H 0.66900 1.09600 4.96600
H 1.13000 -0.63900 5.18900
H -0.84400 0.02600 7.12500
H 0.06200 1.47700 6.92100
H -1.34400 5.18600 1.93800
H -1.65100 5.96300 0.43200
H 0.00700 6.02000 1.08400
H -0.63500 6.74400 -1.40500
H 0.66500 6.97000 -2.70400
H 1.04800 6.46600 -1.03600
H 0.60800 0.50100 -4.89100
H -0.69200 -2.15600 -4.54700
H -1.26700 0.74000 -6.12900
H -2.20400 0.71400 -4.59600
H -1.96700 -0.72000 -5.45300
H 1.35600 -1.75900 -5.96700
H 1.45200 -3.15700 -4.90200
H 2.71400 -0.52200 -4.79800
H 3.48700 -2.12100 -4.52900
H 2.49500 -1.30300 -3.24000
H 0.86700 -6.33300 -0.08400
H 0.40400 -5.64200 -1.68000
H -0.89100 -5.99900 -0.46300
H -1.28300 -3.58100 4.02800
H 0.69800 -4.47800 7.75500
H 0.83300 -2.61900 7.68000
H 2.00000 -3.75400 6.97600
Mg 7.89030 0.71275 0.60602
C 7.04789 -1.43499 3.35495
C 7.22672 3.35365 2.66027
C 8.18752 2.61904 -1.91293
C 7.37916 -2.01541 -1.50148
N 7.23085 0.81792 2.71465
C 7.00227 -0.06261 3.67734
C 6.78716 0.56166 5.08218
C 6.30106 2.02216 4.62445
C 6.98746 2.09233 3.26188
C 4.79980 2.11652 4.40842
C 8.11548 0.63298 5.91433
C 7.92715 0.94312 7.40097
H 8.82774 0.31367 8.36284
N 8.20760 2.66927 0.50644
C 7.89668 3.59262 1.44027
C 8.31464 4.88734 0.88067
C 8.74673 4.67238 -0.52709
C 8.36950 3.28513 -0.70970
C 8.35438 6.14974 1.69197
C 9.38123 5.57079 -1.54516
O 9.45246 5.24218 -2.78200
C 9.83271 6.88613 -1.06815
N 7.59279 0.41554 -1.43003
C 7.84445 1.39538 -2.31575
C 7.82440 0.86957 -3.73120
C 7.74558 -0.72210 -3.59717
C 7.63907 -0.84173 -2.06103
C 6.67416 1.36376 -4.60820
C 8.84131 -1.54507 -4.32844
C 10.18616 -1.30331 -3.68165
N 7.49993 -1.39705 0.85980
C 7.29361 -2.35471 -0.15726
C 6.95045 -3.62864 0.50741
C 6.95845 -3.31564 1.87505
C 7.26382 -1.93875 2.04945
C 6.63599 -4.85149 -0.14976
C 6.76757 -3.83447 3.21037
O 6.57720 -4.95168 3.68926
C 6.69271 -2.61083 4.22205
C 7.59081 -2.91741 5.38907
O 8.82138 -3.00695 5.23319
O 6.87699 -2.83907 6.52692
C 7.72693 -3.12437 7.71352
H 6.82749 4.24435 3.14622
H 8.38754 3.20651 -2.81202
H 7.30153 -2.93564 -2.08443
H 6.01909 0.08414 5.67870
H 6.68783 2.79264 5.28637
H 4.32044 1.15184 4.48425
H 4.67071 2.52611 3.41514
H 4.36543 2.84868 5.09514
H 8.68294 1.52102 5.60756
H 8.68393 -0.26981 5.80273
H 6.88366 0.82554 7.71760
H 8.13892 2.00265 7.56396
H 7.82327 6.03252 2.64465
H 7.77095 6.89911 1.14616
H 9.36925 6.52708 1.83449
H 8.98851 7.42672 -0.64677
H 10.33882 7.34740 -1.91841
H 10.54880 6.73560 -0.25257
H 8.73510 1.13347 -4.25472
H 6.80643 -1.11968 -4.00920
H 7.01511 1.86221 -5.53523
H 6.05997 2.03298 -4.02045
H 5.96030 0.59847 -4.90808
H 8.93252 -1.21601 -5.36650
H 8.64176 -2.61132 -4.34495
H 10.52118 -0.37265 -4.14932
H 10.86867 -2.12238 -3.89926
H 10.07769 -1.11213 -2.60772
H 7.15655 -5.63499 0.38471
H 6.92472 -4.82497 -1.19843
H 5.55017 -4.86729 -0.02324
H 5.65095 -2.49973 4.52529
H 7.24746 -3.94182 8.26085
H 7.83486 -2.15896 8.24275
H 8.71269 -3.53820 7.53611
