158

Mg 0.00000 0.00000 0.00000
C -0.21700 -2.21800 2.80100
C -1.25500 2.44200 2.02600
C -0.24500 1.85000 -2.56400
C 0.14600 -2.82400 -2.03700
N -0.61700 -0.00900 2.12600
C -0.59400 -0.90800 3.10500
C -0.93600 -0.30900 4.50200
C -1.77300 0.96400 4.03200
C -1.15500 1.16800 2.66000
C -3.26300 0.68500 3.86300
C 0.34500 0.11000 5.29900
C 0.12400 0.39700 6.78700
H 1.16800 0.03300 7.73300
N -0.18500 1.96100 -0.15200
C -0.70300 2.80000 0.77700
C -0.62000 4.15600 0.19300
C -0.18700 4.01500 -1.22500
C -0.21400 2.58300 -1.38000
C -0.88700 5.40600 0.97400
C 0.18100 5.01300 -2.27700
O 0.30300 4.69000 -3.50800
C 0.31000 6.41400 -1.83700
N -0.26500 -0.41300 -2.02900
C -0.27900 0.56900 -2.93700
C -0.19600 0.02400 -4.33200
C 0.12400 -1.53300 -4.18000
C 0.08600 -1.63200 -2.63500
C -1.45100 0.20500 -5.19700
C 1.37300 -2.07000 -4.92300
C 2.62600 -1.49000 -4.30600
N 0.15000 -2.14400 0.30300
C 0.17300 -3.13600 -0.68800
C 0.17300 -4.43800 0.00400
C 0.13300 -4.11100 1.35800
C 0.08300 -2.69500 1.50200
C 0.14900 -5.71500 -0.62300
C 0.09600 -4.62900 2.71600
O 0.20800 -5.74700 3.22100
C -0.25500 -3.42800 3.70100
C 0.71700 -3.48200 4.84800
O 1.93100 -3.25500 4.66900
O 0.03800 -3.55600 6.00300
C 0.94300 -3.58300 7.18300
H -1.85900 3.22000 2.49700
H -0.21800 2.45300 -3.47400
H 0.27600 -3.74700 -2.60500
H -1.55400 -0.94900 5.13200
H -1.58500 1.83100 4.66500
H -3.48400 -0.37700 3.96900
H -3.51100 1.02700 2.85800
H -3.85200 1.30100 4.54300
H 0.66900 1.09600 4.96600
H 1.13000 -0.63900 5.18900
H -0.84400 0.02600 7.12500
H 0.06200 1.47700 6.92100
H -1.34400 5.18600 1.93800
H -1.65100 5.96300 0.43200
H 0.00700 6.02000 1.08400
H -0.63500 6.74400 -1.40500
H 0.66500 6.97000 -2.70400
H 1.04800 6.46600 -1.03600
H 0.60800 0.50100 -4.89100
H -0.69200 -2.15600 -4.54700
H -1.26700 0.74000 -6.12900
H -2.20400 0.71400 -4.59600
H -1.96700 -0.72000 -5.45300
H 1.35600 -1.75900 -5.96700
H 1.45200 -3.15700 -4.90200
H 2.71400 -0.52200 -4.79800
H 3.48700 -2.12100 -4.52900
H 2.49500 -1.30300 -3.24000
H 0.86700 -6.33300 -0.08400
H 0.40400 -5.64200 -1.68000
H -0.89100 -5.99900 -0.46300
H -1.28300 -3.58100 4.02800
H 0.69800 -4.47800 7.75500
H 0.83300 -2.61900 7.68000
H 2.00000 -3.75400 6.97600
Mg 15.77459 1.42420 1.20216
C 16.36696 -0.73240 4.00880
C 15.28049 3.95164 3.43879
C 14.80851 3.23989 -1.21391
C 15.18970 -1.43864 -0.69725
N 15.84303 1.47864 3.41227
C 16.13893 0.61204 4.36924
C 16.27249 1.23682 5.78394
C 15.36280 2.54074 5.55782
C 15.52841 2.69537 4.04741
C 13.89107 2.30677 5.85548
C 17.75361 1.62264 6.12956
C 18.00582 1.94984 7.60302
H 19.28603 1.56666 8.19185
N 15.61613 3.39747 1.06188
C 15.44211 4.27379 2.07334
C 15.36525 5.60220 1.44600
C 15.34291 5.42278 -0.03117
C 15.23157 3.98062 -0.11988
C 15.40079 6.87832 2.23573
C 15.39807 6.39011 -1.17460
O 15.12473 6.03093 -2.37422
C 15.69034 7.79041 -0.83515
N 14.89131 0.98342 -0.62756
C 14.62089 1.95519 -1.51664
C 14.24662 1.37647 -2.86030
C 14.55791 -0.18869 -2.75573
C 14.99336 -0.26178 -1.27572
C 12.79381 1.57855 -3.29029
C 15.49902 -0.79265 -3.83379
C 16.89769 -0.24490 -3.66327
N 15.94953 -0.70752 1.50745
C 15.62783 -1.73009 0.58824
C 15.80376 -3.01788 1.29042
C 16.19653 -2.65159 2.58659
C 16.24130 -1.23505 2.69111
C 15.55818 -4.30672 0.73842
C 16.57315 -3.14096 3.89326
O 16.79471 -4.25148 4.37429
C 16.57785 -1.91822 4.90878
C 17.85474 -1.97779 5.70158
O 18.95362 -1.81228 5.14331
O 17.55796 -2.00287 7.01370
C 18.79250 -2.05097 7.84159
H 14.88416 4.75814 4.05634
H 14.56987 3.81702 -2.11027
H 15.12185 -2.37878 -1.24881
H 15.86542 0.63415 6.58697
H 15.77291 3.40328 6.07665
H 13.68115 1.26685 6.05707
H 13.35665 2.63670 4.97423
H 13.56262 2.95970 6.66920
H 17.98450 2.59636 5.67868
H 18.43185 0.85617 5.80839
H 17.17623 1.62847 8.24447
H 18.02845 3.03622 7.71830
H 15.25248 6.69285 3.30671
H 14.52416 7.46347 1.93745
H 16.30047 7.46711 2.04447
H 14.93825 8.15834 -0.14128
H 15.77616 8.31101 -1.79091
H 16.65042 7.82969 -0.30854
H 14.85453 1.80379 -3.64830
H 13.64306 -0.79288 -2.84432
H 12.69449 2.09728 -4.26247
H 12.28075 2.12778 -2.51206
H 12.20158 0.66765 -3.35904
H 15.16950 -0.49682 -4.83282
H 15.53749 -1.87670 -3.81522
H 16.85261 0.71446 -4.18738
H 17.62789 -0.91010 -4.11973
H 17.11226 -0.03480 -2.60901
H 16.38054 -4.93894 1.04585
H 15.47127 -4.26509 -0.34532
H 14.60512 -4.54582 1.21777
H 15.69666 -2.01650 5.54393
H 18.70698 -2.92682 8.49217
H 18.86082 -1.06263 8.33380
H 19.72837 -2.25473 7.33454
