79

Mg 8.94386 0.80863 0.67773
C 10.84937 -1.31010 2.85927
C 9.84666 3.42336 2.67341
C 6.91742 2.62472 -0.95407
C 7.29768 -2.05382 -0.43679
N 10.19088 0.91641 2.50135
C 10.91358 0.05634 3.20301
C 11.81492 0.70706 4.28640
C 10.98810 2.06672 4.50217
C 10.32371 2.16902 3.13075
C 9.89740 1.94740 5.55359
C 13.26605 0.99412 3.76311
C 14.28500 1.34113 4.85080
H 15.66163 0.88238 4.68678
N 8.82712 2.78379 0.52378
C 9.26458 3.69681 1.41613
C 8.92493 5.01026 0.84723
C 8.10450 4.79391 -0.37540
C 7.89580 3.36169 -0.30278
C 9.43848 6.30093 1.41631
C 7.58207 5.72418 -1.42795
O 6.69088 5.35405 -2.27151
C 8.07586 7.10826 -1.38324
N 7.19676 0.38444 -0.36632
C 6.53689 1.34932 -1.03077
C 5.47310 0.76377 -1.92847
C 5.71843 -0.81645 -1.91115
C 6.87657 -0.88157 -0.89141
C 4.02793 1.05859 -1.52729
C 5.90403 -1.51496 -3.28603
C 7.19924 -1.06514 -3.92280
N 9.15571 -1.32134 0.97168
C 8.34342 -2.34200 0.43083
C 8.80860 -3.62010 1.00744
C 9.85256 -3.24893 1.86818
C 10.01248 -1.83704 1.84601
C 8.24520 -4.90203 0.75178
C 10.84863 -3.72946 2.79857
O 11.24176 -4.83995 3.15353
C 11.45497 -2.48382 3.57776
C 12.95344 -2.61429 3.56776
O 13.58695 -2.54323 2.49995
O 13.40690 -2.58321 4.83417
C 14.88908 -2.69826 4.87568
H 9.88209 4.27237 3.35664
H 6.26200 3.19364 -1.61756
H 6.90049 -3.00087 -0.80827
H 11.87515 0.15674 5.21768
H 11.65238 2.91087 4.66797
H 9.78033 0.93101 5.89911
H 8.98942 2.29157 5.07591
H 10.08817 2.64358 6.37533
H 13.26383 1.93640 3.20022
H 13.62909 0.17254 3.17673
H 13.91571 1.09747 5.85440
H 14.41664 2.42572 4.86966
H 9.88002 6.15501 2.40986
H 8.56722 6.93965 1.59741
H 10.12104 6.81807 0.73855
H 7.83215 7.54765 -0.41888
H 7.65918 7.59586 -2.26670
H 9.16914 7.09214 -1.45448
H 5.58192 1.12518 -2.94368
H 4.87210 -1.35526 -1.46032
H 3.44641 1.55725 -2.32557
H 4.03932 1.66377 -0.63053
H 3.44969 0.19125 -1.21335
H 5.10380 -1.22267 -3.97040
H 5.89583 -2.59809 -3.22483
H 6.92458 -0.11922 -4.39913
H 7.53813 -1.79307 -4.65717
H 7.95591 -0.84324 -3.16131
H 9.07347 -5.58353 0.61025
H 7.59197 -4.88292 -0.11810
H 7.68870 -5.05906 1.67964
H 11.04924 -2.50149 4.59000
H 15.12555 -3.54816 5.52332
H 15.25705 -1.70475 5.19393
H 15.39556 -2.98228 3.96066
