79

Mg 13.13218 1.17783 1.00488
C 12.37237 3.83559 3.29356
C 14.45881 -0.51936 3.64953
C 14.21693 -0.98075 -1.05212
C 12.80645 3.49533 -1.57752
N 13.33065 1.69573 3.14606
C 12.95001 2.70714 3.91191
C 13.12930 2.46399 5.43450
C 14.28854 1.35478 5.36602
C 13.99309 0.77750 3.98322
C 15.68788 1.94710 5.34730
C 11.82992 1.89613 6.10619
C 11.83132 1.92571 7.63618
H 10.57252 2.18780 8.32843
N 13.73369 -0.69004 1.30123
C 14.22314 -1.21572 2.44376
C 14.53862 -2.61967 2.13787
C 14.34971 -2.83546 0.67758
C 14.10757 -1.47555 0.23930
C 14.89467 -3.62289 3.19626
C 14.39397 -4.06101 -0.18398
O 14.43663 -3.98398 -1.46268
C 14.48019 -5.35131 0.51545
N 13.67258 1.28712 -0.99971
C 14.06110 0.18929 -1.67182
C 14.13308 0.45562 -3.15650
C 13.47608 1.89848 -3.36650
C 13.20712 2.27111 -1.89199
C 15.53394 0.44072 -3.76788
C 12.30276 1.99681 -4.37958
C 11.10113 1.24636 -3.85205
N 12.49626 3.23550 0.83264
C 12.46135 4.02223 -0.33951
C 12.06834 5.38785 0.06429
C 11.92309 5.30580 1.45736
C 12.22526 3.98749 1.89355
C 11.93910 6.50759 -0.80496
C 11.59318 6.03733 2.65933
O 11.17268 7.16822 2.90014
C 11.99215 5.15018 3.91638
C 10.83597 5.16129 4.87848
O 9.75071 4.63907 4.56848
O 11.26595 5.59011 6.07915
C 10.15733 5.60808 7.07034
H 15.10154 -1.03877 4.36087
H 14.48105 -1.71436 -1.81733
H 12.58779 4.25070 -2.33534
H 13.47178 3.32564 5.99489
H 14.15485 0.59588 6.13255
H 15.66863 3.02356 5.26365
H 16.18101 1.50968 4.48909
H 16.25128 1.61086 6.22243
H 11.78494 0.81222 5.93927
H 10.95827 2.39981 5.73583
H 12.62943 2.56336 8.03539
H 12.07835 0.92626 8.00236
H 15.11613 -3.13584 4.15394
H 15.84458 -4.07931 2.89759
H 14.14313 -4.40815 3.30217
H 15.37174 -5.36583 1.13785
H 14.41106 -6.11182 -0.26476
H 13.62274 -5.44062 1.19177
H 13.55719 -0.27655 -3.70911
H 14.20676 2.62749 -3.74661
H 15.64121 -0.28550 -4.59562
H 16.24707 0.22974 -2.98209
H 15.88329 1.40023 -4.14539
H 12.57667 1.51971 -5.32378
H 12.01254 3.01720 -4.60666
H 11.31080 0.21164 -4.13924
H 10.18776 1.60843 -4.31970
H 11.06356 1.28340 -2.75712
H 11.03153 7.02166 -0.51765
H 11.90937 6.19978 -1.84810
H 12.85730 7.04943 -0.56289
H 12.89188 5.58588 4.35254
H 10.10778 6.62334 7.47589
H 10.38011 4.79148 7.78257
H 9.14832 5.48035 6.69612
