79

Mg 10.50492 0.95027 0.80626
C 8.13984 -1.70511 1.29040
C 7.85813 2.97279 0.07240
C 12.58180 3.18565 -0.06385
C 12.96552 -1.49252 0.45424
N 8.32790 0.56761 0.72610
C 7.54042 -0.46426 0.98966
C 6.02486 -0.12904 1.00614
C 6.05624 1.17254 0.06605
C 7.49112 1.62693 0.32553
C 5.91723 0.85045 -1.41256
C 5.50435 0.21470 2.44590
C 3.98105 0.24941 2.58775
H 3.38784 -0.21318 3.83937
N 10.26699 2.90807 0.58491
C 9.11871 3.56254 0.31214
C 9.47754 4.98674 0.22816
C 10.95892 5.10286 0.31033
C 11.33623 3.70464 0.25826
C 8.45266 6.08171 0.16431
C 11.88367 6.27844 0.40546
O 13.14696 6.15769 0.22558
C 11.25628 7.59016 0.62286
N 12.44443 0.86027 0.06294
C 13.14308 1.98234 -0.18358
C 14.59751 1.67266 -0.44647
C 14.77938 0.12536 -0.08540
C 13.31487 -0.22926 0.25346
C 15.08333 1.92236 -1.87406
C 15.88406 -0.23136 0.94664
C 15.50901 0.30383 2.30984
N 10.61132 -1.19509 1.03894
C 11.73382 -2.02255 0.81669
C 11.28668 -3.41947 0.99301
C 9.91896 -3.30812 1.28530
C 9.53602 -1.93967 1.27088
C 12.09673 -4.57881 0.83213
C 8.70977 -4.03771 1.59231
O 8.44089 -5.21609 1.82225
C 7.47676 -3.04047 1.48472
C 6.62091 -3.22641 2.70762
O 7.05512 -2.92839 3.83423
O 5.36405 -3.51761 2.32570
C 4.47469 -3.70023 3.50363
H 7.12481 3.63170 -0.39338
H 13.36257 3.92317 -0.26367
H 13.69399 -2.30615 0.45772
H 5.38699 -0.88798 0.56923
H 5.35026 1.92449 0.40886
H 5.93896 -0.21335 -1.59694
H 6.75301 1.33593 -1.89922
H 5.01725 1.32160 -1.81800
H 5.73787 1.26347 2.67015
H 5.91963 -0.45718 3.17168
H 3.47658 -0.21160 1.72989
H 3.65386 1.29169 2.56269
H 7.45232 5.68450 -0.04769
H 8.69303 6.69399 -0.71159
H 8.45941 6.71726 1.05240
H 10.55993 7.79601 -0.18657
H 12.08281 8.29152 0.75258
H 10.66428 7.54649 1.54386
H 15.24055 2.26142 0.19615
H 15.05044 -0.47023 -0.96951
H 15.93963 2.62088 -1.92780
H 14.25170 2.29468 -2.45742
H 15.37176 1.02972 -2.42651
H 16.82691 0.24875 0.67336
H 16.07549 -1.29645 1.02368
H 15.83689 1.34667 2.26429
H 16.03301 -0.24083 3.09266
H 14.42133 0.30593 2.44622
H 11.86056 -5.24028 1.65504
H 13.15471 -4.32545 0.81572
H 11.74359 -4.92996 -0.14114
H 6.93848 -3.28281 0.56761
H 4.01620 -4.68929 3.40750
H 3.79479 -2.82761 3.50277
H 4.94291 -3.77797 4.47789
