158

Mg 0.00000 0.00000 0.00000
C -0.21700 -2.21800 2.80100
C -1.25500 2.44200 2.02600
C -0.24500 1.85000 -2.56400
C 0.14600 -2.82400 -2.03700
N -0.61700 -0.00900 2.12600
C -0.59400 -0.90800 3.10500
C -0.93600 -0.30900 4.50200
C -1.77300 0.96400 4.03200
C -1.15500 1.16800 2.66000
C -3.26300 0.68500 3.86300
C 0.34500 0.11000 5.29900
C 0.12400 0.39700 6.78700
H 1.16800 0.03300 7.73300
N -0.18500 1.96100 -0.15200
C -0.70300 2.80000 0.77700
C -0.62000 4.15600 0.19300
C -0.18700 4.01500 -1.22500
C -0.21400 2.58300 -1.38000
C -0.88700 5.40600 0.97400
C 0.18100 5.01300 -2.27700
O 0.30300 4.69000 -3.50800
C 0.31000 6.41400 -1.83700
N -0.26500 -0.41300 -2.02900
C -0.27900 0.56900 -2.93700
C -0.19600 0.02400 -4.33200
C 0.12400 -1.53300 -4.18000
C 0.08600 -1.63200 -2.63500
C -1.45100 0.20500 -5.19700
C 1.37300 -2.07000 -4.92300
C 2.62600 -1.49000 -4.30600
N 0.15000 -2.14400 0.30300
C 0.17300 -3.13600 -0.68800
C 0.17300 -4.43800 0.00400
C 0.13300 -4.11100 1.35800
C 0.08300 -2.69500 1.50200
C 0.14900 -5.71500 -0.62300
C 0.09600 -4.62900 2.71600
O 0.20800 -5.74700 3.22100
C -0.25500 -3.42800 3.70100
C 0.71700 -3.48200 4.84800
O 1.93100 -3.25500 4.66900
O 0.03800 -3.55600 6.00300
C 0.94300 -3.58300 7.18300
H -1.85900 3.22000 2.49700
H -0.21800 2.45300 -3.47400
H 0.27600 -3.74700 -2.60500
H -1.55400 -0.94900 5.13200
H -1.58500 1.83100 4.66500
H -3.48400 -0.37700 3.96900
H -3.51100 1.02700 2.85800
H -3.85200 1.30100 4.54300
H 0.66900 1.09600 4.96600
H 1.13000 -0.63900 5.18900
H -0.84400 0.02600 7.12500
H 0.06200 1.47700 6.92100
H -1.34400 5.18600 1.93800
H -1.65100 5.96300 0.43200
H 0.00700 6.02000 1.08400
H -0.63500 6.74400 -1.40500
H 0.66500 6.97000 -2.70400
H 1.04800 6.46600 -1.03600
H 0.60800 0.50100 -4.89100
H -0.69200 -2.15600 -4.54700
H -1.26700 0.74000 -6.12900
H -2.20400 0.71400 -4.59600
H -1.96700 -0.72000 -5.45300
H 1.35600 -1.75900 -5.96700
H 1.45200 -3.15700 -4.90200
H 2.71400 -0.52200 -4.79800
H 3.48700 -2.12100 -4.52900
H 2.49500 -1.30300 -3.24000
H 0.86700 -6.33300 -0.08400
H 0.40400 -5.64200 -1.68000
H -0.89100 -5.99900 -0.46300
H -1.28300 -3.58100 4.02800
H 0.69800 -4.47800 7.75500
H 0.83300 -2.61900 7.68000
H 2.00000 -3.75400 6.97600
Mg 15.76628 1.41940 1.19766
C 15.16924 3.23006 4.22707
C 14.76228 4.20863 -0.49209
C 15.85006 -0.29741 -1.46733
C 15.62269 -1.50355 3.09013
N 15.07843 3.40598 1.89123
C 14.95194 3.99270 3.07737
C 14.64001 5.51623 2.98290
C 13.98939 5.55021 1.52772
C 14.67646 4.33700 0.92607
C 12.48288 5.31160 1.52817
C 15.93503 6.39366 3.05206
C 15.70000 7.88744 3.29444
H 16.65495 8.62344 4.10913
N 15.83846 1.99013 -0.69228
C 15.39923 3.16669 -1.20029
C 15.67514 3.11216 -2.65204
C 16.13644 1.73365 -2.97607
C 15.93247 1.07112 -1.71321
C 15.54236 4.29622 -3.55986
C 16.66570 1.10950 -4.22844
O 16.78892 -0.15645 -4.35795
C 16.95676 2.02508 -5.34649
N 15.52262 -0.61775 0.81257
C 15.66611 -1.10837 -0.42342
C 15.72815 -2.60702 -0.41220
C 15.84132 -3.03330 1.12248
C 15.73642 -1.62859 1.76593
C 14.53785 -3.33096 -1.05650
C 17.03707 -3.93694 1.51496
C 18.33123 -3.16863 1.36687
N 15.63072 0.92363 3.30643
C 15.56198 -0.35949 3.86816
C 15.37142 -0.18586 5.31992
C 15.32564 1.19508 5.50088
C 15.45164 1.84260 4.23869
C 15.20686 -1.23226 6.26987
C 15.17489 2.27380 6.46395
O 15.12543 2.33825 7.69313
C 14.94540 3.63138 5.66386
C 15.86142 4.66792 6.25529
O 17.10002 4.56703 6.14103
O 15.13814 5.72675 6.65062
C 15.99004 6.80472 7.22020
H 14.24621 4.93736 -1.12023
H 15.98591 -0.92765 -2.34868
H 15.65386 -2.36885 3.75475
H 13.92353 5.88000 3.71962
H 14.26398 6.45158 0.98012
H 12.12459 5.02888 2.51793
H 12.31621 4.50200 0.81736
H 11.95363 6.17629 1.12696
H 16.39373 6.43591 2.06421
H 16.62145 6.00948 3.80742
H 14.68125 8.08111 3.63139
H 15.77160 8.40415 2.33732
H 15.02725 5.12120 -3.06934
H 14.87530 4.00290 -4.37024
H 16.50294 4.60908 -3.96942
H 16.04691 2.55984 -5.61992
H 17.41021 1.41352 -6.12574
H 17.66659 2.78063 -5.00851
H 16.60568 -2.96611 -0.94831
H 14.96598 -3.59001 1.45796
H 14.82142 -4.00843 -1.86231
H 13.83518 -2.57645 -1.40899
H 13.91743 -3.89755 -0.36262
H 17.09679 -4.79720 0.84913
H 16.97595 -4.31195 2.53666
H 18.55934 -3.27794 0.30723
H 19.11203 -3.61643 1.98253
H 18.18757 -2.10559 1.56128
H 15.82065 -0.96320 7.12943
H 15.50628 -2.19444 5.85495
H 14.13413 -1.17204 6.45283
H 13.89537 3.89452 5.78765
H 15.61280 7.01713 8.22060
H 15.98643 7.61843 6.49475
H 17.02323 6.53575 7.44268
