79

Mg 7.88314 0.70970 0.59883
C 7.68464 2.97916 -2.16203
C 7.39966 -1.82069 -1.63868
C 7.60089 -1.26808 3.06162
C 7.21761 3.42105 2.68481
N 7.59387 0.70615 -1.59592
C 7.59836 1.63841 -2.54358
C 7.57883 1.05224 -3.98698
C 6.92472 -0.36752 -3.67327
C 7.36086 -0.52165 -2.22692
C 5.40045 -0.36171 -3.72870
C 9.01730 0.90038 -4.58652
C 9.07269 0.64636 -6.09574
H 10.16166 1.22979 -6.86458
N 8.03372 -1.25821 0.68544
C 7.81741 -2.13230 -0.32671
C 8.05630 -3.47769 0.23858
C 8.24367 -3.32698 1.70837
C 7.93696 -1.93029 1.88321
C 8.13632 -4.71870 -0.59642
C 8.62657 -4.29140 2.78605
O 8.50618 -4.00775 4.02687
C 9.06880 -5.62691 2.34572
N 7.25287 0.97818 2.57071
C 7.28250 -0.03094 3.44809
C 7.06013 0.45684 4.84900
C 7.11355 2.05106 4.77572
C 7.28585 2.21129 3.24506
C 5.74491 0.02008 5.50889
C 8.12254 2.76454 5.71022
C 9.53630 2.44133 5.28137
N 7.68778 2.85826 0.36097
C 7.38600 3.79334 1.36158
C 7.25342 5.10501 0.70127
C 7.47236 4.83732 -0.64864
C 7.69968 3.44239 -0.82408
C 6.90814 6.32854 1.34017
C 7.54275 5.40141 -1.98681
O 7.52473 6.54331 -2.44856
C 7.56223 4.20305 -3.03533
C 8.66650 4.47802 -4.01935
O 9.86181 4.45935 -3.66126
O 8.16251 4.48384 -5.26294
C 9.21132 4.72201 -6.29029
H 7.02141 -2.67046 -2.21030
H 7.60191 -1.89736 3.95406
H 7.09449 4.32605 3.28254
H 6.95517 1.60179 -4.69229
H 7.35661 -1.15882 -4.28568
H 5.00998 0.64885 -3.84803
H 5.07306 -0.78673 -2.77966
H 5.03835 -1.04012 -4.50163
H 9.46092 -0.02760 -4.22579
H 9.62988 1.76958 -4.34450
H 8.11410 0.85690 -6.57080
H 9.22642 -0.42066 -6.25708
H 7.79392 -4.53900 -1.61476
H 7.41379 -5.42472 -0.18753
H 9.13251 -5.16104 -0.57972
H 8.27253 -6.09755 1.76866
H 9.38671 -6.15058 3.24659
H 9.91369 -5.51275 1.66596
H 7.84580 0.10337 5.51549
H 6.15384 2.50435 5.02502
H 5.88316 -0.51580 6.44826
H 5.19244 -0.58537 4.79091
H 5.03896 0.82793 5.69975
H 8.00853 2.40871 6.73361
H 8.00687 3.84840 5.72112
H 9.72377 1.48256 5.76351
H 10.22742 3.20270 5.64452
H 9.59921 2.28243 4.20467
H 7.57451 7.08636 0.92832
H 7.01395 6.25384 2.42222
H 5.86901 6.43290 1.02844
H 6.58289 4.18819 -3.51261
H 8.89605 5.58508 -6.87676
H 9.35084 3.77700 -6.81554
H 10.17820 5.06601 -5.92132
