158

Mg 0.00000 0.00000 0.00000
C -0.21700 -2.21800 2.80100
C -1.25500 2.44200 2.02600
C -0.24500 1.85000 -2.56400
C 0.14600 -2.82400 -2.03700
N -0.61700 -0.00900 2.12600
C -0.59400 -0.90800 3.10500
C -0.93600 -0.30900 4.50200
C -1.77300 0.96400 4.03200
C -1.15500 1.16800 2.66000
C -3.26300 0.68500 3.86300
C 0.34500 0.11000 5.29900
C 0.12400 0.39700 6.78700
H 1.16800 0.03300 7.73300
N -0.18500 1.96100 -0.15200
C -0.70300 2.80000 0.77700
C -0.62000 4.15600 0.19300
C -0.18700 4.01500 -1.22500
C -0.21400 2.58300 -1.38000
C -0.88700 5.40600 0.97400
C 0.18100 5.01300 -2.27700
O 0.30300 4.69000 -3.50800
C 0.31000 6.41400 -1.83700
N -0.26500 -0.41300 -2.02900
C -0.27900 0.56900 -2.93700
C -0.19600 0.02400 -4.33200
C 0.12400 -1.53300 -4.18000
C 0.08600 -1.63200 -2.63500
C -1.45100 0.20500 -5.19700
C 1.37300 -2.07000 -4.92300
C 2.62600 -1.49000 -4.30600
N 0.15000 -2.14400 0.30300
C 0.17300 -3.13600 -0.68800
C 0.17300 -4.43800 0.00400
C 0.13300 -4.11100 1.35800
C 0.08300 -2.69500 1.50200
C 0.14900 -5.71500 -0.62300
C 0.09600 -4.62900 2.71600
O 0.20800 -5.74700 3.22100
C -0.25500 -3.42800 3.70100
C 0.71700 -3.48200 4.84800
O 1.93100 -3.25500 4.66900
O 0.03800 -3.55600 6.00300
C 0.94300 -3.58300 7.18300
H -1.85900 3.22000 2.49700
H -0.21800 2.45300 -3.47400
H 0.27600 -3.74700 -2.60500
H -1.55400 -0.94900 5.13200
H -1.58500 1.83100 4.66500
H -3.48400 -0.37700 3.96900
H -3.51100 1.02700 2.85800
H -3.85200 1.30100 4.54300
H 0.66900 1.09600 4.96600
H 1.13000 -0.63900 5.18900
H -0.84400 0.02600 7.12500
H 0.06200 1.47700 6.92100
H -1.34400 5.18600 1.93800
H -1.65100 5.96300 0.43200
H 0.00700 6.02000 1.08400
H -0.63500 6.74400 -1.40500
H 0.66500 6.97000 -2.70400
H 1.04800 6.46600 -1.03600
H 0.60800 0.50100 -4.89100
H -0.69200 -2.15600 -4.54700
H -1.26700 0.74000 -6.12900
H -2.20400 0.71400 -4.59600
H -1.96700 -0.72000 -5.45300
H 1.35600 -1.75900 -5.96700
H 1.45200 -3.15700 -4.90200
H 2.71400 -0.52200 -4.79800
H 3.48700 -2.12100 -4.52900
H 2.49500 -1.30300 -3.24000
H 0.86700 -6.33300 -0.08400
H 0.40400 -5.64200 -1.68000
H -0.89100 -5.99900 -0.46300
H -1.28300 -3.58100 4.02800
H 0.69800 -4.47800 7.75500
H 0.83300 -2.61900 7.68000
H 2.00000 -3.75400 6.97600
Mg 10.51287 0.95459 0.80468
C 11.88390 -0.67876 3.69112
C 8.07294 2.18604 2.84549
C 9.02987 2.03332 -1.78462
C 12.33638 -1.27865 -1.15316
N 10.13492 0.71450 2.97073
C 10.75794 0.12097 3.97766
C 10.18726 0.46504 5.37962
C 8.69903 0.87714 4.93893
C 8.98294 1.32234 3.50580
C 7.73781 -0.29895 4.89218
C 10.94009 1.66568 6.05321
C 10.64343 1.85673 7.54225
H 11.72106 2.31813 8.41306
N 9.10621 2.34157 0.61443
C 8.21652 2.73206 1.55104
C 7.38543 3.76360 0.91122
C 7.75043 3.83278 -0.52986
C 8.64799 2.69937 -0.62916
C 6.41977 4.62087 1.67674
C 7.34714 4.75730 -1.63839
O 7.60139 4.48838 -2.86553
C 6.56402 5.94042 -1.25311
N 10.49185 0.32056 -1.17519
C 9.80506 0.99901 -2.11111
C 10.15830 0.52210 -3.49970
C 11.40948 -0.45623 -3.31263
C 11.51135 -0.44494 -1.77156
C 9.04855 -0.20990 -4.25404
C 12.68413 -0.13473 -4.14002
C 13.30024 1.15860 -3.65721
N 12.00798 -0.56394 1.16070
C 12.62034 -1.39961 0.20114
C 13.48274 -2.34742 0.93623
C 13.29304 -2.00967 2.28472
C 12.36162 -0.94101 2.38431
C 14.26286 -3.38587 0.35386
C 13.66084 -2.32119 3.64721
O 14.47709 -3.07474 4.17602
C 12.66854 -1.55697 4.62584
C 13.49171 -0.88675 5.69153
O 14.27501 0.03400 5.39952
O 13.06154 -1.29169 6.90040
C 13.84022 -0.64565 7.99041
H 7.13873 2.43777 3.34825
H 8.63073 2.43965 -2.71685
H 13.01230 -1.94178 -1.69727
H 10.15285 -0.36692 6.07276
H 8.32828 1.71011 5.53060
H 8.24426 -1.23969 5.04920
H 7.28698 -0.27150 3.90880
H 6.92047 -0.14626 5.60280
H 10.53711 2.60746 5.65900
H 11.99907 1.58367 5.90336
H 10.14423 0.98299 7.97852
H 9.91441 2.66353 7.65012
H 6.24672 4.22862 2.68649
H 5.44789 4.52984 1.17972
H 6.71154 5.67315 1.69236
H 5.65162 5.62272 -0.75405
H 6.44783 6.52460 -2.16805
H 7.13916 6.51718 -0.52019
H 10.45235 1.35200 -4.13049
H 11.16655 -1.48868 -3.60395
H 8.80257 0.25478 -5.22751
H 8.17314 -0.24938 -3.61951
H 9.24017 -1.26366 -4.44916
H 12.42514 0.01806 -5.19061
H 13.43211 -0.91971 -4.10360
H 12.72016 1.92080 -4.18603
H 14.35318 1.20573 -3.92766
H 13.12868 1.29962 -2.58375
H 15.22528 -3.36657 0.84770
H 14.36400 -3.25199 -0.72114
H 13.64813 -4.25488 0.60325
H 11.98424 -2.29725 5.04214
H 14.24770 -1.44929 8.61154
H 13.14297 0.06242 8.47645
H 14.74295 -0.11356 7.71399
