158

Mg 0.00000 0.00000 0.00000
C -0.21700 -2.21800 2.80100
C -1.25500 2.44200 2.02600
C -0.24500 1.85000 -2.56400
C 0.14600 -2.82400 -2.03700
N -0.61700 -0.00900 2.12600
C -0.59400 -0.90800 3.10500
C -0.93600 -0.30900 4.50200
C -1.77300 0.96400 4.03200
C -1.15500 1.16800 2.66000
C -3.26300 0.68500 3.86300
C 0.34500 0.11000 5.29900
C 0.12400 0.39700 6.78700
H 1.16800 0.03300 7.73300
N -0.18500 1.96100 -0.15200
C -0.70300 2.80000 0.77700
C -0.62000 4.15600 0.19300
C -0.18700 4.01500 -1.22500
C -0.21400 2.58300 -1.38000
C -0.88700 5.40600 0.97400
C 0.18100 5.01300 -2.27700
O 0.30300 4.69000 -3.50800
C 0.31000 6.41400 -1.83700
N -0.26500 -0.41300 -2.02900
C -0.27900 0.56900 -2.93700
C -0.19600 0.02400 -4.33200
C 0.12400 -1.53300 -4.18000
C 0.08600 -1.63200 -2.63500
C -1.45100 0.20500 -5.19700
C 1.37300 -2.07000 -4.92300
C 2.62600 -1.49000 -4.30600
N 0.15000 -2.14400 0.30300
C 0.17300 -3.13600 -0.68800
C 0.17300 -4.43800 0.00400
C 0.13300 -4.11100 1.35800
C 0.08300 -2.69500 1.50200
C 0.14900 -5.71500 -0.62300
C 0.09600 -4.62900 2.71600
O 0.20800 -5.74700 3.22100
C -0.25500 -3.42800 3.70100
C 0.71700 -3.48200 4.84800
O 1.93100 -3.25500 4.66900
O 0.03800 -3.55600 6.00300
C 0.94300 -3.58300 7.18300
H -1.85900 3.22000 2.49700
H -0.21800 2.45300 -3.47400
H 0.27600 -3.74700 -2.60500
H -1.55400 -0.94900 5.13200
H -1.58500 1.83100 4.66500
H -3.48400 -0.37700 3.96900
H -3.51100 1.02700 2.85800
H -3.85200 1.30100 4.54300
H 0.66900 1.09600 4.96600
H 1.13000 -0.63900 5.18900
H -0.84400 0.02600 7.12500
H 0.06200 1.47700 6.92100
H -1.34400 5.18600 1.93800
H -1.65100 5.96300 0.43200
H 0.00700 6.02000 1.08400
H -0.63500 6.74400 -1.40500
H 0.66500 6.97000 -2.70400
H 1.04800 6.46600 -1.03600
H 0.60800 0.50100 -4.89100
H -0.69200 -2.15600 -4.54700
H -1.26700 0.74000 -6.12900
H -2.20400 0.71400 -4.59600
H -1.96700 -0.72000 -5.45300
H 1.35600 -1.75900 -5.96700
H 1.45200 -3.15700 -4.90200
H 2.71400 -0.52200 -4.79800
H 3.48700 -2.12100 -4.52900
H 2.49500 -1.30300 -3.24000
H 0.86700 -6.33300 -0.08400
H 0.40400 -5.64200 -1.68000
H -0.89100 -5.99900 -0.46300
H -1.28300 -3.58100 4.02800
H 0.69800 -4.47800 7.75500
H 0.83300 -2.61900 7.68000
H 2.00000 -3.75400 6.97600
Mg 7.88314 0.70970 0.59883
C 7.27636 3.88097 2.14385
C 7.09599 2.17740 -2.37931
C 7.96964 -2.17275 -0.72050
C 7.51047 -0.73097 3.75022
N 7.28054 2.77493 0.07697
C 7.14330 3.91078 0.75387
C 6.91910 5.15189 -0.16088
C 6.32480 4.41500 -1.44376
C 6.96571 3.05081 -1.25895
C 4.80845 4.25442 -1.40626
C 8.25694 5.89379 -0.49480
C 8.09558 7.28900 -1.10530
H 9.05915 8.32192 -0.75607
N 8.05537 0.17184 -1.29429
C 7.70018 0.90153 -2.37903
C 8.02540 0.06719 -3.55579
C 8.42186 -1.28088 -3.06220
C 8.13594 -1.15422 -1.65594
C 7.99098 0.57991 -4.96281
C 8.96135 -2.49465 -3.75056
O 9.01955 -3.63420 -3.17384
C 9.34277 -2.33252 -5.16523
N 7.54224 -1.20732 1.35147
C 7.70354 -2.28947 0.58212
C 7.68278 -3.54774 1.39837
C 7.71638 -3.08426 2.92605
C 7.66536 -1.55177 2.70889
C 6.47882 -4.47254 1.17200
C 8.84563 -3.66635 3.81282
C 10.18455 -3.13324 3.35435
N 7.64381 1.43013 2.63224
C 7.48433 0.65312 3.78874
C 7.25080 1.58554 4.90683
C 7.27432 2.84760 4.31648
C 7.48159 2.71072 2.91413
C 6.99456 1.21940 6.25765
C 7.14800 4.27859 4.54042
O 7.05739 4.99552 5.53806
C 7.02267 4.99806 3.12532
C 7.97204 6.16511 3.12313
O 9.20658 5.98558 3.15558
O 7.29404 7.28919 2.84512
C 8.18248 8.48110 2.79846
H 6.64392 2.46721 -3.32988
H 8.10273 -3.18153 -1.11683
H 7.46986 -1.10327 4.77550
H 6.19730 5.87385 0.22147
H 6.66821 4.87248 -2.37139
H 4.39935 4.55827 -0.44282
H 4.62361 3.19434 -1.58109
H 4.34242 4.78121 -2.23938
H 8.75297 5.38567 -1.32174
H 8.89325 5.95817 0.38853
H 7.07738 7.66064 -0.98667
H 8.23026 7.20750 -2.18392
H 7.50439 1.55263 -5.02281
H 7.33881 -0.08539 -5.52827
H 8.98157 0.59752 -5.41751
H 8.47422 -2.00480 -5.73685
H 9.79007 -3.27912 -5.46645
H 10.08022 -1.53307 -5.24271
H 8.55823 -4.16213 1.19215
H 6.80017 -3.34944 3.45417
H 6.75396 -5.48441 0.87349
H 5.83193 -4.00773 0.42851
H 5.80336 -4.56003 2.02260
H 8.88227 -4.75095 3.71667
H 8.72683 -3.43099 4.87053
H 10.44478 -3.80152 2.53428
H 10.91664 -3.20014 4.15982
H 10.09246 -2.12918 2.93979
H 7.59045 1.89214 6.87432
H 7.25564 0.17752 6.44185
H 5.92079 1.39719 6.31484
H 5.98486 5.31439 3.02532
H 7.78126 9.20834 3.50442
H 8.24998 8.77647 1.75127
H 9.19056 8.34660 3.19219
