158

Mg 0.00000 0.00000 0.00000
C -0.21700 -2.21800 2.80100
C -1.25500 2.44200 2.02600
C -0.24500 1.85000 -2.56400
C 0.14600 -2.82400 -2.03700
N -0.61700 -0.00900 2.12600
C -0.59400 -0.90800 3.10500
C -0.93600 -0.30900 4.50200
C -1.77300 0.96400 4.03200
C -1.15500 1.16800 2.66000
C -3.26300 0.68500 3.86300
C 0.34500 0.11000 5.29900
C 0.12400 0.39700 6.78700
H 1.16800 0.03300 7.73300
N -0.18500 1.96100 -0.15200
C -0.70300 2.80000 0.77700
C -0.62000 4.15600 0.19300
C -0.18700 4.01500 -1.22500
C -0.21400 2.58300 -1.38000
C -0.88700 5.40600 0.97400
C 0.18100 5.01300 -2.27700
O 0.30300 4.69000 -3.50800
C 0.31000 6.41400 -1.83700
N -0.26500 -0.41300 -2.02900
C -0.27900 0.56900 -2.93700
C -0.19600 0.02400 -4.33200
C 0.12400 -1.53300 -4.18000
C 0.08600 -1.63200 -2.63500
C -1.45100 0.20500 -5.19700
C 1.37300 -2.07000 -4.92300
C 2.62600 -1.49000 -4.30600
N 0.15000 -2.14400 0.30300
C 0.17300 -3.13600 -0.68800
C 0.17300 -4.43800 0.00400
C 0.13300 -4.11100 1.35800
C 0.08300 -2.69500 1.50200
C 0.14900 -5.71500 -0.62300
C 0.09600 -4.62900 2.71600
O 0.20800 -5.74700 3.22100
C -0.25500 -3.42800 3.70100
C 0.71700 -3.48200 4.84800
O 1.93100 -3.25500 4.66900
O 0.03800 -3.55600 6.00300
C 0.94300 -3.58300 7.18300
H -1.85900 3.22000 2.49700
H -0.21800 2.45300 -3.47400
H 0.27600 -3.74700 -2.60500
H -1.55400 -0.94900 5.13200
H -1.58500 1.83100 4.66500
H -3.48400 -0.37700 3.96900
H -3.51100 1.02700 2.85800
H -3.85200 1.30100 4.54300
H 0.66900 1.09600 4.96600
H 1.13000 -0.63900 5.18900
H -0.84400 0.02600 7.12500
H 0.06200 1.47700 6.92100
H -1.34400 5.18600 1.93800
H -1.65100 5.96300 0.43200
H 0.00700 6.02000 1.08400
H -0.63500 6.74400 -1.40500
H 0.66500 6.97000 -2.70400
H 1.04800 6.46600 -1.03600
H 0.60800 0.50100 -4.89100
H -0.69200 -2.15600 -4.54700
H -1.26700 0.74000 -6.12900
H -2.20400 0.71400 -4.59600
H -1.96700 -0.72000 -5.45300
H 1.35600 -1.75900 -5.96700
H 1.45200 -3.15700 -4.90200
H 2.71400 -0.52200 -4.79800
H 3.48700 -2.12100 -4.52900
H 2.49500 -1.30300 -3.24000
H 0.86700 -6.33300 -0.08400
H 0.40400 -5.64200 -1.68000
H -0.89100 -5.99900 -0.46300
H -1.28300 -3.58100 4.02800
H 0.69800 -4.47800 7.75500
H 0.83300 -2.61900 7.68000
H 2.00000 -3.75400 6.97600
Mg 10.51798 0.95232 0.79346
C 9.90660 4.13211 2.34078
C 9.72908 2.41748 -2.18405
C 10.60919 -1.92784 -0.53462
C 10.14015 -0.49572 3.94086
N 9.91275 3.01534 0.27394
C 9.77390 4.15366 0.93673
C 9.55536 5.39940 0.03677
C 8.95517 4.65973 -1.25611
C 9.59609 3.28580 -1.07120
C 7.44548 4.49298 -1.20738
C 10.89843 6.13909 -0.29644
C 10.73096 7.53101 -0.90986
H 11.70039 8.56619 -0.56194
N 10.69420 0.42107 -1.11056
C 10.34580 1.14708 -2.19352
C 10.65582 0.30491 -3.35920
C 11.06190 -1.04094 -2.87084
C 10.77796 -0.90481 -1.45630
C 10.62980 0.82348 -4.76769
C 11.60269 -2.25453 -3.56435
O 11.66176 -3.39373 -2.97992
C 11.97403 -2.09115 -4.97746
N 10.18454 -0.95761 1.54400
C 10.34161 -2.04317 0.76631
C 10.31845 -3.31036 1.58734
C 10.35538 -2.83412 3.11359
C 10.30107 -1.30505 2.90295
C 9.11199 -4.22297 1.36831
C 11.48504 -3.41769 4.00577
C 12.82737 -2.89619 3.54580
N 10.28403 1.67009 2.81785
C 10.11673 0.89242 3.98460
C 9.88281 1.82942 5.10252
C 9.90754 3.09621 4.49992
C 10.12031 2.95736 3.10173
C 9.63649 1.46451 6.45614
C 9.79143 4.51875 4.72705
O 9.69360 5.23427 5.72314
C 9.65954 5.24606 3.31992
C 10.60963 6.41213 3.30890
O 11.83854 6.22656 3.35320
O 9.92458 7.53606 3.02988
C 10.82571 8.71872 2.99688
H 9.28223 2.71729 -3.13237
H 10.74194 -2.93989 -0.92397
H 10.11084 -0.86340 4.96878
H 8.83991 6.11695 0.42022
H 9.30548 5.12339 -2.17461
H 7.03735 4.79484 -0.25425
H 7.25987 3.44135 -1.38246
H 6.98039 5.02426 -2.04271
H 11.39323 5.62461 -1.13024
H 11.52547 6.19988 0.57175
H 9.70768 7.90991 -0.79901
H 10.87236 7.45325 -1.99059
H 10.13542 1.80094 -4.82739
H 9.97999 0.15486 -5.34263
H 11.61931 0.83795 -5.22956
H 11.10624 -1.76003 -5.54294
H 12.42224 -3.04156 -5.27360
H 12.72173 -1.29372 -5.05276
H 11.19319 -3.91688 1.38720
H 9.43517 -3.11046 3.64903
H 9.39072 -5.24920 1.06295
H 8.46921 -3.76702 0.62703
H 8.44541 -4.32050 2.22351
H 11.52349 -4.50514 3.90513
H 11.36045 -3.19608 5.06046
H 13.08286 -3.56686 2.71996
H 13.55926 -2.96170 4.34834
H 12.73621 -1.88480 3.13295
H 10.22569 2.13207 7.07071
H 9.89283 0.42327 6.64017
H 8.55847 1.63787 6.51180
H 8.62155 5.56268 3.21082
H 10.42050 9.44897 3.70414
H 10.88055 9.02298 1.93472
H 11.83267 8.59233 3.37703
