79

Mg 31.53912 2.84006 2.40356
C 31.52394 -0.46898 3.79247
C 30.32947 3.94063 5.39690
C 31.11484 5.68864 1.07202
C 31.64253 1.36492 -0.75223
N 31.03360 1.77704 4.27618
C 31.12722 0.52827 4.70764
C 30.85326 0.34983 6.22509
C 29.95248 1.65796 6.46228
C 30.49076 2.53352 5.33254
C 28.47132 1.42101 6.21865
C 32.16861 0.39552 7.07937
C 32.01260 -0.07817 8.52610
H 33.11982 -0.80191 9.14476
N 31.29883 4.62469 3.23777
C 30.81616 4.88854 4.47012
C 30.82013 6.35404 4.59849
C 31.18953 6.93931 3.28102
C 31.19524 5.74814 2.45569
C 30.57152 7.05743 5.90112
C 31.47608 8.34106 2.83473
O 31.54332 8.65193 1.59309
C 31.58302 9.35682 3.89222
N 31.18524 3.44257 0.44547
C 31.09216 4.74616 0.12940
C 31.11284 4.94743 -1.36709
C 31.48413 3.52090 -1.98735
C 31.52821 2.68446 -0.68972
C 29.80967 5.44888 -1.98894
C 32.70663 3.46605 -2.94398
C 33.97734 3.74533 -2.17412
N 31.76280 0.83497 1.63047
C 31.75286 0.43713 0.27559
C 31.82265 -1.03838 0.25458
C 31.84530 -1.40059 1.60986
C 31.77294 -0.23428 2.41855
C 31.80839 -1.85534 -0.91096
C 31.90326 -2.50495 2.54029
O 32.06280 -3.72051 2.43688
C 31.57022 -1.95809 3.99508
C 32.60154 -2.50435 4.94401
O 33.79442 -2.16739 4.84340
O 31.97963 -3.15891 5.94158
C 32.96039 -3.70955 6.91458
H 29.73804 4.35830 6.21215
H 31.07899 6.65297 0.55991
H 31.77773 0.83481 -1.69742
H 30.29200 -0.54002 6.48380
H 30.16061 2.11105 7.42807
H 28.28217 0.43934 5.81035
H 28.16181 2.18737 5.52012
H 27.90453 1.60291 7.13625
H 32.44622 1.44306 7.25356
H 32.95322 -0.15753 6.60068
H 31.06780 -0.61195 8.68544
H 31.93678 0.79966 9.17240
H 30.16480 6.37357 6.65632
H 29.76616 7.77902 5.72626
H 31.45144 7.59147 6.26608
H 30.65633 9.38549 4.46047
H 31.87887 10.27702 3.38470
H 32.37107 9.05335 4.59043
H 31.87489 5.66299 -1.65056
H 30.66248 3.11461 -2.59535
H 29.93131 6.38997 -2.55782
H 29.08046 5.57332 -1.19944
H 29.31324 4.74317 -2.65281
H 32.62714 4.24605 -3.70519
H 32.80683 2.51862 -3.46295
H 34.00854 4.83839 -2.13754
H 34.84050 3.34324 -2.70074
H 33.90012 3.38305 -1.14240
H 32.56201 -2.61791 -0.76589
H 32.00054 -1.27104 -1.80842
H 30.78104 -2.22760 -0.87565
H 30.56331 -2.29228 4.24811
H 32.76551 -4.78370 6.99147
H 32.83787 -3.10823 7.83499
H 34.00599 -3.70416 6.62976
