79

Mg 31.53256 2.83880 2.39533
C 31.23678 1.19011 5.55864
C 30.28511 5.63397 3.90331
C 31.35691 4.17652 -0.47456
C 31.66538 -0.31953 0.92803
N 30.88247 3.23763 4.47354
C 30.87595 2.53858 5.60423
C 30.52180 3.39391 6.85737
C 29.71254 4.56630 6.14141
C 30.35499 4.50078 4.76704
C 28.22111 4.27940 6.00062
C 31.79673 3.93906 7.58476
C 31.55718 4.50357 8.98807
H 32.58041 4.31078 10.00452
N 31.38111 4.73840 1.87434
C 30.86211 5.74365 2.61959
C 30.97571 6.96445 1.79291
C 31.42844 6.55380 0.43478
C 31.38112 5.11867 0.55105
C 30.71647 8.34231 2.32021
C 31.82858 7.33140 -0.77904
O 31.96458 6.78112 -1.92502
C 31.97294 8.78840 -0.60774
N 31.29265 2.05496 0.47552
C 31.30838 2.84876 -0.60087
C 31.40442 2.05012 -1.86692
C 31.69725 0.54556 -1.41936
C 31.63363 0.73939 0.11578
C 30.16607 2.08110 -2.77331
C 32.94898 -0.13738 -2.02531
C 34.20127 0.53239 -1.50544
N 31.64375 0.78832 3.09833
C 31.66642 -0.37257 2.31189
C 31.63497 -1.52108 3.23601
C 31.57909 -0.94478 4.50353
C 31.54935 0.47355 4.37806
C 31.60045 -2.89280 2.85969
C 31.51274 -1.19762 5.93374
O 31.59909 -2.20202 6.64171
C 31.16556 0.17155 6.66905
C 32.11861 0.32192 7.82334
O 33.33870 0.49580 7.62711
O 31.42062 0.47507 8.95908
C 32.30660 0.65902 10.13949
H 29.68629 6.49426 4.20867
H 31.40765 4.59722 -1.48098
H 31.78953 -1.33446 0.54598
H 29.88398 2.89170 7.58496
H 29.90441 5.53443 6.60362
H 27.98165 3.25918 6.30015
H 27.99425 4.42940 4.94491
H 27.63145 5.01971 6.54194
H 32.14149 4.84065 7.07846
H 32.57135 3.17285 7.63176
H 30.57826 4.21506 9.37199
H 31.51026 5.59020 8.91568
H 30.24109 8.31335 3.29986
H 29.96995 8.79707 1.66936
H 31.61829 8.95467 2.32924
H 31.02669 9.20571 -0.26276
H 32.35018 9.16687 -1.55711
H 32.69912 8.98076 0.18259
H 32.22450 2.40325 -2.49078
H 30.87727 -0.12495 -1.67766
H 30.37303 2.42889 -3.78569
H 29.41199 2.70355 -2.29248
H 29.63949 1.13107 -2.86040
H 32.95317 -0.02809 -3.10928
H 33.01037 -1.20194 -1.79908
H 34.31229 1.38939 -2.16882
H 35.05551 -0.14015 -1.59018
H 34.05668 0.91818 -0.49612
H 32.30007 -3.40745 3.51821
H 31.87300 -3.02314 1.81263
H 30.55371 -3.12844 3.05116
H 30.13030 0.09582 7.00012
H 32.03854 -0.10926 10.86484
H 32.20420 1.70060 10.44448
H 33.36385 0.43876 9.98764
