79

Mg 31.52489 2.84328 2.40112
C 33.45259 4.34399 5.02998
C 29.92923 1.02994 4.80950
C 30.13028 1.18145 0.08578
C 33.99727 3.89043 0.17929
N 31.74972 2.78354 4.60070
C 32.47152 3.44316 5.49415
C 32.06733 3.17879 6.96938
C 31.38344 1.73860 6.77693
C 30.95917 1.86287 5.31501
C 32.36629 0.58536 6.89266
C 31.03931 4.23573 7.50607
C 30.83705 4.22350 9.02288
H 30.59945 5.49337 9.70364
N 29.90349 1.69951 2.43875
C 29.38424 1.05882 3.50701
C 28.20394 0.33619 3.00816
C 28.16379 0.46965 1.52651
C 29.43690 1.11872 1.28571
C 27.20756 -0.32123 3.91835
C 27.15328 0.06677 0.49560
O 27.43134 0.06611 -0.75560
C 25.85929 -0.41601 0.99958
N 32.09295 2.38762 0.45381
C 31.27805 1.69303 -0.35946
C 31.77420 1.72455 -1.78538
C 32.96575 2.79109 -1.80218
C 33.01316 3.14127 -0.29868
C 32.27518 0.39330 -2.34499
C 32.85676 3.95198 -2.82841
C 31.70807 4.86225 -2.45787
N 33.29588 4.07581 2.51302
C 34.20255 4.36303 1.46921
C 35.30861 5.14664 2.05659
C 34.97763 5.24203 3.41668
C 33.76212 4.54843 3.66355
C 36.45465 5.62086 1.35814
C 35.38556 5.76273 4.70165
O 36.28692 6.50342 5.09238
C 34.48147 5.09708 5.82678
C 33.99793 6.18951 6.74072
O 33.22542 7.06905 6.32092
O 34.35051 5.89438 8.00522
C 33.88340 6.94320 8.95053
H 29.52712 0.25072 5.45758
H 29.63472 0.71713 -0.76997
H 34.75651 4.33782 -0.46574
H 32.89741 3.10668 7.66187
H 30.51319 1.62572 7.41825
H 33.38643 0.93145 6.96807
H 32.23270 -0.00606 5.99632
H 32.08799 -0.06483 7.72700
H 30.03053 3.95183 7.17971
H 31.30612 5.22386 7.18505
H 31.61810 3.65141 9.53826
H 29.91561 3.68009 9.24572
H 27.58860 -0.39687 4.94426
H 27.10966 -1.36089 3.58762
H 26.22551 0.15514 3.88206
H 26.02098 -1.27794 1.64255
H 25.24006 -0.57080 0.11388
H 25.41446 0.36504 1.62623
H 30.99437 2.05823 -2.45889
H 33.92987 2.32109 -2.04594
H 31.74865 0.08147 -3.26673
H 32.17346 -0.36038 -1.57548
H 33.34077 0.35653 -2.56496
H 32.63259 3.55849 -3.82293
H 33.76392 4.54108 -2.91212
H 30.84059 4.35222 -2.88733
H 31.84364 5.84842 -2.89733
H 31.56662 4.89507 -1.37133
H 36.62131 6.63782 1.68757
H 36.31309 5.56933 0.28061
H 37.20543 4.90732 1.70810
H 35.09752 4.36641 6.35231
H 34.76307 7.29323 9.49949
H 33.07462 6.47389 9.54160
H 33.51494 7.87064 8.52798
