158

Mg 0.00000 0.00000 0.00000
C -0.21700 -2.21800 2.80100
C -1.25500 2.44200 2.02600
C -0.24500 1.85000 -2.56400
C 0.14600 -2.82400 -2.03700
N -0.61700 -0.00900 2.12600
C -0.59400 -0.90800 3.10500
C -0.93600 -0.30900 4.50200
C -1.77300 0.96400 4.03200
C -1.15500 1.16800 2.66000
C -3.26300 0.68500 3.86300
C 0.34500 0.11000 5.29900
C 0.12400 0.39700 6.78700
H 1.16800 0.03300 7.73300
N -0.18500 1.96100 -0.15200
C -0.70300 2.80000 0.77700
C -0.62000 4.15600 0.19300
C -0.18700 4.01500 -1.22500
C -0.21400 2.58300 -1.38000
C -0.88700 5.40600 0.97400
C 0.18100 5.01300 -2.27700
O 0.30300 4.69000 -3.50800
C 0.31000 6.41400 -1.83700
N -0.26500 -0.41300 -2.02900
C -0.27900 0.56900 -2.93700
C -0.19600 0.02400 -4.33200
C 0.12400 -1.53300 -4.18000
C 0.08600 -1.63200 -2.63500
C -1.45100 0.20500 -5.19700
C 1.37300 -2.07000 -4.92300
C 2.62600 -1.49000 -4.30600
N 0.15000 -2.14400 0.30300
C 0.17300 -3.13600 -0.68800
C 0.17300 -4.43800 0.00400
C 0.13300 -4.11100 1.35800
C 0.08300 -2.69500 1.50200
C 0.14900 -5.71500 -0.62300
C 0.09600 -4.62900 2.71600
O 0.20800 -5.74700 3.22100
C -0.25500 -3.42800 3.70100
C 0.71700 -3.48200 4.84800
O 1.93100 -3.25500 4.66900
O 0.03800 -3.55600 6.00300
C 0.94300 -3.58300 7.18300
H -1.85900 3.22000 2.49700
H -0.21800 2.45300 -3.47400
H 0.27600 -3.74700 -2.60500
H -1.55400 -0.94900 5.13200
H -1.58500 1.83100 4.66500
H -3.48400 -0.37700 3.96900
H -3.51100 1.02700 2.85800
H -3.85200 1.30100 4.54300
H 0.66900 1.09600 4.96600
H 1.13000 -0.63900 5.18900
H -0.84400 0.02600 7.12500
H 0.06200 1.47700 6.92100
H -1.34400 5.18600 1.93800
H -1.65100 5.96300 0.43200
H 0.00700 6.02000 1.08400
H -0.63500 6.74400 -1.40500
H 0.66500 6.97000 -2.70400
H 1.04800 6.46600 -1.03600
H 0.60800 0.50100 -4.89100
H -0.69200 -2.15600 -4.54700
H -1.26700 0.74000 -6.12900
H -2.20400 0.71400 -4.59600
H -1.96700 -0.72000 -5.45300
H 1.35600 -1.75900 -5.96700
H 1.45200 -3.15700 -4.90200
H 2.71400 -0.52200 -4.79800
H 3.48700 -2.12100 -4.52900
H 2.49500 -1.30300 -3.24000
H 0.86700 -6.33300 -0.08400
H 0.40400 -5.64200 -1.68000
H -0.89100 -5.99900 -0.46300
H -1.28300 -3.58100 4.02800
H 0.69800 -4.47800 7.75500
H 0.83300 -2.61900 7.68000
H 2.00000 -3.75400 6.97600
Mg 7.87524 0.71372 0.60465
C 9.72030 2.34718 3.21361
C 6.41119 -1.18305 3.03229
C 6.57421 -1.04528 -1.69332
C 10.26357 1.90199 -1.63802
N 8.11647 0.68038 2.80305
C 8.80063 1.38901 3.68855
C 8.42266 1.10789 5.16763
C 7.82961 -0.37349 4.98688
C 7.38967 -0.28422 3.52703
C 8.88374 -1.46198 5.10235
C 7.33338 2.10105 5.70533
C 7.14132 2.08450 7.22342
H 6.82835 3.34065 7.89914
N 6.32927 -0.52952 0.65834
C 5.85772 -1.19569 1.73312
C 4.72228 -1.99386 1.24541
C 4.66501 -1.87137 -0.23662
C 5.89330 -1.14486 -0.48874
C 3.77467 -2.70760 2.16521
C 3.67574 -2.34269 -1.25907
O 3.94583 -2.33277 -2.51198
C 2.41770 -2.90310 -0.74450
N 8.45925 0.28394 -1.34382
C 7.68484 -0.46500 -2.14838
C 8.16954 -0.41021 -3.57753
C 9.29150 0.72904 -3.60730
C 9.32573 1.08980 -2.10595
C 8.74995 -1.71039 -4.13344
C 9.10358 1.87509 -4.63877
C 7.90212 2.71335 -4.26570
N 9.56581 2.05578 0.69908
C 10.44638 2.39369 -0.35186
C 11.50442 3.24853 0.22452
C 11.17619 3.33043 1.58616
C 10.00822 2.56313 1.84422
C 12.61418 3.79002 -0.48354
C 11.55819 3.88284 2.86585
O 12.41346 4.68089 3.24710
C 10.70448 3.16787 4.00004
C 10.15861 4.23276 4.91138
O 9.32980 5.05965 4.49192
O 10.53657 3.96737 6.17514
C 10.01003 4.98995 7.11796
H 6.06277 -1.98242 3.68688
H 6.10376 -1.54456 -2.54354
H 10.98932 2.39267 -2.29010
H 9.25974 1.09195 5.85525
H 6.97202 -0.53733 5.63422
H 9.88051 -1.05202 5.16957
H 8.78230 -2.06558 4.20992
H 8.65187 -2.12377 5.94176
H 6.34254 1.75247 5.38678
H 7.53558 3.10221 5.37757
H 7.95987 1.56551 7.73682
H 6.25724 1.48545 7.45484
H 4.16582 -2.75347 3.18908
H 3.74042 -3.75317 1.84045
H 2.76440 -2.29415 2.13265
H 2.63713 -3.74959 -0.09814
H 1.80418 -3.10141 -1.62548
H 1.92834 -2.14812 -0.11909
H 7.36627 -0.12996 -4.24784
H 10.28181 0.31926 -3.85469
H 8.23861 -2.05980 -5.05023
H 8.70043 -2.46472 -3.35943
H 9.81441 -1.68130 -4.35990
H 8.89870 1.46279 -5.62983
H 9.97136 2.51960 -4.73120
H 7.06591 2.14742 -4.68708
H 7.97275 3.70365 -4.71107
H 7.76535 2.74321 -3.17848
H 12.71847 4.81725 -0.16040
H 12.46973 3.72374 -1.55988
H 13.41043 3.12705 -0.13465
H 11.36839 2.48030 4.52544
H 10.86918 5.39763 7.65958
H 9.23591 4.47397 7.71651
H 9.58144 5.89003 6.69298
