79

Mg 7.87752 0.70402 0.60579
C 6.81631 3.27135 2.87773
C 9.43726 -0.78301 3.24976
C 9.20102 -1.32471 -1.44361
C 7.23347 2.93272 -1.99494
N 8.03404 1.26712 2.73902
C 7.53823 2.23143 3.49969
C 7.76419 2.03008 5.02218
C 9.05272 1.07441 4.94972
C 8.81619 0.44888 3.57660
C 10.36626 1.83739 4.90714
C 6.55428 1.31136 5.71611
C 6.56960 1.35833 7.24559
H 5.29592 1.46826 7.95137
N 8.71228 -1.07010 0.91278
C 9.27704 -1.51714 2.05405
C 9.76282 -2.87380 1.75799
C 9.58568 -3.12824 0.30245
C 9.16959 -1.81455 -0.14607
C 10.25426 -3.81228 2.82156
C 9.77360 -4.34829 -0.54747
O 9.79149 -4.28111 -1.82731
C 10.02929 -5.60951 0.16348
N 8.37673 0.85738 -1.40657
C 8.89231 -0.19061 -2.07277
C 8.91313 0.06570 -3.56081
C 8.07770 1.41221 -3.77656
C 7.78110 1.76494 -2.30245
C 10.29761 0.21973 -4.19000
C 6.88972 1.35097 -4.77537
C 5.79805 0.46172 -4.22502
N 6.98620 2.66352 0.42146
C 6.83922 3.42622 -0.75785
C 6.28247 4.73625 -0.36252
C 6.16476 4.65252 1.03305
C 6.63515 3.38761 1.47830
C 6.00357 5.82093 -1.24104
C 5.75946 5.35053 2.23189
O 5.20303 6.42239 2.46692
C 6.28118 4.53485 3.49240
C 5.14394 4.41176 4.46915
O 4.12937 3.75397 4.17831
O 5.53047 4.90482 5.65989
C 4.43988 4.79483 6.66505
H 10.14830 -1.20952 3.95784
H 9.54635 -2.02805 -2.20488
H 6.91293 3.64598 -2.75730
H 8.00217 2.93423 5.56958
H 9.02428 0.31352 5.72535
H 10.21098 2.90190 4.81312
H 10.90050 1.45555 4.04700
H 10.97750 1.58451 5.77821
H 6.64389 0.22854 5.56049
H 5.62205 1.69741 5.35205
H 7.28584 2.09560 7.62818
H 6.94444 0.40202 7.61840
H 10.42382 -3.29040 3.77145
H 11.25048 -4.14927 2.51519
H 9.60859 -4.68438 2.94488
H 10.92272 -5.50494 0.77447
H 10.04724 -6.38153 -0.60822
H 9.19770 -5.79800 0.85164
H 8.42743 -0.73921 -4.09870
H 8.70658 2.22277 -4.17322
H 10.48570 -0.49668 -5.01185
H 11.04062 0.10888 -3.41142
H 10.51928 1.21112 -4.58142
H 7.21048 0.90128 -5.71826
H 6.47102 2.32422 -5.00874
H 6.13271 -0.54171 -4.50466
H 4.84109 0.70096 -4.68441
H 5.76875 0.50624 -3.13012
H 5.04199 6.22029 -0.94715
H 6.00070 5.49995 -2.28062
H 6.84916 6.47643 -1.01617
H 7.12402 5.08496 3.91261
H 4.26787 5.80041 7.06117
H 4.77169 4.02081 7.38237
H 3.45067 4.53723 6.30513
