158

Mg 0.00000 0.00000 0.00000
C -0.21700 -2.21800 2.80100
C -1.25500 2.44200 2.02600
C -0.24500 1.85000 -2.56400
C 0.14600 -2.82400 -2.03700
N -0.61700 -0.00900 2.12600
C -0.59400 -0.90800 3.10500
C -0.93600 -0.30900 4.50200
C -1.77300 0.96400 4.03200
C -1.15500 1.16800 2.66000
C -3.26300 0.68500 3.86300
C 0.34500 0.11000 5.29900
C 0.12400 0.39700 6.78700
H 1.16800 0.03300 7.73300
N -0.18500 1.96100 -0.15200
C -0.70300 2.80000 0.77700
C -0.62000 4.15600 0.19300
C -0.18700 4.01500 -1.22500
C -0.21400 2.58300 -1.38000
C -0.88700 5.40600 0.97400
C 0.18100 5.01300 -2.27700
O 0.30300 4.69000 -3.50800
C 0.31000 6.41400 -1.83700
N -0.26500 -0.41300 -2.02900
C -0.27900 0.56900 -2.93700
C -0.19600 0.02400 -4.33200
C 0.12400 -1.53300 -4.18000
C 0.08600 -1.63200 -2.63500
C -1.45100 0.20500 -5.19700
C 1.37300 -2.07000 -4.92300
C 2.62600 -1.49000 -4.30600
N 0.15000 -2.14400 0.30300
C 0.17300 -3.13600 -0.68800
C 0.17300 -4.43800 0.00400
C 0.13300 -4.11100 1.35800
C 0.08300 -2.69500 1.50200
C 0.14900 -5.71500 -0.62300
C 0.09600 -4.62900 2.71600
O 0.20800 -5.74700 3.22100
C -0.25500 -3.42800 3.70100
C 0.71700 -3.48200 4.84800
O 1.93100 -3.25500 4.66900
O 0.03800 -3.55600 6.00300
C 0.94300 -3.58300 7.18300
H -1.85900 3.22000 2.49700
H -0.21800 2.45300 -3.47400
H 0.27600 -3.74700 -2.60500
H -1.55400 -0.94900 5.13200
H -1.58500 1.83100 4.66500
H -3.48400 -0.37700 3.96900
H -3.51100 1.02700 2.85800
H -3.85200 1.30100 4.54300
H 0.66900 1.09600 4.96600
H 1.13000 -0.63900 5.18900
H -0.84400 0.02600 7.12500
H 0.06200 1.47700 6.92100
H -1.34400 5.18600 1.93800
H -1.65100 5.96300 0.43200
H 0.00700 6.02000 1.08400
H -0.63500 6.74400 -1.40500
H 0.66500 6.97000 -2.70400
H 1.04800 6.46600 -1.03600
H 0.60800 0.50100 -4.89100
H -0.69200 -2.15600 -4.54700
H -1.26700 0.74000 -6.12900
H -2.20400 0.71400 -4.59600
H -1.96700 -0.72000 -5.45300
H 1.35600 -1.75900 -5.96700
H 1.45200 -3.15700 -4.90200
H 2.71400 -0.52200 -4.79800
H 3.48700 -2.12100 -4.52900
H 2.49500 -1.30300 -3.24000
H 0.86700 -6.33300 -0.08400
H 0.40400 -5.64200 -1.68000
H -0.89100 -5.99900 -0.46300
H -1.28300 -3.58100 4.02800
H 0.69800 -4.47800 7.75500
H 0.83300 -2.61900 7.68000
H 2.00000 -3.75400 6.97600
Mg 15.77307 1.41823 1.20571
C 15.86508 -2.15728 1.49949
C 14.63793 1.50385 4.42110
C 15.25253 4.52604 0.83424
C 15.80475 0.99594 -2.25353
N 15.34746 -0.18595 2.66781
C 15.47853 -1.50381 2.68818
C 15.25618 -2.15082 4.08156
C 14.33852 -1.00610 4.73456
C 14.82395 0.19087 3.91952
C 12.85519 -1.19733 4.46529
C 16.59678 -2.33503 4.87583
C 16.49570 -3.23747 6.10756
H 17.63557 -4.08589 6.44423
N 15.52524 2.84952 2.55796
C 15.07685 2.70532 3.82264
C 15.05688 4.05860 4.39918
C 15.37316 5.03305 3.31977
C 15.37551 4.15652 2.16574
C 14.83621 4.31697 5.86136
C 15.61861 6.51154 3.32357
O 15.64058 7.19324 2.23839
C 15.73952 7.15263 4.64110
N 15.34597 2.58714 -0.45969
C 15.21804 3.92140 -0.35342
C 15.18751 4.57652 -1.71367
C 15.56619 3.42303 -2.75466
C 15.66727 2.22757 -1.78200
C 13.85598 5.20917 -2.11761
C 16.75863 3.70123 -3.71035
C 18.04750 3.76391 -2.92277
N 16.01045 -0.24198 -0.15643
C 15.96525 -0.20098 -1.56723
C 16.06252 -1.59495 -2.04663
C 16.13496 -2.35812 -0.87154
C 16.06594 -1.50194 0.26057
C 16.02700 -2.01105 -3.40740
C 16.24342 -3.69418 -0.33130
O 16.42281 -4.81306 -0.81054
C 15.94618 -3.63406 1.22896
C 17.01726 -4.41816 1.93640
O 18.19970 -4.03338 1.91650
O 16.43984 -5.36650 2.69641
C 17.46124 -6.16362 3.42659
H 14.06471 1.63193 5.33975
H 15.18207 5.60013 0.64758
H 15.92008 0.78846 -3.31951
H 14.72049 -3.09238 4.06493
H 14.56841 -0.86859 5.78793
H 12.67201 -2.00927 3.77730
H 12.50915 -0.26135 4.04666
H 12.31435 -1.32434 5.40746
H 16.85969 -1.38553 5.35964
H 17.37628 -2.69056 4.23038
H 15.56679 -3.82057 6.11621
H 16.42361 -2.60531 6.99592
H 14.46673 3.42183 6.37674
H 14.01208 5.03441 5.93849
H 15.71688 4.73620 6.35263
H 14.83091 6.97805 5.21241
H 16.00154 8.19263 4.43709
H 16.55493 6.67010 5.19145
H 15.92640 5.36570 -1.77949
H 14.73362 3.20210 -3.43867
H 13.94156 6.28315 -2.36923
H 13.14987 5.06267 -1.31108
H 13.35237 4.73003 -2.95546
H 16.64021 4.67601 -4.18987
H 16.86044 2.96418 -4.49989
H 18.05894 4.79238 -2.54966
H 18.90109 3.56890 -3.56883
H 18.00989 3.09805 -2.05279
H 16.79927 -2.75968 -3.52431
H 16.17947 -1.17250 -4.08368
H 15.00859 -2.40454 -3.46451
H 14.95435 -4.05819 1.39008
H 17.28945 -7.21382 3.17114
H 17.35644 -5.88044 4.49081
H 18.49702 -6.04109 3.13231
