158

Mg 0.00000 0.00000 0.00000
C -0.21700 -2.21800 2.80100
C -1.25500 2.44200 2.02600
C -0.24500 1.85000 -2.56400
C 0.14600 -2.82400 -2.03700
N -0.61700 -0.00900 2.12600
C -0.59400 -0.90800 3.10500
C -0.93600 -0.30900 4.50200
C -1.77300 0.96400 4.03200
C -1.15500 1.16800 2.66000
C -3.26300 0.68500 3.86300
C 0.34500 0.11000 5.29900
C 0.12400 0.39700 6.78700
H 1.16800 0.03300 7.73300
N -0.18500 1.96100 -0.15200
C -0.70300 2.80000 0.77700
C -0.62000 4.15600 0.19300
C -0.18700 4.01500 -1.22500
C -0.21400 2.58300 -1.38000
C -0.88700 5.40600 0.97400
C 0.18100 5.01300 -2.27700
O 0.30300 4.69000 -3.50800
C 0.31000 6.41400 -1.83700
N -0.26500 -0.41300 -2.02900
C -0.27900 0.56900 -2.93700
C -0.19600 0.02400 -4.33200
C 0.12400 -1.53300 -4.18000
C 0.08600 -1.63200 -2.63500
C -1.45100 0.20500 -5.19700
C 1.37300 -2.07000 -4.92300
C 2.62600 -1.49000 -4.30600
N 0.15000 -2.14400 0.30300
C 0.17300 -3.13600 -0.68800
C 0.17300 -4.43800 0.00400
C 0.13300 -4.11100 1.35800
C 0.08300 -2.69500 1.50200
C 0.14900 -5.71500 -0.62300
C 0.09600 -4.62900 2.71600
O 0.20800 -5.74700 3.22100
C -0.25500 -3.42800 3.70100
C 0.71700 -3.48200 4.84800
O 1.93100 -3.25500 4.66900
O 0.03800 -3.55600 6.00300
C 0.94300 -3.58300 7.18300
H -1.85900 3.22000 2.49700
H -0.21800 2.45300 -3.47400
H 0.27600 -3.74700 -2.60500
H -1.55400 -0.94900 5.13200
H -1.58500 1.83100 4.66500
H -3.48400 -0.37700 3.96900
H -3.51100 1.02700 2.85800
H -3.85200 1.30100 4.54300
H 0.66900 1.09600 4.96600
H 1.13000 -0.63900 5.18900
H -0.84400 0.02600 7.12500
H 0.06200 1.47700 6.92100
H -1.34400 5.18600 1.93800
H -1.65100 5.96300 0.43200
H 0.00700 6.02000 1.08400
H -0.63500 6.74400 -1.40500
H 0.66500 6.97000 -2.70400
H 1.04800 6.46600 -1.03600
H 0.60800 0.50100 -4.89100
H -0.69200 -2.15600 -4.54700
H -1.26700 0.74000 -6.12900
H -2.20400 0.71400 -4.59600
H -1.96700 -0.72000 -5.45300
H 1.35600 -1.75900 -5.96700
H 1.45200 -3.15700 -4.90200
H 2.71400 -0.52200 -4.79800
H 3.48700 -2.12100 -4.52900
H 2.49500 -1.30300 -3.24000
H 0.86700 -6.33300 -0.08400
H 0.40400 -5.64200 -1.68000
H -0.89100 -5.99900 -0.46300
H -1.28300 -3.58100 4.02800
H 0.69800 -4.47800 7.75500
H 0.83300 -2.61900 7.68000
H 2.00000 -3.75400 6.97600
Mg 13.14366 1.18590 0.98928
C 15.90450 -1.10680 0.97148
C 15.43363 3.70936 1.14019
C 10.74110 3.20430 1.45964
C 11.12097 -1.47407 1.97870
N 15.35484 1.17615 1.04264
C 16.29686 0.24800 0.96862
C 17.73677 0.80455 0.80596
C 17.50571 2.25971 1.44470
C 16.01241 2.41533 1.16451
C 17.71577 2.29678 2.94931
C 18.17429 0.90021 -0.69785
C 19.66929 1.14105 -0.91858
H 20.31302 0.51314 -2.06915
N 13.06104 3.15690 0.77267
C 14.09039 4.02695 0.84158
C 13.50453 5.36047 0.63503
C 12.02314 5.22212 0.60278
C 11.88044 3.82824 0.97265
C 14.33721 6.58933 0.41154
C 10.91728 6.18820 0.30279
O 9.69336 5.91362 0.56632
C 11.31855 7.50160 -0.22206
N 11.25536 0.95899 1.82904
C 10.38597 1.98415 1.86267
C 9.00555 1.51599 2.25719
C 9.07438 -0.08174 2.24652
C 10.57241 -0.26832 1.92019
C 8.50500 1.99447 3.61987
C 8.02895 -0.82538 1.37088
C 8.29268 -0.55132 -0.09224
N 13.38655 -0.94758 1.22868
C 12.41771 -1.87121 1.67852
C 13.08494 -3.18496 1.78480
C 14.41188 -2.92781 1.40850
C 14.56591 -1.54707 1.10960
C 12.47779 -4.39269 2.23074
C 15.71984 -3.50841 1.20640
O 16.17474 -4.65146 1.22217
C 16.77442 -2.33141 1.03635
C 17.63234 -2.64548 -0.15858
O 17.13985 -2.67449 -1.30016
O 18.92502 -2.64491 0.21472
C 19.81607 -2.94065 -0.93871
H 16.05556 4.56117 1.41681
H 9.85298 3.83606 1.53442
H 10.53547 -2.37234 2.18601
H 18.49615 0.26990 1.36388
H 18.07438 3.01887 0.91398
H 17.87093 1.30970 3.35888
H 16.81856 2.74038 3.36075
H 18.53199 2.98063 3.19924
H 17.76926 1.82406 -1.13052
H 17.86465 0.02854 -1.24092
H 20.25408 0.96499 -0.00755
H 19.82183 2.20135 -1.13426
H 15.39187 6.41026 0.65451
H 14.01191 7.33396 1.14610
H 14.21442 7.00476 -0.59096
H 11.98285 7.98701 0.48896
H 10.38671 8.01885 -0.45868
H 11.89707 7.34960 -1.14012
H 8.26611 1.84070 1.53546
H 8.91655 -0.50308 3.25021
H 7.54676 2.54470 3.56426
H 9.27240 2.61161 4.06793
H 8.37410 1.21140 4.36476
H 7.02407 -0.45068 1.58061
H 8.01334 -1.89781 1.53409
H 7.79924 0.41140 -0.25584
H 7.85421 -1.33010 -0.71295
H 9.36339 -0.40893 -0.27921
H 12.80773 -5.17367 1.55865
H 11.39294 -4.31088 2.24433
H 12.89691 -4.46128 3.23817
H 17.35760 -2.27858 1.95650
H 20.43149 -3.79995 -0.65491
H 20.34398 -1.99376 -1.15887
H 19.35359 -3.30325 -1.84925
