79

Mg 10.50657 0.95051 0.80716
C 8.22346 -1.64495 1.77154
C 7.80870 3.02139 0.54728
C 12.42611 3.12737 -0.47505
C 12.80971 -1.55085 0.04267
N 8.34620 0.61529 1.14285
C 7.60236 -0.39521 1.56704
C 6.12359 -0.02620 1.86133
C 6.00316 1.26171 0.90967
C 7.46975 1.68752 0.88789
C 5.58297 0.92311 -0.51094
C 5.88922 0.34820 3.36696
C 4.42056 0.41865 3.79102
H 4.06391 -0.01392 5.13941
N 10.26922 2.90998 0.60053
C 9.10303 3.58612 0.53643
C 9.46720 5.00074 0.36214
C 10.93965 5.08500 0.16334
C 11.27338 3.67817 0.06567
C 8.46991 6.11727 0.47251
C 11.88837 6.24090 0.06325
O 13.09289 6.08971 -0.34798
C 11.33840 7.56902 0.37164
N 12.27004 0.80751 -0.28465
C 12.93158 1.91039 -0.67702
C 14.30458 1.56497 -1.20232
C 14.52103 0.01897 -0.85504
C 13.13954 -0.29846 -0.24177
C 14.51863 1.78476 -2.69974
C 15.79263 -0.34842 -0.04220
C 15.69046 0.21310 1.35767
N 10.61325 -1.19340 1.05280
C 11.65789 -2.04849 0.63853
C 11.22486 -3.43266 0.91958
C 9.93870 -3.28704 1.46094
C 9.58638 -1.91074 1.49488
C 11.96776 -4.61176 0.62985
C 8.79471 -3.98542 2.00157
O 8.55103 -5.15435 2.29812
C 7.58293 -2.96254 2.10966
C 6.96832 -3.11308 3.47425
O 7.61190 -2.80979 4.49427
O 5.65673 -3.38134 3.33962
C 5.00084 -3.52843 4.66627
H 7.01388 3.69017 0.21581
H 13.16963 3.84462 -0.83030
H 13.51003 -2.38035 -0.07631
H 5.40050 -0.77653 1.56481
H 5.38872 2.03368 1.36562
H 5.54914 -0.14327 -0.67773
H 6.32180 1.38336 -1.15385
H 4.63217 1.40870 -0.74869
H 6.18091 1.39442 3.52535
H 6.42024 -0.32301 4.01358
H 3.75526 -0.04244 3.05093
H 4.11470 1.46752 3.80970
H 7.44007 5.73961 0.45854
H 8.55344 6.71233 -0.44335
H 8.65546 6.76430 1.33251
H 10.50664 7.77948 -0.29644
H 12.18799 8.25350 0.33211
H 10.92900 7.55080 1.38785
H 15.06804 2.14781 -0.70179
H 14.60981 -0.59423 -1.76386
H 15.36298 2.46330 -2.92498
H 13.59966 2.16766 -3.12332
H 14.68096 0.87864 -3.28093
H 16.67656 0.10692 -0.49551
H 15.97449 -1.41638 0.01599
H 16.02407 1.24769 1.23351
H 16.34141 -0.33259 2.03777
H 14.64794 0.24119 1.69533
H 11.87746 -5.25678 1.49373
H 13.00856 -4.38222 0.41118
H 11.43155 -4.96792 -0.25382
H 6.87753 -3.20506 1.31394
H 4.51342 -4.50824 4.67482
H 4.34985 -2.64099 4.77772
H 5.64197 -3.60355 5.53677
