158

Mg 0.00000 0.00000 0.00000
C -0.21700 -2.21800 2.80100
C -1.25500 2.44200 2.02600
C -0.24500 1.85000 -2.56400
C 0.14600 -2.82400 -2.03700
N -0.61700 -0.00900 2.12600
C -0.59400 -0.90800 3.10500
C -0.93600 -0.30900 4.50200
C -1.77300 0.96400 4.03200
C -1.15500 1.16800 2.66000
C -3.26300 0.68500 3.86300
C 0.34500 0.11000 5.29900
C 0.12400 0.39700 6.78700
H 1.16800 0.03300 7.73300
N -0.18500 1.96100 -0.15200
C -0.70300 2.80000 0.77700
C -0.62000 4.15600 0.19300
C -0.18700 4.01500 -1.22500
C -0.21400 2.58300 -1.38000
C -0.88700 5.40600 0.97400
C 0.18100 5.01300 -2.27700
O 0.30300 4.69000 -3.50800
C 0.31000 6.41400 -1.83700
N -0.26500 -0.41300 -2.02900
C -0.27900 0.56900 -2.93700
C -0.19600 0.02400 -4.33200
C 0.12400 -1.53300 -4.18000
C 0.08600 -1.63200 -2.63500
C -1.45100 0.20500 -5.19700
C 1.37300 -2.07000 -4.92300
C 2.62600 -1.49000 -4.30600
N 0.15000 -2.14400 0.30300
C 0.17300 -3.13600 -0.68800
C 0.17300 -4.43800 0.00400
C 0.13300 -4.11100 1.35800
C 0.08300 -2.69500 1.50200
C 0.14900 -5.71500 -0.62300
C 0.09600 -4.62900 2.71600
O 0.20800 -5.74700 3.22100
C -0.25500 -3.42800 3.70100
C 0.71700 -3.48200 4.84800
O 1.93100 -3.25500 4.66900
O 0.03800 -3.55600 6.00300
C 0.94300 -3.58300 7.18300
H -1.85900 3.22000 2.49700
H -0.21800 2.45300 -3.47400
H 0.27600 -3.74700 -2.60500
H -1.55400 -0.94900 5.13200
H -1.58500 1.83100 4.66500
H -3.48400 -0.37700 3.96900
H -3.51100 1.02700 2.85800
H -3.85200 1.30100 4.54300
H 0.66900 1.09600 4.96600
H 1.13000 -0.63900 5.18900
H -0.84400 0.02600 7.12500
H 0.06200 1.47700 6.92100
H -1.34400 5.18600 1.93800
H -1.65100 5.96300 0.43200
H 0.00700 6.02000 1.08400
H -0.63500 6.74400 -1.40500
H 0.66500 6.97000 -2.70400
H 1.04800 6.46600 -1.03600
H 0.60800 0.50100 -4.89100
H -0.69200 -2.15600 -4.54700
H -1.26700 0.74000 -6.12900
H -2.20400 0.71400 -4.59600
H -1.96700 -0.72000 -5.45300
H 1.35600 -1.75900 -5.96700
H 1.45200 -3.15700 -4.90200
H 2.71400 -0.52200 -4.79800
H 3.48700 -2.12100 -4.52900
H 2.49500 -1.30300 -3.24000
H 0.86700 -6.33300 -0.08400
H 0.40400 -5.64200 -1.68000
H -0.89100 -5.99900 -0.46300
H -1.28300 -3.58100 4.02800
H 0.69800 -4.47800 7.75500
H 0.83300 -2.61900 7.68000
H 2.00000 -3.75400 6.97600
Mg 31.52646 2.84530 2.40106
C 33.73237 3.61807 5.12427
C 29.36697 1.56449 4.70989
C 29.76668 1.74748 -0.00006
C 34.27600 3.12218 0.27760
N 31.64634 2.67169 4.60282
C 32.50562 3.05586 5.53470
C 31.98923 2.89818 6.99005
C 30.90073 1.74528 6.73539
C 30.58597 2.02622 5.26751
C 31.47446 0.34204 6.84076
C 31.32046 4.20990 7.53240
C 31.07249 4.22842 9.04234
H 31.21583 5.49451 9.75575
N 29.63065 2.25975 2.36116
C 28.90254 1.78874 3.39523
C 27.57450 1.47830 2.84378
C 27.62834 1.64937 1.36644
C 29.04719 1.87699 1.17897
C 26.39315 1.14263 3.70702
C 26.57872 1.60165 0.29769
O 26.88564 1.54169 -0.94531
C 25.18240 1.53292 0.75274
N 31.99222 2.27791 0.45594
C 31.03090 1.88764 -0.39932
C 31.56104 1.79443 -1.81023
C 33.02372 2.43935 -1.76307
C 33.12552 2.72527 -0.24871
C 31.64491 0.38579 -2.39766
C 33.31407 3.59858 -2.75531
C 32.49097 4.81184 -2.38664
N 33.58675 3.46569 2.59698
C 34.57299 3.48013 1.58644
C 35.84629 3.86964 2.22631
C 35.51461 4.03372 3.57966
C 34.13653 3.74578 3.77331
C 37.10600 3.98025 1.57284
C 36.01924 4.37470 4.89030
O 37.09145 4.79106 5.32704
C 34.91570 3.99800 5.97043
C 34.76246 5.16664 6.90495
O 34.31446 6.25106 6.49271
O 34.96303 4.74974 8.16841
C 34.81086 5.87116 9.13334
H 28.72177 0.93451 5.32287
H 29.18149 1.47804 -0.88235
H 35.15797 3.32599 -0.33335
H 32.73216 2.55757 7.70126
H 30.01677 1.89390 7.35012
H 32.54840 0.35328 6.95329
H 31.19540 -0.15951 5.92336
H 30.98042 -0.20764 7.64706
H 30.28513 4.25963 7.17135
H 31.89043 5.07335 7.24919
H 31.62035 3.43155 9.55983
H 30.02115 3.99264 9.22427
H 26.69679 0.93066 4.73963
H 25.99011 0.19183 3.34180
H 25.60826 1.90053 3.66006
H 25.04767 0.64974 1.37266
H 24.57637 1.59666 -0.15309
H 24.97956 2.39974 1.39155
H 30.94607 2.36770 -2.49308
H 33.80313 1.69907 -1.99619
H 31.07967 0.27231 -3.34196
H 31.28893 -0.31559 -1.65476
H 32.65383 0.02535 -2.59095
H 33.01346 3.31535 -3.76703
H 34.36120 3.87924 -2.79716
H 31.52358 4.60506 -2.85405
H 32.93967 5.71664 -2.79167
H 32.32946 4.86356 -1.30364
H 37.56741 4.88820 1.93784
H 36.99243 3.99824 0.49092
H 37.58704 3.06186 1.91987
H 35.25738 3.10131 6.48886
H 35.73630 5.91951 9.71550
H 33.87688 5.66300 9.68841
H 34.76178 6.87595 8.73032
