158

Mg 0.00000 0.00000 0.00000
C -0.21700 -2.21800 2.80100
C -1.25500 2.44200 2.02600
C -0.24500 1.85000 -2.56400
C 0.14600 -2.82400 -2.03700
N -0.61700 -0.00900 2.12600
C -0.59400 -0.90800 3.10500
C -0.93600 -0.30900 4.50200
C -1.77300 0.96400 4.03200
C -1.15500 1.16800 2.66000
C -3.26300 0.68500 3.86300
C 0.34500 0.11000 5.29900
C 0.12400 0.39700 6.78700
H 1.16800 0.03300 7.73300
N -0.18500 1.96100 -0.15200
C -0.70300 2.80000 0.77700
C -0.62000 4.15600 0.19300
C -0.18700 4.01500 -1.22500
C -0.21400 2.58300 -1.38000
C -0.88700 5.40600 0.97400
C 0.18100 5.01300 -2.27700
O 0.30300 4.69000 -3.50800
C 0.31000 6.41400 -1.83700
N -0.26500 -0.41300 -2.02900
C -0.27900 0.56900 -2.93700
C -0.19600 0.02400 -4.33200
C 0.12400 -1.53300 -4.18000
C 0.08600 -1.63200 -2.63500
C -1.45100 0.20500 -5.19700
C 1.37300 -2.07000 -4.92300
C 2.62600 -1.49000 -4.30600
N 0.15000 -2.14400 0.30300
C 0.17300 -3.13600 -0.68800
C 0.17300 -4.43800 0.00400
C 0.13300 -4.11100 1.35800
C 0.08300 -2.69500 1.50200
C 0.14900 -5.71500 -0.62300
C 0.09600 -4.62900 2.71600
O 0.20800 -5.74700 3.22100
C -0.25500 -3.42800 3.70100
C 0.71700 -3.48200 4.84800
O 1.93100 -3.25500 4.66900
O 0.03800 -3.55600 6.00300
C 0.94300 -3.58300 7.18300
H -1.85900 3.22000 2.49700
H -0.21800 2.45300 -3.47400
H 0.27600 -3.74700 -2.60500
H -1.55400 -0.94900 5.13200
H -1.58500 1.83100 4.66500
H -3.48400 -0.37700 3.96900
H -3.51100 1.02700 2.85800
H -3.85200 1.30100 4.54300
H 0.66900 1.09600 4.96600
H 1.13000 -0.63900 5.18900
H -0.84400 0.02600 7.12500
H 0.06200 1.47700 6.92100
H -1.34400 5.18600 1.93800
H -1.65100 5.96300 0.43200
H 0.00700 6.02000 1.08400
H -0.63500 6.74400 -1.40500
H 0.66500 6.97000 -2.70400
H 1.04800 6.46600 -1.03600
H 0.60800 0.50100 -4.89100
H -0.69200 -2.15600 -4.54700
H -1.26700 0.74000 -6.12900
H -2.20400 0.71400 -4.59600
H -1.96700 -0.72000 -5.45300
H 1.35600 -1.75900 -5.96700
H 1.45200 -3.15700 -4.90200
H 2.71400 -0.52200 -4.79800
H 3.48700 -2.12100 -4.52900
H 2.49500 -1.30300 -3.24000
H 0.86700 -6.33300 -0.08400
H 0.40400 -5.64200 -1.68000
H -0.89100 -5.99900 -0.46300
H -1.28300 -3.58100 4.02800
H 0.69800 -4.47800 7.75500
H 0.83300 -2.61900 7.68000
H 2.00000 -3.75400 6.97600
Mg 8.94221 0.79741 0.67781
C 9.04727 0.32523 -2.87818
C 8.33927 -2.54844 0.95409
C 8.39741 1.25182 3.77040
C 8.41380 4.18855 0.07226
N 8.74227 -0.80021 -0.83872
C 8.86277 -0.87207 -2.15579
C 8.86123 -2.31664 -2.72394
C 8.07099 -3.04379 -1.52993
C 8.43018 -2.09680 -0.38675
C 6.56197 -3.02619 -1.70851
C 10.31027 -2.89523 -2.88983
C 10.40009 -4.17517 -3.72375
H 11.57137 -4.37152 -4.57346
N 8.92806 -0.49597 2.18298
C 8.68738 -1.82209 2.11408
C 8.77277 -2.31882 3.49616
C 8.92048 -1.15060 4.40619
C 8.72931 -0.06121 3.46983
C 8.79228 -3.78095 3.83558
C 9.17697 -1.03349 5.87816
O 9.03058 0.07719 6.50089
C 9.51389 -2.27730 6.58591
N 8.26387 2.43503 1.76428
C 8.16698 2.38347 3.10438
C 7.92434 3.75539 3.68693
C 8.12019 4.77827 2.47327
C 8.36522 3.76981 1.32943
C 6.55109 3.97548 4.32108
C 9.14611 5.92624 2.67898
C 10.54529 5.35959 2.76017
N 8.94235 2.08625 -1.05625
C 8.67145 3.47174 -1.08928
C 8.67758 3.88285 -2.50822
C 8.93084 2.69417 -3.20921
C 9.05251 1.61459 -2.29313
C 8.42006 5.19536 -2.99516
C 9.11238 2.10532 -4.51650
O 9.20212 2.54457 -5.66225
C 9.07025 0.52333 -4.36843
C 10.23381 -0.04590 -5.13303
O 11.40118 0.18405 -4.77113
O 9.77728 -0.93964 -6.02924
C 10.89534 -1.53995 -6.80475
H 7.92229 -3.53844 1.14095
H 8.30777 1.48381 4.83418
H 8.35445 5.24616 -0.19346
H 8.32117 -2.43789 -3.65529
H 8.46839 -4.03763 -1.34093
H 6.26316 -2.42223 -2.55236
H 6.16181 -2.61728 -0.78998
H 6.17838 -4.04828 -1.77568
H 10.65624 -3.27761 -1.92089
H 10.97263 -2.15404 -3.29300
H 9.47931 -4.36445 -4.28880
H 10.47750 -5.02737 -3.04420
H 8.50218 -4.39740 2.97580
H 7.99790 -3.94917 4.57078
H 9.74426 -4.10115 4.26439
H 8.70730 -2.99532 6.45819
H 9.74929 -1.97693 7.60877
H 10.40265 -2.71595 6.11867
H 8.65029 3.98199 4.45812
H 7.18655 5.30707 2.23138
H 6.60502 4.29644 5.37850
H 5.98242 3.05957 4.23022
H 5.91501 4.69427 3.80732
H 8.96117 6.43371 3.62894
H 9.11295 6.68000 1.89941
H 10.62601 5.05046 3.80660
H 11.28216 6.12209 2.51590
H 10.64182 4.45939 2.14214
H 9.15658 5.39277 -3.76267
H 8.46961 5.93256 -2.19651
H 7.40212 5.06706 -3.37278
H 8.11332 0.18249 -4.76556
H 10.67507 -1.37362 -7.86376
H 10.96550 -2.58996 -6.46372
H 11.87146 -1.07750 -6.71659
