79

Mg 7.88823 0.71277 0.59006
C 10.64908 -1.57993 0.57226
C 10.17820 3.23623 0.74097
C 5.48568 2.73117 1.06042
C 5.86554 -1.94721 1.57948
N 10.09941 0.70301 0.64342
C 11.04143 -0.22513 0.56940
C 12.48135 0.33142 0.40674
C 12.25029 1.78658 1.04548
C 10.75699 1.94219 0.76529
C 12.46034 1.82364 2.55009
C 12.91886 0.42708 -1.09707
C 14.41386 0.66792 -1.31780
H 15.05759 0.04001 -2.46837
N 7.80562 2.68376 0.37345
C 8.83496 3.55381 0.44236
C 8.24911 4.88733 0.23581
C 6.76771 4.74899 0.20355
C 6.62502 3.35510 0.57343
C 9.08179 6.11620 0.01232
C 5.66186 5.71506 -0.09643
O 4.43793 5.44049 0.16710
C 6.06312 7.02846 -0.62128
N 5.99994 0.48585 1.42981
C 5.13055 1.51102 1.46345
C 3.75012 1.04285 1.85797
C 3.81896 -0.55487 1.84730
C 5.31698 -0.74146 1.52097
C 3.24957 1.52134 3.22064
C 2.77352 -1.29851 0.97166
C 3.03725 -1.02446 -0.49146
N 8.13112 -1.42071 0.82946
C 7.16229 -2.34434 1.27930
C 7.82952 -3.65809 1.38558
C 9.15646 -3.40094 1.00928
C 9.31048 -2.02021 0.71038
C 7.22236 -4.86582 1.83152
C 10.46441 -3.98154 0.80718
O 10.91931 -5.12459 0.82295
C 11.51899 -2.80454 0.63713
C 12.37692 -3.11861 -0.55780
O 11.88442 -3.14763 -1.69938
O 13.66960 -3.11805 -0.18451
C 14.56065 -3.41378 -1.33793
H 10.80013 4.08803 1.01759
H 4.59756 3.36293 1.13520
H 5.28004 -2.84548 1.78679
H 13.24073 -0.20323 0.96466
H 12.81896 2.54573 0.51476
H 12.61550 0.83657 2.95966
H 11.56313 2.26724 2.96153
H 13.27656 2.50749 2.80002
H 12.51383 1.35093 -1.52974
H 12.60922 -0.44460 -1.64014
H 14.99865 0.49186 -0.40677
H 14.56641 1.72822 -1.53348
H 10.13645 5.93713 0.25529
H 8.75648 6.86082 0.74688
H 8.95899 6.53163 -0.99018
H 6.72742 7.51388 0.08974
H 5.13128 7.54572 -0.85791
H 6.64164 6.87647 -1.53934
H 3.01069 1.36756 1.13624
H 3.66113 -0.97622 2.85099
H 2.29133 2.07157 3.16504
H 4.01698 2.13847 3.66871
H 3.11867 0.73827 3.96554
H 1.76865 -0.92381 1.18139
H 2.75791 -2.37094 1.13487
H 2.54382 -0.06173 -0.65506
H 2.59878 -1.80323 -1.11217
H 4.10796 -0.88206 -0.67843
H 7.55230 -5.64680 1.15943
H 6.13751 -4.78401 1.84511
H 7.64148 -4.93441 2.83895
H 12.10217 -2.75171 1.55728
H 15.17607 -4.27308 -1.05413
H 15.08855 -2.46690 -1.55809
H 14.09817 -3.77638 -2.24847
