79

Mg 31.53256 2.83880 2.39533
C 30.93552 4.64946 5.42473
C 30.52856 5.62803 0.70557
C 31.61634 1.12200 -0.26966
C 31.38897 -0.08415 4.28779
N 30.84471 4.82538 3.08890
C 30.71822 5.41210 4.27503
C 30.40629 6.93563 4.18056
C 29.75567 6.96961 2.72538
C 30.44274 5.75640 2.12373
C 28.24916 6.73100 2.72583
C 31.70130 7.81306 4.24973
C 31.46628 9.30684 4.49210
H 32.42123 10.04284 5.30679
N 31.60474 3.40954 0.50538
C 31.16551 4.58610 -0.00263
C 31.44141 4.53157 -1.45438
C 31.90272 3.15305 -1.77841
C 31.69874 2.49052 -0.51554
C 31.30864 5.71562 -2.36220
C 32.43198 2.52890 -3.03078
O 32.55520 1.26295 -3.16029
C 32.72304 3.44448 -4.14883
N 31.28890 0.80165 2.01024
C 31.43239 0.31103 0.77424
C 31.49442 -1.18762 0.78546
C 31.60759 -1.61390 2.32014
C 31.50270 -0.20919 2.96360
C 30.30413 -1.91156 0.14116
C 32.80335 -2.51754 2.71262
C 34.09751 -1.74922 2.56453
N 31.39700 2.34303 4.50409
C 31.32826 1.05991 5.06583
C 31.13769 1.23354 6.51758
C 31.09192 2.61448 6.69855
C 31.21792 3.26200 5.43635
C 30.97314 0.18714 7.46754
C 30.94117 3.69320 7.66161
O 30.89171 3.75765 8.89080
C 30.71168 5.05078 6.86153
C 31.62770 6.08732 7.45295
O 32.86630 5.98643 7.33870
O 30.90442 7.14615 7.84829
C 31.75631 8.22412 8.41786
H 30.01249 6.35676 0.07744
H 31.75219 0.49175 -1.15101
H 31.42014 -0.94945 4.95242
H 29.68981 7.29940 4.91728
H 30.03026 7.87098 2.17778
H 27.89087 6.44828 3.71559
H 28.08249 5.92140 2.01502
H 27.71991 7.59570 2.32462
H 32.16001 7.85531 3.26187
H 32.38772 7.42888 5.00508
H 30.44753 9.50051 4.82905
H 31.53788 9.82355 3.53498
H 30.79353 6.54060 -1.87168
H 30.64158 5.42230 -3.17257
H 32.26922 6.02848 -2.77176
H 31.81319 3.97924 -4.42225
H 33.17649 2.83292 -4.92807
H 33.43287 4.20003 -3.81085
H 32.37196 -1.54671 0.24935
H 30.73226 -2.17061 2.65562
H 30.58770 -2.58903 -0.66465
H 29.60146 -1.15705 -0.21133
H 29.68370 -2.47815 0.83505
H 32.86307 -3.37780 2.04679
H 32.74223 -2.89254 3.73433
H 34.32562 -1.85854 1.50489
H 34.87831 -2.19703 3.18019
H 33.95385 -0.68619 2.75895
H 31.58693 0.45620 8.32710
H 31.27256 -0.77504 7.05262
H 29.90041 0.24736 7.65049
H 29.66165 5.31392 6.98531
H 31.37907 8.43653 9.41826
H 31.75271 9.03783 7.69241
H 32.78951 7.95515 8.64034
