79

Mg 13.14496 1.19099 1.00025
C 12.63955 1.51378 4.53853
C 11.99707 4.38850 0.69552
C 13.15136 0.78781 -2.14694
C 13.15221 -2.26403 1.45682
N 12.44013 2.65902 2.49704
C 12.35082 2.69153 3.81814
C 12.00588 4.08645 4.40534
C 11.28192 4.71693 3.11800
C 11.96969 3.89990 2.02616
C 9.79111 4.42727 3.06379
C 13.28678 4.90184 4.80088
C 13.02127 6.13889 5.66167
H 14.00028 6.49892 6.68362
N 13.11969 2.52830 -0.46588
C 12.63684 3.78731 -0.41064
C 12.83365 4.35299 -1.75431
C 13.32127 3.27085 -2.65203
C 13.19373 2.12380 -1.77561
C 12.63941 5.80970 -2.06037
C 13.80816 3.26683 -4.06947
O 13.95715 2.17684 -4.72716
C 14.01607 4.58099 -4.69496
N 12.93954 -0.48954 -0.20637
C 13.03298 -0.39551 -1.54441
C 13.12946 -1.76110 -2.18179
C 13.32564 -2.78741 -0.97110
C 13.21439 -1.80414 0.21473
C 11.92660 -2.18955 -3.02200
C 14.56029 -3.72751 -1.03845
C 15.83115 -2.92148 -0.89488
N 13.12215 -0.15459 2.69050
C 13.10311 -1.56618 2.65682
C 12.97450 -2.03328 4.05242
C 12.90392 -0.85138 4.80516
C 12.96263 0.27293 3.93800
C 12.88864 -3.39117 4.47061
C 12.78239 -0.29927 6.13524
O 12.78032 -0.76712 7.27315
C 12.47851 1.25592 6.01101
C 13.39543 1.98516 6.95440
O 14.62543 1.97975 6.77085
O 12.65886 2.74388 7.78638
C 13.52432 3.49522 8.73416
H 11.44083 5.29756 0.46507
H 13.26227 0.59182 -3.21594
H 13.24574 -3.32656 1.69127
H 11.32191 4.06920 5.24537
H 11.51739 5.77249 3.00982
H 9.48513 3.74296 3.84111
H 9.61047 3.99634 2.08772
H 9.22423 5.36230 3.09003
H 13.69688 5.38211 3.90316
H 14.00513 4.27074 5.28701
H 12.00858 6.13834 6.08286
H 13.04309 7.02117 5.01737
H 12.11996 6.32649 -1.24397
H 11.94455 5.86909 -2.90506
H 13.57075 6.31066 -2.33299
H 13.08358 5.14015 -4.67894
H 14.44941 4.37283 -5.67514
H 14.73290 5.14705 -4.08970
H 13.98967 -1.82211 -2.83709
H 12.47714 -3.48191 -0.88413
H 12.19222 -2.44819 -4.06441
H 11.19532 -1.39243 -3.00252
H 11.36176 -3.03101 -2.62440
H 14.61134 -4.21626 -2.01450
H 14.54908 -4.50973 -0.28679
H 16.00783 -2.55622 -1.91098
H 16.64915 -3.55334 -0.55478
H 15.67221 -2.04703 -0.25323
H 13.52772 -3.49086 5.33787
H 13.18686 -4.07160 3.67572
H 11.81996 -3.46027 4.69067
H 11.42808 1.40566 6.26349
H 13.18436 3.24540 9.74396
H 13.45375 4.55555 8.42681
H 14.56990 3.21533 8.78772
