158

Mg 0.00000 0.00000 0.00000
C -0.21700 -2.21800 2.80100
C -1.25500 2.44200 2.02600
C -0.24500 1.85000 -2.56400
C 0.14600 -2.82400 -2.03700
N -0.61700 -0.00900 2.12600
C -0.59400 -0.90800 3.10500
C -0.93600 -0.30900 4.50200
C -1.77300 0.96400 4.03200
C -1.15500 1.16800 2.66000
C -3.26300 0.68500 3.86300
C 0.34500 0.11000 5.29900
C 0.12400 0.39700 6.78700
H 1.16800 0.03300 7.73300
N -0.18500 1.96100 -0.15200
C -0.70300 2.80000 0.77700
C -0.62000 4.15600 0.19300
C -0.18700 4.01500 -1.22500
C -0.21400 2.58300 -1.38000
C -0.88700 5.40600 0.97400
C 0.18100 5.01300 -2.27700
O 0.30300 4.69000 -3.50800
C 0.31000 6.41400 -1.83700
N -0.26500 -0.41300 -2.02900
C -0.27900 0.56900 -2.93700
C -0.19600 0.02400 -4.33200
C 0.12400 -1.53300 -4.18000
C 0.08600 -1.63200 -2.63500
C -1.45100 0.20500 -5.19700
C 1.37300 -2.07000 -4.92300
C 2.62600 -1.49000 -4.30600
N 0.15000 -2.14400 0.30300
C 0.17300 -3.13600 -0.68800
C 0.17300 -4.43800 0.00400
C 0.13300 -4.11100 1.35800
C 0.08300 -2.69500 1.50200
C 0.14900 -5.71500 -0.62300
C 0.09600 -4.62900 2.71600
O 0.20800 -5.74700 3.22100
C -0.25500 -3.42800 3.70100
C 0.71700 -3.48200 4.84800
O 1.93100 -3.25500 4.66900
O 0.03800 -3.55600 6.00300
C 0.94300 -3.58300 7.18300
H -1.85900 3.22000 2.49700
H -0.21800 2.45300 -3.47400
H 0.27600 -3.74700 -2.60500
H -1.55400 -0.94900 5.13200
H -1.58500 1.83100 4.66500
H -3.48400 -0.37700 3.96900
H -3.51100 1.02700 2.85800
H -3.85200 1.30100 4.54300
H 0.66900 1.09600 4.96600
H 1.13000 -0.63900 5.18900
H -0.84400 0.02600 7.12500
H 0.06200 1.47700 6.92100
H -1.34400 5.18600 1.93800
H -1.65100 5.96300 0.43200
H 0.00700 6.02000 1.08400
H -0.63500 6.74400 -1.40500
H 0.66500 6.97000 -2.70400
H 1.04800 6.46600 -1.03600
H 0.60800 0.50100 -4.89100
H -0.69200 -2.15600 -4.54700
H -1.26700 0.74000 -6.12900
H -2.20400 0.71400 -4.59600
H -1.96700 -0.72000 -5.45300
H 1.35600 -1.75900 -5.96700
H 1.45200 -3.15700 -4.90200
H 2.71400 -0.52200 -4.79800
H 3.48700 -2.12100 -4.52900
H 2.49500 -1.30300 -3.24000
H 0.86700 -6.33300 -0.08400
H 0.40400 -5.64200 -1.68000
H -0.89100 -5.99900 -0.46300
H -1.28300 -3.58100 4.02800
H 0.69800 -4.47800 7.75500
H 0.83300 -2.61900 7.68000
H 2.00000 -3.75400 6.97600
Mg 31.53997 2.84287 2.38894
C 30.98058 6.35687 2.85579
C 30.86453 3.32683 -0.91925
C 31.58264 -0.30838 2.02125
C 31.04585 2.45018 5.81638
N 31.00542 4.65411 1.23745
C 30.88249 5.94432 1.51057
C 30.72069 6.85334 0.26275
C 30.13145 5.76069 -0.75596
C 30.72903 4.49992 -0.13465
C 28.61695 5.64616 -0.70581
C 32.09158 7.42736 -0.24040
C 31.97798 8.56323 -1.25954
H 32.96731 9.63656 -1.21866
N 31.74720 1.74389 0.74947
C 31.44551 2.10463 -0.51549
C 31.75993 0.93663 -1.35279
C 32.11628 -0.19883 -0.45921
C 31.80217 0.37482 0.83398
C 31.78245 0.99305 -2.85270
C 32.63950 -1.57778 -0.72551
O 32.65255 -2.48038 0.18442
C 33.04930 -1.86797 -2.10730
N 31.13519 1.26675 3.68290
C 31.28058 -0.00931 3.28483
C 31.20215 -0.95858 4.45663
C 31.21551 -0.03315 5.76085
C 31.20910 1.35588 5.08562
C 29.97628 -1.87089 4.49281
C 32.30652 -0.33262 6.82513
C 33.67363 -0.00529 6.26903
N 31.27735 4.15758 4.08324
C 31.06023 3.78358 5.42751
C 30.82567 5.02545 6.19248
C 30.90038 6.04208 5.22844
C 31.14290 5.47229 3.94937
C 30.53661 5.10326 7.58406
C 30.81866 7.46685 5.00026
O 30.71684 8.45781 5.72232
C 30.74120 7.72412 3.43367
C 31.72352 8.81087 3.09230
O 32.94533 8.62475 3.23073
O 31.07712 9.80566 2.45754
C 32.01152 10.90229 2.08859
H 30.44927 3.32614 -1.92744
H 31.69639 -1.39364 1.96871
H 30.98145 2.42016 6.90617
H 30.01654 7.66797 0.38241
H 30.51668 5.90974 -1.76132
H 28.19452 6.23654 0.09365
H 28.40628 4.59584 -0.55253
H 28.18722 5.90086 -1.67884
H 32.59180 6.67024 -0.85789
H 32.69892 7.74249 0.58572
H 30.96333 8.97731 -1.30386
H 32.14322 8.15135 -2.25807
H 31.31720 1.91302 -3.22766
H 31.12827 0.19161 -3.21269
H 32.78285 0.84462 -3.26482
H 32.20503 -1.71210 -2.77466
H 33.47777 -2.87175 -2.08035
H 33.82062 -1.14769 -2.40205
H 32.06416 -1.61386 4.48185
H 30.27527 -0.11211 6.32614
H 30.23349 -2.94634 4.52909
H 29.36461 -1.65521 3.62685
H 29.28676 -1.68554 5.31465
H 32.31696 -1.39816 7.06733
H 32.16273 0.20758 7.75492
H 33.93013 -0.90383 5.69988
H 34.38380 0.16742 7.07517
H 33.62080 0.82967 5.56072
H 31.12924 5.91716 7.98012
H 30.75921 4.16578 8.08939
H 29.46284 5.30589 7.54919
H 29.71541 8.01104 3.19913
H 31.60992 11.82352 2.52187
H 32.10048 10.86092 0.98672
H 33.00507 10.88085 2.52085
