79

Mg 15.76628 1.41940 1.19766
C 15.22614 4.94951 1.44020
C 15.11337 1.69916 -2.13978
C 15.79030 -1.74771 1.03819
C 15.25661 1.25392 4.64128
N 15.24986 3.15807 -0.07158
C 15.13296 4.46635 0.13309
C 14.97716 5.28604 -1.18266
C 14.39384 4.14025 -2.12547
C 14.98205 2.92742 -1.42621
C 12.87241 4.03782 -2.08997
C 16.34851 5.82281 -1.71465
C 16.25232 6.89674 -2.80220
H 17.24075 7.96444 -2.82142
N 15.97258 0.21634 -0.35570
C 15.67307 0.50097 -1.64588
C 16.00206 -0.71606 -2.41871
C 16.33800 -1.79451 -1.44804
C 16.01753 -1.15090 -0.19966
C 16.02452 -0.75905 -3.91584
C 16.85440 -3.18813 -1.61912
O 16.85726 -4.03482 -0.66116
C 17.28044 -3.56865 -2.97807
N 15.33880 -0.07583 2.59020
C 15.48415 -1.36894 2.28078
C 15.39738 -2.23566 3.50193
C 15.40432 -1.24122 4.75125
C 15.41212 0.10321 3.98267
C 14.16910 -3.15231 3.58612
C 16.48774 -1.47869 5.83302
C 17.85646 -1.18193 5.26237
N 15.49531 2.84536 2.81144
C 15.27703 2.55446 4.16584
C 15.04465 3.83892 4.85156
C 15.12801 4.79260 3.83894
C 15.36944 4.14265 2.59492
C 14.73843 4.00360 6.23125
C 15.04481 6.20741 3.51454
O 14.95114 7.24408 4.17336
C 14.98378 6.35546 1.93019
C 15.97242 7.41819 1.53459
O 17.19867 7.23665 1.67855
O 15.34150 8.37434 0.83584
C 16.27137 9.44505 0.38743
H 14.69820 1.62686 -3.14693
H 15.89960 -2.83418 1.04709
H 15.17467 1.28788 5.72921
H 14.27025 6.11367 -1.12153
H 14.77850 4.21494 -3.14241
H 12.44732 4.68503 -1.32295
H 12.65615 2.99246 -1.86871
H 12.44817 4.22937 -3.07593
H 16.84962 5.03441 -2.27624
H 16.96181 6.19529 -0.89340
H 15.24460 7.30789 -2.86832
H 16.41412 6.41946 -3.76875
H 15.57354 0.13292 -4.34892
H 15.36585 -1.57193 -4.22095
H 17.02741 -0.93222 -4.30642
H 16.43993 -3.45665 -3.66331
H 17.70313 -4.56900 -2.89164
H 18.04681 -2.87063 -3.31627
H 16.25659 -2.90159 3.57067
H 14.46518 -1.27251 5.30414
H 14.41747 -4.20857 3.69249
H 13.55955 -2.98129 2.69928
H 13.46759 -2.90457 4.38232
H 16.48972 -2.52255 6.14494
H 16.34768 -0.86656 6.72405
H 18.11630 -2.11146 4.75709
H 18.56309 -0.96225 6.06338
H 17.81055 -0.40044 4.50365
H 15.33970 4.84354 6.57901
H 14.95828 3.09818 6.79647
H 13.67024 4.21318 6.17739
H 13.96065 6.63485 1.68064
H 15.87589 10.39023 0.75954
H 16.37814 9.33093 -0.69145
H 17.26287 9.44377 0.84160
