79

Mg 7.87600 0.71191 0.59132
C 8.41910 -2.01173 -1.68154
C 8.68845 2.81429 -1.96886
C 7.84544 3.10291 2.67689
C 8.22726 -1.57514 3.19741
N 8.45964 0.33075 -1.50781
C 8.57244 -0.74205 -2.27639
C 8.78673 -0.43445 -3.78272
C 9.41658 1.03591 -3.64066
C 8.79249 1.44135 -2.30694
C 10.92759 1.03031 -3.47887
C 7.43844 -0.40675 -4.58482
C 7.59533 -0.41936 -6.10698
H 6.60624 -1.14119 -6.90268
N 7.73578 2.66976 0.29852
C 8.09000 3.35429 -0.80929
C 7.80938 4.76818 -0.51547
C 7.41516 4.88070 0.91514
C 7.67598 3.52889 1.36755
C 7.84909 5.84078 -1.56493
C 6.90203 6.02011 1.74258
O 6.85038 5.95375 3.02154
C 6.54956 7.24986 1.01804
N 8.22522 0.80146 2.63885
C 8.09517 1.95789 3.31241
C 8.12401 1.72638 4.80437
C 8.05755 0.13984 4.99431
C 8.09333 -0.29414 3.51250
C 9.34642 2.27589 5.53933
C 6.92307 -0.41368 5.89944
C 5.58051 -0.18112 5.24458
N 8.06950 -1.43314 0.76276
C 8.23035 -2.18301 1.94847
C 8.43426 -3.59062 1.54910
C 8.40059 -3.55822 0.14685
C 8.21071 -2.22160 -0.29688
C 8.66548 -4.68127 2.43404
C 8.49313 -4.34928 -1.05912
O 8.56593 -5.55254 -1.30529
C 8.63571 -3.36530 -2.29923
C 7.66947 -3.81352 -3.36130
O 6.44279 -3.75421 -3.16547
O 8.34262 -4.03173 -4.50568
C 7.42542 -4.46762 -5.59222
H 9.14513 3.54830 -2.63336
H 7.73287 3.87449 3.44205
H 8.24641 -2.36328 3.95316
H 9.48614 -1.09156 -4.28552
H 9.07349 1.69121 -4.43705
H 11.31711 0.02933 -3.36724
H 11.13066 1.61638 -2.59212
H 11.39752 1.56624 -4.30849
H 6.96348 0.57396 -4.45301
H 6.79771 -1.21157 -4.28090
H 8.61136 -0.69528 -6.41437
H 7.47119 0.60124 -6.47709
H 8.33041 5.48604 -2.48465
H 8.51682 6.62609 -1.19441
H 6.86649 6.27550 -1.76030
H 7.42092 7.61358 0.47869
H 6.11933 7.91732 1.76722
H 5.79185 7.00708 0.26468
H 7.26104 2.17394 5.28193
H 8.97347 -0.25359 5.45920
H 9.08684 2.97946 6.35276
H 9.99366 2.75335 4.81570
H 10.00146 1.52253 5.97356
H 6.90153 0.12347 6.85084
H 7.02874 -1.46900 6.12775
H 5.34691 0.85153 5.52053
H 4.83771 -0.87237 5.63761
H 5.66349 -0.21969 4.15221
H 8.05777 -5.50348 2.08028
H 8.42119 -4.41852 3.46120
H 9.73998 -4.82387 2.29127
H 9.67062 -3.41536 -2.63984
H 7.80964 -5.41935 -5.97206
H 7.38215 -3.62183 -6.30392
H 6.41479 -4.74325 -5.31454
