158

Mg 0.00000 0.00000 0.00000
C -0.21700 -2.21800 2.80100
C -1.25500 2.44200 2.02600
C -0.24500 1.85000 -2.56400
C 0.14600 -2.82400 -2.03700
N -0.61700 -0.00900 2.12600
C -0.59400 -0.90800 3.10500
C -0.93600 -0.30900 4.50200
C -1.77300 0.96400 4.03200
C -1.15500 1.16800 2.66000
C -3.26300 0.68500 3.86300
C 0.34500 0.11000 5.29900
C 0.12400 0.39700 6.78700
H 1.16800 0.03300 7.73300
N -0.18500 1.96100 -0.15200
C -0.70300 2.80000 0.77700
C -0.62000 4.15600 0.19300
C -0.18700 4.01500 -1.22500
C -0.21400 2.58300 -1.38000
C -0.88700 5.40600 0.97400
C 0.18100 5.01300 -2.27700
O 0.30300 4.69000 -3.50800
C 0.31000 6.41400 -1.83700
N -0.26500 -0.41300 -2.02900
C -0.27900 0.56900 -2.93700
C -0.19600 0.02400 -4.33200
C 0.12400 -1.53300 -4.18000
C 0.08600 -1.63200 -2.63500
C -1.45100 0.20500 -5.19700
C 1.37300 -2.07000 -4.92300
C 2.62600 -1.49000 -4.30600
N 0.15000 -2.14400 0.30300
C 0.17300 -3.13600 -0.68800
C 0.17300 -4.43800 0.00400
C 0.13300 -4.11100 1.35800
C 0.08300 -2.69500 1.50200
C 0.14900 -5.71500 -0.62300
C 0.09600 -4.62900 2.71600
O 0.20800 -5.74700 3.22100
C -0.25500 -3.42800 3.70100
C 0.71700 -3.48200 4.84800
O 1.93100 -3.25500 4.66900
O 0.03800 -3.55600 6.00300
C 0.94300 -3.58300 7.18300
H -1.85900 3.22000 2.49700
H -0.21800 2.45300 -3.47400
H 0.27600 -3.74700 -2.60500
H -1.55400 -0.94900 5.13200
H -1.58500 1.83100 4.66500
H -3.48400 -0.37700 3.96900
H -3.51100 1.02700 2.85800
H -3.85200 1.30100 4.54300
H 0.66900 1.09600 4.96600
H 1.13000 -0.63900 5.18900
H -0.84400 0.02600 7.12500
H 0.06200 1.47700 6.92100
H -1.34400 5.18600 1.93800
H -1.65100 5.96300 0.43200
H 0.00700 6.02000 1.08400
H -0.63500 6.74400 -1.40500
H 0.66500 6.97000 -2.70400
H 1.04800 6.46600 -1.03600
H 0.60800 0.50100 -4.89100
H -0.69200 -2.15600 -4.54700
H -1.26700 0.74000 -6.12900
H -2.20400 0.71400 -4.59600
H -1.96700 -0.72000 -5.45300
H 1.35600 -1.75900 -5.96700
H 1.45200 -3.15700 -4.90200
H 2.71400 -0.52200 -4.79800
H 3.48700 -2.12100 -4.52900
H 2.49500 -1.30300 -3.24000
H 0.86700 -6.33300 -0.08400
H 0.40400 -5.64200 -1.68000
H -0.89100 -5.99900 -0.46300
H -1.28300 -3.58100 4.02800
H 0.69800 -4.47800 7.75500
H 0.83300 -2.61900 7.68000
H 2.00000 -3.75400 6.97600
Mg 31.53256 2.83880 2.39533
C 31.60217 2.82023 -1.18336
C 30.96473 -0.52282 2.25340
C 31.01585 2.90392 5.52349
C 30.97365 6.27426 2.21956
N 31.33163 1.43955 0.69169
C 31.43853 1.54887 -0.62884
C 31.43611 0.17558 -1.36466
C 30.67322 -0.69579 -0.26889
C 31.03953 0.09936 0.97186
C 29.15645 -0.68454 -0.42945
C 32.88341 -0.36458 -1.62015
C 32.98131 -1.52702 -2.61238
H 34.13792 -1.60120 -3.49221
N 31.54289 1.37887 3.72624
C 31.30715 0.06590 3.48994
C 31.42950 -0.61210 4.79838
C 31.56801 0.43903 5.84434
C 31.35204 1.63196 5.06610
C 31.45666 -2.10167 4.95389
C 31.83983 0.37749 7.31419
O 31.68992 1.39271 8.07670
C 32.20573 -0.94211 7.85990
N 30.84414 4.32435 3.69027
C 30.76873 4.11009 5.00837
C 30.52491 5.38734 5.75610
C 30.69151 6.56319 4.68868
C 30.93549 5.70191 3.42498
C 29.15729 5.51070 6.44196
C 31.70936 7.68115 5.02713
C 33.11334 7.11932 5.00989
N 31.49615 4.34191 0.82995
C 31.22013 5.70868 0.97971
C 31.20521 6.29704 -0.37221
C 31.45883 5.22153 -1.22121
C 31.59581 4.03177 -0.45050
C 30.92027 7.65504 -0.68696
C 31.62152 4.79638 -2.60202
O 31.70110 5.37827 -3.68487
C 31.59981 3.20460 -2.64206
C 32.75889 2.75542 -3.48946
O 33.93478 2.93711 -3.11312
O 32.30660 1.97802 -4.48526
C 33.40958 1.47439 -5.34662
H 30.55165 -1.53070 2.32751
H 30.93763 2.99178 6.60912
H 30.88973 7.35515 2.09272
H 30.88069 0.16351 -2.30263
H 31.07339 -1.70732 -0.20255
H 28.84200 0.02593 -1.19382
H 28.76277 -0.39451 0.54492
H 28.77939 -1.69010 -0.61773
H 33.24692 -0.85864 -0.71913
H 33.54457 0.44079 -1.94198
H 32.05935 -1.64278 -3.18289
H 33.06708 -2.45391 -2.04518
H 31.16848 -2.60587 4.03232
H 30.67121 -2.36213 5.66307
H 32.41835 -2.45827 5.32310
H 31.40246 -1.65075 7.65706
H 32.45036 -0.77655 8.90852
H 33.08297 -1.31288 7.32894
H 31.25696 5.52065 6.55156
H 29.75631 7.09742 4.51936
H 29.22046 5.69651 7.51443
H 28.59332 4.60161 6.23512
H 28.50193 6.27278 6.02104
H 31.53019 8.06599 6.03050
H 31.66871 8.52364 4.33662
H 33.21453 6.68642 6.00447
H 33.84048 7.91723 4.85556
H 33.20805 6.30652 4.28956
H 31.65345 7.95494 -1.43561
H 30.97735 8.28721 0.19888
H 29.90415 7.56449 -1.07057
H 30.64164 2.91490 -3.07230
H 33.17852 1.77058 -6.36991
H 33.50417 0.40870 -5.13745
H 34.38245 1.94788 -5.21003
