158

Mg 0.00000 0.00000 0.00000
C -0.21700 -2.21800 2.80100
C -1.25500 2.44200 2.02600
C -0.24500 1.85000 -2.56400
C 0.14600 -2.82400 -2.03700
N -0.61700 -0.00900 2.12600
C -0.59400 -0.90800 3.10500
C -0.93600 -0.30900 4.50200
C -1.77300 0.96400 4.03200
C -1.15500 1.16800 2.66000
C -3.26300 0.68500 3.86300
C 0.34500 0.11000 5.29900
C 0.12400 0.39700 6.78700
H 1.16800 0.03300 7.73300
N -0.18500 1.96100 -0.15200
C -0.70300 2.80000 0.77700
C -0.62000 4.15600 0.19300
C -0.18700 4.01500 -1.22500
C -0.21400 2.58300 -1.38000
C -0.88700 5.40600 0.97400
C 0.18100 5.01300 -2.27700
O 0.30300 4.69000 -3.50800
C 0.31000 6.41400 -1.83700
N -0.26500 -0.41300 -2.02900
C -0.27900 0.56900 -2.93700
C -0.19600 0.02400 -4.33200
C 0.12400 -1.53300 -4.18000
C 0.08600 -1.63200 -2.63500
C -1.45100 0.20500 -5.19700
C 1.37300 -2.07000 -4.92300
C 2.62600 -1.49000 -4.30600
N 0.15000 -2.14400 0.30300
C 0.17300 -3.13600 -0.68800
C 0.17300 -4.43800 0.00400
C 0.13300 -4.11100 1.35800
C 0.08300 -2.69500 1.50200
C 0.14900 -5.71500 -0.62300
C 0.09600 -4.62900 2.71600
O 0.20800 -5.74700 3.22100
C -0.25500 -3.42800 3.70100
C 0.71700 -3.48200 4.84800
O 1.93100 -3.25500 4.66900
O 0.03800 -3.55600 6.00300
C 0.94300 -3.58300 7.18300
H -1.85900 3.22000 2.49700
H -0.21800 2.45300 -3.47400
H 0.27600 -3.74700 -2.60500
H -1.55400 -0.94900 5.13200
H -1.58500 1.83100 4.66500
H -3.48400 -0.37700 3.96900
H -3.51100 1.02700 2.85800
H -3.85200 1.30100 4.54300
H 0.66900 1.09600 4.96600
H 1.13000 -0.63900 5.18900
H -0.84400 0.02600 7.12500
H 0.06200 1.47700 6.92100
H -1.34400 5.18600 1.93800
H -1.65100 5.96300 0.43200
H 0.00700 6.02000 1.08400
H -0.63500 6.74400 -1.40500
H 0.66500 6.97000 -2.70400
H 1.04800 6.46600 -1.03600
H 0.60800 0.50100 -4.89100
H -0.69200 -2.15600 -4.54700
H -1.26700 0.74000 -6.12900
H -2.20400 0.71400 -4.59600
H -1.96700 -0.72000 -5.45300
H 1.35600 -1.75900 -5.96700
H 1.45200 -3.15700 -4.90200
H 2.71400 -0.52200 -4.79800
H 3.48700 -2.12100 -4.52900
H 2.49500 -1.30300 -3.24000
H 0.86700 -6.33300 -0.08400
H 0.40400 -5.64200 -1.68000
H -0.89100 -5.99900 -0.46300
H -1.28300 -3.58100 4.02800
H 0.69800 -4.47800 7.75500
H 0.83300 -2.61900 7.68000
H 2.00000 -3.75400 6.97600
Mg 15.76628 1.41940 1.19766
C 15.97733 -0.88698 -1.53149
C 14.97308 -1.23712 3.18683
C 15.13079 3.48560 3.51792
C 15.45414 3.96055 -1.16682
N 15.53712 -0.73978 0.76630
C 15.70400 -1.50387 -0.30864
C 15.63585 -3.02927 0.00103
C 14.77128 -2.97602 1.33957
C 15.14193 -1.58154 1.81282
C 13.26656 -3.02808 1.09544
C 17.05131 -3.64768 0.25750
C 17.10800 -5.17802 0.24366
H 18.29091 -5.83010 -0.29752
N 15.62229 1.14973 3.14943
C 15.30580 -0.00320 3.78650
C 15.32854 0.31010 5.23150
C 15.49763 1.78280 5.37517
C 15.39606 2.20682 4.00212
C 15.24621 -0.73500 6.30142
C 15.70561 2.66864 6.56268
O 15.59604 3.94037 6.49008
C 15.95713 1.99439 7.84921
N 15.13124 3.40795 1.19375
C 14.98859 4.08903 2.33601
C 14.80415 5.55513 2.07817
C 15.09430 5.77036 0.52277
C 15.32832 4.29350 0.11980
C 13.42206 6.12669 2.42335
C 16.17282 6.81724 0.14692
C 17.53407 6.33585 0.59676
N 15.89662 1.57290 -0.96347
C 15.71019 2.72595 -1.73960
C 15.79007 2.31302 -3.15282
C 16.00228 0.93677 -3.10042
C 16.02563 0.51255 -1.74109
C 15.61268 3.16231 -4.28049
C 16.19016 -0.27787 -3.87709
O 16.35304 -0.52621 -5.07262
C 16.05986 -1.52525 -2.89580
C 17.21796 -2.44460 -3.17311
O 18.38764 -2.09684 -2.91182
O 16.75304 -3.66631 -3.47614
C 17.85201 -4.63486 -3.73370
H 14.48856 -1.95221 3.85453
H 15.01554 4.25000 4.28919
H 15.45043 4.71173 -1.95876
H 15.11884 -3.62340 -0.75271
H 15.09745 -3.72142 2.06462
H 13.03285 -2.96295 0.03287
H 12.85531 -2.17090 1.62893
H 12.82857 -3.91030 1.56302
H 17.34344 -3.46054 1.29080
H 17.77899 -3.25351 -0.45274
H 16.20376 -5.60647 -0.18957
H 17.10664 -5.52919 1.27559
H 14.96084 -1.70395 5.89370
H 14.41691 -0.45940 6.95258
H 16.16537 -0.79922 6.88396
H 15.11545 1.34267 8.08456
H 16.17056 2.78581 8.56680
H 16.82709 1.34556 7.74365
H 15.51132 6.14626 2.65859
H 14.20586 6.09817 -0.01750
H 13.45506 6.95395 3.13276
H 12.80519 5.31185 2.80124
H 12.83840 6.46069 1.56591
H 15.98080 7.75983 0.65838
H 16.21823 7.02343 -0.92251
H 17.56523 6.63710 1.64323
H 18.32032 6.82965 0.02476
H 17.60094 5.24809 0.56868
H 16.39418 2.89319 -4.99098
H 15.67797 4.21308 -3.99900
H 14.60886 2.87545 -4.59341
H 15.10187 -1.99648 -3.11334
H 17.68308 -5.05586 -4.72489
H 17.86413 -5.32198 -2.88746
H 18.84911 -4.21081 -3.85742
