79

Mg 8.94088 0.81249 0.67748
C 8.33915 2.62883 3.71357
C 7.93525 3.59914 -1.01305
C 9.02877 -0.89744 -1.99382
C 8.79209 -2.11481 2.56281
N 8.25061 2.79580 1.37192
C 8.12159 3.39208 2.54757
C 7.81607 4.91190 2.46783
C 7.15905 4.94857 1.00296
C 7.84639 3.72709 0.39615
C 5.66003 4.69912 1.00930
C 9.11641 5.78737 2.53622
C 8.87521 7.27961 2.77458
H 9.83586 8.01854 3.58919
N 9.01621 1.39485 -1.21824
C 8.58396 2.56772 -1.72698
C 8.84558 2.49983 -3.17304
C 9.31610 1.12651 -3.50064
C 9.11435 0.46763 -2.22578
C 8.72093 3.69005 -4.07927
C 9.84634 0.50534 -4.75730
O 9.97089 -0.76439 -4.88016
C 10.12740 1.42061 -5.87300
N 8.70434 -1.21716 0.29416
C 8.84321 -1.70641 -0.95054
C 8.90337 -3.21527 -0.93999
C 9.01944 -3.62986 0.60021
C 8.91175 -2.23168 1.24744
C 7.71069 -3.93302 -1.57147
C 10.21596 -4.53761 0.99644
C 11.51375 -3.77808 0.84072
N 8.81021 0.31960 2.77701
C 8.73431 -0.97000 3.34731
C 8.54322 -0.79244 4.80141
C 8.49779 0.59912 4.97456
C 8.62959 1.24305 3.71461
C 8.38870 -1.83875 5.75403
C 8.35764 1.66957 5.93539
O 8.30092 1.73327 7.16277
C 8.12187 3.02912 5.14646
C 9.03811 4.06961 5.72991
O 10.27197 3.95697 5.62259
O 8.30774 5.12846 6.12456
C 9.17336 6.19202 6.70020
H 7.42424 4.33538 -1.63410
H 9.16479 -1.53420 -2.87104
H 8.83457 -2.97702 3.23174
H 7.10612 5.27171 3.20288
H 7.44091 5.85063 0.46612
H 5.30214 4.42029 1.98926
H 5.49235 3.89672 0.30284
H 5.13146 5.56882 0.60860
H 9.57365 5.82786 1.53921
H 9.79276 5.40777 3.27723
H 7.85072 7.48328 3.10907
H 8.95328 7.80097 1.81745
H 8.19794 4.51845 -3.58566
H 8.05574 3.39916 -4.89950
H 9.68008 4.00406 -4.49652
H 9.21860 1.95497 -6.13945
H 10.58216 0.80315 -6.65005
H 10.84766 2.17384 -5.53464
H 9.78034 -3.57103 -1.46673
H 8.14086 -4.20010 0.93600
H 7.99782 -4.61871 -2.39090
H 7.01250 -3.18693 -1.92702
H 7.09968 -4.51003 -0.87944
H 10.27729 -5.39777 0.32524
H 10.14925 -4.92290 2.00842
H 11.73684 -3.88658 -0.22490
H 12.29413 -4.22316 1.45467
H 11.37092 -2.70974 1.04049
H 8.99583 -1.57330 6.60927
H 8.68337 -2.80057 5.33948
H 7.31176 -1.78168 5.93345
H 7.07111 3.29738 5.26275
H 8.79214 6.40605 7.70347
H 9.15598 7.02054 5.96740
H 10.20440 5.93710 6.91566
