79

Mg 15.77400 1.41259 1.20019
C 15.97033 -0.53680 -1.80653
C 15.02592 -1.47860 2.84822
C 15.15222 3.15829 3.77572
C 15.40434 4.23088 -0.81632
N 15.55600 -0.67474 0.50179
C 15.71442 -1.30559 -0.65202
C 15.67129 -2.85390 -0.54974
C 14.81506 -2.98178 0.80281
C 15.17702 -1.64582 1.44847
C 13.31433 -3.00629 0.56500
C 17.09982 -3.48218 -0.38681
C 17.16297 -4.99751 -0.59064
H 18.35111 -5.56609 -1.22112
N 15.65989 0.88755 3.11066
C 15.36724 -0.33459 3.60260
C 15.38907 -0.19468 5.06687
C 15.55618 1.24657 5.39793
C 15.43915 1.83530 4.07893
C 15.33797 -1.37138 5.99757
C 15.77128 1.97556 6.68964
O 15.65127 3.24898 6.77221
C 16.03465 1.14606 7.87457
N 15.12992 3.37312 1.45286
C 14.98929 3.90173 2.68116
C 14.78514 5.39635 2.61169
C 15.06053 5.79723 1.08820
C 15.29947 4.39106 0.49574
C 13.40299 5.89903 3.02808
C 16.12579 6.89817 0.83168
C 17.49733 6.38749 1.21047
N 15.88106 1.83600 -0.91577
C 15.66841 3.08041 -1.54848
C 15.73562 2.84518 -3.00539
C 15.96159 1.46527 -3.12055
C 16.01025 0.87838 -1.82722
C 15.54748 3.82927 -4.01648
C 16.15945 0.36994 -4.04239
O 16.30279 0.27495 -5.26066
C 16.04783 -0.99541 -3.23632
C 17.21030 -1.86439 -3.63134
O 18.37429 -1.52965 -3.34903
O 16.74562 -3.04432 -4.08101
C 17.86171 -3.94496 -4.47473
H 14.56305 -2.28346 3.41991
H 15.03908 3.82484 4.63386
H 15.39676 5.07446 -1.50985
H 15.15599 -3.34877 -1.36420
H 15.16525 -3.80858 1.41529
H 13.06699 -2.81412 -0.46846
H 12.90286 -2.23456 1.20232
H 12.89139 -3.94954 0.92239
H 17.39945 -3.42176 0.66738
H 17.80428 -3.00049 -1.03669
H 16.25325 -5.38820 -1.06257
H 17.18413 -5.47898 0.39005
H 15.04974 -2.28911 5.47024
H 14.51484 -1.19019 6.69720
H 16.26219 -1.50009 6.56496
H 15.20364 0.46178 8.02833
H 16.25021 1.84918 8.68145
H 16.91878 0.52875 7.68000
H 15.49540 5.91353 3.24505
H 14.15736 6.19392 0.60161
H 13.43708 6.63985 3.84911
H 12.80031 5.04602 3.31035
H 12.81327 6.34411 2.22850
H 15.93233 7.76728 1.46522
H 16.14790 7.24687 -0.19541
H 17.53265 6.55355 2.29134
H 18.27212 6.95460 0.69849
H 17.57603 5.30747 1.04016
H 16.31503 3.66202 -4.76038
H 15.60234 4.83572 -3.60683
H 14.53739 3.57612 -4.34949
H 15.09056 -1.45041 -3.49359
H 17.68155 -4.24213 -5.51248
H 17.87806 -4.74974 -3.71590
H 18.85277 -3.51260 -4.54756
