79

Mg 31.52522 2.83499 2.40196
C 31.23228 5.55546 4.72409
C 32.45748 0.88150 5.03812
C 32.22629 0.54044 0.32567
C 31.69099 5.20879 -0.14428
N 31.77495 3.27600 4.55496
C 31.57571 4.32994 5.33204
C 31.67609 4.03588 6.85290
C 32.60785 2.72975 6.78429
C 32.23675 2.23790 5.38678
C 34.09354 3.04887 6.79945
C 30.28025 3.71275 7.49262
C 30.25695 3.71986 9.02270
H 29.05621 4.20390 9.69828
N 31.75976 0.88337 2.67536
C 32.11926 0.25897 3.81648
C 32.17181 -1.17477 3.49122
C 31.97467 -1.33052 2.02439
C 32.00058 0.05675 1.60616
C 32.31241 -2.24191 4.53757
C 31.80531 -2.53023 1.14222
O 31.88691 -2.44447 -0.13403
C 31.63416 -3.82353 1.82013
N 32.11601 2.86923 0.40894
C 32.30494 1.72759 -0.27583
C 32.45492 1.99668 -1.75417
C 32.08446 3.54009 -1.94967
C 31.86109 3.93567 -0.47352
C 33.83992 1.72757 -2.34217
C 30.97065 3.87142 -2.98037
C 29.63942 3.35264 -2.48633
N 31.29002 4.97771 2.25539
C 31.42645 5.77353 1.09688
C 31.28864 7.18280 1.51805
C 31.10309 7.10976 2.90683
C 31.14396 5.75211 3.32471
C 31.38890 8.31909 0.66663
C 30.89255 7.87313 4.11582
O 30.68693 9.05935 4.36945
C 31.09313 6.90911 5.36354
C 29.94077 7.12356 6.30619
O 28.78317 6.81894 5.96890
O 30.41974 7.44692 7.52126
C 29.31480 7.65877 8.49391
H 32.97721 0.24058 5.75085
H 32.36320 -0.21880 -0.44782
H 31.63290 6.00244 -0.89222
H 32.16296 4.80983 7.43404
H 32.31909 1.99869 7.53497
H 34.27818 4.11087 6.73448
H 34.51274 2.53882 5.94204
H 34.56648 2.60042 7.67783
H 30.03609 2.65906 7.30588
H 29.52602 4.37639 7.11665
H 31.15245 4.19051 9.44640
H 30.30487 2.68671 9.37529
H 32.60232 -1.81876 5.50726
H 33.16557 -2.86436 4.24684
H 31.42498 -2.87344 4.61702
H 32.49470 -4.01409 2.45703
H 31.43905 -4.54639 1.02560
H 30.76198 -3.75977 2.48032
H 31.76296 1.39363 -2.32916
H 32.94626 4.12419 -2.30458
H 33.82541 1.00593 -3.18068
H 34.48516 1.37527 -1.54839
H 34.37041 2.60962 -2.69680
H 31.16882 3.36479 -3.92811
H 30.88150 4.93128 -3.19425
H 29.65694 2.30113 -2.78817
H 28.81958 3.88643 -2.96276
H 29.58783 3.38056 -1.39171
H 30.58835 8.99037 0.94773
H 31.32257 8.03716 -0.38212
H 32.38746 8.67532 0.93356
H 32.04982 7.16181 5.82231
H 29.44855 8.65941 8.91642
H 29.36637 6.80484 9.19527
H 28.30734 7.72816 8.10066
