79

Mg 10.50413 0.94164 0.80520
C 9.89858 3.63015 3.10396
C 11.70475 -0.84922 3.44829
C 11.46388 -1.27033 -1.25720
C 10.34101 3.28828 -1.76625
N 10.72131 1.43503 2.95035
C 10.40023 2.46443 3.71950
C 10.55429 2.20266 5.24176
C 11.64189 1.02308 5.17406
C 11.31942 0.47264 3.78636
C 13.07580 1.52627 5.16693
C 9.21758 1.71424 5.90257
C 9.21122 1.73582 7.43268
H 7.96707 2.07303 8.11886
N 10.98511 -0.96187 1.09481
C 11.43334 -1.52317 2.23731
C 11.66182 -2.94259 1.92556
C 11.46889 -3.13857 0.46300
C 11.31551 -1.76388 0.03080
C 11.94742 -3.97165 2.98049
C 11.44141 -4.36004 -0.40503
O 11.49686 -4.27928 -1.68301
C 11.44192 -5.65678 0.28775
N 11.06291 1.02701 -1.19550
C 11.38584 -0.08963 -1.87134
C 11.48376 0.17927 -3.35407
C 10.92012 1.66166 -3.56001
C 10.66587 2.04290 -2.08508
C 12.88471 0.07940 -3.95718
C 9.76170 1.83883 -4.57950
C 8.51197 1.16277 -4.06327
N 9.99995 3.03610 0.64055
C 10.02196 3.82948 -0.52742
C 9.71308 5.21503 -0.11844
C 9.55421 5.13513 1.27327
C 9.77012 3.79820 1.70396
C 9.65997 6.34513 -0.98225
C 9.26340 5.87978 2.47727
O 8.91335 7.03364 2.72182
C 9.59788 4.96284 3.73176
C 8.43866 5.04173 4.68702
O 7.32468 4.59043 4.36768
O 8.88721 5.43648 5.89257
C 7.77570 5.51907 6.87723
H 12.30906 -1.41169 4.16056
H 11.68615 -2.01516 -2.02486
H 10.17506 4.05979 -2.52118
H 10.94676 3.03816 5.80893
H 11.45593 0.27017 5.93557
H 13.12481 2.60223 5.08911
H 13.54583 1.06311 4.30926
H 13.61143 1.15075 6.04353
H 9.10557 0.63618 5.72940
H 8.38167 2.27366 5.52981
H 10.04533 2.31993 7.84014
H 9.39261 0.72094 7.79479
H 12.19305 -3.50443 3.94214
H 12.86861 -4.48540 2.68496
H 11.14733 -4.70861 3.07759
H 12.32686 -5.73056 0.91536
H 11.33000 -6.40742 -0.49703
H 10.57631 -5.69544 0.95846
H 10.86644 -0.51236 -3.91413
H 11.69757 2.34520 -3.93174
H 12.95130 -0.64787 -4.78827
H 13.57822 -0.18007 -3.16834
H 13.29608 1.01695 -4.32730
H 10.01099 1.35030 -5.52466
H 9.53766 2.87661 -4.80266
H 8.65795 0.11840 -4.35492
H 7.62613 1.58399 -4.53433
H 8.46992 1.19647 -2.96839
H 8.78474 6.91380 -0.69751
H 9.61749 6.04517 -2.02723
H 10.60889 6.82687 -0.73173
H 10.52047 5.33882 4.17566
H 7.78755 6.53335 7.28808
H 7.94222 4.68642 7.58625
H 6.76303 5.45700 6.49632
