79

Mg 15.75620 1.42198 1.19563
C 14.72046 -1.39643 -0.76979
C 15.00737 3.38270 -1.49313
C 17.07854 3.86258 2.73261
C 17.46153 -0.81542 3.25272
N 14.97147 0.93895 -0.81513
C 14.55657 -0.15964 -1.42776
C 13.85725 0.08926 -2.79105
C 14.52174 1.50727 -3.14682
C 14.82415 1.99728 -1.73221
C 15.83546 1.38408 -3.90067
C 12.29866 0.20421 -2.65115
C 11.52786 0.13826 -3.97148
H 10.22564 -0.52242 -3.98496
N 15.56755 3.37622 0.90595
C 15.23453 4.00005 -0.24349
C 15.25128 5.43933 0.06042
C 15.78167 5.62153 1.43890
C 16.19162 4.26567 1.74496
C 14.71818 6.47677 -0.88453
C 15.91166 6.82035 2.32891
O 16.62015 6.79262 3.39667
C 15.26143 8.05472 1.86519
N 17.24849 1.53780 2.63854
C 17.59765 2.71855 3.17875
C 18.48837 2.52546 4.38280
C 18.46810 0.95512 4.68478
C 17.60255 0.48017 3.49708
C 19.93445 2.99400 4.22249
C 18.05890 0.51937 6.11843
C 16.60181 0.84191 6.35974
N 15.90707 -0.72633 1.36902
C 16.69817 -1.45475 2.28424
C 16.55768 -2.88440 1.93958
C 15.70606 -2.88692 0.82458
C 15.35769 -1.55169 0.48503
C 17.21149 -3.96609 2.59425
C 15.03110 -3.71484 -0.14891
O 14.88523 -4.92620 -0.30718
C 14.46427 -2.77911 -1.30195
C 13.03710 -3.17614 -1.56284
O 12.16603 -3.01281 -0.69039
O 12.89507 -3.47850 -2.86622
C 11.49365 -3.86786 -3.17644
H 15.02058 4.05941 -2.34798
H 17.47670 4.66092 3.36316
H 17.88316 -1.58203 3.90632
H 14.09262 -0.63537 -3.56131
H 13.80831 2.16658 -3.63436
H 16.16583 0.35828 -3.96946
H 16.55065 1.97536 -3.34395
H 15.75229 1.85795 -4.88295
H 12.04179 1.22322 -2.33432
H 11.92107 -0.53785 -1.97484
H 12.15260 -0.22687 -4.79569
H 11.26024 1.15529 -4.26823
H 14.54701 6.05987 -1.88468
H 15.51389 7.21526 -1.03062
H 13.83209 6.98398 -0.49691
H 15.66450 8.33237 0.89415
H 15.38883 8.77452 2.67607
H 14.19448 7.85381 1.71729
H 18.09582 3.05382 5.24294
H 19.46123 0.50163 4.55102
H 20.23912 3.73773 4.98283
H 20.05383 3.39814 3.22602
H 20.68129 2.20212 4.24164
H 18.62859 1.08176 6.86229
H 18.22639 -0.53455 6.31387
H 16.62709 1.89705 6.64804
H 16.20002 0.22362 7.15994
H 16.02331 0.76756 5.43159
H 16.47223 -4.74575 2.72127
H 17.63257 -3.65710 3.54871
H 17.98695 -4.19870 1.85953
H 15.09584 -2.92161 -2.17966
H 11.53266 -4.85731 -3.64244
H 11.08137 -3.04067 -3.78434
H 10.82847 -4.05350 -2.34127
