158

Mg 0.00000 0.00000 0.00000
C -0.21700 -2.21800 2.80100
C -1.25500 2.44200 2.02600
C -0.24500 1.85000 -2.56400
C 0.14600 -2.82400 -2.03700
N -0.61700 -0.00900 2.12600
C -0.59400 -0.90800 3.10500
C -0.93600 -0.30900 4.50200
C -1.77300 0.96400 4.03200
C -1.15500 1.16800 2.66000
C -3.26300 0.68500 3.86300
C 0.34500 0.11000 5.29900
C 0.12400 0.39700 6.78700
H 1.16800 0.03300 7.73300
N -0.18500 1.96100 -0.15200
C -0.70300 2.80000 0.77700
C -0.62000 4.15600 0.19300
C -0.18700 4.01500 -1.22500
C -0.21400 2.58300 -1.38000
C -0.88700 5.40600 0.97400
C 0.18100 5.01300 -2.27700
O 0.30300 4.69000 -3.50800
C 0.31000 6.41400 -1.83700
N -0.26500 -0.41300 -2.02900
C -0.27900 0.56900 -2.93700
C -0.19600 0.02400 -4.33200
C 0.12400 -1.53300 -4.18000
C 0.08600 -1.63200 -2.63500
C -1.45100 0.20500 -5.19700
C 1.37300 -2.07000 -4.92300
C 2.62600 -1.49000 -4.30600
N 0.15000 -2.14400 0.30300
C 0.17300 -3.13600 -0.68800
C 0.17300 -4.43800 0.00400
C 0.13300 -4.11100 1.35800
C 0.08300 -2.69500 1.50200
C 0.14900 -5.71500 -0.62300
C 0.09600 -4.62900 2.71600
O 0.20800 -5.74700 3.22100
C -0.25500 -3.42800 3.70100
C 0.71700 -3.48200 4.84800
O 1.93100 -3.25500 4.66900
O 0.03800 -3.55600 6.00300
C 0.94300 -3.58300 7.18300
H -1.85900 3.22000 2.49700
H -0.21800 2.45300 -3.47400
H 0.27600 -3.74700 -2.60500
H -1.55400 -0.94900 5.13200
H -1.58500 1.83100 4.66500
H -3.48400 -0.37700 3.96900
H -3.51100 1.02700 2.85800
H -3.85200 1.30100 4.54300
H 0.66900 1.09600 4.96600
H 1.13000 -0.63900 5.18900
H -0.84400 0.02600 7.12500
H 0.06200 1.47700 6.92100
H -1.34400 5.18600 1.93800
H -1.65100 5.96300 0.43200
H 0.00700 6.02000 1.08400
H -0.63500 6.74400 -1.40500
H 0.66500 6.97000 -2.70400
H 1.04800 6.46600 -1.03600
H 0.60800 0.50100 -4.89100
H -0.69200 -2.15600 -4.54700
H -1.26700 0.74000 -6.12900
H -2.20400 0.71400 -4.59600
H -1.96700 -0.72000 -5.45300
H 1.35600 -1.75900 -5.96700
H 1.45200 -3.15700 -4.90200
H 2.71400 -0.52200 -4.79800
H 3.48700 -2.12100 -4.52900
H 2.49500 -1.30300 -3.24000
H 0.86700 -6.33300 -0.08400
H 0.40400 -5.64200 -1.68000
H -0.89100 -5.99900 -0.46300
H -1.28300 -3.58100 4.02800
H 0.69800 -4.47800 7.75500
H 0.83300 -2.61900 7.68000
H 2.00000 -3.75400 6.97600
Mg 31.53256 2.83880 2.39533
C 31.72565 -0.50445 1.13136
C 30.54587 1.49711 5.37347
C 30.91816 5.78496 3.39499
C 31.42307 3.92618 -0.91395
N 31.21508 0.74701 3.04669
C 31.38166 -0.44567 2.48371
C 31.23006 -1.62865 3.48618
C 30.32399 -0.91257 4.58540
C 30.74467 0.52687 4.34675
C 28.82768 -1.03787 4.31735
C 32.60473 -2.08168 4.08347
C 32.58853 -3.42865 4.81201
H 33.75658 -4.29104 4.71562
N 31.30951 3.55063 4.22464
C 30.91668 2.85820 5.32078
C 30.90523 3.83067 6.43471
C 31.13966 5.18427 5.85946
C 31.10528 4.89366 4.44888
C 30.73661 3.43599 7.86982
C 31.34929 6.52836 6.48204
O 31.30328 7.60862 5.79977
C 31.52433 6.55438 7.94550
N 30.99396 4.59279 1.39980
C 30.84531 5.74479 2.06295
C 30.74016 6.90740 1.12102
C 31.09303 6.33594 -0.32767
C 31.26964 4.84301 0.04415
C 29.37608 7.60961 1.07427
C 32.23259 7.04253 -1.10390
C 33.55314 6.80429 -0.40641
N 31.74355 1.92441 0.43818
C 31.63905 2.56250 -0.80625
C 31.74709 1.51561 -1.83893
C 31.89126 0.33153 -1.11851
C 31.84801 0.61732 0.27603
C 31.64903 1.71768 -3.24392
C 32.04707 -1.11158 -1.20235
O 32.23846 -1.91128 -2.11960
C 31.82389 -1.72487 0.25019
C 32.94541 -2.69282 0.51210
O 34.12083 -2.29199 0.63489
O 32.43311 -3.89637 0.81134
C 33.49256 -4.89630 1.11110
H 30.00523 1.20683 6.27646
H 30.81348 6.82970 3.69498
H 31.48227 4.20038 -1.96882
H 30.71113 -2.49985 3.08599
H 30.58924 -1.22229 5.59606
H 28.63364 -1.48891 3.34430
H 28.44003 -0.01943 4.34899
H 28.33230 -1.57236 5.12834
H 32.87017 -1.42559 4.91241
H 33.37419 -2.09893 3.31084
H 31.68007 -3.99000 4.59177
H 32.53525 -3.23669 5.88369
H 30.41920 2.39835 7.96518
H 29.89978 4.01321 8.26258
H 31.63129 3.63817 8.45889
H 30.64489 6.11951 8.42092
H 31.75088 7.58844 8.20291
H 32.36531 5.91353 8.21197
H 31.45467 7.68730 1.38113
H 30.24020 6.38403 -1.00519
H 29.42450 8.67565 1.29769
H 28.70840 7.09524 1.76486
H 28.83859 7.50194 0.13250
H 32.06864 8.11945 -1.12110
H 32.32418 6.70447 -2.13617
H 33.56307 7.57323 0.36524
H 34.38114 6.93959 -1.10307
H 33.56877 5.83737 0.09688
H 32.44047 1.11866 -3.69421
H 31.75495 2.77145 -3.50075
H 30.64386 1.34093 -3.43244
H 30.85240 -2.21796 0.23639
H 33.33749 -5.73976 0.43822
H 33.44297 -5.08841 2.18303
H 34.51246 -4.61057 0.85127
