79

Mg 8.93394 0.80679 0.66837
C 11.14286 -1.67862 -0.68163
C 11.06153 3.16173 -0.58152
C 7.25704 3.00484 2.22529
C 7.63748 -1.67338 2.74530
N 10.82460 0.63909 -0.46721
C 11.53501 -0.35617 -0.97624
C 12.68646 0.09065 -1.91650
C 12.90272 1.57506 -1.34324
C 11.50172 1.83044 -0.79128
C 13.88935 1.63665 -0.18907
C 12.25188 0.11473 -3.42401
C 13.40381 0.24126 -4.42341
H 13.29887 -0.46162 -5.69911
N 8.83999 2.77219 0.40968
C 9.78459 3.56730 -0.13513
C 9.24242 4.93365 -0.07764
C 7.97088 4.90164 0.69493
C 7.98429 3.53193 1.16801
C 9.88110 6.09297 -0.78582
C 6.92341 5.93664 0.97381
O 6.02122 5.75806 1.86655
C 7.04082 7.20336 0.23684
N 7.78381 0.73885 2.39896
C 7.11742 1.82454 2.82922
C 6.14472 1.46769 3.92781
C 6.12243 -0.13056 3.97947
C 7.20027 -0.43320 2.91548
C 6.47719 2.01687 5.31498
C 4.73696 -0.81980 3.84495
C 4.18619 -0.60425 2.45370
N 9.16756 -1.33158 0.87057
C 8.54999 -2.17075 1.82371
C 9.10778 -3.52591 1.63702
C 10.03537 -3.37511 0.59522
C 10.06901 -2.01746 0.17673
C 8.77951 -4.67452 2.41099
C 11.00144 -4.05362 -0.23847
O 11.33974 -5.22566 -0.39846
C 11.85329 -2.96060 -1.01696
C 11.91959 -3.36718 -2.46361
O 10.89038 -3.39079 -3.16131
O 13.20889 -3.44992 -2.83943
C 13.32622 -3.83950 -4.26991
H 11.77366 3.97350 -0.73245
H 6.57862 3.70073 2.72424
H 7.21374 -2.52132 3.28763
H 13.60073 -0.48241 -1.81913
H 13.13213 2.27695 -2.14079
H 14.19393 0.65214 0.13357
H 13.37528 2.15449 0.61006
H 14.74297 2.26626 -0.45605
H 11.72149 1.05360 -3.62880
H 11.65878 -0.74642 -3.66335
H 14.37738 0.04766 -3.95691
H 13.46595 1.28173 -4.75140
H 10.89155 5.84482 -1.13342
H 10.03629 6.87826 -0.03809
H 9.25871 6.48951 -1.59083
H 8.00481 7.65826 0.45189
H 6.15300 7.78000 0.50356
H 7.02801 6.98585 -0.83700
H 5.14948 1.82566 3.69446
H 6.50882 -0.51275 4.93575
H 5.66588 2.63308 5.74642
H 7.39297 2.58872 5.24521
H 6.73041 1.26525 6.06073
H 4.02067 -0.36824 4.53573
H 4.76143 -1.88363 4.05630
H 3.72763 0.38688 2.52065
H 3.44721 -1.36554 2.21205
H 4.99428 -0.54440 1.71542
H 8.66007 -5.49474 1.71568
H 7.87686 -4.51440 2.99696
H 9.67032 -4.74648 3.04072
H 12.84109 -2.92563 -0.55585
H 13.95690 -4.73312 -4.30696
H 13.69682 -2.93928 -4.79527
H 12.43080 -4.19177 -4.76849
