79

Mg 8.94169 0.80588 0.68604
C 7.65728 -1.18413 3.38219
C 8.74473 3.49503 2.77512
C 9.64086 2.65791 -1.79359
C 7.96968 -1.74756 -1.47750
N 8.27214 1.00315 2.78486
C 7.86349 0.16768 3.72791
C 7.74157 0.80127 5.13974
C 7.54715 2.33342 4.69975
C 8.26132 2.29271 3.35032
C 6.09480 2.71115 4.46031
C 9.04300 0.61000 5.99514
C 8.88684 0.92890 7.48366
H 9.63422 0.12791 8.44922
N 9.62220 2.66918 0.62629
C 9.47159 3.62116 1.57092
C 10.13594 4.82213 1.04131
C 10.54776 4.54980 -0.36260
C 9.92073 3.26084 -0.57593
C 10.39569 6.04296 1.87529
C 11.35949 5.32736 -1.35390
O 11.39225 5.00879 -2.59498
C 12.04013 6.52759 -0.84628
N 8.63400 0.59873 -1.35963
C 9.08241 1.52630 -2.22360
C 8.99206 1.03374 -3.64825
C 8.61349 -0.51653 -3.54363
C 8.45611 -0.63578 -2.01184
C 7.97248 1.74758 -4.53553
C 9.54967 -1.52022 -4.27085
C 10.90294 -1.54458 -3.59747
N 8.15762 -1.19642 0.89601
C 7.79548 -2.08377 -0.14109
C 7.20642 -3.27985 0.49518
C 7.24596 -2.99334 1.86807
C 7.80064 -1.70093 2.07180
C 6.68124 -4.41242 -0.18862
C 6.93481 -3.48595 3.19065
O 6.52887 -4.55419 3.64652
C 7.07081 -2.28449 4.22235
C 7.87224 -2.77083 5.39866
O 9.06701 -3.08771 5.26185
O 7.16344 -2.57593 6.52560
C 7.92118 -3.03259 7.72105
H 8.51011 4.43789 3.26995
H 9.96523 3.21003 -2.67870
H 7.73238 -2.62847 -2.07780
H 6.88595 0.46812 5.71480
H 8.05841 3.00807 5.38153
H 5.44161 1.85271 4.51109
H 6.06447 3.15174 3.47238
H 5.79197 3.50207 5.15246
H 9.77289 1.37990 5.71362
H 9.43413 -0.38183 5.87717
H 7.83377 1.00495 7.78064
H 9.29031 1.92737 7.66882
H 9.83331 6.01410 2.81672
H 9.97407 6.89624 1.33308
H 11.46031 6.22088 2.04141
H 11.30415 7.21110 -0.42963
H 12.64048 6.89758 -1.67969
H 12.69903 6.23369 -0.02161
H 9.94627 1.12927 -4.15170
H 7.62477 -0.72474 -3.97828
H 8.41911 2.18619 -5.44779
H 7.48321 2.51185 -3.94644
H 7.13382 1.13432 -4.86076
H 9.72146 -1.19949 -5.30127
H 9.15405 -2.52967 -4.30949
H 11.41574 -0.68689 -4.04298
H 11.42389 -2.47411 -3.81802
H 10.81106 -1.35167 -2.52230
H 7.03496 -5.28725 0.34059
H 6.99048 -4.42575 -1.23167
H 5.60944 -4.22577 -0.08059
H 6.06258 -1.98399 4.51002
H 7.28619 -3.75310 8.24578
H 8.19778 -2.11224 8.26895
H 8.81514 -3.62167 7.55290
