79

Mg 8.94162 0.80638 0.68598
C 7.80102 -1.24554 3.40034
C 8.58829 3.48932 2.76243
C 9.50811 2.68500 -1.80747
C 8.11935 -1.81503 -1.45826
N 8.27348 0.97275 2.78793
C 7.92383 0.11845 3.73781
C 7.77068 0.75090 5.14710
C 7.47764 2.26534 4.70048
C 8.18491 2.26218 3.34681
C 6.00300 2.54966 4.46824
C 9.08663 0.64658 5.99528
C 8.91957 0.96324 7.48309
H 9.72160 0.21619 8.44804
N 9.50318 2.70844 0.61239
C 9.29859 3.65426 1.55305
C 9.88289 4.89169 1.01311
C 10.30268 4.63805 -0.39194
C 9.75673 3.31105 -0.59470
C 10.07028 6.13102 1.83916
C 11.05797 5.45964 -1.39231
O 11.10332 5.13690 -2.63191
C 11.66475 6.70307 -0.89514
N 8.63541 0.56900 -1.35662
C 9.01942 1.51816 -2.22815
C 8.95178 1.01302 -3.64964
C 8.67212 -0.55738 -3.53469
C 8.53167 -0.67783 -2.00135
C 7.88404 1.65642 -4.53416
C 9.66525 -1.50421 -4.26261
C 11.02136 -1.43970 -3.59763
N 8.28635 -1.24007 0.91116
C 7.97460 -2.15415 -0.11907
C 7.46576 -3.38137 0.52702
C 7.49536 -3.08537 1.89815
C 7.96883 -1.75953 2.09175
C 7.00882 -4.54849 -0.14764
C 7.22369 -3.58926 3.22517
O 6.88848 -4.67838 3.68906
C 7.28996 -2.37595 4.24981
C 8.12739 -2.80442 5.42354
O 9.33889 -3.04629 5.28085
O 7.41444 -2.64826 6.55390
C 8.20651 -3.04976 7.74689
H 8.29775 4.41827 3.25387
H 9.79183 3.25153 -2.69743
H 7.93438 -2.71242 -2.05252
H 6.94115 0.36779 5.72923
H 7.94948 2.97456 5.37556
H 5.40543 1.65215 4.52752
H 5.93912 2.98201 3.47827
H 5.65512 3.32378 5.15820
H 9.76495 1.45929 5.70522
H 9.53869 -0.31932 5.87995
H 7.86559 0.97456 7.78630
H 9.26052 1.98612 7.66059
H 9.51643 6.07206 2.78424
H 9.59258 6.95310 1.29523
H 11.12256 6.37646 1.99767
H 10.88971 7.34124 -0.47739
H 12.23565 7.10548 -1.73420
H 12.34573 6.45575 -0.07313
H 9.89507 1.16559 -4.15957
H 7.69590 -0.82975 -3.96204
H 8.29675 2.11721 -5.45145
H 7.35116 2.39166 -3.94594
H 7.08371 0.98986 -4.85096
H 9.81039 -1.17900 -5.29573
H 9.33371 -2.53674 -4.29358
H 11.47652 -0.55393 -4.05076
H 11.59844 -2.33583 -3.81668
H 10.92393 -1.24701 -2.52291
H 7.42002 -5.39641 0.38383
H 7.31208 -4.54810 -1.19253
H 5.92806 -4.42901 -0.03384
H 6.26655 -2.13787 4.54226
H 7.62125 -3.80587 8.27930
H 8.42791 -2.11083 8.28831
H 9.13475 -3.58238 7.57616
