158

Mg 0.00000 0.00000 0.00000
C -0.21700 -2.21800 2.80100
C -1.25500 2.44200 2.02600
C -0.24500 1.85000 -2.56400
C 0.14600 -2.82400 -2.03700
N -0.61700 -0.00900 2.12600
C -0.59400 -0.90800 3.10500
C -0.93600 -0.30900 4.50200
C -1.77300 0.96400 4.03200
C -1.15500 1.16800 2.66000
C -3.26300 0.68500 3.86300
C 0.34500 0.11000 5.29900
C 0.12400 0.39700 6.78700
H 1.16800 0.03300 7.73300
N -0.18500 1.96100 -0.15200
C -0.70300 2.80000 0.77700
C -0.62000 4.15600 0.19300
C -0.18700 4.01500 -1.22500
C -0.21400 2.58300 -1.38000
C -0.88700 5.40600 0.97400
C 0.18100 5.01300 -2.27700
O 0.30300 4.69000 -3.50800
C 0.31000 6.41400 -1.83700
N -0.26500 -0.41300 -2.02900
C -0.27900 0.56900 -2.93700
C -0.19600 0.02400 -4.33200
C 0.12400 -1.53300 -4.18000
C 0.08600 -1.63200 -2.63500
C -1.45100 0.20500 -5.19700
C 1.37300 -2.07000 -4.92300
C 2.62600 -1.49000 -4.30600
N 0.15000 -2.14400 0.30300
C 0.17300 -3.13600 -0.68800
C 0.17300 -4.43800 0.00400
C 0.13300 -4.11100 1.35800
C 0.08300 -2.69500 1.50200
C 0.14900 -5.71500 -0.62300
C 0.09600 -4.62900 2.71600
O 0.20800 -5.74700 3.22100
C -0.25500 -3.42800 3.70100
C 0.71700 -3.48200 4.84800
O 1.93100 -3.25500 4.66900
O 0.03800 -3.55600 6.00300
C 0.94300 -3.58300 7.18300
H -1.85900 3.22000 2.49700
H -0.21800 2.45300 -3.47400
H 0.27600 -3.74700 -2.60500
H -1.55400 -0.94900 5.13200
H -1.58500 1.83100 4.66500
H -3.48400 -0.37700 3.96900
H -3.51100 1.02700 2.85800
H -3.85200 1.30100 4.54300
H 0.66900 1.09600 4.96600
H 1.13000 -0.63900 5.18900
H -0.84400 0.02600 7.12500
H 0.06200 1.47700 6.92100
H -1.34400 5.18600 1.93800
H -1.65100 5.96300 0.43200
H 0.00700 6.02000 1.08400
H -0.63500 6.74400 -1.40500
H 0.66500 6.97000 -2.70400
H 1.04800 6.46600 -1.03600
H 0.60800 0.50100 -4.89100
H -0.69200 -2.15600 -4.54700
H -1.26700 0.74000 -6.12900
H -2.20400 0.71400 -4.59600
H -1.96700 -0.72000 -5.45300
H 1.35600 -1.75900 -5.96700
H 1.45200 -3.15700 -4.90200
H 2.71400 -0.52200 -4.79800
H 3.48700 -2.12100 -4.52900
H 2.49500 -1.30300 -3.24000
H 0.86700 -6.33300 -0.08400
H 0.40400 -5.64200 -1.68000
H -0.89100 -5.99900 -0.46300
H -1.28300 -3.58100 4.02800
H 0.69800 -4.47800 7.75500
H 0.83300 -2.61900 7.68000
H 2.00000 -3.75400 6.97600
Mg 31.53975 2.84450 2.39002
C 30.93562 6.11824 3.73044
C 30.77458 4.12277 -0.67839
C 31.62399 -0.11400 1.24650
C 31.13736 1.59938 5.62010
N 30.94764 4.87345 1.73810
C 30.81078 6.05190 2.32707
C 30.60340 7.23946 1.34918
C 30.00669 6.42257 0.10198
C 30.63975 5.06008 0.37677
C 28.49594 6.26618 0.15232
C 31.95194 7.95049 0.97787
C 31.79477 9.30175 0.27705
H 32.76740 10.35232 0.56473
N 31.72383 2.19354 0.52429
C 31.38502 2.85147 -0.60426
C 31.69729 1.93612 -1.71276
C 32.09398 0.62185 -1.13826
C 31.80292 0.84814 0.26323
C 31.68161 2.36503 -3.15123
C 32.63255 -0.63550 -1.75080
O 32.68275 -1.73588 -1.09546
C 33.01250 -0.56318 -3.16922
N 31.19268 0.98720 3.25739
C 31.34866 -0.14591 2.55053
C 31.31467 -1.35873 3.44959
C 31.34555 -0.78746 4.94300
C 31.29999 0.72554 4.63617
C 30.10493 -2.27777 3.28144
C 32.46735 -1.31886 5.87673
C 33.81477 -0.83356 5.39264
N 31.29819 3.68945 4.36378
C 31.12059 2.98761 5.57621
C 30.88516 3.99424 6.63151
C 30.91950 5.22043 5.95049
C 31.13930 4.99279 4.56508
C 30.62956 3.71648 8.00397
C 30.80920 6.65497 6.08691
O 30.70943 7.43227 7.03537
C 30.68869 7.29278 4.63602
C 31.64461 8.45145 4.55712
O 32.87231 8.26339 4.62018
O 30.96669 9.55871 4.20389
C 31.87385 10.73279 4.10173
H 30.33445 4.36430 -1.64630
H 31.75386 -1.14918 0.92244
H 31.10055 1.29733 6.66895
H 29.88942 7.98302 1.68251
H 30.36437 6.82583 -0.84185
H 28.08407 6.62936 1.08216
H 28.30609 5.20647 0.04274
H 28.03812 6.74591 -0.71750
H 32.44878 7.38222 0.18103
H 32.57447 8.06296 1.84415
H 30.77279 9.69159 0.35786
H 31.94175 9.15541 -0.79579
H 31.19243 3.33905 -3.27525
H 31.03167 1.66452 -3.68671
H 32.67372 2.34582 -3.60733
H 32.14950 -0.26435 -3.75947
H 33.45761 -1.53242 -3.40230
H 33.76456 0.22447 -3.29023
H 32.18749 -1.98068 3.29314
H 30.42104 -1.02527 5.48941
H 30.38024 -3.32246 3.04294
H 29.46853 -1.86647 2.50920
H 29.43316 -2.31815 4.13719
H 32.50096 -2.41065 5.84500
H 32.33804 -1.03067 6.91462
H 34.07148 -1.55610 4.61218
H 34.54189 -0.85175 6.20197
H 33.73091 0.15022 4.91640
H 31.21867 4.41872 8.57870
H 30.87971 2.68773 8.25470
H 29.55213 3.89797 8.04233
H 29.65290 7.60668 4.50115
H 31.46837 11.50800 4.75923
H 31.93606 10.96927 3.02286
H 32.87805 10.62597 4.49494
