158

Mg 0.00000 0.00000 0.00000
C -0.21700 -2.21800 2.80100
C -1.25500 2.44200 2.02600
C -0.24500 1.85000 -2.56400
C 0.14600 -2.82400 -2.03700
N -0.61700 -0.00900 2.12600
C -0.59400 -0.90800 3.10500
C -0.93600 -0.30900 4.50200
C -1.77300 0.96400 4.03200
C -1.15500 1.16800 2.66000
C -3.26300 0.68500 3.86300
C 0.34500 0.11000 5.29900
C 0.12400 0.39700 6.78700
H 1.16800 0.03300 7.73300
N -0.18500 1.96100 -0.15200
C -0.70300 2.80000 0.77700
C -0.62000 4.15600 0.19300
C -0.18700 4.01500 -1.22500
C -0.21400 2.58300 -1.38000
C -0.88700 5.40600 0.97400
C 0.18100 5.01300 -2.27700
O 0.30300 4.69000 -3.50800
C 0.31000 6.41400 -1.83700
N -0.26500 -0.41300 -2.02900
C -0.27900 0.56900 -2.93700
C -0.19600 0.02400 -4.33200
C 0.12400 -1.53300 -4.18000
C 0.08600 -1.63200 -2.63500
C -1.45100 0.20500 -5.19700
C 1.37300 -2.07000 -4.92300
C 2.62600 -1.49000 -4.30600
N 0.15000 -2.14400 0.30300
C 0.17300 -3.13600 -0.68800
C 0.17300 -4.43800 0.00400
C 0.13300 -4.11100 1.35800
C 0.08300 -2.69500 1.50200
C 0.14900 -5.71500 -0.62300
C 0.09600 -4.62900 2.71600
O 0.20800 -5.74700 3.22100
C -0.25500 -3.42800 3.70100
C 0.71700 -3.48200 4.84800
O 1.93100 -3.25500 4.66900
O 0.03800 -3.55600 6.00300
C 0.94300 -3.58300 7.18300
H -1.85900 3.22000 2.49700
H -0.21800 2.45300 -3.47400
H 0.27600 -3.74700 -2.60500
H -1.55400 -0.94900 5.13200
H -1.58500 1.83100 4.66500
H -3.48400 -0.37700 3.96900
H -3.51100 1.02700 2.85800
H -3.85200 1.30100 4.54300
H 0.66900 1.09600 4.96600
H 1.13000 -0.63900 5.18900
H -0.84400 0.02600 7.12500
H 0.06200 1.47700 6.92100
H -1.34400 5.18600 1.93800
H -1.65100 5.96300 0.43200
H 0.00700 6.02000 1.08400
H -0.63500 6.74400 -1.40500
H 0.66500 6.97000 -2.70400
H 1.04800 6.46600 -1.03600
H 0.60800 0.50100 -4.89100
H -0.69200 -2.15600 -4.54700
H -1.26700 0.74000 -6.12900
H -2.20400 0.71400 -4.59600
H -1.96700 -0.72000 -5.45300
H 1.35600 -1.75900 -5.96700
H 1.45200 -3.15700 -4.90200
H 2.71400 -0.52200 -4.79800
H 3.48700 -2.12100 -4.52900
H 2.49500 -1.30300 -3.24000
H 0.86700 -6.33300 -0.08400
H 0.40400 -5.64200 -1.68000
H -0.89100 -5.99900 -0.46300
H -1.28300 -3.58100 4.02800
H 0.69800 -4.47800 7.75500
H 0.83300 -2.61900 7.68000
H 2.00000 -3.75400 6.97600
Mg 15.76628 1.41940 1.19766
C 15.41222 4.53850 -0.52225
C 15.25177 -0.12301 -1.80222
C 15.62224 -1.33540 2.76193
C 15.12314 3.14624 4.15571
N 15.39266 2.21520 -0.83403
C 15.34036 3.43069 -1.36975
C 15.27784 3.41759 -2.92644
C 14.66726 1.96057 -3.14159
C 15.16214 1.29923 -1.86737
C 13.14222 1.93397 -3.14845
C 16.69506 3.54701 -3.57949
C 16.69765 3.86928 -5.07665
H 17.74323 4.73213 -5.60543
N 15.96272 -0.43542 0.54658
C 15.72650 -0.88173 -0.71051
C 16.01614 -2.33168 -0.68939
C 16.25679 -2.72704 0.72620
C 15.92685 -1.50460 1.41334
C 16.09076 -3.17395 -1.92582
C 16.70181 -4.00702 1.36001
O 16.62329 -4.20507 2.62064
C 17.15557 -5.07010 0.44513
N 15.20691 0.92023 3.14589
C 15.29226 -0.33959 3.58698
C 15.11360 -0.41053 5.07459
C 15.12958 1.09925 5.59425
C 15.23916 1.81827 4.22704
C 13.83461 -1.10475 5.56270
C 16.15819 1.45226 6.69778
C 17.56101 1.35874 6.14062
N 15.51535 3.49624 1.77628
C 15.23221 3.98564 3.05963
C 15.04585 5.44296 2.93483
C 15.21827 5.69944 1.57603
C 15.46884 4.47612 0.89120
C 14.69904 6.33215 3.99006
C 15.22472 6.71915 0.53969
O 15.16414 7.94950 0.53337
C 15.22969 5.99313 -0.87759
C 16.28893 6.64928 -1.72067
O 17.49730 6.54105 -1.42829
O 15.73732 7.09578 -2.85949
C 16.74028 7.73180 -3.75486
H 14.87025 -0.71469 -2.63667
H 15.67135 -2.24891 3.35820
H 15.00358 3.76235 5.04878
H 14.61566 4.16663 -3.36104
H 15.09225 1.46611 -4.01487
H 12.72562 2.90327 -2.87491
H 12.86100 1.17805 -2.41497
H 12.76535 1.57623 -4.10697
H 17.17228 2.56726 -3.59979
H 17.29753 4.28630 -3.05052
H 15.71709 4.20701 -5.41335
H 16.86813 2.94284 -5.62514
H 15.70549 -2.64340 -2.79567
H 15.40003 -4.00539 -1.78685
H 17.09620 -3.55675 -2.10154
H 16.34801 -5.32197 -0.24260
H 17.51929 -5.87770 1.07943
H 17.97092 -4.68441 -0.16757
H 15.93189 -0.95754 5.54108
H 14.17060 1.39542 6.02008
H 14.02060 -1.94408 6.23325
H 13.26809 -1.42152 4.68749
H 13.11921 -0.44894 6.05822
H 16.09150 0.74054 7.51995
H 16.01955 2.45110 7.11171
H 17.78769 0.29682 6.22885
H 18.24897 1.95591 6.74005
H 17.58575 1.61020 5.08013
H 15.33243 7.21087 3.86906
H 14.84813 5.86753 4.96448
H 13.64664 6.50826 3.76805
H 14.23321 6.12157 -1.29909
H 16.38397 8.73889 -3.97179
H 16.87987 7.05237 -4.59587
H 17.71300 7.94861 -3.31197
