158

Mg 0.00000 0.00000 0.00000
C -0.21700 -2.21800 2.80100
C -1.25500 2.44200 2.02600
C -0.24500 1.85000 -2.56400
C 0.14600 -2.82400 -2.03700
N -0.61700 -0.00900 2.12600
C -0.59400 -0.90800 3.10500
C -0.93600 -0.30900 4.50200
C -1.77300 0.96400 4.03200
C -1.15500 1.16800 2.66000
C -3.26300 0.68500 3.86300
C 0.34500 0.11000 5.29900
C 0.12400 0.39700 6.78700
H 1.16800 0.03300 7.73300
N -0.18500 1.96100 -0.15200
C -0.70300 2.80000 0.77700
C -0.62000 4.15600 0.19300
C -0.18700 4.01500 -1.22500
C -0.21400 2.58300 -1.38000
C -0.88700 5.40600 0.97400
C 0.18100 5.01300 -2.27700
O 0.30300 4.69000 -3.50800
C 0.31000 6.41400 -1.83700
N -0.26500 -0.41300 -2.02900
C -0.27900 0.56900 -2.93700
C -0.19600 0.02400 -4.33200
C 0.12400 -1.53300 -4.18000
C 0.08600 -1.63200 -2.63500
C -1.45100 0.20500 -5.19700
C 1.37300 -2.07000 -4.92300
C 2.62600 -1.49000 -4.30600
N 0.15000 -2.14400 0.30300
C 0.17300 -3.13600 -0.68800
C 0.17300 -4.43800 0.00400
C 0.13300 -4.11100 1.35800
C 0.08300 -2.69500 1.50200
C 0.14900 -5.71500 -0.62300
C 0.09600 -4.62900 2.71600
O 0.20800 -5.74700 3.22100
C -0.25500 -3.42800 3.70100
C 0.71700 -3.48200 4.84800
O 1.93100 -3.25500 4.66900
O 0.03800 -3.55600 6.00300
C 0.94300 -3.58300 7.18300
H -1.85900 3.22000 2.49700
H -0.21800 2.45300 -3.47400
H 0.27600 -3.74700 -2.60500
H -1.55400 -0.94900 5.13200
H -1.58500 1.83100 4.66500
H -3.48400 -0.37700 3.96900
H -3.51100 1.02700 2.85800
H -3.85200 1.30100 4.54300
H 0.66900 1.09600 4.96600
H 1.13000 -0.63900 5.18900
H -0.84400 0.02600 7.12500
H 0.06200 1.47700 6.92100
H -1.34400 5.18600 1.93800
H -1.65100 5.96300 0.43200
H 0.00700 6.02000 1.08400
H -0.63500 6.74400 -1.40500
H 0.66500 6.97000 -2.70400
H 1.04800 6.46600 -1.03600
H 0.60800 0.50100 -4.89100
H -0.69200 -2.15600 -4.54700
H -1.26700 0.74000 -6.12900
H -2.20400 0.71400 -4.59600
H -1.96700 -0.72000 -5.45300
H 1.35600 -1.75900 -5.96700
H 1.45200 -3.15700 -4.90200
H 2.71400 -0.52200 -4.79800
H 3.48700 -2.12100 -4.52900
H 2.49500 -1.30300 -3.24000
H 0.86700 -6.33300 -0.08400
H 0.40400 -5.64200 -1.68000
H -0.89100 -5.99900 -0.46300
H -1.28300 -3.58100 4.02800
H 0.69800 -4.47800 7.75500
H 0.83300 -2.61900 7.68000
H 2.00000 -3.75400 6.97600
Mg 15.76628 1.41940 1.19766
C 15.15391 4.48403 2.94273
C 14.95505 3.06781 -1.67770
C 15.85837 -1.37378 -0.30110
C 15.41860 -0.21870 4.25404
N 15.15115 3.51038 0.81029
C 15.01262 4.60065 1.55815
C 14.77738 5.89578 0.72466
C 14.17902 5.23819 -0.59880
C 14.82728 3.86828 -0.50384
C 12.66367 5.06805 -0.56312
C 16.10982 6.66386 0.43076
C 15.93849 8.09393 -0.08972
H 16.89931 9.10758 0.31857
N 15.92996 1.00269 -0.72650
C 15.56510 1.79747 -1.76114
C 15.88731 1.04051 -2.98991
C 16.29284 -0.33398 -2.58443
C 16.01453 -0.29755 -1.17142
C 15.84234 1.64065 -4.36161
C 16.83390 -1.49930 -3.35086
O 16.90070 -2.67260 -2.84740
C 17.20633 -1.24651 -4.75458
N 15.43860 -0.54288 1.82990
C 15.60040 -1.57362 0.99302
C 15.59019 -2.88088 1.72848
C 15.63054 -2.51436 3.28212
C 15.57120 -0.97152 3.16223
C 14.38920 -3.79555 1.45095
C 16.76761 -3.14554 4.12421
C 18.10137 -2.57797 3.69285
N 15.53548 2.00915 3.27371
C 15.38631 1.16007 4.37982
C 15.15500 2.01906 5.55571
C 15.16927 3.31589 5.04592
C 15.36900 3.26863 3.63661
C 14.90831 1.56730 6.88217
C 15.03767 4.72930 5.36026
O 14.94956 5.38151 6.40158
C 14.90079 5.53582 3.99402
C 15.84475 6.70539 4.06012
O 17.08026 6.53030 4.07438
O 15.15996 7.84137 3.85723
C 16.04263 9.03824 3.88085
H 14.49613 3.41466 -2.60562
H 15.99379 -2.35493 -0.76093
H 15.38568 -0.65503 5.25403
H 14.05450 6.58864 1.15572
H 14.51492 5.75489 -1.49764
H 12.25879 5.30859 0.41980
H 12.48270 4.02018 -0.80336
H 12.19038 5.64394 -1.35881
H 16.60337 6.21130 -0.42927
H 16.75097 6.67564 1.31287
H 14.91930 8.45231 0.05771
H 16.06726 8.08119 -1.17205
H 15.35093 2.61278 -4.35752
H 15.18995 1.00905 -4.96426
H 16.83017 1.69178 -4.81976
H 16.33296 -0.88775 -5.29962
H 17.65622 -2.17003 -5.11731
H 17.93962 -0.44011 -4.78561
H 16.46725 -3.47672 1.47914
H 14.71865 -2.81682 3.79753
H 14.66726 -4.78524 1.08776
H 13.73586 -3.28806 0.74180
H 13.71911 -3.93979 2.29806
H 16.80869 -4.22173 3.95971
H 16.65389 -2.97785 5.19528
H 18.35990 -3.19198 2.83088
H 18.83843 -2.69183 4.48845
H 18.00224 -1.55027 3.34289
H 15.50469 2.20283 7.53670
H 15.17526 0.51720 6.99892
H 13.83409 1.73582 6.95638
H 13.86097 5.85266 3.91987
H 15.64217 9.71758 4.63343
H 16.10266 9.39930 2.85399
H 17.05359 8.88422 4.25975
