158

Mg 0.00000 0.00000 0.00000
C -0.21700 -2.21800 2.80100
C -1.25500 2.44200 2.02600
C -0.24500 1.85000 -2.56400
C 0.14600 -2.82400 -2.03700
N -0.61700 -0.00900 2.12600
C -0.59400 -0.90800 3.10500
C -0.93600 -0.30900 4.50200
C -1.77300 0.96400 4.03200
C -1.15500 1.16800 2.66000
C -3.26300 0.68500 3.86300
C 0.34500 0.11000 5.29900
C 0.12400 0.39700 6.78700
H 1.16800 0.03300 7.73300
N -0.18500 1.96100 -0.15200
C -0.70300 2.80000 0.77700
C -0.62000 4.15600 0.19300
C -0.18700 4.01500 -1.22500
C -0.21400 2.58300 -1.38000
C -0.88700 5.40600 0.97400
C 0.18100 5.01300 -2.27700
O 0.30300 4.69000 -3.50800
C 0.31000 6.41400 -1.83700
N -0.26500 -0.41300 -2.02900
C -0.27900 0.56900 -2.93700
C -0.19600 0.02400 -4.33200
C 0.12400 -1.53300 -4.18000
C 0.08600 -1.63200 -2.63500
C -1.45100 0.20500 -5.19700
C 1.37300 -2.07000 -4.92300
C 2.62600 -1.49000 -4.30600
N 0.15000 -2.14400 0.30300
C 0.17300 -3.13600 -0.68800
C 0.17300 -4.43800 0.00400
C 0.13300 -4.11100 1.35800
C 0.08300 -2.69500 1.50200
C 0.14900 -5.71500 -0.62300
C 0.09600 -4.62900 2.71600
O 0.20800 -5.74700 3.22100
C -0.25500 -3.42800 3.70100
C 0.71700 -3.48200 4.84800
O 1.93100 -3.25500 4.66900
O 0.03800 -3.55600 6.00300
C 0.94300 -3.58300 7.18300
H -1.85900 3.22000 2.49700
H -0.21800 2.45300 -3.47400
H 0.27600 -3.74700 -2.60500
H -1.55400 -0.94900 5.13200
H -1.58500 1.83100 4.66500
H -3.48400 -0.37700 3.96900
H -3.51100 1.02700 2.85800
H -3.85200 1.30100 4.54300
H 0.66900 1.09600 4.96600
H 1.13000 -0.63900 5.18900
H -0.84400 0.02600 7.12500
H 0.06200 1.47700 6.92100
H -1.34400 5.18600 1.93800
H -1.65100 5.96300 0.43200
H 0.00700 6.02000 1.08400
H -0.63500 6.74400 -1.40500
H 0.66500 6.97000 -2.70400
H 1.04800 6.46600 -1.03600
H 0.60800 0.50100 -4.89100
H -0.69200 -2.15600 -4.54700
H -1.26700 0.74000 -6.12900
H -2.20400 0.71400 -4.59600
H -1.96700 -0.72000 -5.45300
H 1.35600 -1.75900 -5.96700
H 1.45200 -3.15700 -4.90200
H 2.71400 -0.52200 -4.79800
H 3.48700 -2.12100 -4.52900
H 2.49500 -1.30300 -3.24000
H 0.86700 -6.33300 -0.08400
H 0.40400 -5.64200 -1.68000
H -0.89100 -5.99900 -0.46300
H -1.28300 -3.58100 4.02800
H 0.69800 -4.47800 7.75500
H 0.83300 -2.61900 7.68000
H 2.00000 -3.75400 6.97600
Mg 13.13263 1.18684 1.00587
C 10.76755 -1.46854 1.49001
C 10.48584 3.20935 0.27201
C 15.20951 3.42222 0.13577
C 15.59323 -1.25595 0.65385
N 10.95561 0.80418 0.92571
C 10.16814 -0.22770 1.18928
C 8.65258 0.10752 1.20575
C 8.68396 1.40910 0.26566
C 10.11883 1.86350 0.52514
C 8.54494 1.08702 -1.21295
C 8.13206 0.45127 2.64551
C 6.60876 0.48598 2.78736
H 6.01555 0.02338 4.03898
N 12.89470 3.14464 0.78452
C 11.74642 3.79910 0.51175
C 12.10526 5.22330 0.42777
C 13.58663 5.33943 0.50994
C 13.96394 3.94121 0.45787
C 11.08037 6.31827 0.36392
C 14.51138 6.51501 0.60507
O 15.77467 6.39426 0.42519
C 13.88400 7.82673 0.82247
N 15.07215 1.09684 0.26255
C 15.77079 2.21891 0.01603
C 17.22522 1.90922 -0.24686
C 17.40710 0.36193 0.11421
C 15.94258 0.00731 0.45307
C 17.71104 2.15893 -1.67445
C 18.51177 0.00521 1.14625
C 18.13673 0.54040 2.50945
N 13.23904 -0.95852 1.23855
C 14.36154 -1.78598 1.01630
C 13.91440 -3.18291 1.19262
C 12.54668 -3.07155 1.48491
C 12.16374 -1.70311 1.47049
C 14.72444 -4.34224 1.03174
C 11.33749 -3.80115 1.79192
O 11.06860 -4.97952 2.02186
C 10.10447 -2.80390 1.68433
C 9.24863 -2.98984 2.90723
O 9.68283 -2.69182 4.03384
O 7.99176 -3.28104 2.52531
C 7.10241 -3.46367 3.70324
H 9.75252 3.86827 -0.19377
H 15.99029 4.15974 -0.06406
H 16.32170 -2.06958 0.65733
H 8.01470 -0.65142 0.76884
H 7.97798 2.16106 0.60847
H 8.56667 0.02322 -1.39733
H 9.38072 1.57250 -1.69961
H 7.64496 1.55817 -1.61839
H 8.36558 1.50004 2.86977
H 8.54734 -0.22061 3.37129
H 6.10430 0.02496 1.92950
H 6.28158 1.52826 2.76230
H 10.08003 5.92106 0.15192
H 11.32074 6.93056 -0.51198
H 11.08712 6.95382 1.25201
H 13.18764 8.03258 0.01304
H 14.71052 8.52809 0.95219
H 13.29199 7.78306 1.74347
H 17.86826 2.49798 0.39576
H 17.67815 -0.23366 -0.76990
H 18.56735 2.85745 -1.72819
H 16.87941 2.53125 -2.25781
H 17.99948 1.26629 -2.22690
H 19.45462 0.48531 0.87297
H 18.70320 -1.05988 1.22329
H 18.46460 1.58324 2.46390
H 18.66072 -0.00427 3.29227
H 17.04905 0.54249 2.64583
H 14.48827 -5.00371 1.85465
H 15.78242 -4.08889 1.01533
H 14.37130 -4.69340 0.05847
H 9.56619 -3.04624 0.76722
H 6.64391 -4.45272 3.60711
H 6.42250 -2.59104 3.70238
H 7.57063 -3.54140 4.67750
