79

Mg 8.94107 0.80268 0.68660
C 9.05125 -2.78373 0.75402
C 7.82429 0.68001 3.90721
C 8.40407 3.92509 0.51454
C 8.95456 0.59924 -2.79250
N 8.53137 -0.89248 2.04705
C 8.66862 -2.20834 1.98363
C 8.45737 -2.94290 3.33468
C 7.53827 -1.84615 4.06356
C 8.01343 -0.59783 3.32288
C 6.05430 -2.02741 3.79097
C 9.80341 -3.17012 4.10836
C 9.71366 -4.14882 5.28132
H 10.85936 -5.01110 5.55757
N 8.69453 2.14473 2.12768
C 8.25417 1.91895 3.38322
C 8.23133 3.23312 4.04398
C 8.53682 4.27516 3.02637
C 8.53649 3.47307 1.81941
C 8.01799 3.39779 5.52073
C 8.77548 5.75168 3.12196
O 8.78800 6.50048 2.08178
C 8.90111 6.30912 4.47657
N 8.49890 2.07201 -0.89947
C 8.36545 3.39629 -0.70865
C 8.32398 4.13561 -2.02473
C 8.70190 3.05186 -3.13840
C 8.81415 1.79804 -2.24356
C 6.98723 4.78582 -2.38065
C 9.88747 3.39561 -4.08123
C 11.18060 3.41496 -3.29839
N 9.17816 -0.76725 -0.77872
C 9.12456 -0.63771 -2.18386
C 9.22545 -1.99822 -2.75066
C 9.30825 -2.83351 -1.62642
C 9.24188 -2.05067 -0.44224
C 9.18393 -2.32798 -4.13474
C 9.42601 -4.20039 -1.17203
O 9.60775 -5.28596 -1.72179
C 9.13758 -4.24011 0.39054
C 10.21637 -5.06189 1.04125
O 11.39688 -4.67075 1.03911
O 9.64775 -6.05906 1.74318
C 10.67704 -6.89551 2.41604
H 7.25584 0.74714 4.83525
H 8.32757 5.00845 0.39631
H 9.06464 0.45987 -3.87006
H 7.92594 -3.88420 3.26172
H 7.77365 -1.77411 5.12222
H 5.87085 -2.79531 3.05421
H 5.70151 -1.06865 3.43406
H 5.51953 -2.21618 4.72624
H 10.06476 -2.25168 4.64957
H 10.58076 -3.48042 3.43750
H 8.78751 -4.73591 5.25835
H 9.64383 -3.57423 6.20814
H 7.65564 2.47015 5.98072
H 7.19103 4.10486 5.64745
H 8.89956 3.78962 6.03256
H 7.99665 6.09440 5.04075
H 9.15714 7.36120 4.33705
H 9.72192 5.79694 4.99092
H 9.05883 4.93103 -2.04478
H 7.86640 2.87031 -3.83036
H 7.06638 5.87393 -2.56458
H 6.28650 4.58532 -1.58107
H 6.48096 4.35791 -3.24424
H 9.76177 4.39805 -4.49772
H 9.98807 2.71025 -4.91619
H 11.18947 4.41794 -2.86130
H 12.03130 3.26526 -3.96016
H 11.15112 2.69545 -2.47190
H 9.95894 -3.06391 -4.30284
H 9.32859 -1.44775 -4.75767
H 8.16703 -2.72214 -4.21090
H 8.14867 -4.67847 0.53009
H 10.50861 -7.92837 2.09588
H 10.57714 -6.68042 3.49655
H 11.71051 -6.74954 2.12435
