158

Mg 0.00000 0.00000 0.00000
C -0.21700 -2.21800 2.80100
C -1.25500 2.44200 2.02600
C -0.24500 1.85000 -2.56400
C 0.14600 -2.82400 -2.03700
N -0.61700 -0.00900 2.12600
C -0.59400 -0.90800 3.10500
C -0.93600 -0.30900 4.50200
C -1.77300 0.96400 4.03200
C -1.15500 1.16800 2.66000
C -3.26300 0.68500 3.86300
C 0.34500 0.11000 5.29900
C 0.12400 0.39700 6.78700
H 1.16800 0.03300 7.73300
N -0.18500 1.96100 -0.15200
C -0.70300 2.80000 0.77700
C -0.62000 4.15600 0.19300
C -0.18700 4.01500 -1.22500
C -0.21400 2.58300 -1.38000
C -0.88700 5.40600 0.97400
C 0.18100 5.01300 -2.27700
O 0.30300 4.69000 -3.50800
C 0.31000 6.41400 -1.83700
N -0.26500 -0.41300 -2.02900
C -0.27900 0.56900 -2.93700
C -0.19600 0.02400 -4.33200
C 0.12400 -1.53300 -4.18000
C 0.08600 -1.63200 -2.63500
C -1.45100 0.20500 -5.19700
C 1.37300 -2.07000 -4.92300
C 2.62600 -1.49000 -4.30600
N 0.15000 -2.14400 0.30300
C 0.17300 -3.13600 -0.68800
C 0.17300 -4.43800 0.00400
C 0.13300 -4.11100 1.35800
C 0.08300 -2.69500 1.50200
C 0.14900 -5.71500 -0.62300
C 0.09600 -4.62900 2.71600
O 0.20800 -5.74700 3.22100
C -0.25500 -3.42800 3.70100
C 0.71700 -3.48200 4.84800
O 1.93100 -3.25500 4.66900
O 0.03800 -3.55600 6.00300
C 0.94300 -3.58300 7.18300
H -1.85900 3.22000 2.49700
H -0.21800 2.45300 -3.47400
H 0.27600 -3.74700 -2.60500
H -1.55400 -0.94900 5.13200
H -1.58500 1.83100 4.66500
H -3.48400 -0.37700 3.96900
H -3.51100 1.02700 2.85800
H -3.85200 1.30100 4.54300
H 0.66900 1.09600 4.96600
H 1.13000 -0.63900 5.18900
H -0.84400 0.02600 7.12500
H 0.06200 1.47700 6.92100
H -1.34400 5.18600 1.93800
H -1.65100 5.96300 0.43200
H 0.00700 6.02000 1.08400
H -0.63500 6.74400 -1.40500
H 0.66500 6.97000 -2.70400
H 1.04800 6.46600 -1.03600
H 0.60800 0.50100 -4.89100
H -0.69200 -2.15600 -4.54700
H -1.26700 0.74000 -6.12900
H -2.20400 0.71400 -4.59600
H -1.96700 -0.72000 -5.45300
H 1.35600 -1.75900 -5.96700
H 1.45200 -3.15700 -4.90200
H 2.71400 -0.52200 -4.79800
H 3.48700 -2.12100 -4.52900
H 2.49500 -1.30300 -3.24000
H 0.86700 -6.33300 -0.08400
H 0.40400 -5.64200 -1.68000
H -0.89100 -5.99900 -0.46300
H -1.28300 -3.58100 4.02800
H 0.69800 -4.47800 7.75500
H 0.83300 -2.61900 7.68000
H 2.00000 -3.75400 6.97600
Mg 13.14531 1.18214 1.00620
C 13.21794 -2.36815 1.52509
C 11.99288 1.47539 4.20315
C 12.64226 4.26274 0.43673
C 13.19399 0.54261 -2.41934
N 12.70367 -0.32476 2.56391
C 12.82808 -1.63931 2.66800
C 12.59484 -2.19621 4.09804
C 11.67929 -1.00841 4.67230
C 12.17515 0.13258 3.78634
C 10.19654 -1.20939 4.40698
C 13.93011 -2.33619 4.91013
C 13.81775 -3.15876 6.19563
H 14.95152 -3.98953 6.59169
N 12.89713 2.69690 2.26416
C 12.44105 2.63474 3.53279
C 12.42462 4.02173 4.02283
C 12.75168 4.92477 2.88605
C 12.75605 3.97727 1.78955
C 12.19716 4.37272 5.46453
C 13.00445 6.39942 2.79817
O 13.03579 7.01129 1.67236
C 13.12126 7.12168 4.07339
N 12.73321 2.24576 -0.73197
C 12.61132 3.58464 -0.71068
C 12.59156 4.15289 -2.10964
C 12.97024 2.93438 -3.07370
C 13.06002 1.80212 -2.02712
C 11.26543 4.76496 -2.56036
C 14.16931 3.14632 -4.03806
C 15.45410 3.25256 -3.24849
N 13.38196 -0.56166 -0.24728
C 13.34475 -0.60942 -1.65810
C 13.43774 -2.03126 -2.04819
C 13.49991 -2.71920 -0.82698
C 13.42890 -1.79309 0.24855
C 13.40767 -2.53210 -3.38024
C 13.59875 -4.01906 -0.20305
O 13.77523 -5.16673 -0.60982
C 13.29321 -3.85939 1.34857
C 14.35646 -4.60229 2.11022
O 15.54089 -4.22497 2.07301
O 13.77016 -5.49819 2.92506
C 14.78354 -6.25243 3.70992
H 11.41524 1.66373 5.10855
H 12.57816 5.32325 0.18239
H 13.31417 0.26785 -3.46945
H 12.05458 -3.13447 4.13762
H 11.90404 -0.80588 5.71625
H 10.01312 -2.06222 3.77043
H 9.85746 -0.30007 3.92823
H 9.64987 -1.27430 5.35211
H 14.19505 -1.35932 5.33470
H 14.71138 -2.73527 4.29289
H 12.88593 -3.73587 6.23558
H 13.74390 -2.47156 7.04199
H 11.82041 3.51354 6.03310
H 11.37619 5.09739 5.49152
H 13.07718 4.81801 5.93353
H 12.20865 6.98762 4.64926
H 13.38956 8.14555 3.80582
H 13.93121 6.67103 4.65778
H 13.33471 4.93295 -2.22073
H 12.14038 2.67463 -3.74727
H 11.35772 5.82055 -2.87862
H 10.55416 4.67282 -1.75034
H 10.76408 4.23632 -3.36930
H 14.05838 4.08949 -4.57869
H 14.27181 2.36053 -4.77901
H 15.46859 4.30243 -2.94083
H 16.31027 3.01330 -3.87601
H 15.40839 2.64301 -2.33854
H 14.17685 -3.29015 -3.44528
H 13.56803 -1.73853 -4.10709
H 12.38765 -2.92371 -3.41839
H 12.29841 -4.26795 1.53031
H 14.60795 -7.31583 3.52012
H 14.67427 -5.90227 4.75357
H 15.82152 -6.15344 3.41455
