79

Mg 10.51717 0.95158 0.80510
C 10.26980 -1.08872 3.74704
C 9.26146 3.52153 2.66335
C 10.29868 2.64653 -1.86826
C 10.65441 -1.99183 -1.05588
N 9.88616 1.07693 2.92131
C 9.89532 0.25444 3.95947
C 9.55686 0.92779 5.31653
C 8.72118 2.18157 4.76105
C 9.34752 2.29708 3.37287
C 7.23912 1.89039 4.59363
C 10.84072 1.39079 6.09070
C 10.60632 1.77420 7.55351
H 11.64887 1.46771 8.52903
N 10.34495 2.91039 0.53685
C 9.83289 3.80858 1.40422
C 9.91261 5.11225 0.72727
C 10.36134 4.88670 -0.67361
C 10.33174 3.43893 -0.73003
C 9.65567 6.41232 1.43240
C 10.74047 5.81995 -1.78334
O 10.86988 5.41207 -2.99153
C 10.86438 7.24183 -1.43063
N 10.26848 0.41521 -1.18809
C 10.25867 1.34595 -2.15843
C 10.34489 0.70986 -3.52531
C 10.65969 -0.83564 -3.26088
C 10.61048 -0.84340 -1.71721
C 9.09474 0.83257 -4.39620
C 11.91139 -1.42914 -3.96349
C 13.16661 -0.81358 -3.38827
N 10.65849 -1.15964 1.24195
C 10.67612 -2.22349 0.31352
C 10.66554 -3.47981 1.09068
C 10.61887 -3.05644 2.42750
C 10.58120 -1.63679 2.47921
C 10.64895 -4.79480 0.54604
C 10.58219 -3.48787 3.80635
O 10.67844 -4.57190 4.38023
C 10.22686 -2.23556 4.71840
C 11.19138 -2.21280 5.87239
O 12.40382 -2.01487 5.67895
O 10.49854 -2.21099 7.02579
C 11.41148 -2.17762 8.19935
H 8.66452 4.32783 3.09048
H 10.33449 3.18444 -2.81844
H 10.79467 -2.95058 -1.55967
H 8.93855 0.33224 5.97743
H 8.91853 3.07735 5.34414
H 7.01138 0.84871 4.76442
H 6.99780 2.16853 3.57606
H 6.65010 2.55245 5.23478
H 11.16887 2.35966 5.69279
H 11.61072 0.64635 6.03118
H 9.62848 1.43541 7.91682
H 10.55530 2.86351 7.62284
H 9.18478 6.25331 2.41035
H 8.89803 6.94769 0.84996
H 10.54969 7.03513 1.50658
H 9.92057 7.59643 -1.02326
H 11.22859 7.73617 -2.33332
H 11.60862 7.34074 -0.63255
H 11.15489 1.13989 -4.10157
H 9.83969 -1.48311 -3.60469
H 9.28850 1.31615 -5.37225
H 8.34517 1.38163 -3.84193
H 8.58485 -0.10592 -4.60703
H 11.90262 -1.17938 -5.02731
H 11.97828 -2.50925 -3.88682
H 13.25639 0.12620 -3.94130
H 14.02502 -1.45870 -3.56431
H 13.03207 -0.56168 -2.32992
H 11.35379 -5.37935 1.12223
H 10.90546 -4.79047 -0.51130
H 9.60212 -5.06202 0.71337
H 9.19457 -2.35411 5.04993
H 11.15527 -3.03605 8.82796
H 11.28870 -1.17255 8.64488
H 12.46550 -2.35423 8.01958
