158

Mg 0.00000 0.00000 0.00000
C -0.21700 -2.21800 2.80100
C -1.25500 2.44200 2.02600
C -0.24500 1.85000 -2.56400
C 0.14600 -2.82400 -2.03700
N -0.61700 -0.00900 2.12600
C -0.59400 -0.90800 3.10500
C -0.93600 -0.30900 4.50200
C -1.77300 0.96400 4.03200
C -1.15500 1.16800 2.66000
C -3.26300 0.68500 3.86300
C 0.34500 0.11000 5.29900
C 0.12400 0.39700 6.78700
H 1.16800 0.03300 7.73300
N -0.18500 1.96100 -0.15200
C -0.70300 2.80000 0.77700
C -0.62000 4.15600 0.19300
C -0.18700 4.01500 -1.22500
C -0.21400 2.58300 -1.38000
C -0.88700 5.40600 0.97400
C 0.18100 5.01300 -2.27700
O 0.30300 4.69000 -3.50800
C 0.31000 6.41400 -1.83700
N -0.26500 -0.41300 -2.02900
C -0.27900 0.56900 -2.93700
C -0.19600 0.02400 -4.33200
C 0.12400 -1.53300 -4.18000
C 0.08600 -1.63200 -2.63500
C -1.45100 0.20500 -5.19700
C 1.37300 -2.07000 -4.92300
C 2.62600 -1.49000 -4.30600
N 0.15000 -2.14400 0.30300
C 0.17300 -3.13600 -0.68800
C 0.17300 -4.43800 0.00400
C 0.13300 -4.11100 1.35800
C 0.08300 -2.69500 1.50200
C 0.14900 -5.71500 -0.62300
C 0.09600 -4.62900 2.71600
O 0.20800 -5.74700 3.22100
C -0.25500 -3.42800 3.70100
C 0.71700 -3.48200 4.84800
O 1.93100 -3.25500 4.66900
O 0.03800 -3.55600 6.00300
C 0.94300 -3.58300 7.18300
H -1.85900 3.22000 2.49700
H -0.21800 2.45300 -3.47400
H 0.27600 -3.74700 -2.60500
H -1.55400 -0.94900 5.13200
H -1.58500 1.83100 4.66500
H -3.48400 -0.37700 3.96900
H -3.51100 1.02700 2.85800
H -3.85200 1.30100 4.54300
H 0.66900 1.09600 4.96600
H 1.13000 -0.63900 5.18900
H -0.84400 0.02600 7.12500
H 0.06200 1.47700 6.92100
H -1.34400 5.18600 1.93800
H -1.65100 5.96300 0.43200
H 0.00700 6.02000 1.08400
H -0.63500 6.74400 -1.40500
H 0.66500 6.97000 -2.70400
H 1.04800 6.46600 -1.03600
H 0.60800 0.50100 -4.89100
H -0.69200 -2.15600 -4.54700
H -1.26700 0.74000 -6.12900
H -2.20400 0.71400 -4.59600
H -1.96700 -0.72000 -5.45300
H 1.35600 -1.75900 -5.96700
H 1.45200 -3.15700 -4.90200
H 2.71400 -0.52200 -4.79800
H 3.48700 -2.12100 -4.52900
H 2.49500 -1.30300 -3.24000
H 0.86700 -6.33300 -0.08400
H 0.40400 -5.64200 -1.68000
H -0.89100 -5.99900 -0.46300
H -1.28300 -3.58100 4.02800
H 0.69800 -4.47800 7.75500
H 0.83300 -2.61900 7.68000
H 2.00000 -3.75400 6.97600
Mg 7.88314 0.70970 0.59883
C 7.28359 3.97477 1.93751
C 7.11973 1.99046 -2.47036
C 7.96261 -2.25051 -0.53583
C 7.48594 -0.52783 3.83247
N 7.29369 2.74071 -0.05555
C 7.15835 3.91756 0.54766
C 6.94537 5.09959 -0.44472
C 6.35450 4.28609 -1.68209
C 6.98761 2.93332 -1.40801
C 4.83719 4.13518 -1.64338
C 8.28870 5.81281 -0.81690
C 8.13764 7.16752 -1.51498
H 9.10438 8.21593 -1.22589
N 8.06314 0.05285 -1.25562
C 7.71757 0.71438 -2.38621
C 8.04514 -0.19394 -3.50619
C 8.43217 -1.51004 -2.92638
C 8.13912 -1.29371 -1.53257
C 8.02104 0.22928 -4.94287
C 8.96943 -2.76724 -3.53379
O 9.01878 -3.86845 -2.88612
C 9.35945 -2.69632 -4.95361
N 7.52858 -1.15450 1.46870
C 7.68875 -2.28371 0.76998
C 7.65724 -3.48794 1.66371
C 7.68470 -2.92929 3.15934
C 7.64249 -1.41331 2.84582
C 6.44997 -4.41961 1.48903
C 8.80614 -3.45956 4.08757
C 10.15020 -2.96257 3.60424
N 7.63617 1.55790 2.58141
C 7.46645 0.85604 3.78360
C 7.23138 1.85812 4.83937
C 7.26443 3.08035 4.17086
C 7.47875 2.85444 2.78114
C 6.96587 1.57899 6.20905
C 7.14398 4.52318 4.30349
O 7.05142 5.30194 5.25347
C 7.03004 5.15263 2.84520
C 7.98518 6.31284 2.77504
O 9.21862 6.13003 2.82592
O 7.31431 7.42029 2.42285
C 8.20891 8.60278 2.30640
H 6.67437 2.22189 -3.43991
H 8.09288 -3.28286 -0.86707
H 7.43782 -0.83461 4.87890
H 6.22506 5.84753 -0.11280
H 6.70530 4.68263 -2.63467
H 4.42430 4.50101 -0.70337
H 4.64807 3.06705 -1.75217
H 4.37839 4.61058 -2.51071
H 8.78676 5.25133 -1.60730
H 8.92044 5.92978 0.06431
H 7.12066 7.55058 -1.42592
H 8.27786 7.01761 -2.58552
H 7.53962 1.19851 -5.06684
H 7.36870 -0.46732 -5.46910
H 9.01419 0.21365 -5.39201
H 8.49570 -2.40126 -5.54978
H 9.80370 -3.66206 -5.19201
H 10.10127 -1.90674 -5.07699
H 8.53076 -4.11813 1.50170
H 6.76429 -3.15645 3.69777
H 6.72173 -5.44954 1.25644
H 5.80951 -3.99959 0.71399
H 5.76940 -4.45023 2.33950
H 8.83793 -4.54822 4.06013
H 8.68268 -3.15749 5.12765
H 10.41164 -3.68237 2.82941
H 10.87749 -2.98196 4.41658
H 10.06539 -1.98620 3.12674
H 7.56169 2.28649 6.78559
H 7.22076 0.54959 6.46001
H 5.89270 1.76498 6.24868
H 5.99437 5.46681 2.71943
H 7.80741 9.37490 2.96281
H 8.28365 8.83127 1.24310
H 9.21412 8.48871 2.71368
