79

Mg 31.53256 2.83880 2.39533
C 31.73833 0.70995 -0.47484
C 30.76320 0.05838 4.21752
C 30.90108 4.75161 4.84462
C 31.19496 5.52223 0.19740
N 31.31084 0.70996 1.83006
C 31.47498 0.01592 0.70822
C 31.41566 -1.52627 0.92154
C 30.55866 -1.56171 2.26552
C 30.92563 -0.19798 2.82363
C 29.05279 -1.60577 2.02690
C 32.83542 -2.15258 1.13072
C 32.89908 -3.67871 1.02018
H 34.08181 -4.28953 0.43247
N 31.40118 2.44604 4.32699
C 31.09371 1.25372 4.89190
C 31.12342 1.47551 6.35361
C 31.28656 2.93707 6.58885
C 31.17505 3.44620 5.24582
C 31.05214 0.36471 7.35601
C 31.49736 3.74738 7.82864
O 31.38152 5.02060 7.83692
C 31.75948 2.99471 9.06873
N 30.88835 4.82048 2.52021
C 30.74922 5.42755 3.70388
C 30.55653 6.90604 3.53994
C 30.83663 7.22024 1.99962
C 31.07510 5.77286 1.50311
C 29.17385 7.44786 3.92807
C 31.90810 8.29404 1.68452
C 33.27416 7.79204 2.09561
N 31.64961 3.12874 0.24747
C 31.45335 4.32744 -0.45344
C 31.52690 4.00472 -1.89028
C 31.74576 2.62897 -1.92586
C 31.77897 2.12011 -0.59611
C 31.33904 4.92246 -2.96121
C 31.93470 1.46660 -2.77854
O 32.09176 1.29486 -3.98822
C 31.81586 0.15928 -1.87709
C 32.97655 -0.73503 -2.21815
O 34.14612 -0.39861 -1.94193
O 32.51551 -1.93752 -2.59498
C 33.61741 -2.88246 -2.91910
H 30.28587 -0.69974 4.84151
H 30.78680 5.46533 5.66314
H 31.18318 6.32177 -0.54561
H 30.89701 -2.07431 0.13472
H 30.89247 -2.34967 2.94036
H 28.81261 -1.47501 0.97185
H 28.64071 -0.78594 2.61560
H 28.62161 -2.51785 2.44038
H 33.13269 -2.02943 2.17212
H 33.55713 -1.71086 0.44272
H 31.99431 -4.08350 0.56582
H 32.90534 -4.09417 2.02793
H 30.76886 -0.57804 6.88963
H 30.22538 0.59464 8.02781
H 31.97496 0.26850 7.92826
H 30.92219 2.32529 9.26719
H 31.97344 3.74042 9.83357
H 32.63179 2.35814 8.91771
H 31.26434 7.46296 4.15254
H 29.94356 7.57701 1.48599
H 29.20717 8.22896 4.68799
H 28.56296 6.60779 4.25727
H 28.58368 7.83230 3.09661
H 31.71473 9.20159 2.25540
H 31.94634 8.56740 0.62997
H 33.31002 8.02694 3.15880
H 34.05478 8.32479 1.55153
H 33.34587 6.70856 1.99869
H 32.11763 4.70250 -3.69154
H 31.40113 5.95372 -2.61444
H 30.33475 4.65089 -3.28603
H 30.85881 -0.30207 -2.11858
H 33.44466 -3.24104 -3.93390
H 33.63762 -3.62144 -2.11792
H 34.61181 -2.44652 -3.02137
