79

Mg 15.76628 1.41940 1.19766
C 15.14711 4.09159 3.49729
C 14.88181 3.56545 -1.30339
C 15.86636 -1.04073 -0.80093
C 15.49530 -0.76893 3.89645
N 15.11772 3.53589 1.22009
C 14.97907 4.46394 2.16171
C 14.71225 5.88867 1.59044
C 14.09819 5.48196 0.17640
C 14.76538 4.12906 0.00192
C 12.58602 5.28409 0.20303
C 16.02926 6.71935 1.42554
C 15.83033 8.21882 1.18604
H 16.78553 9.15287 1.76267
N 15.90004 1.37417 -0.77285
C 15.50629 2.34325 -1.63374
C 15.81555 1.83578 -2.98781
C 16.24581 0.41621 -2.85443
C 15.99293 0.18216 -1.45563
C 15.73792 2.68209 -4.22129
C 16.78750 -0.57567 -3.83468
O 16.87835 -1.82144 -3.56198
C 17.13098 -0.05784 -5.17143
N 15.47510 -0.63166 1.45459
C 15.63463 -1.48416 0.43637
C 15.65443 -2.90629 0.91291
C 15.71852 -2.83752 2.50694
C 15.63745 -1.30076 2.68029
C 14.46026 -3.77151 0.48704
C 16.87870 -3.59749 3.19749
C 18.19705 -2.93790 2.85987
N 15.56600 1.60497 3.35092
C 15.44784 0.56098 4.27979
C 15.22720 1.18003 5.59969
C 15.21571 2.54959 5.34275
C 15.39023 2.77106 3.94676
C 15.01054 0.48331 6.82120
C 15.07197 3.87653 5.91931
O 14.99465 4.32006 7.06596
C 14.89994 4.92304 4.73144
C 15.83005 6.07422 5.00162
O 17.06774 5.91922 4.96346
O 15.12733 7.21707 5.02668
C 15.99504 8.40207 5.26124
H 14.40166 4.07309 -2.14225
H 16.00578 -1.91577 -1.43913
H 15.48619 -1.38579 4.79692
H 13.98865 6.47666 2.15532
H 14.41103 6.16355 -0.61434
H 12.19616 5.32927 1.21983
H 12.41399 4.29726 -0.22715
H 12.09101 5.99160 -0.46268
H 16.51270 6.44428 0.48816
H 16.68622 6.57541 2.28404
H 14.80955 8.52689 1.41408
H 15.93946 8.41165 0.11875
H 15.23439 3.62822 -4.02680
H 15.08269 2.16464 -4.92174
H 16.71649 2.83404 -4.67698
H 16.24332 0.38299 -5.62561
H 17.58584 -0.88952 -5.70834
H 17.85330 0.75158 -5.06166
H 16.53427 -3.43068 0.54234
H 14.82011 -3.24585 2.97040
H 14.74415 -4.67082 -0.06009
H 13.78769 -3.15030 -0.10375
H 13.80765 -4.08292 1.30223
H 16.93040 -4.62284 2.83290
H 16.78245 -3.63579 4.28262
H 18.44754 -3.37489 1.89388
H 18.94991 -3.18744 3.60829
H 18.07853 -1.86445 2.71102
H 15.61067 0.99397 7.57422
H 15.29286 -0.56566 6.73420
H 13.93580 0.61780 6.94249
H 13.85500 5.23161 4.73440
H 15.59983 8.92151 6.13429
H 16.03172 8.95048 4.31981
H 17.01463 8.19569 5.58863
