79

Mg 7.88621 0.70318 0.60661
C 5.20129 1.13197 2.94893
C 9.99229 1.82701 3.04300
C 10.20138 0.76592 -1.56214
C 5.49336 0.71897 -1.92711
N 7.52441 1.36294 2.68653
C 6.47153 1.42449 3.48778
C 6.80832 1.74402 4.96901
C 8.21278 2.48859 4.74106
C 8.62728 1.83136 3.42618
C 8.07026 3.98286 4.50402
C 6.97958 0.44757 5.83613
C 7.00307 0.68350 7.34793
H 6.39654 -0.31986 8.21848
N 9.85734 0.74630 0.83318
C 10.54421 1.21603 1.89565
C 11.96683 1.04185 1.56398
C 12.06649 0.58318 0.15175
C 10.68304 0.70328 -0.26267
C 13.06559 1.22868 2.56958
C 13.21864 0.12588 -0.69065
O 13.11530 0.00084 -1.96207
C 14.49743 -0.08136 0.00450
N 7.87807 0.94942 -1.45777
C 9.01881 0.88290 -2.16643
C 8.73706 0.81253 -3.64834
C 7.15700 0.60092 -3.77567
C 6.77017 0.67827 -2.28243
C 9.15367 2.03655 -4.46356
C 6.67517 -0.62316 -4.60159
C 7.04509 -1.90426 -3.88932
N 5.72801 0.70356 0.50544
C 4.92865 0.73658 -0.65818
C 3.52242 0.84057 -0.21756
C 3.60341 0.88439 1.18245
C 4.96527 0.83311 1.58521
C 2.38745 0.93051 -1.07188
C 2.84711 0.97307 2.41079
O 1.65077 0.95592 2.69750
C 3.85489 1.26482 3.60480
C 3.52750 0.32169 4.72990
O 3.68705 -0.90413 4.59376
O 3.28896 1.03365 5.84640
C 2.97037 0.14167 6.99299
H 10.70502 2.37934 3.65606
H 10.95443 0.67908 -2.34881
H 4.68229 0.63060 -2.65308
H 6.10954 2.41054 5.46016
H 8.92115 2.24549 5.52877
H 7.03604 4.27907 4.41024
H 8.60713 4.18777 3.58705
H 8.59001 4.54025 5.28856
H 7.99311 0.05169 5.69198
H 6.22416 -0.27474 5.59482
H 6.64986 1.68719 7.61401
H 8.04215 0.66676 7.68565
H 12.70049 1.72619 3.47655
H 13.77721 1.94034 2.13714
H 13.59043 0.29853 2.79771
H 14.80126 0.84530 0.48560
H 15.17501 -0.49228 -0.74644
H 14.34633 -0.81589 0.80340
H 9.24228 -0.03328 -4.09831
H 6.67028 1.45393 -4.27097
H 9.85024 1.79508 -5.28852
H 9.59630 2.75973 -3.79152
H 8.33232 2.60091 -4.90183
H 7.18079 -0.64933 -5.57000
H 5.60777 -0.62020 -4.79558
H 8.08460 -2.06323 -4.19136
H 6.40873 -2.72317 -4.21867
H 7.03513 -1.76691 -2.80181
H 1.63331 0.27453 -0.65780
H 2.63680 0.65527 -2.09454
H 2.15651 1.99499 -0.97797
H 3.72600 2.30833 3.89472
H 2.00170 0.46292 7.38816
H 3.83951 0.20862 7.67407
H 2.77493 -0.90212 6.77677
