158

Mg 0.00000 0.00000 0.00000
C -0.21700 -2.21800 2.80100
C -1.25500 2.44200 2.02600
C -0.24500 1.85000 -2.56400
C 0.14600 -2.82400 -2.03700
N -0.61700 -0.00900 2.12600
C -0.59400 -0.90800 3.10500
C -0.93600 -0.30900 4.50200
C -1.77300 0.96400 4.03200
C -1.15500 1.16800 2.66000
C -3.26300 0.68500 3.86300
C 0.34500 0.11000 5.29900
C 0.12400 0.39700 6.78700
H 1.16800 0.03300 7.73300
N -0.18500 1.96100 -0.15200
C -0.70300 2.80000 0.77700
C -0.62000 4.15600 0.19300
C -0.18700 4.01500 -1.22500
C -0.21400 2.58300 -1.38000
C -0.88700 5.40600 0.97400
C 0.18100 5.01300 -2.27700
O 0.30300 4.69000 -3.50800
C 0.31000 6.41400 -1.83700
N -0.26500 -0.41300 -2.02900
C -0.27900 0.56900 -2.93700
C -0.19600 0.02400 -4.33200
C 0.12400 -1.53300 -4.18000
C 0.08600 -1.63200 -2.63500
C -1.45100 0.20500 -5.19700
C 1.37300 -2.07000 -4.92300
C 2.62600 -1.49000 -4.30600
N 0.15000 -2.14400 0.30300
C 0.17300 -3.13600 -0.68800
C 0.17300 -4.43800 0.00400
C 0.13300 -4.11100 1.35800
C 0.08300 -2.69500 1.50200
C 0.14900 -5.71500 -0.62300
C 0.09600 -4.62900 2.71600
O 0.20800 -5.74700 3.22100
C -0.25500 -3.42800 3.70100
C 0.71700 -3.48200 4.84800
O 1.93100 -3.25500 4.66900
O 0.03800 -3.55600 6.00300
C 0.94300 -3.58300 7.18300
H -1.85900 3.22000 2.49700
H -0.21800 2.45300 -3.47400
H 0.27600 -3.74700 -2.60500
H -1.55400 -0.94900 5.13200
H -1.58500 1.83100 4.66500
H -3.48400 -0.37700 3.96900
H -3.51100 1.02700 2.85800
H -3.85200 1.30100 4.54300
H 0.66900 1.09600 4.96600
H 1.13000 -0.63900 5.18900
H -0.84400 0.02600 7.12500
H 0.06200 1.47700 6.92100
H -1.34400 5.18600 1.93800
H -1.65100 5.96300 0.43200
H 0.00700 6.02000 1.08400
H -0.63500 6.74400 -1.40500
H 0.66500 6.97000 -2.70400
H 1.04800 6.46600 -1.03600
H 0.60800 0.50100 -4.89100
H -0.69200 -2.15600 -4.54700
H -1.26700 0.74000 -6.12900
H -2.20400 0.71400 -4.59600
H -1.96700 -0.72000 -5.45300
H 1.35600 -1.75900 -5.96700
H 1.45200 -3.15700 -4.90200
H 2.71400 -0.52200 -4.79800
H 3.48700 -2.12100 -4.52900
H 2.49500 -1.30300 -3.24000
H 0.86700 -6.33300 -0.08400
H 0.40400 -5.64200 -1.68000
H -0.89100 -5.99900 -0.46300
H -1.28300 -3.58100 4.02800
H 0.69800 -4.47800 7.75500
H 0.83300 -2.61900 7.68000
H 2.00000 -3.75400 6.97600
Mg 31.53205 2.84753 2.40132
C 33.41609 1.80817 5.27346
C 28.88441 3.32722 4.49762
C 29.72117 3.33431 -0.15821
C 33.90642 1.22767 0.43050
N 31.30341 2.56963 4.58369
C 32.10558 2.22922 5.58118
C 31.49292 2.42335 6.99417
C 29.93934 2.34145 6.59598
C 30.03406 2.80795 5.14474
C 29.38900 0.92500 6.60740
C 31.85384 3.81815 7.61568
C 31.55129 3.95422 9.10957
H 32.45510 4.75284 9.93285
N 29.76042 3.72526 2.22966
C 28.81811 3.85049 3.18761
C 27.69199 4.55431 2.55465
C 27.98008 4.68821 1.10076
C 29.18179 3.88520 0.99511
C 26.52841 5.09444 3.33424
C 27.28156 5.40800 -0.01287
O 27.57472 5.19293 -1.24195
C 26.18063 6.30250 0.37355
N 31.65721 2.17700 0.43737
C 30.76997 2.58063 -0.48881
C 31.21747 2.19344 -1.87813
C 32.71463 1.65600 -1.71309
C 32.84791 1.74598 -0.17701
C 30.37001 1.13129 -2.57815
C 33.80501 2.32991 -2.59036
C 34.00233 3.76464 -2.15678
N 33.43283 1.87724 2.73839
C 34.24890 1.24242 1.77656
C 35.38131 0.63082 2.50183
C 35.13133 0.93502 3.84848
C 33.91752 1.66604 3.95698
C 36.42945 -0.13321 1.91549
C 35.61275 0.79481 5.20394
O 36.63575 0.34721 5.72052
C 34.45821 1.24487 6.19937
C 35.06052 2.16938 7.22163
O 35.51209 3.27763 6.88328
O 34.80850 1.68899 8.45292
C 35.37665 2.57752 9.50152
H 27.93155 3.29335 5.02657
H 29.19173 3.56828 -1.08472
H 34.74022 0.78937 -0.12210
H 31.73599 1.64339 7.70575
H 29.34419 3.03697 7.18199
H 30.16593 0.19218 6.76712
H 28.92652 0.78128 5.63968
H 28.58330 0.83955 7.34216
H 31.16878 4.57658 7.21540
H 32.88185 4.06285 7.43143
H 31.35891 2.98293 9.58131
H 30.61121 4.49913 9.22501
H 26.51166 4.69941 4.35750
H 25.62002 4.69214 2.87287
H 26.48004 6.18533 3.31729
H 25.42485 5.73400 0.91026
H 25.86546 6.79352 -0.54919
H 26.56754 7.05121 1.07381
H 31.22342 3.05362 -2.53627
H 32.79612 0.59051 -1.97371
H 29.96699 1.46679 -3.55236
H 29.56668 0.84286 -1.91331
H 30.87360 0.18282 -2.75708
H 33.48427 2.36253 -3.63450
H 34.76010 1.81606 -2.56276
H 33.20111 4.29347 -2.68164
H 34.98145 4.12649 -2.46408
H 33.82341 3.87894 -1.08134
H 37.35098 0.19789 2.37555
H 36.45622 -0.00801 0.83503
H 36.12095 -1.14149 2.20437
H 34.04802 0.34262 6.65464
H 36.02907 1.95882 10.12541
H 34.50716 3.05013 9.99586
H 36.06257 3.35373 9.18300
