79

Mg 13.14517 1.18360 1.00631
C 13.15332 -2.20637 2.18405
C 11.94791 2.08746 4.06967
C 12.70003 4.10824 -0.14075
C 13.23700 -0.08934 -2.23667
N 12.65546 0.00227 2.81100
C 12.75734 -1.27071 3.16240
C 12.49305 -1.54572 4.66709
C 11.58765 -0.25961 4.99119
C 12.11530 0.68802 3.91590
C 10.10620 -0.48810 4.74129
C 13.81312 -1.54738 5.51528
C 13.66772 -2.11201 6.93013
H 14.78184 -2.86777 7.49584
N 12.90152 2.91094 1.95261
C 12.42482 3.09427 3.20178
C 12.42279 4.54877 3.42220
C 12.78181 5.21767 2.14221
C 12.78820 4.08088 1.24345
C 12.17853 5.16749 4.76791
C 13.05931 6.64615 1.78354
O 13.11789 7.03493 0.56360
C 13.16771 7.59382 2.90232
N 12.77712 1.90647 -0.90794
C 12.67620 3.22690 -1.14074
C 12.68724 3.52210 -2.62166
C 13.06148 2.13932 -3.33261
C 13.11697 1.22306 -2.09052
C 11.37818 4.05524 -3.20349
C 14.27864 2.15090 -4.29753
C 15.55251 2.38745 -3.51863
N 13.37358 -0.76769 0.10721
C 13.35759 -1.07946 -1.26997
C 13.43404 -2.55035 -1.38428
C 13.46626 -2.99707 -0.05466
C 13.39323 -1.88438 0.82629
C 13.41676 -3.29235 -2.59888
C 13.53472 -4.15754 0.80401
O 13.69925 -5.36337 0.62334
C 13.20763 -3.70503 2.29218
C 14.24697 -4.30484 3.19911
O 15.43767 -3.95630 3.11334
O 13.63389 -5.02401 4.15687
C 14.62283 -5.62995 5.08782
H 11.35932 2.45003 4.91287
H 12.65676 5.10272 -0.59089
H 13.36914 -0.55819 -3.21411
H 11.93741 -2.45287 4.87232
H 11.79931 0.13279 5.98245
H 9.91920 -1.44303 4.27302
H 9.78910 0.31919 4.09416
H 9.54393 -0.36716 5.67164
H 14.08691 -0.51153 5.75358
H 14.59747 -2.06529 4.99837
H 12.72634 -2.65945 7.06074
H 13.59162 -1.27702 7.63085
H 11.77937 4.43542 5.48076
H 11.36885 5.89465 4.64331
H 13.05810 5.68185 5.16094
H 12.24423 7.58204 3.47635
H 13.45637 8.54561 2.45215
H 13.96121 7.25089 3.57566
H 13.44432 4.25787 -2.86369
H 12.23819 1.76806 -3.96045
H 11.49217 5.03088 -3.71261
H 10.65301 4.12610 -2.40371
H 10.88115 3.39029 -3.90775
H 14.19112 2.97689 -5.00763
H 14.38017 1.23854 -4.87570
H 15.57888 3.47617 -3.41343
H 16.41443 2.02361 -4.07429
H 15.48296 1.96054 -2.51137
H 14.17472 -4.05880 -2.50630
H 13.60100 -2.65174 -3.45879
H 12.39136 -3.67119 -2.58142
H 12.20376 -4.05949 2.52921
H 14.43335 -6.70776 5.09796
H 14.50291 -5.08841 6.04495
H 15.66672 -5.60145 4.79813
