79

Mg 31.52435 2.84238 2.40100
C 29.22874 0.10305 2.07656
C 29.15799 4.80542 0.92403
C 33.68127 5.16522 2.26099
C 34.06503 0.48712 2.77970
N 29.49470 2.39665 1.64330
C 28.70441 1.33382 1.62966
C 27.24612 1.62236 1.18280
C 27.51632 2.95250 0.32456
C 28.78254 3.44194 1.02442
C 27.85294 2.67184 -1.13052
C 26.29385 1.90589 2.39722
C 24.80100 1.89012 2.06120
H 23.86856 1.37163 3.05829
N 31.29164 4.79795 2.15567
C 30.25947 5.42542 1.55385
C 30.57194 6.86173 1.61328
C 31.95003 7.02006 2.15228
C 32.37819 5.63616 2.19190
C 29.57571 7.92662 1.25699
C 32.75456 8.21962 2.55225
O 34.01533 8.14273 2.76992
C 32.04100 9.50447 2.59068
N 33.60055 2.83395 2.29297
C 34.29770 3.98368 2.29709
C 35.77299 3.72636 2.49127
C 35.89359 2.17494 2.86021
C 34.41068 1.76593 2.72198
C 36.66582 4.03431 1.28944
C 36.63855 1.82034 4.17625
C 35.84085 2.30189 5.36669
N 31.63574 0.69510 2.61267
C 32.80282 -0.09080 2.73249
C 32.37689 -1.50537 2.73404
C 30.98253 -1.44448 2.59073
C 30.57067 -0.08845 2.48556
C 33.24077 -2.63418 2.80891
C 29.76646 -2.21940 2.49383
O 29.48503 -3.41186 2.60586
C 28.58966 -1.25710 2.02960
C 27.40591 -1.50626 2.92355
O 27.45941 -1.22991 4.13491
O 26.34041 -1.82352 2.16563
C 25.13856 -2.06900 3.00653
H 28.57961 5.45581 0.26726
H 34.45677 5.93181 2.32732
H 34.78742 -0.30381 2.99241
H 26.80378 0.85821 0.55495
H 26.71077 3.67188 0.44680
H 27.97120 1.61534 -1.32014
H 28.77890 3.19708 -1.32484
H 27.10472 3.12775 -1.78524
H 26.40644 2.95388 2.70346
H 26.49021 1.22495 3.20244
H 24.60399 1.44056 1.08036
H 24.45789 2.92229 1.95672
H 28.70562 7.50601 0.73792
H 30.05110 8.57247 0.51083
H 29.28367 8.53456 2.11594
H 31.62116 9.71387 1.60969
H 32.75966 10.22622 2.98375
H 31.19575 9.41469 3.28212
H 36.16324 4.31434 3.31291
H 36.44689 1.61521 2.09183
H 37.46951 4.75974 1.51725
H 36.04126 4.39900 0.48478
H 37.14462 3.16816 0.83586
H 37.60062 2.33691 4.21782
H 36.83746 0.75967 4.28766
H 36.12662 3.35508 5.44553
H 36.11805 1.74959 6.26233
H 34.76494 2.26688 5.15969
H 32.78761 -3.32742 3.50503
H 34.24164 -2.34854 3.12584
H 33.21901 -2.96586 1.76738
H 28.37044 -1.48739 0.98629
H 24.77033 -3.06806 2.75363
H 24.45926 -1.21773 2.81251
H 25.28580 -2.16236 4.07614
