79

Mg 15.76628 1.41940 1.19766
C 15.14997 4.36497 3.13570
C 14.93074 3.24156 -1.56362
C 15.86251 -1.27336 -0.47459
C 15.44395 -0.40963 4.14663
N 15.13928 3.52755 0.94620
C 15.00008 4.56786 1.76201
C 14.75404 5.91171 1.01309
C 14.15102 5.33582 -0.34585
C 14.80612 3.96588 -0.34097
C 12.63670 5.15625 -0.31260
C 16.08119 6.70339 0.76081
C 15.90024 8.16253 0.33242
H 16.85875 9.15321 0.79844
N 15.92067 1.12551 -0.74981
C 15.54614 1.98205 -1.73029
C 15.86467 1.30558 -3.00607
C 16.27888 -0.08969 -2.69023
C 16.00864 -0.14369 -1.27622
C 15.80896 1.99068 -4.33696
C 16.82084 -1.20172 -3.53153
O 16.89597 -2.40406 -3.10337
C 17.18392 -0.85920 -4.91857
N 15.45133 -0.58040 1.70682
C 15.61300 -1.55558 0.80578
C 15.61309 -2.90660 1.45746
C 15.66080 -2.63845 3.03086
C 15.59366 -1.09143 3.00874
C 14.41473 -3.80792 1.12949
C 16.80565 -3.31575 3.82522
C 18.13424 -2.71553 3.42313
N 15.54485 1.87609 3.30798
C 15.40604 0.95831 4.35921
C 15.17763 1.74038 5.58814
C 15.18295 3.06679 5.16100
C 15.37469 3.10937 3.75042
C 14.94075 1.20477 6.88484
C 15.04668 4.45693 5.56448
O 14.96163 5.04183 6.64529
C 14.89813 5.34720 4.25254
C 15.83706 6.51496 4.38699
O 17.07343 6.34546 4.38336
O 15.14588 7.65805 4.25985
C 16.02315 8.85543 4.35396
H 14.46483 3.64388 -2.46529
H 15.99977 -2.22292 -0.99606
H 15.41886 -0.90822 5.11732
H 14.03049 6.57246 1.49092
H 14.47930 5.90975 -1.21220
H 12.23645 5.33240 0.68574
H 12.45917 4.12470 -0.61738
H 12.15614 5.77875 -1.06780
H 16.57180 6.30834 -0.12874
H 16.72740 6.66277 1.63836
H 14.88029 8.50584 0.50775
H 16.02277 8.21861 -0.74927
H 15.31311 2.95818 -4.26892
H 15.15599 1.39505 -4.97459
H 16.79386 2.07546 -4.79643
H 16.30575 -0.47117 -5.43510
H 17.63594 -1.75579 -5.34124
H 17.91329 -0.04882 -4.90278
H 16.49142 -3.48118 1.16624
H 14.75333 -2.97729 3.53122
H 14.69523 -4.77138 0.70314
H 13.75495 -3.26003 0.45734
H 13.75026 -4.00855 1.96951
H 16.85072 -4.37923 3.59302
H 16.69739 -3.21641 4.90534
H 18.39057 -3.27275 2.52277
H 18.87644 -2.87561 4.20589
H 18.02835 -1.66833 3.13915
H 15.53799 1.80076 7.57482
H 15.21321 0.15074 6.93372
H 13.86621 1.36294 6.97545
H 13.85645 5.66292 4.20425
H 15.62396 9.48403 5.15003
H 16.07554 9.28073 3.35157
H 17.03700 8.68287 4.71682
