79

Mg 7.87424 0.71311 0.60346
C 5.67748 -2.05264 -0.03210
C 5.68336 2.66089 -1.14033
C 9.99767 3.06574 0.75696
C 10.38140 -1.61232 1.27591
N 5.96226 0.24895 -0.40707
C 5.19546 -0.82404 -0.52971
C 3.80063 -0.54991 -1.15331
C 4.15690 0.79315 -1.95838
C 5.31816 1.29153 -1.10061
C 4.67728 0.53316 -3.36228
C 2.69963 -0.29254 -0.06539
C 1.26106 -0.32436 -0.58621
H 0.21864 -0.86622 0.28111
N 7.64569 2.66802 0.34919
C 6.68808 3.28840 -0.37150
C 6.96971 4.72798 -0.25989
C 8.26692 4.89857 0.44923
C 8.70683 3.52011 0.52932
C 6.01061 5.78347 -0.72838
C 8.99745 6.10417 0.95821
O 10.22198 6.04159 1.33163
C 8.26609 7.37895 0.91882
N 9.94750 0.73340 0.75673
C 10.62184 1.89216 0.85906
C 12.06474 1.65228 1.23442
C 12.16070 0.09858 1.60103
C 10.71293 -0.32848 1.27399
C 13.09660 1.98536 0.15705
C 12.73992 -0.26071 2.99677
C 11.79238 0.19697 4.08217
N 7.98944 -1.43473 0.80734
C 9.14360 -2.20637 1.06529
C 8.74145 -3.62639 1.00014
C 7.37531 -3.58240 0.68357
C 6.96021 -2.23086 0.54026
C 9.60547 -4.74442 1.17226
C 6.19239 -4.37225 0.42760
O 5.91650 -5.56951 0.49227
C 5.06918 -3.42053 -0.17160
C 3.78646 -3.69528 0.56437
O 3.68369 -3.43172 1.77540
O 2.82910 -4.01820 -0.32419
C 1.53503 -4.28892 0.35692
H 5.18245 3.31081 -1.85837
H 10.74752 3.84177 0.92725
H 11.08285 -2.39593 1.57018
H 3.45164 -1.31283 -1.83882
H 3.33200 1.50038 -1.93145
H 4.83374 -0.51951 -3.54544
H 5.61256 1.07275 -3.43395
H 4.01048 0.98635 -4.10141
H 2.75770 0.75339 0.26236
H 2.80340 -0.97972 0.75171
H 1.19511 -0.76557 -1.58817
H 0.91878 0.70427 -0.72325
H 5.21865 5.35715 -1.35645
H 6.56632 6.44381 -1.40292
H 5.60440 6.37790 0.09278
H 7.96951 7.59364 -0.10510
H 8.91923 8.10574 1.40569
H 7.34223 7.27029 1.49786
H 12.34034 2.23620 2.10400
H 12.81403 -0.44519 0.90295
H 13.85476 2.71881 0.49069
H 12.57258 2.35066 -0.71616
H 13.64102 1.13073 -0.24095
H 13.68157 0.26808 3.16357
H 12.93870 -1.31982 3.12233
H 12.05066 1.25292 4.20610
H 11.96314 -0.36152 5.00030
H 10.75152 0.15001 3.74147
H 9.07876 -5.45129 1.79949
H 10.55446 -4.44907 1.61492
H 9.71925 -5.06476 0.13317
H 4.98583 -3.64210 -1.23628
H 1.21596 -5.28990 0.05047
H 0.87309 -3.44463 0.08717
H 1.54838 -4.39219 1.43562
