79

Mg 7.87548 0.71417 0.60463
C 9.80317 2.21489 3.23349
C 6.27981 -1.09916 3.01301
C 6.48086 -0.94765 -1.71072
C 10.34785 1.76133 -1.61720
N 8.10030 0.65444 2.80421
C 8.82210 1.31406 3.69765
C 8.41792 1.04968 5.17288
C 7.73403 -0.39050 4.98044
C 7.30976 -0.26623 3.51851
C 8.71687 -1.54374 5.09616
C 7.38989 2.10663 5.70958
C 7.18763 2.09440 7.22638
H 6.95003 3.36427 7.90715
N 6.25407 -0.42959 0.64225
C 5.73482 -1.07028 1.71051
C 4.55452 -1.79291 1.21166
C 4.51437 -1.65945 -0.26999
C 5.78749 -1.01038 -0.51078
C 3.55814 -2.45033 2.12185
C 3.50387 -2.06233 -1.30089
O 3.78192 -2.06299 -2.55210
C 2.20987 -2.54512 -0.79691
N 8.44353 0.25851 -1.34268
C 7.62863 -0.43607 -2.15596
C 8.12478 -0.40455 -3.58187
C 9.31633 0.66199 -3.59868
C 9.36375 1.01216 -2.09518
C 8.62577 -1.73580 -4.14149
C 9.20734 1.82287 -4.62491
C 8.05865 2.73315 -4.25436
N 9.64646 1.94671 0.71652
C 10.55313 2.23393 -0.32728
C 11.65920 3.01754 0.26009
C 11.32821 3.11293 1.62018
C 10.11270 2.41932 1.86705
C 12.80524 3.49176 -0.43835
C 11.73614 3.63363 2.90516
O 12.63750 4.37432 3.29589
C 10.83205 2.96798 4.03028
C 10.34851 4.06041 4.94423
O 9.57600 4.93995 4.52442
O 10.70109 3.76528 6.20873
C 10.23398 4.81410 7.15403
H 5.87770 -1.87838 3.66109
H 5.98530 -1.41197 -2.56647
H 11.10710 2.20872 -2.26223
H 9.24800 0.97758 5.86537
H 6.86378 -0.50338 5.62175
H 9.73701 -1.19765 5.17158
H 8.58328 -2.13517 4.19983
H 8.43857 -2.19393 5.93051
H 6.38111 1.82273 5.38322
H 7.65670 3.09476 5.38856
H 7.96868 1.52231 7.74177
H 6.26619 1.55099 7.44923
H 3.93918 -2.52597 3.14776
H 3.46024 -3.48999 1.79112
H 2.57609 -1.97397 2.08556
H 2.37157 -3.40704 -0.15395
H 1.59064 -2.69990 -1.68261
H 1.76504 -1.76406 -0.17026
H 7.34495 -0.07087 -4.25539
H 10.28045 0.19199 -3.84243
H 8.09923 -2.04763 -5.06322
H 8.52404 -2.48948 -3.37197
H 9.69135 -1.77257 -4.36145
H 8.98317 1.42939 -5.61943
H 10.11450 2.41198 -4.70861
H 7.19117 2.22312 -4.68382
H 8.19422 3.71932 -4.69383
H 7.91720 2.76596 -3.16782
H 12.97189 4.50872 -0.10893
H 12.66367 3.44023 -1.51588
H 13.55601 2.77822 -0.08839
H 11.44810 2.23731 4.55582
H 11.11365 5.16413 7.70299
H 9.42520 4.34478 7.74511
H 9.86552 5.74154 6.73148
