79

Mg 7.89054 0.71176 0.60614
C 6.74994 -1.34017 3.32049
C 7.53720 3.39469 2.68258
C 8.45703 2.59037 -1.88731
C 7.06826 -1.90965 -1.53810
N 7.22239 0.87812 2.70808
C 6.87274 0.02382 3.65796
C 6.71960 0.65628 5.06726
C 6.42655 2.17071 4.62064
C 7.13383 2.16755 3.26697
C 4.95191 2.45504 4.38839
C 8.03555 0.55196 5.91544
C 7.86849 0.86862 7.40325
H 8.67051 0.12156 8.36820
N 8.45210 2.61381 0.53255
C 8.24751 3.55964 1.47320
C 8.83181 4.79706 0.93326
C 9.25160 4.54342 -0.47178
C 8.70565 3.21642 -0.67455
C 9.01919 6.03639 1.75932
C 10.00688 5.36501 -1.47215
O 10.05224 5.04228 -2.71175
C 10.61366 6.60845 -0.97499
N 7.58432 0.47437 -1.43646
C 7.96834 1.42353 -2.30799
C 7.90069 0.91840 -3.72949
C 7.62104 -0.65200 -3.61454
C 7.48058 -0.77246 -2.08119
C 6.83295 1.56180 -4.61400
C 8.61417 -1.59884 -4.34246
C 9.97028 -1.53433 -3.67748
N 7.23526 -1.33470 0.83131
C 6.92351 -2.24877 -0.19891
C 6.41467 -3.47600 0.44717
C 6.44427 -3.18000 1.81830
C 6.91774 -1.85416 2.01191
C 5.95774 -4.64312 -0.22748
C 6.17261 -3.68389 3.14533
O 5.83740 -4.77300 3.60922
C 6.23888 -2.47058 4.16997
C 7.07630 -2.89905 5.34370
O 8.28781 -3.14092 5.20101
O 6.36336 -2.74289 6.47405
C 7.15543 -3.14439 7.66705
H 7.24667 4.32365 3.17402
H 8.74075 3.15690 -2.77727
H 6.88329 -2.80704 -2.13237
H 5.89007 0.27316 5.64939
H 6.89840 2.87994 5.29572
H 4.35434 1.55752 4.44768
H 4.88804 2.88738 3.39842
H 4.60404 3.22916 5.07836
H 8.71386 1.36467 5.62538
H 8.48760 -0.41395 5.80011
H 6.81450 0.87993 7.70645
H 8.20943 1.89149 7.58074
H 8.46535 5.97743 2.70440
H 8.54149 6.85847 1.21539
H 10.07148 6.28183 1.91782
H 9.83862 7.24661 -0.55724
H 11.18457 7.01085 -1.81404
H 11.29464 6.36112 -0.15297
H 8.84398 1.07096 -4.23942
H 6.64481 -0.92438 -4.04188
H 7.24567 2.02258 -5.53129
H 6.30007 2.29703 -4.02578
H 6.03262 0.89523 -4.93081
H 8.75931 -1.27363 -5.37557
H 8.28262 -2.63137 -4.37343
H 10.42543 -0.64856 -4.13061
H 10.54735 -2.43046 -3.89652
H 9.87284 -1.34164 -2.60276
H 6.36894 -5.49103 0.30398
H 6.26099 -4.64273 -1.27238
H 4.87698 -4.52364 -0.11368
H 5.21547 -2.23249 4.46241
H 6.57016 -3.90049 8.19945
H 7.37683 -2.20545 8.20847
H 8.08367 -3.67700 7.49632
