79

Mg 31.53256 2.83880 2.39533
C 31.15413 6.05822 0.87732
C 31.00770 1.48584 -0.69289
C 31.41032 -0.00972 3.78370
C 30.89870 4.37272 5.45980
N 31.14345 3.75910 0.41990
C 31.08244 5.00565 -0.03788
C 31.01092 5.09029 -1.59194
C 30.40581 3.64670 -1.89508
C 30.91115 2.90889 -0.66781
C 28.88090 3.61301 -1.89518
C 32.42370 5.26761 -2.24334
C 32.41609 5.68354 -3.71722
H 33.45459 6.58315 -4.19636
N 31.73375 1.02966 1.62761
C 31.49227 0.66223 0.34621
C 31.78871 -0.78471 0.27435
C 32.03941 -1.26723 1.66086
C 31.70785 -0.09215 2.42547
C 31.86000 -1.54706 -1.01308
C 32.49401 -2.58236 2.21031
O 32.42374 -2.85979 3.45637
C 32.94732 -3.58345 1.22778
N 30.98685 2.21516 4.31129
C 31.08056 0.93051 4.67166
C 30.91090 0.76513 6.15281
C 30.92295 2.23926 6.76646
C 31.02125 3.04348 5.44667
C 29.63798 0.03522 6.60326
C 31.95632 2.52717 7.88434
C 33.35630 2.47589 7.31466
N 31.27544 4.87381 3.10502
C 30.99753 5.28001 4.41820
C 30.80373 6.74135 4.38649
C 30.96705 7.08374 3.04562
C 31.21927 5.90724 2.28369
C 30.45898 7.56059 5.49754
C 30.96277 8.16671 2.07556
O 30.89649 9.39471 2.14710
C 30.96283 7.53142 0.61534
C 32.01411 8.24461 -0.19056
O 33.22465 8.12418 0.08775
O 31.45383 8.75919 -1.29592
C 32.44862 9.45532 -2.15497
H 30.62406 0.94599 -1.56083
H 31.46710 -0.95871 4.32095
H 30.78151 4.93077 6.39055
H 30.34277 5.86192 -1.97481
H 30.82798 3.21033 -2.80011
H 28.46143 4.56108 -1.55882
H 28.60744 2.81101 -1.20924
H 28.50010 3.31448 -2.87224
H 32.90530 4.29346 -2.32796
H 33.02583 5.97510 -1.67219
H 31.43205 6.03693 -4.02655
H 32.58764 4.79434 -4.32392
H 31.46724 -0.96471 -1.84564
H 31.17393 -2.38902 -0.92297
H 32.86616 -1.91304 -1.21812
H 32.13694 -3.79551 0.53002
H 33.31844 -4.42758 1.80792
H 33.75730 -3.15590 0.63610
H 31.73440 0.19390 6.57938
H 29.96511 2.50325 7.21538
H 29.83174 -0.84374 7.21857
H 29.06784 -0.22861 5.71297
H 28.92246 0.65496 7.14305
H 31.89770 1.76477 8.66039
H 31.81550 3.49726 8.36114
H 33.58837 1.41166 7.33456
H 34.04497 3.03753 7.94672
H 33.37370 2.79375 6.27200
H 31.08760 8.44832 5.42864
H 30.61587 7.03627 6.43992
H 29.40450 7.74511 5.29288
H 29.96334 7.68120 0.20828
H 32.08642 10.47228 -2.30605
H 32.58645 8.83089 -3.03787
H 33.42289 9.64863 -1.70467
