158

Mg 0.00000 0.00000 0.00000
C -0.21700 -2.21800 2.80100
C -1.25500 2.44200 2.02600
C -0.24500 1.85000 -2.56400
C 0.14600 -2.82400 -2.03700
N -0.61700 -0.00900 2.12600
C -0.59400 -0.90800 3.10500
C -0.93600 -0.30900 4.50200
C -1.77300 0.96400 4.03200
C -1.15500 1.16800 2.66000
C -3.26300 0.68500 3.86300
C 0.34500 0.11000 5.29900
C 0.12400 0.39700 6.78700
H 1.16800 0.03300 7.73300
N -0.18500 1.96100 -0.15200
C -0.70300 2.80000 0.77700
C -0.62000 4.15600 0.19300
C -0.18700 4.01500 -1.22500
C -0.21400 2.58300 -1.38000
C -0.88700 5.40600 0.97400
C 0.18100 5.01300 -2.27700
O 0.30300 4.69000 -3.50800
C 0.31000 6.41400 -1.83700
N -0.26500 -0.41300 -2.02900
C -0.27900 0.56900 -2.93700
C -0.19600 0.02400 -4.33200
C 0.12400 -1.53300 -4.18000
C 0.08600 -1.63200 -2.63500
C -1.45100 0.20500 -5.19700
C 1.37300 -2.07000 -4.92300
C 2.62600 -1.49000 -4.30600
N 0.15000 -2.14400 0.30300
C 0.17300 -3.13600 -0.68800
C 0.17300 -4.43800 0.00400
C 0.13300 -4.11100 1.35800
C 0.08300 -2.69500 1.50200
C 0.14900 -5.71500 -0.62300
C 0.09600 -4.62900 2.71600
O 0.20800 -5.74700 3.22100
C -0.25500 -3.42800 3.70100
C 0.71700 -3.48200 4.84800
O 1.93100 -3.25500 4.66900
O 0.03800 -3.55600 6.00300
C 0.94300 -3.58300 7.18300
H -1.85900 3.22000 2.49700
H -0.21800 2.45300 -3.47400
H 0.27600 -3.74700 -2.60500
H -1.55400 -0.94900 5.13200
H -1.58500 1.83100 4.66500
H -3.48400 -0.37700 3.96900
H -3.51100 1.02700 2.85800
H -3.85200 1.30100 4.54300
H 0.66900 1.09600 4.96600
H 1.13000 -0.63900 5.18900
H -0.84400 0.02600 7.12500
H 0.06200 1.47700 6.92100
H -1.34400 5.18600 1.93800
H -1.65100 5.96300 0.43200
H 0.00700 6.02000 1.08400
H -0.63500 6.74400 -1.40500
H 0.66500 6.97000 -2.70400
H 1.04800 6.46600 -1.03600
H 0.60800 0.50100 -4.89100
H -0.69200 -2.15600 -4.54700
H -1.26700 0.74000 -6.12900
H -2.20400 0.71400 -4.59600
H -1.96700 -0.72000 -5.45300
H 1.35600 -1.75900 -5.96700
H 1.45200 -3.15700 -4.90200
H 2.71400 -0.52200 -4.79800
H 3.48700 -2.12100 -4.52900
H 2.49500 -1.30300 -3.24000
H 0.86700 -6.33300 -0.08400
H 0.40400 -5.64200 -1.68000
H -0.89100 -5.99900 -0.46300
H -1.28300 -3.58100 4.02800
H 0.69800 -4.47800 7.75500
H 0.83300 -2.61900 7.68000
H 2.00000 -3.75400 6.97600
Mg 7.88314 0.70970 0.59883
C 7.61338 -1.13638 3.65357
C 6.63163 3.39813 2.28678
C 7.68463 2.22461 -2.18007
C 8.02196 -2.34926 -1.06524
N 7.24333 0.97363 2.70160
C 7.24661 0.20473 3.78602
C 6.89583 0.97769 5.09249
C 6.07702 2.18881 4.45630
C 6.71175 2.21315 3.07700
C 4.58613 1.90394 4.30595
C 8.17245 1.48227 5.84573
C 7.93847 1.95609 7.28313
H 8.96848 1.70475 8.27975
N 7.71992 2.63757 0.19941
C 7.20063 3.59129 1.00936
C 7.30380 4.86229 0.26062
C 7.75050 4.54023 -1.12316
C 7.71046 3.10040 -1.09728
C 7.04129 6.20290 0.87510
C 8.13998 5.39470 -2.28777
O 8.27184 4.91837 -3.46688
C 8.27863 6.83872 -2.02582
N 7.63567 0.04714 -1.36520
C 7.64148 0.90722 -2.38951
C 7.73383 0.19037 -3.70387
C 8.03618 -1.33791 -3.35360
C 7.98061 -1.24146 -1.80897
C 6.49009 0.27222 -4.59966
C 9.28749 -1.97511 -4.00828
C 10.53970 -1.33321 -3.45417
N 8.00787 -1.38040 1.17063
C 8.03130 -2.48934 0.31250
C 8.01052 -3.69391 1.16258
C 7.95937 -3.19886 2.46418
C 7.92237 -1.77561 2.42848
C 7.98014 -5.03936 0.70079
C 7.90251 -3.54159 3.87597
O 7.99761 -4.58814 4.51876
C 7.55332 -2.22319 4.69798
C 8.51237 -2.14108 5.85418
O 9.73048 -1.94913 5.66256
O 7.82031 -2.06321 7.00114
C 8.71229 -1.94958 8.18589
H 6.03064 4.23449 2.64904
H 7.72757 2.70810 -3.15824
H 8.14856 -3.33748 -1.51116
H 6.26458 0.42750 5.79051
H 6.26712 3.12684 4.97752
H 4.35312 0.86570 4.54193
H 4.35244 2.11900 3.26305
H 3.99624 2.60576 4.89607
H 8.51010 2.41565 5.39535
H 8.95085 0.71847 5.84010
H 6.96315 1.63912 7.65351
H 7.88613 3.04487 7.27959
H 6.57175 6.10994 1.85359
H 6.28890 6.69403 0.25833
H 7.94032 6.81794 0.91772
H 7.33249 7.22877 -1.65001
H 8.64859 7.27810 -2.95152
H 9.00850 6.98453 -1.22896
H 8.54863 0.58615 -4.30876
H 7.21781 -1.99489 -3.64910
H 6.68955 0.68410 -5.58924
H 5.73596 0.85940 -4.07641
H 5.96740 -0.67304 -4.74352
H 9.28488 -1.79776 -5.08322
H 9.35510 -3.05150 -3.84991
H 10.64290 -0.43559 -4.06283
H 11.39652 -1.99483 -3.58583
H 10.39921 -1.01247 -2.42176
H 8.68594 -5.59098 1.32170
H 8.24718 -5.10215 -0.35389
H 6.93562 -5.29178 0.88280
H 6.52036 -2.32475 5.02934
H 8.45200 -2.76332 8.86286
H 8.60687 -0.92979 8.55645
H 9.76963 -2.15459 8.01463
