158

Mg 0.00000 0.00000 0.00000
C -0.21700 -2.21800 2.80100
C -1.25500 2.44200 2.02600
C -0.24500 1.85000 -2.56400
C 0.14600 -2.82400 -2.03700
N -0.61700 -0.00900 2.12600
C -0.59400 -0.90800 3.10500
C -0.93600 -0.30900 4.50200
C -1.77300 0.96400 4.03200
C -1.15500 1.16800 2.66000
C -3.26300 0.68500 3.86300
C 0.34500 0.11000 5.29900
C 0.12400 0.39700 6.78700
H 1.16800 0.03300 7.73300
N -0.18500 1.96100 -0.15200
C -0.70300 2.80000 0.77700
C -0.62000 4.15600 0.19300
C -0.18700 4.01500 -1.22500
C -0.21400 2.58300 -1.38000
C -0.88700 5.40600 0.97400
C 0.18100 5.01300 -2.27700
O 0.30300 4.69000 -3.50800
C 0.31000 6.41400 -1.83700
N -0.26500 -0.41300 -2.02900
C -0.27900 0.56900 -2.93700
C -0.19600 0.02400 -4.33200
C 0.12400 -1.53300 -4.18000
C 0.08600 -1.63200 -2.63500
C -1.45100 0.20500 -5.19700
C 1.37300 -2.07000 -4.92300
C 2.62600 -1.49000 -4.30600
N 0.15000 -2.14400 0.30300
C 0.17300 -3.13600 -0.68800
C 0.17300 -4.43800 0.00400
C 0.13300 -4.11100 1.35800
C 0.08300 -2.69500 1.50200
C 0.14900 -5.71500 -0.62300
C 0.09600 -4.62900 2.71600
O 0.20800 -5.74700 3.22100
C -0.25500 -3.42800 3.70100
C 0.71700 -3.48200 4.84800
O 1.93100 -3.25500 4.66900
O 0.03800 -3.55600 6.00300
C 0.94300 -3.58300 7.18300
H -1.85900 3.22000 2.49700
H -0.21800 2.45300 -3.47400
H 0.27600 -3.74700 -2.60500
H -1.55400 -0.94900 5.13200
H -1.58500 1.83100 4.66500
H -3.48400 -0.37700 3.96900
H -3.51100 1.02700 2.85800
H -3.85200 1.30100 4.54300
H 0.66900 1.09600 4.96600
H 1.13000 -0.63900 5.18900
H -0.84400 0.02600 7.12500
H 0.06200 1.47700 6.92100
H -1.34400 5.18600 1.93800
H -1.65100 5.96300 0.43200
H 0.00700 6.02000 1.08400
H -0.63500 6.74400 -1.40500
H 0.66500 6.97000 -2.70400
H 1.04800 6.46600 -1.03600
H 0.60800 0.50100 -4.89100
H -0.69200 -2.15600 -4.54700
H -1.26700 0.74000 -6.12900
H -2.20400 0.71400 -4.59600
H -1.96700 -0.72000 -5.45300
H 1.35600 -1.75900 -5.96700
H 1.45200 -3.15700 -4.90200
H 2.71400 -0.52200 -4.79800
H 3.48700 -2.12100 -4.52900
H 2.49500 -1.30300 -3.24000
H 0.86700 -6.33300 -0.08400
H 0.40400 -5.64200 -1.68000
H -0.89100 -5.99900 -0.46300
H -1.28300 -3.58100 4.02800
H 0.69800 -4.47800 7.75500
H 0.83300 -2.61900 7.68000
H 2.00000 -3.75400 6.97600
Mg 31.53256 2.83880 2.39533
C 30.92019 5.90343 4.14040
C 30.72133 4.48721 -0.48004
C 31.62465 0.04562 0.89656
C 31.18488 1.20070 5.45170
N 30.91743 4.92978 2.00795
C 30.77889 6.02005 2.75581
C 30.54366 7.31518 1.92232
C 29.94530 6.65759 0.59886
C 30.59356 5.28768 0.69382
C 28.42995 6.48745 0.63454
C 31.87610 8.08326 1.62843
C 31.70477 9.51333 1.10795
H 32.66559 10.52698 1.51623
N 31.69624 2.42209 0.47116
C 31.33138 3.21688 -0.56348
C 31.65359 2.45991 -1.79225
C 32.05912 1.08542 -1.38676
C 31.78081 1.12186 0.02624
C 31.60862 3.06005 -3.16395
C 32.60018 -0.07989 -2.15319
O 32.66698 -1.25320 -1.64974
C 32.97261 0.17289 -3.55692
N 31.20488 0.87652 3.02757
C 31.36668 -0.15422 2.19068
C 31.35647 -1.46148 2.92614
C 31.39682 -1.09496 4.47978
C 31.33748 0.44788 4.35989
C 30.15548 -2.37615 2.64861
C 32.53389 -1.72613 5.32187
C 33.86765 -1.15857 4.89052
N 31.30176 3.42855 4.47137
C 31.15259 2.57947 5.57749
C 30.92128 3.43846 6.75337
C 30.93555 4.73529 6.24359
C 31.13528 4.68803 4.83427
C 30.67459 2.98671 8.07983
C 30.80395 6.14870 6.55793
O 30.71584 6.80091 7.59925
C 30.66707 6.95522 5.19169
C 31.61102 8.12479 5.25779
O 32.84654 7.94970 5.27204
O 30.92624 9.26077 5.05489
C 31.80890 10.45764 5.07851
H 30.26241 4.83406 -1.40795
H 31.76007 -0.93553 0.43673
H 31.15196 0.76437 6.45169
H 29.82078 8.00804 2.35338
H 30.28120 7.17429 -0.29998
H 28.02507 6.72799 1.61746
H 28.24898 5.43958 0.39430
H 27.95666 7.06334 -0.16114
H 32.36965 7.63070 0.76839
H 32.51725 8.09504 2.51054
H 30.68558 9.87171 1.25537
H 31.83354 9.50059 0.02561
H 31.11721 4.03219 -3.15986
H 30.95623 2.42845 -3.76659
H 32.59645 3.11118 -3.62210
H 32.09924 0.53165 -4.10196
H 33.42250 -0.75062 -3.91965
H 33.70590 0.97929 -3.58795
H 32.23353 -2.05732 2.67680
H 30.48493 -1.39742 4.99519
H 30.43353 -3.36584 2.28542
H 29.50214 -1.86866 1.93946
H 29.48539 -2.52039 3.49572
H 32.57497 -2.80233 5.15737
H 32.42017 -1.55845 6.39294
H 34.12618 -1.77258 4.02855
H 34.60471 -1.27243 5.68612
H 33.76852 -0.13086 4.54055
H 31.27096 3.62223 8.73437
H 30.94154 1.93660 8.19658
H 29.60037 3.15522 8.15404
H 29.62724 7.27206 5.11754
H 31.40845 11.13699 5.83109
H 31.86894 10.81871 4.05166
H 32.81987 10.30362 5.45742
