158

Mg 0.00000 0.00000 0.00000
C -0.21700 -2.21800 2.80100
C -1.25500 2.44200 2.02600
C -0.24500 1.85000 -2.56400
C 0.14600 -2.82400 -2.03700
N -0.61700 -0.00900 2.12600
C -0.59400 -0.90800 3.10500
C -0.93600 -0.30900 4.50200
C -1.77300 0.96400 4.03200
C -1.15500 1.16800 2.66000
C -3.26300 0.68500 3.86300
C 0.34500 0.11000 5.29900
C 0.12400 0.39700 6.78700
H 1.16800 0.03300 7.73300
N -0.18500 1.96100 -0.15200
C -0.70300 2.80000 0.77700
C -0.62000 4.15600 0.19300
C -0.18700 4.01500 -1.22500
C -0.21400 2.58300 -1.38000
C -0.88700 5.40600 0.97400
C 0.18100 5.01300 -2.27700
O 0.30300 4.69000 -3.50800
C 0.31000 6.41400 -1.83700
N -0.26500 -0.41300 -2.02900
C -0.27900 0.56900 -2.93700
C -0.19600 0.02400 -4.33200
C 0.12400 -1.53300 -4.18000
C 0.08600 -1.63200 -2.63500
C -1.45100 0.20500 -5.19700
C 1.37300 -2.07000 -4.92300
C 2.62600 -1.49000 -4.30600
N 0.15000 -2.14400 0.30300
C 0.17300 -3.13600 -0.68800
C 0.17300 -4.43800 0.00400
C 0.13300 -4.11100 1.35800
C 0.08300 -2.69500 1.50200
C 0.14900 -5.71500 -0.62300
C 0.09600 -4.62900 2.71600
O 0.20800 -5.74700 3.22100
C -0.25500 -3.42800 3.70100
C 0.71700 -3.48200 4.84800
O 1.93100 -3.25500 4.66900
O 0.03800 -3.55600 6.00300
C 0.94300 -3.58300 7.18300
H -1.85900 3.22000 2.49700
H -0.21800 2.45300 -3.47400
H 0.27600 -3.74700 -2.60500
H -1.55400 -0.94900 5.13200
H -1.58500 1.83100 4.66500
H -3.48400 -0.37700 3.96900
H -3.51100 1.02700 2.85800
H -3.85200 1.30100 4.54300
H 0.66900 1.09600 4.96600
H 1.13000 -0.63900 5.18900
H -0.84400 0.02600 7.12500
H 0.06200 1.47700 6.92100
H -1.34400 5.18600 1.93800
H -1.65100 5.96300 0.43200
H 0.00700 6.02000 1.08400
H -0.63500 6.74400 -1.40500
H 0.66500 6.97000 -2.70400
H 1.04800 6.46600 -1.03600
H 0.60800 0.50100 -4.89100
H -0.69200 -2.15600 -4.54700
H -1.26700 0.74000 -6.12900
H -2.20400 0.71400 -4.59600
H -1.96700 -0.72000 -5.45300
H 1.35600 -1.75900 -5.96700
H 1.45200 -3.15700 -4.90200
H 2.71400 -0.52200 -4.79800
H 3.48700 -2.12100 -4.52900
H 2.49500 -1.30300 -3.24000
H 0.86700 -6.33300 -0.08400
H 0.40400 -5.64200 -1.68000
H -0.89100 -5.99900 -0.46300
H -1.28300 -3.58100 4.02800
H 0.69800 -4.47800 7.75500
H 0.83300 -2.61900 7.68000
H 2.00000 -3.75400 6.97600
Mg 15.76628 1.41940 1.19766
C 15.38785 4.63882 -0.32034
C 15.24142 0.06644 -1.89055
C 15.64404 -1.42913 2.58604
C 15.13242 2.95332 4.26213
N 15.37718 2.33970 -0.77776
C 15.31616 3.58625 -1.23554
C 15.24464 3.67089 -2.78960
C 14.63953 2.22730 -3.09274
C 15.14487 1.48949 -1.86547
C 13.11462 2.19361 -3.09284
C 16.65742 3.84821 -3.44101
C 16.64981 4.26414 -4.91488
H 17.68831 5.16375 -5.39402
N 15.96747 -0.38974 0.42994
C 15.72599 -0.75717 -0.85145
C 16.02243 -2.20411 -0.92331
C 16.27313 -2.68663 0.46320
C 15.94157 -1.51155 1.22781
C 16.09372 -2.96646 -2.21075
C 16.72773 -4.00177 1.01265
O 16.65746 -4.27919 2.25871
C 17.18104 -5.00285 0.03011
N 15.22057 0.79576 3.11362
C 15.31428 -0.48889 3.47399
C 15.14462 -0.65427 4.95514
C 15.15667 0.81986 5.56879
C 15.25497 1.62408 4.24901
C 13.87170 -1.38418 5.40560
C 16.19004 1.10777 6.68668
C 17.59002 1.05648 6.11700
N 15.50916 3.45441 1.90735
C 15.23125 3.86061 3.22053
C 15.03745 5.32195 3.18882
C 15.20077 5.66434 1.84795
C 15.45299 4.48784 1.08603
C 14.69270 6.14119 4.29987
C 15.19649 6.74731 0.87789
O 15.13021 7.97531 0.94943
C 15.19655 6.11202 -0.58232
C 16.24783 6.82521 -1.38822
O 17.45837 6.70478 -1.10991
O 15.68755 7.33979 -2.49359
C 16.68234 8.03591 -3.35263
H 14.85778 -0.47341 -2.75850
H 15.70082 -2.37811 3.12329
H 15.01523 3.51137 5.19289
H 14.57650 4.44252 -3.17248
H 15.06171 1.79093 -3.99777
H 12.69516 3.14168 -2.75649
H 12.84116 1.39161 -2.40691
H 12.73383 1.89508 -4.06991
H 17.13902 2.87406 -3.52563
H 17.25956 4.55570 -2.86985
H 15.66577 4.61753 -5.22421
H 16.82136 3.37494 -5.52158
H 15.70096 -2.38411 -3.04330
H 15.40765 -3.80842 -2.12063
H 17.09988 -3.33244 -2.41579
H 16.37066 -5.21491 -0.66765
H 17.55216 -5.84698 0.61025
H 17.99102 -4.57530 -0.56156
H 15.96812 -1.22550 5.38172
H 14.19883 1.08385 6.01772
H 14.06546 -2.26314 6.02090
H 13.30156 -1.64802 4.51531
H 13.15618 -0.76444 5.94539
H 16.13142 0.34537 7.46273
H 16.04922 2.07786 7.16348
H 17.82209 -0.00774 6.13689
H 18.27870 1.61813 6.74905
H 17.60742 1.37435 5.07434
H 15.32132 7.02892 4.23098
H 14.84959 5.61687 5.24225
H 13.63822 6.32570 4.09521
H 14.19706 6.26180 -0.98938
H 16.32014 9.05288 -3.50371
H 16.82017 7.41149 -4.23553
H 17.65662 8.22923 -2.90234
