79

Mg 8.94052 0.81132 0.68356
C 8.56518 -0.21053 4.10321
C 7.71268 3.85446 1.61429
C 8.83418 1.59715 -2.38867
C 9.04029 -2.56625 -0.16955
N 8.26233 1.59902 2.63595
C 8.22339 1.13916 3.87746
C 7.87122 2.20663 4.94800
C 7.08461 3.24195 4.00554
C 7.74728 2.90912 2.67034
C 5.59945 2.94158 3.88968
C 9.14845 2.86233 5.58104
C 8.88960 3.68503 6.84512
H 9.89930 3.67644 7.90007
N 8.82970 2.59318 -0.18318
C 8.32216 3.72575 0.34689
C 8.45465 4.75332 -0.69748
C 8.93060 4.09577 -1.94481
C 8.86189 2.70278 -1.55120
C 8.21721 6.21266 -0.43794
C 9.36239 4.63129 -3.27634
O 9.50949 3.86633 -4.29419
C 9.51747 6.08980 -3.37737
N 8.72516 -0.31208 -1.05252
C 8.76483 0.27173 -2.26310
C 8.86621 -0.75854 -3.36249
C 9.13118 -2.15148 -2.62282
C 9.04449 -1.67903 -1.15494
C 7.64139 -0.88821 -4.26769
C 10.38240 -2.95747 -3.06723
C 11.64008 -2.21793 -2.67139
N 9.01214 -1.06251 1.75673
C 9.02242 -2.36203 1.20426
C 8.95793 -3.31482 2.33141
C 8.89085 -2.49682 3.46933
C 8.89166 -1.13072 3.07783
C 8.91773 -4.73333 2.22034
C 8.80881 -2.47842 4.91212
O 8.86080 -3.33256 5.79612
C 8.46672 -0.99840 5.37999
C 9.40334 -0.63719 6.50017
O 10.62516 -0.53225 6.29342
O 8.68316 -0.26442 7.57383
C 9.56806 0.11392 8.70768
H 7.12838 4.76473 1.75174
H 8.90797 1.81296 -3.45706
H 9.16580 -3.63648 -0.34711
H 7.22071 1.85742 5.74088
H 7.29279 4.27049 4.28864
H 5.33860 2.00882 4.36724
H 5.39066 2.89486 2.82889
H 5.01387 3.78099 4.27542
H 9.51309 3.65351 4.91334
H 9.89854 2.12159 5.77928
H 7.89417 3.49442 7.26433
H 8.86741 4.74288 6.57219
H 7.71857 6.37391 0.52578
H 7.48914 6.55530 -1.18116
H 9.12625 6.81055 -0.53194
H 8.57439 6.57124 -3.12985
H 9.91707 6.27266 -4.37675
H 10.24469 6.41718 -2.62598
H 9.70161 -0.54407 -4.01764
H 8.30193 -2.85787 -2.77508
H 7.87212 -0.73507 -5.33885
H 6.89430 -0.18007 -3.93462
H 7.11069 -1.83588 -4.19367
H 10.40632 -3.04994 -4.15582
H 10.41717 -3.96158 -2.65789
H 11.76945 -1.49799 -3.48504
H 12.48411 -2.90212 -2.61183
H 11.48711 -1.64761 -1.74782
H 9.59182 -5.12364 2.97118
H 9.19973 -5.06213 1.22228
H 7.86009 -4.91540 2.42897
H 7.42381 -0.98851 5.69910
H 9.27283 -0.50208 9.56270
H 9.46271 1.20978 8.81608
H 10.62076 -0.12985 8.62484
