79

Mg 10.51816 0.95119 0.79254
C 9.93334 4.37273 1.70363
C 9.79907 1.84008 -2.42108
C 10.58427 -2.12827 0.03097
C 10.06842 0.12583 4.14847
N 9.95393 2.88718 -0.11620
C 9.82287 4.13151 0.31834
C 9.63818 5.18843 -0.80344
C 9.04651 4.22647 -1.94512
C 9.66258 2.90382 -1.49375
C 7.53379 4.09101 -1.89354
C 10.99785 5.83517 -1.24505
C 10.86208 7.08889 -2.11195
H 11.84230 8.15867 -1.94700
N 10.71553 0.06913 -0.97426
C 10.39560 0.58286 -2.18050
C 10.71032 -0.46737 -3.16138
C 11.08732 -1.70240 -2.42158
C 10.78360 -1.29907 -1.06321
C 10.71446 -0.22267 -4.64243
C 11.61950 -3.03151 -2.86480
O 11.65136 -4.04113 -2.07581
C 12.01534 -3.14153 -4.27642
N 10.14277 -0.77913 1.88225
C 10.29467 -1.99348 1.32530
C 10.23861 -3.08324 2.36917
C 10.25934 -2.32896 3.77922
C 10.23261 -0.86623 3.28416
C 9.02136 -4.00540 2.30345
C 11.36556 -2.74859 4.78563
C 12.72300 -2.33995 4.26049
N 10.26415 2.03978 2.64146
C 10.06638 1.49761 3.93026
C 9.82999 2.63103 4.84782
C 9.88421 3.76146 4.01857
C 10.11649 3.35944 2.67546
C 9.55686 2.53037 6.24116
C 9.78719 5.20269 3.97229
O 9.68524 6.09396 4.81430
C 9.68879 5.65399 2.45142
C 10.65734 6.78504 2.23895
O 11.88230 6.59556 2.33977
O 9.99465 7.84503 1.74131
C 10.91485 8.98886 1.50323
H 9.37185 1.96183 -3.41684
H 10.70698 -3.19710 -0.15886
H 10.01728 -0.04156 5.22645
H 8.92834 5.97430 -0.57473
H 9.41840 4.50463 -2.92781
H 7.11572 4.57188 -1.02169
H 7.33425 3.02765 -1.87134
H 7.09026 4.46155 -2.82215
H 11.49734 5.16682 -1.95819
H 11.61218 6.05020 -0.39242
H 9.84335 7.49481 -2.09296
H 11.01904 6.80747 -3.15607
H 10.23666 0.73230 -4.89370
H 10.06314 -0.97920 -5.09334
H 11.71115 -0.30786 -5.08065
H 11.16183 -2.91171 -4.90979
H 12.45295 -4.13629 -4.38053
H 12.77669 -2.38204 -4.48649
H 11.10662 -3.72761 2.30254
H 9.32664 -2.48798 4.34012
H 9.28848 -5.07419 2.20142
H 8.39753 -3.68889 1.47810
H 8.34009 -3.93189 3.14941
H 11.38830 -3.83596 4.89175
H 11.22810 -2.33102 5.77746
H 12.98063 -3.15716 3.58013
H 13.44118 -2.26264 5.07430
H 12.65435 -1.42319 3.66343
H 10.14695 3.29408 6.73007
H 9.79374 1.53915 6.62215
H 8.48100 2.72475 6.24356
H 8.65778 5.95757 2.26584
H 10.51033 9.84417 2.05322
H 10.99104 9.08721 0.40402
H 11.91364 8.92348 1.91869
