79

Mg 15.77438 1.41415 1.19329
C 15.70310 2.72011 -2.14863
C 15.27234 -1.67503 -0.16299
C 15.38261 0.29495 4.13631
C 15.12844 4.64749 2.32200
N 15.53524 0.73786 -0.89900
C 15.58765 1.31560 -2.08973
C 15.59285 0.32559 -3.28531
C 14.88570 -0.92392 -2.56592
C 15.28063 -0.62927 -1.12028
C 13.36938 -0.89470 -2.66225
C 17.04535 -0.03125 -3.75955
C 17.12349 -0.74476 -5.11105
H 18.25279 -0.45089 -5.98901
N 15.87287 -0.44355 1.88452
C 15.66274 -1.58204 1.19100
C 15.83378 -2.67869 2.15654
C 15.99963 -2.08823 3.51248
C 15.73148 -0.69299 3.22702
C 15.90848 -4.12052 1.74548
C 16.33059 -2.68299 4.84774
O 16.18912 -2.01848 5.93458
C 16.73608 -4.09616 4.85361
N 15.11298 2.29066 2.95869
C 15.08850 1.59498 4.10906
C 14.84215 2.50281 5.29039
C 14.94738 3.99205 4.71708
C 15.15714 3.67287 3.22058
C 13.49923 2.32393 5.99818
C 15.95317 4.94633 5.41738
C 17.36867 4.47846 5.16669
N 15.64991 3.37753 0.30015
C 15.34243 4.59260 0.95066
C 15.26298 5.63649 -0.09165
C 15.50900 4.94657 -1.28831
C 15.70644 3.56636 -1.01347
C 14.94670 7.00713 0.12612
C 15.63604 5.07022 -2.72263
O 15.65379 6.01107 -3.51524
C 15.64212 3.61282 -3.35692
C 16.77771 3.53908 -4.34054
O 17.95636 3.62172 -3.95252
O 16.29732 3.16731 -5.54112
C 17.38769 3.06946 -6.54776
H 14.89121 -2.65118 -0.46426
H 15.34351 -0.01913 5.18192
H 15.02818 5.69799 2.60320
H 15.00753 0.64257 -4.14011
H 15.31773 -1.86546 -2.89487
H 13.01104 0.02611 -3.09794
H 13.00810 -0.99886 -1.64752
H 13.00894 -1.77488 -3.20233
H 17.45174 -0.81625 -3.10889
H 17.66634 0.84323 -3.77617
H 16.17922 -0.68208 -5.66546
H 17.25844 -1.81415 -4.93159
H 15.58908 -4.25929 0.70522
H 15.15866 -4.66009 2.33412
H 16.88966 -4.56175 1.93323
H 15.94242 -4.70139 4.42203
H 17.01756 -4.31513 5.88545
H 17.60975 -4.21215 4.20256
H 15.60189 2.36409 6.04977
H 13.98907 4.52657 4.79308
H 13.60085 2.09762 7.07638
H 12.95006 1.53921 5.49503
H 12.81875 3.16995 5.91819
H 15.80589 4.92355 6.49994
H 15.85960 5.97993 5.10131
H 17.51250 3.70749 5.92959
H 18.07190 5.29855 5.29682
H 17.45525 3.99342 4.18746
H 15.63630 7.58504 -0.47469
H 15.01964 7.26949 1.17950
H 13.91380 7.02816 -0.23157
H 14.67452 3.46024 -3.83655
H 17.10752 3.71488 -7.38599
H 17.50254 1.98983 -6.75979
H 18.35502 3.47828 -6.28018
