79

Mg 7.87504 0.71324 0.60468
C 9.62915 2.47388 3.19356
C 6.54769 -1.25840 3.05118
C 6.67361 -1.13675 -1.67600
C 10.17049 2.03696 -1.65903
N 8.13095 0.70729 2.80166
C 8.77444 1.46242 3.67919
C 8.42371 1.16625 5.16204
C 7.92397 -0.35047 4.99264
C 7.47062 -0.29710 3.53514
C 9.04517 -1.36986 5.10707
C 7.27732 2.09190 5.70147
C 7.09571 2.07168 7.22080
H 6.70835 3.30938 7.89201
N 6.41070 -0.62444 0.67447
C 5.98841 -1.31300 1.75559
C 4.90255 -2.18368 1.27914
C 4.82887 -2.07321 -0.20312
C 6.00750 -1.27230 -0.46668
C 4.00722 -2.95050 2.20853
C 3.86515 -2.61145 -1.21689
O 4.12663 -2.59149 -2.47151
C 2.64795 -3.24702 -0.69155
N 8.47333 0.31029 -1.34519
C 7.74281 -0.49030 -2.14101
C 8.21459 -0.41303 -3.57344
C 9.26245 0.79434 -3.61611
C 9.28284 1.16482 -2.11687
C 8.87234 -1.67719 -4.12630
C 8.99666 1.92059 -4.65226
C 7.74707 2.68369 -4.27595
N 9.47834 2.15947 0.68159
C 10.32965 2.54627 -0.37659
C 11.33522 3.46913 0.18874
C 11.01058 3.53774 1.55197
C 9.89476 2.69995 1.82131
C 12.40447 4.07542 -0.52905
C 11.36468 4.12014 2.82638
O 12.17030 4.97249 3.19815
C 10.56441 3.35917 3.96957
C 9.95804 4.39264 4.87885
O 9.07637 5.16344 4.46036
O 10.35947 4.15853 6.14155
C 9.77525 5.15116 7.08240
H 6.25416 -2.07448 3.71205
H 6.23046 -1.66931 -2.52067
H 10.86003 2.56870 -2.31817
H 9.26421 1.20678 5.84446
H 7.08225 -0.56433 5.64619
H 10.01456 -0.89766 5.16592
H 8.97660 -1.98356 4.21841
H 8.86040 -2.04027 5.95130
H 6.30849 1.67995 5.39095
H 7.41416 3.10196 5.36731
H 7.94833 1.60804 7.73171
H 6.25246 1.41951 7.46085
H 4.40656 -2.96603 3.23014
H 4.03689 -3.99794 1.88936
H 2.97275 -2.60159 2.18019
H 2.92405 -4.07445 -0.04225
H 2.04289 -3.48838 -1.56764
H 2.11579 -2.52086 -0.06696
H 7.39130 -0.18755 -4.24012
H 10.27509 0.44629 -3.86761
H 8.37855 -2.06312 -5.03805
H 8.87498 -2.42885 -3.34814
H 9.93149 -1.58246 -4.35959
H 8.81223 1.49077 -5.63988
H 9.82160 2.61788 -4.75344
H 6.94564 2.06397 -4.68915
H 7.75261 3.67400 -4.72683
H 7.61516 2.71089 -3.18806
H 12.44585 5.10894 -0.21186
H 12.25808 3.99424 -1.60411
H 13.24292 3.46577 -0.18177
H 11.27338 2.71762 4.49431
H 10.61025 5.61505 7.61650
H 9.03870 4.59083 7.68844
H 9.28835 6.02015 6.65550
