158

Mg 0.00000 0.00000 0.00000
C -0.21700 -2.21800 2.80100
C -1.25500 2.44200 2.02600
C -0.24500 1.85000 -2.56400
C 0.14600 -2.82400 -2.03700
N -0.61700 -0.00900 2.12600
C -0.59400 -0.90800 3.10500
C -0.93600 -0.30900 4.50200
C -1.77300 0.96400 4.03200
C -1.15500 1.16800 2.66000
C -3.26300 0.68500 3.86300
C 0.34500 0.11000 5.29900
C 0.12400 0.39700 6.78700
H 1.16800 0.03300 7.73300
N -0.18500 1.96100 -0.15200
C -0.70300 2.80000 0.77700
C -0.62000 4.15600 0.19300
C -0.18700 4.01500 -1.22500
C -0.21400 2.58300 -1.38000
C -0.88700 5.40600 0.97400
C 0.18100 5.01300 -2.27700
O 0.30300 4.69000 -3.50800
C 0.31000 6.41400 -1.83700
N -0.26500 -0.41300 -2.02900
C -0.27900 0.56900 -2.93700
C -0.19600 0.02400 -4.33200
C 0.12400 -1.53300 -4.18000
C 0.08600 -1.63200 -2.63500
C -1.45100 0.20500 -5.19700
C 1.37300 -2.07000 -4.92300
C 2.62600 -1.49000 -4.30600
N 0.15000 -2.14400 0.30300
C 0.17300 -3.13600 -0.68800
C 0.17300 -4.43800 0.00400
C 0.13300 -4.11100 1.35800
C 0.08300 -2.69500 1.50200
C 0.14900 -5.71500 -0.62300
C 0.09600 -4.62900 2.71600
O 0.20800 -5.74700 3.22100
C -0.25500 -3.42800 3.70100
C 0.71700 -3.48200 4.84800
O 1.93100 -3.25500 4.66900
O 0.03800 -3.55600 6.00300
C 0.94300 -3.58300 7.18300
H -1.85900 3.22000 2.49700
H -0.21800 2.45300 -3.47400
H 0.27600 -3.74700 -2.60500
H -1.55400 -0.94900 5.13200
H -1.58500 1.83100 4.66500
H -3.48400 -0.37700 3.96900
H -3.51100 1.02700 2.85800
H -3.85200 1.30100 4.54300
H 0.66900 1.09600 4.96600
H 1.13000 -0.63900 5.18900
H -0.84400 0.02600 7.12500
H 0.06200 1.47700 6.92100
H -1.34400 5.18600 1.93800
H -1.65100 5.96300 0.43200
H 0.00700 6.02000 1.08400
H -0.63500 6.74400 -1.40500
H 0.66500 6.97000 -2.70400
H 1.04800 6.46600 -1.03600
H 0.60800 0.50100 -4.89100
H -0.69200 -2.15600 -4.54700
H -1.26700 0.74000 -6.12900
H -2.20400 0.71400 -4.59600
H -1.96700 -0.72000 -5.45300
H 1.35600 -1.75900 -5.96700
H 1.45200 -3.15700 -4.90200
H 2.71400 -0.52200 -4.79800
H 3.48700 -2.12100 -4.52900
H 2.49500 -1.30300 -3.24000
H 0.86700 -6.33300 -0.08400
H 0.40400 -5.64200 -1.68000
H -0.89100 -5.99900 -0.46300
H -1.28300 -3.58100 4.02800
H 0.69800 -4.47800 7.75500
H 0.83300 -2.61900 7.68000
H 2.00000 -3.75400 6.97600
Mg 15.77013 1.42685 1.20415
C 16.61349 -0.54856 4.07914
C 13.65939 3.19077 3.22106
C 14.67238 2.88780 -1.38969
C 17.03257 -1.15485 -0.76735
N 15.28623 1.24955 3.35511
C 15.71466 0.50135 4.36059
C 15.21006 0.95151 5.75784
C 13.88358 1.72956 5.29527
C 14.30777 2.11568 3.87977
C 12.66156 0.83133 5.19941
C 16.21956 1.91416 6.47632
C 15.93984 2.14627 7.96280
H 17.07457 2.30861 8.86752
N 14.75848 3.12396 1.01720
C 13.96908 3.70699 1.94359
C 13.43832 4.92455 1.31112
C 13.84766 4.92651 -0.11967
C 14.43731 3.60708 -0.22696
C 12.69611 5.98157 2.07615
C 13.71706 5.94223 -1.21396
O 13.92931 5.64058 -2.44147
C 13.24289 7.27609 -0.81716
N 15.64526 0.85390 -0.79047
C 15.17431 1.69893 -1.72430
C 15.43498 1.17413 -3.11607
C 16.39788 -0.08848 -2.92578
C 16.45788 -0.13075 -1.38305
C 14.19869 0.75569 -3.91162
C 17.73421 -0.08009 -3.71751
C 18.63954 1.00983 -3.19042
N 16.83025 -0.42269 1.55549
C 17.24097 -1.36721 0.58944
C 17.82033 -2.51321 1.31982
C 17.68445 -2.16321 2.67168
C 17.04590 -0.89804 2.77697
C 18.33289 -3.70270 0.72947
C 17.92638 -2.58112 4.03385
O 18.51494 -3.52380 4.56176
C 17.12951 -1.61139 5.00905
C 18.06459 -1.18693 6.10812
O 19.05992 -0.48546 5.85540
O 17.51485 -1.49355 7.29730
C 18.40018 -1.08185 8.41913
H 12.80403 3.65838 3.70951
H 14.41211 3.39756 -2.32021
H 17.53661 -1.95565 -1.31263
H 14.95109 0.14204 6.42976
H 13.71598 2.61785 5.89877
H 12.91359 -0.20865 5.34452
H 12.25836 0.98806 4.20749
H 11.88912 1.17015 5.89573
H 16.07435 2.93363 6.09639
H 17.22847 1.57341 6.34738
H 15.22739 1.41687 8.36696
H 15.43188 3.10728 8.07440
H 12.40381 5.62671 3.07216
H 11.74588 6.14473 1.55625
H 13.24001 6.92740 2.12348
H 12.26706 7.18699 -0.34571
H 13.30037 7.88720 -1.72001
H 13.92353 7.67791 -0.05829
H 15.94314 1.91574 -3.72014
H 15.91361 -1.02232 -3.24713
H 14.10234 1.28451 -4.87865
H 13.32425 0.92430 -3.29724
H 14.12726 -0.30887 -4.12797
H 17.54972 0.15137 -4.76943
H 18.26208 -1.02731 -3.68396
H 18.28180 1.90201 -3.71303
H 19.67797 0.79780 -3.43689
H 18.47966 1.16979 -2.11780
H 19.25620 -3.93290 1.24426
H 18.49303 -3.57891 -0.33955
H 17.51479 -4.39534 0.94448
H 16.27159 -2.16504 5.39250
H 18.57803 -1.97278 9.02929
H 17.88824 -0.23117 8.90700
H 19.41402 -0.78675 8.17517
