158

Mg 0.00000 0.00000 0.00000
C -0.21700 -2.21800 2.80100
C -1.25500 2.44200 2.02600
C -0.24500 1.85000 -2.56400
C 0.14600 -2.82400 -2.03700
N -0.61700 -0.00900 2.12600
C -0.59400 -0.90800 3.10500
C -0.93600 -0.30900 4.50200
C -1.77300 0.96400 4.03200
C -1.15500 1.16800 2.66000
C -3.26300 0.68500 3.86300
C 0.34500 0.11000 5.29900
C 0.12400 0.39700 6.78700
H 1.16800 0.03300 7.73300
N -0.18500 1.96100 -0.15200
C -0.70300 2.80000 0.77700
C -0.62000 4.15600 0.19300
C -0.18700 4.01500 -1.22500
C -0.21400 2.58300 -1.38000
C -0.88700 5.40600 0.97400
C 0.18100 5.01300 -2.27700
O 0.30300 4.69000 -3.50800
C 0.31000 6.41400 -1.83700
N -0.26500 -0.41300 -2.02900
C -0.27900 0.56900 -2.93700
C -0.19600 0.02400 -4.33200
C 0.12400 -1.53300 -4.18000
C 0.08600 -1.63200 -2.63500
C -1.45100 0.20500 -5.19700
C 1.37300 -2.07000 -4.92300
C 2.62600 -1.49000 -4.30600
N 0.15000 -2.14400 0.30300
C 0.17300 -3.13600 -0.68800
C 0.17300 -4.43800 0.00400
C 0.13300 -4.11100 1.35800
C 0.08300 -2.69500 1.50200
C 0.14900 -5.71500 -0.62300
C 0.09600 -4.62900 2.71600
O 0.20800 -5.74700 3.22100
C -0.25500 -3.42800 3.70100
C 0.71700 -3.48200 4.84800
O 1.93100 -3.25500 4.66900
O 0.03800 -3.55600 6.00300
C 0.94300 -3.58300 7.18300
H -1.85900 3.22000 2.49700
H -0.21800 2.45300 -3.47400
H 0.27600 -3.74700 -2.60500
H -1.55400 -0.94900 5.13200
H -1.58500 1.83100 4.66500
H -3.48400 -0.37700 3.96900
H -3.51100 1.02700 2.85800
H -3.85200 1.30100 4.54300
H 0.66900 1.09600 4.96600
H 1.13000 -0.63900 5.18900
H -0.84400 0.02600 7.12500
H 0.06200 1.47700 6.92100
H -1.34400 5.18600 1.93800
H -1.65100 5.96300 0.43200
H 0.00700 6.02000 1.08400
H -0.63500 6.74400 -1.40500
H 0.66500 6.97000 -2.70400
H 1.04800 6.46600 -1.03600
H 0.60800 0.50100 -4.89100
H -0.69200 -2.15600 -4.54700
H -1.26700 0.74000 -6.12900
H -2.20400 0.71400 -4.59600
H -1.96700 -0.72000 -5.45300
H 1.35600 -1.75900 -5.96700
H 1.45200 -3.15700 -4.90200
H 2.71400 -0.52200 -4.79800
H 3.48700 -2.12100 -4.52900
H 2.49500 -1.30300 -3.24000
H 0.86700 -6.33300 -0.08400
H 0.40400 -5.64200 -1.68000
H -0.89100 -5.99900 -0.46300
H -1.28300 -3.58100 4.02800
H 0.69800 -4.47800 7.75500
H 0.83300 -2.61900 7.68000
H 2.00000 -3.75400 6.97600
Mg 8.94230 0.79802 0.67595
C 8.96653 1.22933 -2.88670
C 8.40036 -2.52344 0.12026
C 8.46729 0.45541 3.79435
C 8.34447 4.22073 0.94686
N 8.73048 -0.37523 -1.18707
C 8.81933 -0.11396 -2.48252
C 8.82693 -1.37104 -3.39315
C 8.07843 -2.38985 -2.40288
C 8.45063 -1.75003 -1.06692
C 6.56535 -2.36119 -2.54111
C 10.28053 -1.85831 -3.72725
C 10.37019 -2.88779 -4.85593
H 11.52300 -2.84061 -5.75107
N 8.98639 -0.82965 1.81055
C 8.76545 -2.10168 1.41763
C 8.89316 -2.92518 2.62995
C 9.04461 -2.01766 3.79965
C 8.81271 -0.73373 3.16891
C 8.94464 -4.42498 2.59315
C 9.33569 -2.26552 5.24880
O 9.18696 -1.34853 6.13189
C 9.71009 -3.63881 5.61673
N 8.26489 2.09803 2.15021
C 8.20218 1.71204 3.43668
C 7.95204 2.88988 4.34801
C 8.10117 4.18695 3.42446
C 8.33390 3.50095 2.06041
C 6.59161 2.91500 5.04443
C 9.11327 5.26951 3.88962
C 10.52298 4.73115 3.79871
N 8.87858 2.47802 -0.68111
C 8.58467 3.82179 -0.36178
C 8.54891 4.57357 -1.63299
C 8.80378 3.60290 -2.61346
C 8.96554 2.33200 -1.99852
C 8.25827 5.96009 -1.77160
C 8.96222 3.36251 -4.02973
O 9.01637 4.07528 -5.03111
C 8.94926 1.79300 -4.28046
C 10.10247 1.45777 -5.18614
O 11.27462 1.61567 -4.80177
O 9.63826 0.80584 -6.26774
C 10.74621 0.44225 -7.19081
H 8.00415 -3.53762 0.06238
H 8.40040 0.41297 4.88394
H 8.26151 5.30964 0.95481
H 8.26592 -1.26811 -4.31426
H 8.49636 -3.39053 -2.47597
H 6.23597 -1.57265 -3.20130
H 6.18161 -2.20291 -1.54174
H 6.19672 -3.34241 -2.85360
H 10.65659 -2.46246 -2.89159
H 10.92064 -1.02578 -3.94583
H 9.43882 -2.95029 -5.43176
H 10.47818 -3.88055 -4.41233
H 8.64322 -4.81389 1.61270
H 8.17159 -4.78838 3.27886
H 9.91202 -4.82111 2.90927
H 8.91224 -4.31976 5.33001
H 9.96598 -3.59776 6.67726
H 10.59390 -3.92771 5.03706
H 8.69319 2.93290 5.13664
H 7.15341 4.73887 3.34100
H 6.66663 2.96341 6.14720
H 6.03568 2.03846 4.73923
H 5.93147 3.72511 4.73925
H 8.94385 5.52008 4.93970
H 9.04861 6.19286 3.32372
H 10.63465 4.17282 4.73299
H 11.24117 5.54633 3.73779
H 10.61859 4.01569 2.97370
H 8.97220 6.35854 -2.48014
H 8.31577 6.47590 -0.81535
H 7.23345 5.90779 -2.14880
H 7.98837 1.54112 -4.73083
H 10.49704 0.86241 -8.17014
H 10.84173 -0.65783 -7.12418
H 11.71665 0.88930 -7.00960
