158

Mg 0.00000 0.00000 0.00000
C -0.21700 -2.21800 2.80100
C -1.25500 2.44200 2.02600
C -0.24500 1.85000 -2.56400
C 0.14600 -2.82400 -2.03700
N -0.61700 -0.00900 2.12600
C -0.59400 -0.90800 3.10500
C -0.93600 -0.30900 4.50200
C -1.77300 0.96400 4.03200
C -1.15500 1.16800 2.66000
C -3.26300 0.68500 3.86300
C 0.34500 0.11000 5.29900
C 0.12400 0.39700 6.78700
H 1.16800 0.03300 7.73300
N -0.18500 1.96100 -0.15200
C -0.70300 2.80000 0.77700
C -0.62000 4.15600 0.19300
C -0.18700 4.01500 -1.22500
C -0.21400 2.58300 -1.38000
C -0.88700 5.40600 0.97400
C 0.18100 5.01300 -2.27700
O 0.30300 4.69000 -3.50800
C 0.31000 6.41400 -1.83700
N -0.26500 -0.41300 -2.02900
C -0.27900 0.56900 -2.93700
C -0.19600 0.02400 -4.33200
C 0.12400 -1.53300 -4.18000
C 0.08600 -1.63200 -2.63500
C -1.45100 0.20500 -5.19700
C 1.37300 -2.07000 -4.92300
C 2.62600 -1.49000 -4.30600
N 0.15000 -2.14400 0.30300
C 0.17300 -3.13600 -0.68800
C 0.17300 -4.43800 0.00400
C 0.13300 -4.11100 1.35800
C 0.08300 -2.69500 1.50200
C 0.14900 -5.71500 -0.62300
C 0.09600 -4.62900 2.71600
O 0.20800 -5.74700 3.22100
C -0.25500 -3.42800 3.70100
C 0.71700 -3.48200 4.84800
O 1.93100 -3.25500 4.66900
O 0.03800 -3.55600 6.00300
C 0.94300 -3.58300 7.18300
H -1.85900 3.22000 2.49700
H -0.21800 2.45300 -3.47400
H 0.27600 -3.74700 -2.60500
H -1.55400 -0.94900 5.13200
H -1.58500 1.83100 4.66500
H -3.48400 -0.37700 3.96900
H -3.51100 1.02700 2.85800
H -3.85200 1.30100 4.54300
H 0.66900 1.09600 4.96600
H 1.13000 -0.63900 5.18900
H -0.84400 0.02600 7.12500
H 0.06200 1.47700 6.92100
H -1.34400 5.18600 1.93800
H -1.65100 5.96300 0.43200
H 0.00700 6.02000 1.08400
H -0.63500 6.74400 -1.40500
H 0.66500 6.97000 -2.70400
H 1.04800 6.46600 -1.03600
H 0.60800 0.50100 -4.89100
H -0.69200 -2.15600 -4.54700
H -1.26700 0.74000 -6.12900
H -2.20400 0.71400 -4.59600
H -1.96700 -0.72000 -5.45300
H 1.35600 -1.75900 -5.96700
H 1.45200 -3.15700 -4.90200
H 2.71400 -0.52200 -4.79800
H 3.48700 -2.12100 -4.52900
H 2.49500 -1.30300 -3.24000
H 0.86700 -6.33300 -0.08400
H 0.40400 -5.64200 -1.68000
H -0.89100 -5.99900 -0.46300
H -1.28300 -3.58100 4.02800
H 0.69800 -4.47800 7.75500
H 0.83300 -2.61900 7.68000
H 2.00000 -3.75400 6.97600
Mg 31.52261 2.84132 2.39267
C 30.63247 0.02648 0.35223
C 30.93019 4.81125 -0.32818
C 32.72837 5.28261 4.02169
C 33.11125 0.60461 4.54187
N 30.86919 2.36372 0.33423
C 30.50143 1.26563 -0.30865
C 29.88738 1.51705 -1.71197
C 30.56277 2.94143 -2.01830
C 30.77223 3.42592 -0.58510
C 31.92210 2.83121 -2.68869
C 28.32229 1.62065 -1.66973
C 27.63644 1.55652 -3.03620
H 26.34237 0.88707 -3.13474
N 31.33861 4.79576 2.10131
C 31.07401 5.42344 0.93629
C 31.06138 6.86115 1.24771
C 31.50282 7.03958 2.65768
C 31.90239 5.68493 2.98224
C 30.58131 7.89998 0.27622
C 31.56811 8.23449 3.55997
O 32.20831 8.20587 4.67000
C 30.93951 9.46687 3.06236
N 32.92046 2.95958 3.92707
C 33.22657 4.13977 4.49395
C 34.04125 3.94631 5.75064
C 34.01325 2.37427 6.04304
C 33.22741 1.89981 4.80097
C 35.49117 4.42552 5.68383
C 33.51791 1.92809 7.44598
C 32.04628 2.23941 7.59681
N 31.67759 0.69319 2.56466
C 32.41482 -0.03471 3.52421
C 32.30644 -1.46342 3.16438
C 31.52658 -1.46577 1.99806
C 31.19072 -0.13114 1.64385
C 32.92553 -2.54412 3.85353
C 30.92002 -2.29305 0.98003
O 30.79301 -3.50451 0.80695
C 30.42008 -1.35504 -0.20175
C 29.01498 -1.76037 -0.55377
O 28.08968 -1.60764 0.26300
O 28.95726 -2.05672 -1.86496
C 27.58090 -2.45394 -2.26457
H 30.99225 5.49260 -1.17717
H 33.08044 6.08026 4.67993
H 33.49645 -0.16260 5.21691
H 30.17582 0.79817 -2.46945
H 29.87670 3.59847 -2.54648
H 32.26344 1.80806 -2.74162
H 32.59667 3.42436 -2.08523
H 31.89742 3.30975 -3.67191
H 28.03877 2.63618 -1.36468
H 27.90826 0.87242 -1.02214
H 28.31430 1.20005 -3.82131
H 27.38074 2.57327 -3.34420
H 30.47628 7.48728 -0.73474
H 31.37934 8.64464 0.18406
H 29.66903 8.39908 0.60987
H 31.40079 9.75244 2.11996
H 31.01059 10.18317 3.88317
H 29.88542 9.25950 2.84672
H 33.59170 4.46738 6.58699
H 35.01602 1.92827 5.96973
H 35.74217 5.16724 6.46546
H 35.67003 4.83579 4.69883
H 36.24095 3.63865 5.74599
H 34.03573 2.49036 8.22692
H 33.68030 0.87431 7.64639
H 32.04588 3.29315 7.89131
H 31.59944 1.61414 8.36714
H 31.52777 2.16610 6.63378
H 32.18533 -3.32946 3.93001
H 33.28361 -2.23738 4.83407
H 33.74725 -2.76752 3.16787
H 31.10653 -1.48855 -1.03873
H 27.65615 -3.44059 -2.73204
H 27.20173 -1.62634 -2.89311
H 26.86591 -2.64856 -1.47377
