79

Mg 31.53228 2.84126 2.38502
C 33.74120 0.35586 1.03502
C 33.65986 5.19620 1.13513
C 29.85537 5.03931 3.94194
C 30.23581 0.36109 4.46195
N 33.42293 2.67357 1.24944
C 34.13335 1.67830 0.74041
C 35.28479 2.12512 -0.19985
C 35.50106 3.60953 0.37341
C 34.10006 3.86491 0.92537
C 36.48769 3.67113 1.52758
C 34.85022 2.14920 -1.70736
C 36.00214 2.27574 -2.70676
H 35.89720 1.57286 -3.98246
N 31.43832 4.80667 2.12633
C 32.38292 5.60178 1.58152
C 31.84075 6.96813 1.63901
C 30.56921 6.93612 2.41158
C 30.58262 5.56641 2.88466
C 32.47943 8.12744 0.93083
C 29.52174 7.97112 2.69046
O 28.61955 7.79254 3.58320
C 29.63915 9.23784 1.95349
N 30.38215 2.77333 4.11561
C 29.71576 3.85902 4.54587
C 28.74305 3.50217 5.64446
C 28.72077 1.90391 5.69612
C 29.79860 1.60127 4.63213
C 29.07552 4.05135 7.03163
C 27.33529 1.21467 5.56160
C 26.78452 1.43022 4.17035
N 31.76589 0.70290 2.58722
C 31.14833 -0.13628 3.54036
C 31.70612 -1.49143 3.35367
C 32.63370 -1.34064 2.31187
C 32.66734 0.01702 1.89338
C 31.37784 -2.64005 4.12765
C 33.59977 -2.01914 1.47819
O 33.93807 -3.19119 1.31819
C 34.45162 -0.92612 0.69970
C 34.51792 -1.33270 -0.74696
O 33.48871 -1.35631 -1.44466
O 35.80722 -1.41544 -1.12277
C 35.92455 -1.80503 -2.55325
H 34.37199 6.00798 0.98420
H 29.17695 5.73520 4.44089
H 29.81207 -0.48684 5.00428
H 36.19907 1.55207 -0.10248
H 35.73046 4.31142 -0.42414
H 36.79226 2.68661 1.85022
H 35.97361 4.18897 2.32672
H 37.34130 4.30073 1.26060
H 34.31982 3.08808 -1.91214
H 34.25711 1.28806 -1.94670
H 36.97572 2.08213 -2.24026
H 36.06428 3.31621 -3.03475
H 33.48988 7.87930 0.58323
H 32.63462 8.91273 1.67856
H 31.85704 8.52398 0.12582
H 30.60314 9.69274 2.16854
H 28.75133 9.81448 2.22021
H 29.62634 9.02032 0.87965
H 27.74781 3.86014 5.41111
H 29.10716 1.52173 6.65240
H 28.26421 4.66755 7.46307
H 29.99130 4.62320 6.96186
H 29.32874 3.29972 7.77738
H 26.61900 1.66624 6.25238
H 27.35976 0.15085 5.77295
H 26.32597 2.42135 4.23730
H 26.04555 0.66894 3.92870
H 27.59261 1.49008 3.43207
H 31.25840 -3.46027 3.43233
H 30.47519 -2.47992 4.71362
H 32.26865 -2.71201 4.75737
H 35.43942 -0.89116 1.16080
H 36.55523 -2.69865 -2.59031
H 36.29515 -0.90481 -3.07862
H 35.02914 -2.15729 -3.05184
