158

Mg 0.00000 0.00000 0.00000
C -0.21700 -2.21800 2.80100
C -1.25500 2.44200 2.02600
C -0.24500 1.85000 -2.56400
C 0.14600 -2.82400 -2.03700
N -0.61700 -0.00900 2.12600
C -0.59400 -0.90800 3.10500
C -0.93600 -0.30900 4.50200
C -1.77300 0.96400 4.03200
C -1.15500 1.16800 2.66000
C -3.26300 0.68500 3.86300
C 0.34500 0.11000 5.29900
C 0.12400 0.39700 6.78700
H 1.16800 0.03300 7.73300
N -0.18500 1.96100 -0.15200
C -0.70300 2.80000 0.77700
C -0.62000 4.15600 0.19300
C -0.18700 4.01500 -1.22500
C -0.21400 2.58300 -1.38000
C -0.88700 5.40600 0.97400
C 0.18100 5.01300 -2.27700
O 0.30300 4.69000 -3.50800
C 0.31000 6.41400 -1.83700
N -0.26500 -0.41300 -2.02900
C -0.27900 0.56900 -2.93700
C -0.19600 0.02400 -4.33200
C 0.12400 -1.53300 -4.18000
C 0.08600 -1.63200 -2.63500
C -1.45100 0.20500 -5.19700
C 1.37300 -2.07000 -4.92300
C 2.62600 -1.49000 -4.30600
N 0.15000 -2.14400 0.30300
C 0.17300 -3.13600 -0.68800
C 0.17300 -4.43800 0.00400
C 0.13300 -4.11100 1.35800
C 0.08300 -2.69500 1.50200
C 0.14900 -5.71500 -0.62300
C 0.09600 -4.62900 2.71600
O 0.20800 -5.74700 3.22100
C -0.25500 -3.42800 3.70100
C 0.71700 -3.48200 4.84800
O 1.93100 -3.25500 4.66900
O 0.03800 -3.55600 6.00300
C 0.94300 -3.58300 7.18300
H -1.85900 3.22000 2.49700
H -0.21800 2.45300 -3.47400
H 0.27600 -3.74700 -2.60500
H -1.55400 -0.94900 5.13200
H -1.58500 1.83100 4.66500
H -3.48400 -0.37700 3.96900
H -3.51100 1.02700 2.85800
H -3.85200 1.30100 4.54300
H 0.66900 1.09600 4.96600
H 1.13000 -0.63900 5.18900
H -0.84400 0.02600 7.12500
H 0.06200 1.47700 6.92100
H -1.34400 5.18600 1.93800
H -1.65100 5.96300 0.43200
H 0.00700 6.02000 1.08400
H -0.63500 6.74400 -1.40500
H 0.66500 6.97000 -2.70400
H 1.04800 6.46600 -1.03600
H 0.60800 0.50100 -4.89100
H -0.69200 -2.15600 -4.54700
H -1.26700 0.74000 -6.12900
H -2.20400 0.71400 -4.59600
H -1.96700 -0.72000 -5.45300
H 1.35600 -1.75900 -5.96700
H 1.45200 -3.15700 -4.90200
H 2.71400 -0.52200 -4.79800
H 3.48700 -2.12100 -4.52900
H 2.49500 -1.30300 -3.24000
H 0.86700 -6.33300 -0.08400
H 0.40400 -5.64200 -1.68000
H -0.89100 -5.99900 -0.46300
H -1.28300 -3.58100 4.02800
H 0.69800 -4.47800 7.75500
H 0.83300 -2.61900 7.68000
H 2.00000 -3.75400 6.97600
Mg 7.88315 0.71438 0.60834
C 6.12936 -1.72757 2.56797
C 5.41622 2.92354 1.42594
C 9.15634 2.75078 -1.46518
C 9.53942 -1.92755 -0.94815
N 6.06113 0.50664 1.84501
C 5.53018 -0.45089 2.59036
C 4.33412 0.00586 3.46807
C 3.87005 1.27505 2.60050
C 5.20270 1.61894 1.93833
C 2.87094 0.92579 1.51002
C 4.77947 0.42888 4.91193
C 3.63615 0.59019 5.91619
H 3.87213 0.21063 7.30641
N 7.65778 2.67837 0.43360
C 6.60336 3.41583 0.84056
C 6.91381 4.80367 0.46414
C 8.16277 4.80203 -0.34508
C 8.36719 3.37703 -0.51145
C 6.10380 5.97568 0.93711
C 9.02286 5.90127 -0.89107
O 9.92981 5.67420 -1.76783
C 8.70985 7.26469 -0.43873
N 9.00511 0.44830 -1.12161
C 9.47893 1.50333 -1.80742
C 10.48179 1.07036 -2.85011
C 10.76458 -0.47635 -2.55807
C 9.76545 -0.70243 -1.40220
C 10.04499 1.24177 -4.30483
C 12.24586 -0.89332 -2.34686
C 12.77292 -0.29333 -1.06327
N 7.99983 -1.42558 0.88223
C 8.73329 -2.34657 0.10254
C 8.40736 -3.69764 0.60335
C 7.48194 -3.46849 1.63271
C 7.23233 -2.07449 1.75075
C 8.90853 -4.92245 0.07916
C 6.65141 -4.08965 2.63923
O 6.51166 -5.23591 3.06385
C 5.64292 -2.99939 3.20553
C 5.66385 -3.08287 4.70723
O 6.69249 -2.79083 5.34221
O 4.41073 -3.28181 5.15499
C 4.37830 -3.36049 6.63977
H 4.58300 3.62679 1.43369
H 9.70487 3.41728 -2.13479
H 10.08874 -2.79693 -1.31572
H 3.52468 -0.71054 3.54124
H 3.53983 2.09042 3.23884
H 2.72718 -0.14084 1.42191
H 3.28238 1.32905 0.59397
H 1.92955 1.45702 1.67708
H 5.15185 1.46101 4.88379
H 5.50871 -0.25466 5.30131
H 2.70109 0.14861 5.55067
H 3.40910 1.65443 6.01553
H 5.15243 5.65496 1.37919
H 5.81199 6.54291 0.04663
H 6.66388 6.63214 1.60647
H 7.68157 7.50433 -0.69885
H 9.48762 7.90028 -0.86649
H 8.77277 7.29359 0.65480
H 11.40814 1.62229 -2.74840
H 10.43288 -1.11531 -3.38966
H 10.73856 1.86722 -4.89800
H 9.04903 1.66425 -4.31465
H 9.90799 0.31430 -4.85821
H 12.86909 -0.49835 -3.15292
H 12.39291 -1.96794 -2.32314
H 13.06217 0.71805 -1.36415
H 13.62974 -0.85737 -0.70027
H 11.97611 -0.19982 -0.31627
H 9.17007 -5.54045 0.92779
H 9.76471 -4.75583 -0.57120
H 8.03297 -5.26987 -0.47579
H 4.65651 -3.22195 2.79684
H 3.90291 -4.31153 6.89900
H 3.87262 -2.43618 6.97694
H 5.32603 -3.44966 7.15776
