158

Mg 0.00000 0.00000 0.00000
C -0.21700 -2.21800 2.80100
C -1.25500 2.44200 2.02600
C -0.24500 1.85000 -2.56400
C 0.14600 -2.82400 -2.03700
N -0.61700 -0.00900 2.12600
C -0.59400 -0.90800 3.10500
C -0.93600 -0.30900 4.50200
C -1.77300 0.96400 4.03200
C -1.15500 1.16800 2.66000
C -3.26300 0.68500 3.86300
C 0.34500 0.11000 5.29900
C 0.12400 0.39700 6.78700
H 1.16800 0.03300 7.73300
N -0.18500 1.96100 -0.15200
C -0.70300 2.80000 0.77700
C -0.62000 4.15600 0.19300
C -0.18700 4.01500 -1.22500
C -0.21400 2.58300 -1.38000
C -0.88700 5.40600 0.97400
C 0.18100 5.01300 -2.27700
O 0.30300 4.69000 -3.50800
C 0.31000 6.41400 -1.83700
N -0.26500 -0.41300 -2.02900
C -0.27900 0.56900 -2.93700
C -0.19600 0.02400 -4.33200
C 0.12400 -1.53300 -4.18000
C 0.08600 -1.63200 -2.63500
C -1.45100 0.20500 -5.19700
C 1.37300 -2.07000 -4.92300
C 2.62600 -1.49000 -4.30600
N 0.15000 -2.14400 0.30300
C 0.17300 -3.13600 -0.68800
C 0.17300 -4.43800 0.00400
C 0.13300 -4.11100 1.35800
C 0.08300 -2.69500 1.50200
C 0.14900 -5.71500 -0.62300
C 0.09600 -4.62900 2.71600
O 0.20800 -5.74700 3.22100
C -0.25500 -3.42800 3.70100
C 0.71700 -3.48200 4.84800
O 1.93100 -3.25500 4.66900
O 0.03800 -3.55600 6.00300
C 0.94300 -3.58300 7.18300
H -1.85900 3.22000 2.49700
H -0.21800 2.45300 -3.47400
H 0.27600 -3.74700 -2.60500
H -1.55400 -0.94900 5.13200
H -1.58500 1.83100 4.66500
H -3.48400 -0.37700 3.96900
H -3.51100 1.02700 2.85800
H -3.85200 1.30100 4.54300
H 0.66900 1.09600 4.96600
H 1.13000 -0.63900 5.18900
H -0.84400 0.02600 7.12500
H 0.06200 1.47700 6.92100
H -1.34400 5.18600 1.93800
H -1.65100 5.96300 0.43200
H 0.00700 6.02000 1.08400
H -0.63500 6.74400 -1.40500
H 0.66500 6.97000 -2.70400
H 1.04800 6.46600 -1.03600
H 0.60800 0.50100 -4.89100
H -0.69200 -2.15600 -4.54700
H -1.26700 0.74000 -6.12900
H -2.20400 0.71400 -4.59600
H -1.96700 -0.72000 -5.45300
H 1.35600 -1.75900 -5.96700
H 1.45200 -3.15700 -4.90200
H 2.71400 -0.52200 -4.79800
H 3.48700 -2.12100 -4.52900
H 2.49500 -1.30300 -3.24000
H 0.86700 -6.33300 -0.08400
H 0.40400 -5.64200 -1.68000
H -0.89100 -5.99900 -0.46300
H -1.28300 -3.58100 4.02800
H 0.69800 -4.47800 7.75500
H 0.83300 -2.61900 7.68000
H 2.00000 -3.75400 6.97600
Mg 31.53256 2.83880 2.39533
C 31.65757 2.14663 -1.11430
C 30.91369 -0.48205 2.87698
C 30.96831 3.49763 5.44561
C 31.03108 6.18670 1.56722
N 31.33598 1.14677 0.98145
C 31.46515 1.00442 -0.33393
C 31.45237 -0.48261 -0.79863
C 30.65877 -1.12260 0.42718
C 31.01830 -0.11300 1.50298
C 29.14505 -1.12253 0.23967
C 32.89471 -1.07948 -0.92162
C 32.98957 -2.40893 -1.67589
H 34.15841 -2.66191 -2.50484
N 31.49898 1.65522 3.97674
C 31.24612 0.32434 3.98698
C 31.33731 -0.09698 5.40150
C 31.47620 1.13027 6.23376
C 31.29134 2.15819 5.24149
C 31.33838 -1.53095 5.83450
C 31.72409 1.34283 7.69373
O 31.57847 2.48516 8.24911
C 32.06045 0.14488 8.48418
N 30.84774 4.54998 3.37539
C 30.74843 4.58842 4.70867
C 30.51332 5.98650 5.19861
C 30.71517 6.93840 3.93255
C 30.96508 5.85180 2.85779
C 29.13732 6.25397 5.82398
C 31.74526 8.08707 4.07353
C 33.14023 7.51428 4.18779
N 31.54439 4.02102 0.57509
C 31.28783 5.39495 0.46039
C 31.30330 5.71869 -0.97802
C 31.55299 4.49957 -1.60512
C 31.65904 3.47435 -0.62229
C 31.04490 6.99676 -1.54740
C 31.73038 3.82029 -2.87829
O 31.83604 4.18708 -4.04953
C 31.68402 2.24979 -2.61903
C 32.84887 1.63460 -3.34564
O 34.02150 1.86891 -2.98871
O 32.39984 0.68959 -4.18580
C 33.50796 0.01901 -4.91693
H 30.48356 -1.45269 3.13153
H 30.87461 3.78908 6.49380
H 30.96633 7.22542 1.23810
H 30.91149 -0.66383 -1.72763
H 31.04174 -2.10859 0.68963
H 28.85386 -0.56457 -0.65016
H 28.74091 -0.64946 1.13486
H 28.75505 -2.14070 0.23676
H 33.23625 -1.39983 0.06265
H 33.57351 -0.35746 -1.37686
H 32.07487 -2.61823 -2.23126
H 33.05176 -3.21362 -0.94322
H 31.05661 -2.19578 5.01893
H 30.53795 -1.64341 6.56550
H 32.28842 -1.82390 6.28163
H 31.24928 -0.57902 8.40341
H 32.29132 0.50159 9.48733
H 32.93985 -0.33022 8.04843
H 31.23492 6.25775 5.96811
H 29.79132 7.44306 3.64884
H 29.18673 6.63735 6.84344
H 28.56227 5.32942 5.78130
H 28.50078 6.93152 5.25551
H 31.55662 8.65599 4.98331
H 31.72874 8.78511 3.23644
H 33.21904 7.27491 5.24766
H 33.88227 8.25964 3.89965
H 33.23322 6.57938 3.63480
H 31.79431 7.14120 -2.32553
H 31.09821 7.78348 -0.79518
H 30.03356 6.84856 -1.92568
H 30.72818 1.89651 -3.00463
H 33.29759 0.12036 -5.98169
H 33.58235 -0.98944 -4.50962
H 34.48599 0.49737 -4.85395
