158

Mg 0.00000 0.00000 0.00000
C -0.21700 -2.21800 2.80100
C -1.25500 2.44200 2.02600
C -0.24500 1.85000 -2.56400
C 0.14600 -2.82400 -2.03700
N -0.61700 -0.00900 2.12600
C -0.59400 -0.90800 3.10500
C -0.93600 -0.30900 4.50200
C -1.77300 0.96400 4.03200
C -1.15500 1.16800 2.66000
C -3.26300 0.68500 3.86300
C 0.34500 0.11000 5.29900
C 0.12400 0.39700 6.78700
H 1.16800 0.03300 7.73300
N -0.18500 1.96100 -0.15200
C -0.70300 2.80000 0.77700
C -0.62000 4.15600 0.19300
C -0.18700 4.01500 -1.22500
C -0.21400 2.58300 -1.38000
C -0.88700 5.40600 0.97400
C 0.18100 5.01300 -2.27700
O 0.30300 4.69000 -3.50800
C 0.31000 6.41400 -1.83700
N -0.26500 -0.41300 -2.02900
C -0.27900 0.56900 -2.93700
C -0.19600 0.02400 -4.33200
C 0.12400 -1.53300 -4.18000
C 0.08600 -1.63200 -2.63500
C -1.45100 0.20500 -5.19700
C 1.37300 -2.07000 -4.92300
C 2.62600 -1.49000 -4.30600
N 0.15000 -2.14400 0.30300
C 0.17300 -3.13600 -0.68800
C 0.17300 -4.43800 0.00400
C 0.13300 -4.11100 1.35800
C 0.08300 -2.69500 1.50200
C 0.14900 -5.71500 -0.62300
C 0.09600 -4.62900 2.71600
O 0.20800 -5.74700 3.22100
C -0.25500 -3.42800 3.70100
C 0.71700 -3.48200 4.84800
O 1.93100 -3.25500 4.66900
O 0.03800 -3.55600 6.00300
C 0.94300 -3.58300 7.18300
H -1.85900 3.22000 2.49700
H -0.21800 2.45300 -3.47400
H 0.27600 -3.74700 -2.60500
H -1.55400 -0.94900 5.13200
H -1.58500 1.83100 4.66500
H -3.48400 -0.37700 3.96900
H -3.51100 1.02700 2.85800
H -3.85200 1.30100 4.54300
H 0.66900 1.09600 4.96600
H 1.13000 -0.63900 5.18900
H -0.84400 0.02600 7.12500
H 0.06200 1.47700 6.92100
H -1.34400 5.18600 1.93800
H -1.65100 5.96300 0.43200
H 0.00700 6.02000 1.08400
H -0.63500 6.74400 -1.40500
H 0.66500 6.97000 -2.70400
H 1.04800 6.46600 -1.03600
H 0.60800 0.50100 -4.89100
H -0.69200 -2.15600 -4.54700
H -1.26700 0.74000 -6.12900
H -2.20400 0.71400 -4.59600
H -1.96700 -0.72000 -5.45300
H 1.35600 -1.75900 -5.96700
H 1.45200 -3.15700 -4.90200
H 2.71400 -0.52200 -4.79800
H 3.48700 -2.12100 -4.52900
H 2.49500 -1.30300 -3.24000
H 0.86700 -6.33300 -0.08400
H 0.40400 -5.64200 -1.68000
H -0.89100 -5.99900 -0.46300
H -1.28300 -3.58100 4.02800
H 0.69800 -4.47800 7.75500
H 0.83300 -2.61900 7.68000
H 2.00000 -3.75400 6.97600
Mg 10.50374 0.95161 0.80420
C 12.57050 2.17227 3.47207
C 8.66225 -0.67059 3.17317
C 8.94155 -0.49893 -1.54589
C 13.11638 1.70177 -1.37687
N 10.69095 0.84241 3.00540
C 11.47825 1.39728 3.91458
C 11.02511 1.17123 5.38194
C 10.16844 -0.16967 5.16520
C 9.78198 0.02134 3.69999
C 10.99723 -1.43832 5.27910
C 10.13102 2.34360 5.91876
C 9.90931 2.34191 7.43289
H 9.82420 3.62479 8.12531
N 8.75127 0.02027 0.81007
C 8.14201 -0.56063 1.86489
C 6.88689 -1.12431 1.34424
C 6.88289 -0.97225 -0.13615
C 8.23038 -0.48590 -0.35482
C 5.80425 -1.66031 2.23532
C 5.84317 -1.23481 -1.18317
O 6.13504 -1.25805 -2.43101
C 4.49244 -1.55617 -0.69970
N 11.03515 0.44744 -1.14150
C 10.15007 -0.13122 -1.97199
C 10.66458 -0.14820 -3.39163
C 11.98066 0.76032 -3.38253
C 12.05228 1.08691 -1.87468
C 11.00171 -1.52626 -3.96058
C 12.03143 1.93577 -4.39664
C 11.00138 2.97943 -4.02901
N 12.41380 1.95075 0.95057
C 13.36272 2.13209 -0.07936
C 14.55071 2.76471 0.52964
C 14.21682 2.88750 1.88682
C 12.92081 2.34968 2.11172
C 15.75610 3.09808 -0.15009
C 14.67029 3.34013 3.18227
O 15.65236 3.95784 3.59180
C 13.67540 2.78225 4.28922
C 13.32104 3.91770 5.20993
O 12.67048 4.89141 4.79130
O 13.61748 3.56816 6.47496
C 13.27355 4.65797 7.42672
H 8.15723 -1.39948 3.80764
H 8.40270 -0.88886 -2.41253
H 13.93401 2.05658 -2.00795
H 11.83060 0.98859 6.08309
H 9.28272 -0.17865 5.79510
H 12.05168 -1.22388 5.37022
H 10.80203 -1.99941 4.37459
H 10.62882 -2.05660 6.10271
H 9.09888 2.19190 5.57756
H 10.52383 3.29350 5.61213
H 10.60569 1.67118 7.95070
H 8.92417 1.91638 7.63887
H 6.15954 -1.79333 3.26463
H 5.58093 -2.67612 1.89165
H 4.89028 -1.06402 2.19314
H 4.53640 -2.43788 -0.06478
H 3.87014 -1.62320 -1.59419
H 4.14110 -0.73164 -0.06935
H 9.94153 0.28742 -4.07025
H 12.88124 0.17536 -3.62048
H 10.45212 -1.76036 -4.89182
H 10.79631 -2.26874 -3.20093
H 12.05700 -1.69442 -4.16864
H 11.77249 1.58339 -5.39810
H 13.00635 2.40705 -4.46314
H 10.08236 2.58667 -4.47424
H 11.26528 3.94504 -4.45560
H 10.85118 3.01903 -2.94387
H 16.04479 4.08275 0.19282
H 15.62307 3.07538 -1.22970
H 16.40683 2.29247 0.20035
H 14.18807 1.97483 4.81346
H 14.18304 4.88929 7.98974
H 12.40472 4.28815 8.00303
H 13.02985 5.62847 7.01055
