158

Mg 0.00000 0.00000 0.00000
C -0.21700 -2.21800 2.80100
C -1.25500 2.44200 2.02600
C -0.24500 1.85000 -2.56400
C 0.14600 -2.82400 -2.03700
N -0.61700 -0.00900 2.12600
C -0.59400 -0.90800 3.10500
C -0.93600 -0.30900 4.50200
C -1.77300 0.96400 4.03200
C -1.15500 1.16800 2.66000
C -3.26300 0.68500 3.86300
C 0.34500 0.11000 5.29900
C 0.12400 0.39700 6.78700
H 1.16800 0.03300 7.73300
N -0.18500 1.96100 -0.15200
C -0.70300 2.80000 0.77700
C -0.62000 4.15600 0.19300
C -0.18700 4.01500 -1.22500
C -0.21400 2.58300 -1.38000
C -0.88700 5.40600 0.97400
C 0.18100 5.01300 -2.27700
O 0.30300 4.69000 -3.50800
C 0.31000 6.41400 -1.83700
N -0.26500 -0.41300 -2.02900
C -0.27900 0.56900 -2.93700
C -0.19600 0.02400 -4.33200
C 0.12400 -1.53300 -4.18000
C 0.08600 -1.63200 -2.63500
C -1.45100 0.20500 -5.19700
C 1.37300 -2.07000 -4.92300
C 2.62600 -1.49000 -4.30600
N 0.15000 -2.14400 0.30300
C 0.17300 -3.13600 -0.68800
C 0.17300 -4.43800 0.00400
C 0.13300 -4.11100 1.35800
C 0.08300 -2.69500 1.50200
C 0.14900 -5.71500 -0.62300
C 0.09600 -4.62900 2.71600
O 0.20800 -5.74700 3.22100
C -0.25500 -3.42800 3.70100
C 0.71700 -3.48200 4.84800
O 1.93100 -3.25500 4.66900
O 0.03800 -3.55600 6.00300
C 0.94300 -3.58300 7.18300
H -1.85900 3.22000 2.49700
H -0.21800 2.45300 -3.47400
H 0.27600 -3.74700 -2.60500
H -1.55400 -0.94900 5.13200
H -1.58500 1.83100 4.66500
H -3.48400 -0.37700 3.96900
H -3.51100 1.02700 2.85800
H -3.85200 1.30100 4.54300
H 0.66900 1.09600 4.96600
H 1.13000 -0.63900 5.18900
H -0.84400 0.02600 7.12500
H 0.06200 1.47700 6.92100
H -1.34400 5.18600 1.93800
H -1.65100 5.96300 0.43200
H 0.00700 6.02000 1.08400
H -0.63500 6.74400 -1.40500
H 0.66500 6.97000 -2.70400
H 1.04800 6.46600 -1.03600
H 0.60800 0.50100 -4.89100
H -0.69200 -2.15600 -4.54700
H -1.26700 0.74000 -6.12900
H -2.20400 0.71400 -4.59600
H -1.96700 -0.72000 -5.45300
H 1.35600 -1.75900 -5.96700
H 1.45200 -3.15700 -4.90200
H 2.71400 -0.52200 -4.79800
H 3.48700 -2.12100 -4.52900
H 2.49500 -1.30300 -3.24000
H 0.86700 -6.33300 -0.08400
H 0.40400 -5.64200 -1.68000
H -0.89100 -5.99900 -0.46300
H -1.28300 -3.58100 4.02800
H 0.69800 -4.47800 7.75500
H 0.83300 -2.61900 7.68000
H 2.00000 -3.75400 6.97600
Mg 8.94381 0.80856 0.67710
C 10.96820 -1.31296 2.74594
C 9.98803 3.42656 2.59813
C 6.83122 2.63101 -0.83387
C 7.21140 -2.04752 -0.31649
N 10.30368 0.91640 2.41819
C 11.06319 0.05466 3.07766
C 12.03524 0.70424 4.09879
C 11.23288 2.07080 4.35881
C 10.48432 2.17111 3.03130
C 10.20963 1.96442 5.47728
C 13.45253 0.97838 3.48386
C 14.54016 1.32347 4.50353
H 15.90061 0.85411 4.25582
N 8.83107 2.78372 0.52023
C 9.32995 3.69796 1.37845
C 8.96416 5.01099 0.82499
C 8.06706 4.79450 -0.34251
C 7.85360 3.36418 -0.24927
C 9.52123 6.30075 1.35378
C 7.48585 5.72329 -1.36513
O 6.54090 5.35538 -2.14906
C 7.99087 7.10402 -1.35893
N 7.13170 0.39171 -0.25286
C 6.43795 1.35800 -0.87969
C 5.31589 0.77564 -1.70567
C 5.55107 -0.80619 -1.69533
C 6.77054 -0.87456 -0.75002
C 3.90083 1.08272 -1.21608
C 5.64513 -1.51274 -3.07541
C 6.90079 -1.07529 -3.79467
N 9.15922 -1.32140 0.96855
C 8.30762 -2.33889 0.48525
C 8.79942 -3.61743 1.03833
C 9.89791 -3.24949 1.82980
C 10.06572 -1.83890 1.79009
C 8.21235 -4.89655 0.82543
C 10.94719 -3.73253 2.69835
O 11.35429 -4.84404 3.03384
C 11.60977 -2.48743 3.43123
C 13.10372 -2.62862 3.32783
O 13.66934 -2.56732 2.22197
O 13.63608 -2.59456 4.56307
C 15.11712 -2.71996 4.51201
H 10.07210 4.27864 3.27324
H 6.13928 3.20133 -1.45792
H 6.78521 -2.99354 -0.65722
H 12.15014 0.15809 5.02739
H 11.91200 2.91101 4.47803
H 10.10760 0.95060 5.83490
H 9.27579 2.31270 5.05575
H 10.45641 2.66325 6.28168
H 13.42135 1.91789 2.91720
H 13.77241 0.15137 2.88024
H 14.23303 1.08737 5.52963
H 14.68011 2.40717 4.50829
H 10.02334 6.15657 2.31840
H 8.66744 6.94655 1.58583
H 10.16334 6.80968 0.63173
H 7.81125 7.54987 -0.38352
H 7.52282 7.59023 -2.21707
H 9.07738 7.07976 -1.49861
H 5.36314 1.13127 -2.72762
H 4.73110 -1.33673 -1.18936
H 3.27370 1.58158 -1.97891
H 3.97267 1.69219 -0.32506
H 3.33758 0.22107 -0.86181
H 4.80548 -1.21812 -3.70971
H 5.63343 -2.59548 -3.00802
H 6.60318 -0.12979 -4.25786
H 7.18789 -1.80922 -4.54497
H 7.70531 -0.85506 -3.08341
H 9.02543 -5.58462 0.63579
H 7.50589 -4.87705 -0.00180
H 7.71422 -5.04505 1.78723
H 11.26835 -2.49724 4.46705
H 15.38804 -3.56833 5.14805
H 15.51111 -1.72755 4.80120
H 15.56315 -3.01207 3.56851
