158

Mg 0.00000 0.00000 0.00000
C -0.21700 -2.21800 2.80100
C -1.25500 2.44200 2.02600
C -0.24500 1.85000 -2.56400
C 0.14600 -2.82400 -2.03700
N -0.61700 -0.00900 2.12600
C -0.59400 -0.90800 3.10500
C -0.93600 -0.30900 4.50200
C -1.77300 0.96400 4.03200
C -1.15500 1.16800 2.66000
C -3.26300 0.68500 3.86300
C 0.34500 0.11000 5.29900
C 0.12400 0.39700 6.78700
H 1.16800 0.03300 7.73300
N -0.18500 1.96100 -0.15200
C -0.70300 2.80000 0.77700
C -0.62000 4.15600 0.19300
C -0.18700 4.01500 -1.22500
C -0.21400 2.58300 -1.38000
C -0.88700 5.40600 0.97400
C 0.18100 5.01300 -2.27700
O 0.30300 4.69000 -3.50800
C 0.31000 6.41400 -1.83700
N -0.26500 -0.41300 -2.02900
C -0.27900 0.56900 -2.93700
C -0.19600 0.02400 -4.33200
C 0.12400 -1.53300 -4.18000
C 0.08600 -1.63200 -2.63500
C -1.45100 0.20500 -5.19700
C 1.37300 -2.07000 -4.92300
C 2.62600 -1.49000 -4.30600
N 0.15000 -2.14400 0.30300
C 0.17300 -3.13600 -0.68800
C 0.17300 -4.43800 0.00400
C 0.13300 -4.11100 1.35800
C 0.08300 -2.69500 1.50200
C 0.14900 -5.71500 -0.62300
C 0.09600 -4.62900 2.71600
O 0.20800 -5.74700 3.22100
C -0.25500 -3.42800 3.70100
C 0.71700 -3.48200 4.84800
O 1.93100 -3.25500 4.66900
O 0.03800 -3.55600 6.00300
C 0.94300 -3.58300 7.18300
H -1.85900 3.22000 2.49700
H -0.21800 2.45300 -3.47400
H 0.27600 -3.74700 -2.60500
H -1.55400 -0.94900 5.13200
H -1.58500 1.83100 4.66500
H -3.48400 -0.37700 3.96900
H -3.51100 1.02700 2.85800
H -3.85200 1.30100 4.54300
H 0.66900 1.09600 4.96600
H 1.13000 -0.63900 5.18900
H -0.84400 0.02600 7.12500
H 0.06200 1.47700 6.92100
H -1.34400 5.18600 1.93800
H -1.65100 5.96300 0.43200
H 0.00700 6.02000 1.08400
H -0.63500 6.74400 -1.40500
H 0.66500 6.97000 -2.70400
H 1.04800 6.46600 -1.03600
H 0.60800 0.50100 -4.89100
H -0.69200 -2.15600 -4.54700
H -1.26700 0.74000 -6.12900
H -2.20400 0.71400 -4.59600
H -1.96700 -0.72000 -5.45300
H 1.35600 -1.75900 -5.96700
H 1.45200 -3.15700 -4.90200
H 2.71400 -0.52200 -4.79800
H 3.48700 -2.12100 -4.52900
H 2.49500 -1.30300 -3.24000
H 0.86700 -6.33300 -0.08400
H 0.40400 -5.64200 -1.68000
H -0.89100 -5.99900 -0.46300
H -1.28300 -3.58100 4.02800
H 0.69800 -4.47800 7.75500
H 0.83300 -2.61900 7.68000
H 2.00000 -3.75400 6.97600
Mg 7.89021 0.71609 0.59420
C 7.27321 3.78905 2.34214
C 7.07725 2.36191 -2.28068
C 7.98696 -2.07423 -0.91318
C 7.53738 -0.92914 3.64616
N 7.27247 2.80470 0.20904
C 7.13224 3.89832 0.94299
C 6.90273 5.19716 0.12451
C 6.29843 4.53741 -1.20906
C 6.94674 3.15776 -1.11462
C 4.78984 4.36044 -1.16261
C 8.24042 5.96303 -0.16884
C 8.06297 7.38996 -0.69242
H 9.02963 8.40598 -0.28532
N 8.05779 0.30668 -1.34045
C 7.69975 1.09771 -2.37358
C 8.00686 0.33217 -3.59169
C 8.42196 -1.03973 -3.19135
C 8.14564 -0.99436 -1.76949
C 7.97024 0.93827 -4.96455
C 8.96429 -2.20454 -3.96291
O 9.03201 -3.37798 -3.45174
C 9.32664 -1.95065 -5.36495
N 7.56994 -1.23895 1.22475
C 7.72749 -2.27259 0.37935
C 7.71494 -3.58906 1.11904
C 7.75856 -3.20971 2.67203
C 7.69599 -1.67069 2.55844
C 6.51144 -4.49205 0.84961
C 8.89607 -3.84268 3.51943
C 10.23328 -3.28659 3.08582
N 7.66475 1.30378 2.66105
C 7.50783 0.45335 3.77740
C 7.27610 1.31692 4.95340
C 7.29149 2.61925 4.43168
C 7.49676 2.56979 3.02637
C 7.03935 0.86628 6.28268
C 7.17015 4.02407 4.74862
O 7.07483 4.67495 5.78834
C 7.02672 4.83789 3.39085
C 7.97136 6.00704 3.44808
O 9.20134 5.82515 3.47382
O 7.27952 7.14289 3.24421
C 8.17499 8.32975 3.28081
H 6.62351 2.71863 -3.20575
H 8.12209 -3.05908 -1.36625
H 7.51575 -1.36096 4.64902
H 6.18623 5.88558 0.55636
H 6.64126 5.05973 -2.09845
H 4.38588 4.59963 -0.19011
H 4.60806 3.32100 -1.40257
H 4.31745 4.94094 -1.96023
H 8.73272 5.50453 -1.03611
H 8.87221 5.97213 0.69798
H 7.03862 7.75604 -0.55227
H 8.19843 7.38112 -1.77666
H 7.47103 1.91508 -4.95982
H 7.32018 0.30398 -5.57688
H 8.95697 0.98671 -5.43005
H 8.45406 -1.58889 -5.90364
H 9.77749 -2.87829 -5.72285
H 10.07021 -1.14636 -5.39399
H 8.59128 -4.17742 0.87626
H 6.84277 -3.52378 3.19406
H 6.79311 -5.49561 0.47867
H 5.86227 -3.99352 0.14209
H 5.85031 -4.64654 1.70063
H 8.93895 -4.92143 3.35026
H 8.77660 -3.68856 4.58665
H 10.48705 -3.90265 2.21797
H 10.97013 -3.39889 3.87859
H 10.13506 -2.25168 2.73802
H 7.62904 1.49673 6.93483
H 7.30155 -0.18321 6.39933
H 5.96089 1.03043 6.35510
H 5.98667 5.15559 3.30765
H 7.77054 9.01199 4.03490
H 8.22223 8.70056 2.23965
H 9.18471 8.18467 3.64668
