79

Mg 31.52822 2.83229 2.40247
C 30.04184 5.19468 4.65832
C 33.38357 1.71102 5.03592
C 33.17474 1.05198 0.35628
C 30.43353 4.85444 -0.21635
N 31.61188 3.45227 4.52400
C 30.95656 4.31974 5.28058
C 31.24179 4.19121 6.80100
C 32.68550 3.49304 6.71665
C 32.54772 2.81014 5.35748
C 33.83143 4.48797 6.63732
C 30.20021 3.27067 7.52882
C 30.23204 3.34664 9.05688
H 28.97239 3.22817 9.78606
N 32.68640 1.25190 2.71803
C 33.34411 0.93891 3.85414
C 34.07105 -0.30757 3.56780
C 33.92052 -0.61634 2.11979
C 33.25761 0.58788 1.66101
C 34.74777 -1.11833 4.63464
C 34.32001 -1.79429 1.28370
O 34.30353 -1.74752 0.00293
C 34.81992 -2.97244 2.00727
N 31.95597 3.04106 0.37867
C 32.64800 2.09678 -0.28266
C 32.59539 2.32617 -1.77430
C 31.51840 3.48809 -1.99257
C 31.18555 3.80486 -0.51803
C 33.91555 2.72602 -2.43284
C 30.34652 3.18753 -2.96674
C 29.45069 2.11916 -2.38239
N 30.28173 4.58629 2.20803
C 29.97437 5.28699 1.02117
C 29.18815 6.47611 1.40881
C 29.11165 6.39640 2.80749
C 29.81866 5.25021 3.26123
C 28.69580 7.47358 0.52069
C 28.60258 7.02703 4.00409
O 27.85873 7.97949 4.23485
C 29.28927 6.34603 5.26547
C 28.21191 6.02907 6.26615
O 27.33424 5.18766 6.00476
O 28.51882 6.60679 7.44191
C 27.48530 6.31195 8.46988
H 34.17383 1.43799 5.73580
H 33.63325 0.41257 -0.40161
H 29.97200 5.48138 -0.98226
H 31.31482 5.13346 7.33072
H 32.81348 2.75412 7.50340
H 33.47740 5.50264 6.53131
H 34.41341 4.19800 5.77229
H 34.49379 4.36961 7.49965
H 30.48901 2.22130 7.38682
H 29.20609 3.46856 7.17782
H 30.80335 4.21179 9.41475
H 30.78603 2.48433 9.43573
H 34.83217 -0.55725 5.57351
H 35.78428 -1.26784 4.31346
H 34.27957 -2.09374 4.78304
H 35.68792 -2.69141 2.59894
H 34.96966 -3.74088 1.24638
H 34.05019 -3.30138 2.71432
H 32.26060 1.43510 -2.29103
H 31.97710 4.39509 -2.41303
H 34.22108 2.04322 -3.24801
H 34.67909 2.77023 -1.66760
H 33.94047 3.73433 -2.84258
H 30.73021 2.78942 -3.90932
H 29.74860 4.06071 -3.20557
H 29.96315 1.19153 -2.65434
H 28.45827 2.16654 -2.82613
H 29.43189 2.17669 -1.28786
H 27.68137 7.69062 0.82783
H 28.73587 7.13947 -0.51398
H 29.40685 8.27990 0.71950
H 30.02069 7.05177 5.66111
H 27.13412 7.27425 8.85503
H 27.96855 5.62667 9.19141
H 26.55619 5.86709 8.13326
