79

Mg 10.51742 0.95458 0.79821
C 9.93590 2.36871 4.04492
C 9.46712 3.92112 -0.51752
C 10.58857 -0.40510 -2.06774
C 10.41699 -2.18781 2.30186
N 9.81798 2.82771 1.74395
C 9.69772 3.27016 2.98658
C 9.37786 4.78474 3.10191
C 8.70312 4.99846 1.66041
C 9.39395 3.87004 0.89745
C 7.20654 4.73482 1.65139
C 10.67113 5.65798 3.26593
C 10.41961 7.10587 3.69266
H 11.38334 7.74640 4.58340
N 10.56499 1.77131 -1.00990
C 10.11636 2.99431 -1.36242
C 10.36131 3.11137 -2.80826
C 10.84002 1.79501 -3.31101
C 10.65931 0.97911 -2.12706
C 10.21536 4.40470 -3.55620
C 11.36070 1.34216 -4.64143
O 11.49500 0.09928 -4.92434
C 11.62035 2.39322 -5.63609
N 10.29427 -1.01312 0.16521
C 10.42261 -1.34063 -1.13256
C 10.49622 -2.83815 -1.31252
C 10.63430 -3.44179 0.16197
C 10.52199 -2.13722 0.98104
C 9.30249 -3.48305 -2.01644
C 11.84344 -4.37981 0.42804
C 13.13251 -3.59345 0.35518
N 10.41615 0.20044 2.82035
C 10.35845 -1.15132 3.22470
C 10.18315 -1.15987 4.69155
C 10.12749 0.19836 5.03883
C 10.23856 0.99684 3.86853
C 10.04925 -2.31913 5.50660
C 9.98936 1.13808 6.12811
O 9.94671 1.04645 7.35430
C 9.73219 2.58351 5.51903
C 10.64609 3.55177 6.21885
O 11.87953 3.46618 6.08501
O 9.91115 4.54508 6.75136
C 10.77414 5.53670 7.44689
H 8.94226 4.72428 -1.03552
H 10.71974 -0.92514 -3.01948
H 10.47506 -3.12677 2.85654
H 8.67357 5.04202 3.88394
H 8.97058 5.96368 1.23830
H 6.86285 4.33139 2.59227
H 7.03755 4.02588 0.85145
H 6.66557 5.64251 1.36894
H 11.11608 5.82813 2.27709
H 11.35959 5.19523 3.94602
H 9.39742 7.25537 4.06107
H 10.48166 7.74416 2.80792
H 9.69099 5.15908 -2.95674
H 9.54304 4.21238 -4.39933
H 11.16666 4.77848 -3.94090
H 10.70375 2.94747 -5.82346
H 12.07125 1.88301 -6.48947
H 12.33790 3.10531 -5.21342
H 11.36996 -3.11587 -1.88919
H 9.76486 -4.05870 0.43277
H 9.58587 -4.05735 -2.91864
H 8.59354 -2.70540 -2.26782
H 8.70489 -4.14871 -1.39597
H 11.90436 -5.14813 -0.34664
H 11.79220 -4.88989 1.38417
H 13.34383 -3.56488 -0.71795
H 13.92407 -4.10413 0.89988
H 12.98264 -2.56021 0.68926
H 10.66416 -2.15704 6.38188
H 10.34744 -3.21815 4.97123
H 8.97406 -2.29612 5.70331
H 8.68057 2.82422 5.67938
H 10.40303 5.61902 8.47314
H 10.74070 6.45052 6.82434
H 11.80989 5.26732 7.61751
