79

Mg 8.94230 0.79802 0.67595
C 8.96653 1.22933 -2.88670
C 8.40036 -2.52344 0.12026
C 8.46729 0.45541 3.79435
C 8.34447 4.22073 0.94686
N 8.73048 -0.37523 -1.18707
C 8.81933 -0.11396 -2.48252
C 8.82693 -1.37104 -3.39315
C 8.07843 -2.38985 -2.40288
C 8.45063 -1.75003 -1.06692
C 6.56535 -2.36119 -2.54111
C 10.28053 -1.85831 -3.72725
C 10.37019 -2.88779 -4.85593
H 11.52300 -2.84061 -5.75107
N 8.98639 -0.82965 1.81055
C 8.76545 -2.10168 1.41763
C 8.89316 -2.92518 2.62995
C 9.04461 -2.01766 3.79965
C 8.81271 -0.73373 3.16891
C 8.94464 -4.42498 2.59315
C 9.33569 -2.26552 5.24880
O 9.18696 -1.34853 6.13189
C 9.71009 -3.63881 5.61673
N 8.26489 2.09803 2.15021
C 8.20218 1.71204 3.43668
C 7.95204 2.88988 4.34801
C 8.10117 4.18695 3.42446
C 8.33390 3.50095 2.06041
C 6.59161 2.91500 5.04443
C 9.11327 5.26951 3.88962
C 10.52298 4.73115 3.79871
N 8.87858 2.47802 -0.68111
C 8.58467 3.82179 -0.36178
C 8.54891 4.57357 -1.63299
C 8.80378 3.60290 -2.61346
C 8.96554 2.33200 -1.99852
C 8.25827 5.96009 -1.77160
C 8.96222 3.36251 -4.02973
O 9.01637 4.07528 -5.03111
C 8.94926 1.79300 -4.28046
C 10.10247 1.45777 -5.18614
O 11.27462 1.61567 -4.80177
O 9.63826 0.80584 -6.26774
C 10.74621 0.44225 -7.19081
H 8.00415 -3.53762 0.06238
H 8.40040 0.41297 4.88394
H 8.26151 5.30964 0.95481
H 8.26592 -1.26811 -4.31426
H 8.49636 -3.39053 -2.47597
H 6.23597 -1.57265 -3.20130
H 6.18161 -2.20291 -1.54174
H 6.19672 -3.34241 -2.85360
H 10.65659 -2.46246 -2.89159
H 10.92064 -1.02578 -3.94583
H 9.43882 -2.95029 -5.43176
H 10.47818 -3.88055 -4.41233
H 8.64322 -4.81389 1.61270
H 8.17159 -4.78838 3.27886
H 9.91202 -4.82111 2.90927
H 8.91224 -4.31976 5.33001
H 9.96598 -3.59776 6.67726
H 10.59390 -3.92771 5.03706
H 8.69319 2.93290 5.13664
H 7.15341 4.73887 3.34100
H 6.66663 2.96341 6.14720
H 6.03568 2.03846 4.73923
H 5.93147 3.72511 4.73925
H 8.94385 5.52008 4.93970
H 9.04861 6.19286 3.32372
H 10.63465 4.17282 4.73299
H 11.24117 5.54633 3.73779
H 10.61859 4.01569 2.97370
H 8.97220 6.35854 -2.48014
H 8.31577 6.47590 -0.81535
H 7.23345 5.90779 -2.14880
H 7.98837 1.54112 -4.73083
H 10.49704 0.86241 -8.17014
H 10.84173 -0.65783 -7.12418
H 11.71665 0.88930 -7.00960
