158

Mg 0.00000 0.00000 0.00000
C -0.21700 -2.21800 2.80100
C -1.25500 2.44200 2.02600
C -0.24500 1.85000 -2.56400
C 0.14600 -2.82400 -2.03700
N -0.61700 -0.00900 2.12600
C -0.59400 -0.90800 3.10500
C -0.93600 -0.30900 4.50200
C -1.77300 0.96400 4.03200
C -1.15500 1.16800 2.66000
C -3.26300 0.68500 3.86300
C 0.34500 0.11000 5.29900
C 0.12400 0.39700 6.78700
H 1.16800 0.03300 7.73300
N -0.18500 1.96100 -0.15200
C -0.70300 2.80000 0.77700
C -0.62000 4.15600 0.19300
C -0.18700 4.01500 -1.22500
C -0.21400 2.58300 -1.38000
C -0.88700 5.40600 0.97400
C 0.18100 5.01300 -2.27700
O 0.30300 4.69000 -3.50800
C 0.31000 6.41400 -1.83700
N -0.26500 -0.41300 -2.02900
C -0.27900 0.56900 -2.93700
C -0.19600 0.02400 -4.33200
C 0.12400 -1.53300 -4.18000
C 0.08600 -1.63200 -2.63500
C -1.45100 0.20500 -5.19700
C 1.37300 -2.07000 -4.92300
C 2.62600 -1.49000 -4.30600
N 0.15000 -2.14400 0.30300
C 0.17300 -3.13600 -0.68800
C 0.17300 -4.43800 0.00400
C 0.13300 -4.11100 1.35800
C 0.08300 -2.69500 1.50200
C 0.14900 -5.71500 -0.62300
C 0.09600 -4.62900 2.71600
O 0.20800 -5.74700 3.22100
C -0.25500 -3.42800 3.70100
C 0.71700 -3.48200 4.84800
O 1.93100 -3.25500 4.66900
O 0.03800 -3.55600 6.00300
C 0.94300 -3.58300 7.18300
H -1.85900 3.22000 2.49700
H -0.21800 2.45300 -3.47400
H 0.27600 -3.74700 -2.60500
H -1.55400 -0.94900 5.13200
H -1.58500 1.83100 4.66500
H -3.48400 -0.37700 3.96900
H -3.51100 1.02700 2.85800
H -3.85200 1.30100 4.54300
H 0.66900 1.09600 4.96600
H 1.13000 -0.63900 5.18900
H -0.84400 0.02600 7.12500
H 0.06200 1.47700 6.92100
H -1.34400 5.18600 1.93800
H -1.65100 5.96300 0.43200
H 0.00700 6.02000 1.08400
H -0.63500 6.74400 -1.40500
H 0.66500 6.97000 -2.70400
H 1.04800 6.46600 -1.03600
H 0.60800 0.50100 -4.89100
H -0.69200 -2.15600 -4.54700
H -1.26700 0.74000 -6.12900
H -2.20400 0.71400 -4.59600
H -1.96700 -0.72000 -5.45300
H 1.35600 -1.75900 -5.96700
H 1.45200 -3.15700 -4.90200
H 2.71400 -0.52200 -4.79800
H 3.48700 -2.12100 -4.52900
H 2.49500 -1.30300 -3.24000
H 0.86700 -6.33300 -0.08400
H 0.40400 -5.64200 -1.68000
H -0.89100 -5.99900 -0.46300
H -1.28300 -3.58100 4.02800
H 0.69800 -4.47800 7.75500
H 0.83300 -2.61900 7.68000
H 2.00000 -3.75400 6.97600
Mg 10.51802 0.94932 0.80563
C 9.67560 -1.19842 3.55457
C 9.85444 3.59021 2.85988
C 10.81523 2.85561 -1.71332
C 10.00687 -1.77884 -1.30187
N 9.85856 1.05449 2.91426
C 9.62998 0.17396 3.87695
C 9.41487 0.79822 5.28179
C 8.92877 2.25873 4.82406
C 9.61518 2.32890 3.46149
C 7.42752 2.35308 4.60803
C 10.74320 0.86955 6.11394
C 10.55486 1.17969 7.60058
H 11.45546 0.55024 8.56245
N 10.83531 2.90584 0.70605
C 10.52439 3.82918 1.63989
C 10.94236 5.12391 1.08028
C 11.37444 4.90894 -0.32748
C 10.99721 3.52170 -0.51009
C 10.98209 6.38630 1.89159
C 12.00895 5.80735 -1.34555
O 12.08018 5.47875 -2.58239
C 12.46042 7.12269 -0.86854
N 10.22050 0.65210 -1.23041
C 10.47217 1.63194 -2.11614
C 10.45211 1.10614 -3.53159
C 10.37329 -0.48553 -3.39756
C 10.26678 -0.60516 -1.86142
C 9.30188 1.60033 -4.40859
C 11.46903 -1.30850 -4.12883
C 12.81387 -1.06674 -3.48204
N 10.12765 -1.16048 1.05941
C 9.92133 -2.11815 0.04235
C 9.57817 -3.39207 0.70702
C 9.58616 -3.07908 2.07466
C 9.89154 -1.70219 2.24906
C 9.26371 -4.61493 0.04985
C 9.39528 -3.59791 3.40998
O 9.20491 -4.71512 3.88888
C 9.32043 -2.37426 4.42166
C 10.21853 -2.68084 5.58868
O 11.44909 -2.77039 5.43280
O 9.50470 -2.60251 6.72653
C 10.35465 -2.88780 7.91313
H 9.45520 4.48091 3.34583
H 11.01525 3.44307 -2.61241
H 9.92925 -2.69907 -1.88482
H 8.64681 0.32071 5.87831
H 9.31554 3.02921 5.48598
H 6.94815 1.38841 4.68386
H 7.29842 2.76268 3.61475
H 6.99314 3.08525 5.29475
H 11.31066 1.75759 5.80717
H 11.31165 -0.03325 6.00234
H 9.51137 1.06211 7.91721
H 10.76664 2.23922 7.76357
H 10.45098 6.26909 2.84426
H 10.39867 7.13568 1.34577
H 11.99696 6.76364 2.03410
H 11.61622 7.66328 -0.44716
H 12.96653 7.58396 -1.71880
H 13.17651 6.97217 -0.05296
H 11.36282 1.37004 -4.05511
H 9.43414 -0.88312 -3.80959
H 9.64283 2.09877 -5.33562
H 8.68768 2.26954 -3.82084
H 8.58802 0.83503 -4.70847
H 11.56023 -0.97945 -5.16689
H 11.26948 -2.37475 -4.14534
H 13.14889 -0.13608 -3.94971
H 13.49638 -1.88581 -3.69965
H 12.70541 -0.87556 -2.40811
H 9.78427 -5.39842 0.58432
H 9.55244 -4.58840 -0.99882
H 8.17789 -4.63072 0.17637
H 8.27866 -2.26317 4.72490
H 9.87518 -3.70525 8.46046
H 10.46258 -1.92239 8.44236
H 11.34040 -3.30164 7.73572
