79

Mg 15.76935 1.41288 1.20544
C 13.08443 1.84167 3.54776
C 17.87543 2.53671 3.64183
C 18.08452 1.47562 -0.96331
C 13.37650 1.42867 -1.32828
N 15.40755 2.07264 3.28536
C 14.35467 2.13419 4.08661
C 14.69146 2.45372 5.56784
C 16.09592 3.19829 5.33989
C 16.51042 2.54106 4.02501
C 15.95340 4.69256 5.10285
C 14.86272 1.15727 6.43496
C 14.88621 1.39320 7.94676
H 14.27968 0.38984 8.81731
N 17.74048 1.45600 1.43201
C 18.42735 1.92573 2.49448
C 19.84997 1.75155 2.16281
C 19.94963 1.29288 0.75058
C 18.56618 1.41298 0.33616
C 20.94873 1.93838 3.16841
C 21.10178 0.83558 -0.09182
O 20.99844 0.71054 -1.36324
C 22.38057 0.62834 0.60333
N 15.76121 1.65912 -0.85894
C 16.90195 1.59260 -1.56760
C 16.62020 1.52223 -3.04951
C 15.04014 1.31062 -3.17684
C 14.65331 1.38797 -1.68360
C 17.03681 2.74625 -3.86473
C 14.55831 0.08654 -4.00276
C 14.92823 -1.19456 -3.29049
N 13.61115 1.41326 1.10427
C 12.81179 1.44628 -0.05935
C 11.40556 1.55027 0.38127
C 11.48655 1.59409 1.78128
C 12.84841 1.54281 2.18404
C 10.27059 1.64021 -0.47305
C 10.73025 1.68277 3.00963
O 9.53391 1.66562 3.29633
C 11.73803 1.97452 4.20363
C 11.41064 1.03139 5.32873
O 11.57019 -0.19443 5.19259
O 11.17210 1.74335 6.44523
C 10.85351 0.85137 7.59182
H 18.58816 3.08904 4.25489
H 18.83757 1.38878 -1.74998
H 12.56543 1.34030 -2.05425
H 13.99268 3.12024 6.05899
H 16.80429 2.95519 6.12760
H 14.91918 4.98877 5.00908
H 16.49027 4.89747 4.18588
H 16.47315 5.24995 5.88739
H 15.87625 0.76139 6.29082
H 14.10730 0.43496 6.19365
H 14.53300 2.39689 8.21284
H 15.92529 1.37646 8.28449
H 20.58363 2.43589 4.07538
H 21.66035 2.65004 2.73597
H 21.47356 1.00823 3.39654
H 22.68440 1.55500 1.08443
H 23.05815 0.21742 -0.14761
H 22.22947 -0.10619 1.40223
H 17.12542 0.67642 -3.49948
H 14.55342 2.16363 -3.67214
H 17.73338 2.50478 -4.68969
H 17.47944 3.46943 -3.19269
H 16.21546 3.31061 -4.30300
H 15.06393 0.06037 -4.97117
H 13.49091 0.08950 -4.19675
H 15.96774 -1.35353 -3.59253
H 14.29186 -2.01346 -3.61984
H 14.91827 -1.05721 -2.20298
H 9.51645 0.98423 -0.05897
H 10.51994 1.36497 -1.49571
H 10.03965 2.70469 -0.37914
H 11.60914 3.01803 4.49355
H 9.88484 1.17263 7.98699
H 11.72265 0.91832 8.27290
H 10.65807 -0.19242 7.37560
