79

Mg 7.89130 0.71336 0.59314
C 10.51948 -1.46557 1.69949
C 9.75760 3.31570 1.76762
C 5.40963 2.61210 0.04219
C 5.78946 -2.06637 0.56038
N 9.86710 0.78837 1.58454
C 10.80074 -0.09762 1.89708
C 12.14032 0.52206 2.37781
C 11.58014 1.93655 2.89190
C 10.34136 2.04571 2.00524
C 11.12856 1.91366 4.34273
C 13.16937 0.70293 1.20719
C 14.60075 1.01227 1.65128
H 15.70582 0.46299 0.87051
N 7.80035 2.68736 0.40974
C 8.65332 3.59329 0.93224
C 8.13843 4.91067 0.52781
C 6.82121 4.71564 -0.13673
C 6.61173 3.30189 0.10308
C 8.91822 6.18027 0.71074
C 5.89637 5.64997 -0.85638
O 4.69359 5.31570 -1.14694
C 6.40976 7.00059 -1.12793
N 5.84075 0.37437 0.54125
C 4.98456 1.36189 0.22554
C 3.59536 0.82228 -0.01805
C 3.74991 -0.76936 -0.03697
C 5.25239 -0.88177 0.30261
C 2.53776 1.21844 1.01196
C 3.21825 -1.51319 -1.29265
C 4.06320 -1.16295 -2.49630
N 8.12631 -1.41754 0.86161
C 7.11054 -2.39808 0.83262
C 7.74048 -3.68797 1.18161
C 9.08521 -3.36193 1.41374
C 9.27549 -1.96407 1.24262
C 7.06877 -4.93766 1.29653
C 10.38482 -3.88076 1.77501
O 10.85197 -5.00453 1.95570
C 11.34525 -2.65661 2.09966
C 12.64545 -2.88216 1.37777
O 12.68713 -2.87881 0.13484
O 13.65482 -2.84755 2.26678
C 14.96630 -3.05537 1.59698
H 10.15518 4.17795 2.30365
H 4.54066 3.20433 -0.25383
H 5.22172 -2.99549 0.47628
H 12.61878 -0.00696 3.19327
H 12.27775 2.74079 2.67306
H 11.14898 0.91592 4.75534
H 10.11867 2.30245 4.34265
H 11.72228 2.61712 4.93347
H 12.93647 1.62874 0.66556
H 13.16827 -0.15478 0.56301
H 14.75171 0.81830 2.72018
H 14.77195 2.08643 1.54702
H 9.77778 6.03208 1.37603
H 8.27123 6.87744 1.25407
H 9.21042 6.63552 -0.23797
H 6.68119 7.47910 -0.18994
H 5.63990 7.49090 -1.72691
H 7.33094 6.91327 -1.71480
H 3.21606 1.14996 -0.97818
H 3.20398 -1.24164 0.79294
H 1.66531 1.73242 0.56617
H 3.00684 1.84441 1.75939
H 2.14600 0.39787 1.61063
H 2.20057 -1.18829 -1.52269
H 3.19375 -2.59170 -1.17769
H 3.63394 -0.21400 -2.83145
H 3.97357 -1.92948 -3.26340
H 5.10227 -0.97014 -2.20509
H 7.69541 -5.67377 0.81077
H 6.07828 -4.89937 0.84795
H 7.02317 -5.03525 2.38450
H 11.47829 -2.62258 3.18166
H 15.44901 -3.90172 2.09535
H 15.48480 -2.07941 1.64606
H 14.95526 -3.39429 0.56768
