158

Mg 0.00000 0.00000 0.00000
C -0.21700 -2.21800 2.80100
C -1.25500 2.44200 2.02600
C -0.24500 1.85000 -2.56400
C 0.14600 -2.82400 -2.03700
N -0.61700 -0.00900 2.12600
C -0.59400 -0.90800 3.10500
C -0.93600 -0.30900 4.50200
C -1.77300 0.96400 4.03200
C -1.15500 1.16800 2.66000
C -3.26300 0.68500 3.86300
C 0.34500 0.11000 5.29900
C 0.12400 0.39700 6.78700
H 1.16800 0.03300 7.73300
N -0.18500 1.96100 -0.15200
C -0.70300 2.80000 0.77700
C -0.62000 4.15600 0.19300
C -0.18700 4.01500 -1.22500
C -0.21400 2.58300 -1.38000
C -0.88700 5.40600 0.97400
C 0.18100 5.01300 -2.27700
O 0.30300 4.69000 -3.50800
C 0.31000 6.41400 -1.83700
N -0.26500 -0.41300 -2.02900
C -0.27900 0.56900 -2.93700
C -0.19600 0.02400 -4.33200
C 0.12400 -1.53300 -4.18000
C 0.08600 -1.63200 -2.63500
C -1.45100 0.20500 -5.19700
C 1.37300 -2.07000 -4.92300
C 2.62600 -1.49000 -4.30600
N 0.15000 -2.14400 0.30300
C 0.17300 -3.13600 -0.68800
C 0.17300 -4.43800 0.00400
C 0.13300 -4.11100 1.35800
C 0.08300 -2.69500 1.50200
C 0.14900 -5.71500 -0.62300
C 0.09600 -4.62900 2.71600
O 0.20800 -5.74700 3.22100
C -0.25500 -3.42800 3.70100
C 0.71700 -3.48200 4.84800
O 1.93100 -3.25500 4.66900
O 0.03800 -3.55600 6.00300
C 0.94300 -3.58300 7.18300
H -1.85900 3.22000 2.49700
H -0.21800 2.45300 -3.47400
H 0.27600 -3.74700 -2.60500
H -1.55400 -0.94900 5.13200
H -1.58500 1.83100 4.66500
H -3.48400 -0.37700 3.96900
H -3.51100 1.02700 2.85800
H -3.85200 1.30100 4.54300
H 0.66900 1.09600 4.96600
H 1.13000 -0.63900 5.18900
H -0.84400 0.02600 7.12500
H 0.06200 1.47700 6.92100
H -1.34400 5.18600 1.93800
H -1.65100 5.96300 0.43200
H 0.00700 6.02000 1.08400
H -0.63500 6.74400 -1.40500
H 0.66500 6.97000 -2.70400
H 1.04800 6.46600 -1.03600
H 0.60800 0.50100 -4.89100
H -0.69200 -2.15600 -4.54700
H -1.26700 0.74000 -6.12900
H -2.20400 0.71400 -4.59600
H -1.96700 -0.72000 -5.45300
H 1.35600 -1.75900 -5.96700
H 1.45200 -3.15700 -4.90200
H 2.71400 -0.52200 -4.79800
H 3.48700 -2.12100 -4.52900
H 2.49500 -1.30300 -3.24000
H 0.86700 -6.33300 -0.08400
H 0.40400 -5.64200 -1.68000
H -0.89100 -5.99900 -0.46300
H -1.28300 -3.58100 4.02800
H 0.69800 -4.47800 7.75500
H 0.83300 -2.61900 7.68000
H 2.00000 -3.75400 6.97600
Mg 8.92776 0.81047 0.68441
C 11.09684 1.73545 3.38970
C 6.86691 -0.59085 3.01332
C 7.22629 -0.40909 -1.69993
C 11.64176 1.24797 -1.45767
N 9.07142 0.65690 2.88624
C 9.91036 1.09948 3.81071
C 9.41358 0.91767 5.27007
C 8.39828 -0.30279 5.02818
C 8.05774 -0.05030 3.56089
C 9.05978 -1.66656 5.13715
C 8.66684 2.18771 5.80987
C 8.42719 2.19894 7.32123
H 8.49482 3.47546 8.02721
N 7.07235 0.10663 0.65944
C 6.38148 -0.40351 1.70046
C 5.07235 -0.79990 1.15898
C 5.10653 -0.63394 -0.31954
C 6.50710 -0.31858 -0.51708
C 3.91962 -1.20442 2.03134
C 4.05565 -0.75347 -1.38141
O 4.35834 -0.80088 -2.62598
C 2.66916 -0.90736 -0.91725
N 9.41672 0.26275 -1.26065
C 8.47679 -0.19192 -2.10784
C 9.00334 -0.25939 -3.52156
C 10.42280 0.47648 -3.48691
C 10.51541 0.77660 -1.97471
C 9.17218 -1.66319 -4.10226
C 10.63373 1.64619 -4.48689
C 9.73814 2.80730 -4.11929
N 10.94606 1.56026 0.86420
C 11.92342 1.63112 -0.15258
C 13.17347 2.10345 0.47726
C 12.84018 2.25382 1.83181
C 11.48413 1.88086 2.03559
C 14.41981 2.28945 -0.18467
C 13.33014 2.63309 3.13748
O 14.37661 3.11846 3.56533
C 12.25893 2.19371 4.22645
C 12.03803 3.35554 5.15590
O 11.52024 4.40734 4.74092
O 12.27195 2.95906 6.42020
C 12.05526 4.07400 7.38029
H 6.26629 -1.25676 3.63356
H 6.65398 -0.71966 -2.57713
H 12.50551 1.50347 -2.07519
H 10.18068 0.62839 5.97834
H 7.51039 -0.20665 5.64768
H 10.13154 -1.58719 5.24287
H 8.80738 -2.18973 4.22412
H 8.60611 -2.24176 5.94935
H 7.62830 2.17025 5.45509
H 9.17966 3.08372 5.51865
H 9.02717 1.44097 7.83935
H 7.39386 1.89853 7.51097
H 4.24213 -1.39117 3.06309
H 3.57504 -2.18069 1.67354
H 3.08833 -0.49765 1.98541
H 2.59395 -1.79383 -0.29196
H 2.05494 -0.88686 -1.81957
H 2.41598 -0.05149 -0.28163
H 8.34947 0.27029 -4.20346
H 11.24585 -0.21459 -3.72111
H 8.60960 -1.81721 -5.04239
H 8.86547 -2.38145 -3.35355
H 10.20062 -1.96053 -4.30003
H 10.34553 1.33903 -5.49523
H 11.66086 1.99190 -4.53676
H 8.78291 2.53751 -4.57955
H 10.12660 3.73627 -4.53177
H 9.58014 2.85474 -3.03558
H 14.82535 3.22663 0.17275
H 14.29890 2.29429 -1.26593
H 14.95974 1.40506 0.16404
H 12.65943 1.32315 4.74732
H 12.97927 4.18367 7.95637
H 11.13955 3.81059 7.94228
H 11.94066 5.07148 6.97243
