158

Mg 0.00000 0.00000 0.00000
C -0.21700 -2.21800 2.80100
C -1.25500 2.44200 2.02600
C -0.24500 1.85000 -2.56400
C 0.14600 -2.82400 -2.03700
N -0.61700 -0.00900 2.12600
C -0.59400 -0.90800 3.10500
C -0.93600 -0.30900 4.50200
C -1.77300 0.96400 4.03200
C -1.15500 1.16800 2.66000
C -3.26300 0.68500 3.86300
C 0.34500 0.11000 5.29900
C 0.12400 0.39700 6.78700
H 1.16800 0.03300 7.73300
N -0.18500 1.96100 -0.15200
C -0.70300 2.80000 0.77700
C -0.62000 4.15600 0.19300
C -0.18700 4.01500 -1.22500
C -0.21400 2.58300 -1.38000
C -0.88700 5.40600 0.97400
C 0.18100 5.01300 -2.27700
O 0.30300 4.69000 -3.50800
C 0.31000 6.41400 -1.83700
N -0.26500 -0.41300 -2.02900
C -0.27900 0.56900 -2.93700
C -0.19600 0.02400 -4.33200
C 0.12400 -1.53300 -4.18000
C 0.08600 -1.63200 -2.63500
C -1.45100 0.20500 -5.19700
C 1.37300 -2.07000 -4.92300
C 2.62600 -1.49000 -4.30600
N 0.15000 -2.14400 0.30300
C 0.17300 -3.13600 -0.68800
C 0.17300 -4.43800 0.00400
C 0.13300 -4.11100 1.35800
C 0.08300 -2.69500 1.50200
C 0.14900 -5.71500 -0.62300
C 0.09600 -4.62900 2.71600
O 0.20800 -5.74700 3.22100
C -0.25500 -3.42800 3.70100
C 0.71700 -3.48200 4.84800
O 1.93100 -3.25500 4.66900
O 0.03800 -3.55600 6.00300
C 0.94300 -3.58300 7.18300
H -1.85900 3.22000 2.49700
H -0.21800 2.45300 -3.47400
H 0.27600 -3.74700 -2.60500
H -1.55400 -0.94900 5.13200
H -1.58500 1.83100 4.66500
H -3.48400 -0.37700 3.96900
H -3.51100 1.02700 2.85800
H -3.85200 1.30100 4.54300
H 0.66900 1.09600 4.96600
H 1.13000 -0.63900 5.18900
H -0.84400 0.02600 7.12500
H 0.06200 1.47700 6.92100
H -1.34400 5.18600 1.93800
H -1.65100 5.96300 0.43200
H 0.00700 6.02000 1.08400
H -0.63500 6.74400 -1.40500
H 0.66500 6.97000 -2.70400
H 1.04800 6.46600 -1.03600
H 0.60800 0.50100 -4.89100
H -0.69200 -2.15600 -4.54700
H -1.26700 0.74000 -6.12900
H -2.20400 0.71400 -4.59600
H -1.96700 -0.72000 -5.45300
H 1.35600 -1.75900 -5.96700
H 1.45200 -3.15700 -4.90200
H 2.71400 -0.52200 -4.79800
H 3.48700 -2.12100 -4.52900
H 2.49500 -1.30300 -3.24000
H 0.86700 -6.33300 -0.08400
H 0.40400 -5.64200 -1.68000
H -0.89100 -5.99900 -0.46300
H -1.28300 -3.58100 4.02800
H 0.69800 -4.47800 7.75500
H 0.83300 -2.61900 7.68000
H 2.00000 -3.75400 6.97600
Mg 13.14718 1.18760 1.00199
C 13.90008 -0.95937 3.77737
C 12.81183 3.72944 3.25169
C 12.04353 2.99825 -1.35830
C 12.42460 -1.68029 -0.84160
N 13.35475 1.25239 3.20312
C 13.70431 0.38841 4.14423
C 13.93077 1.01916 5.54439
C 13.01756 2.32840 5.36889
C 13.08896 2.47444 3.85025
C 11.56589 2.10640 5.75965
C 15.43327 1.39611 5.79422
C 15.77981 1.72874 7.24716
H 17.09186 1.33934 7.75645
N 12.99364 3.16123 0.86139
C 12.88950 4.04372 1.87709
C 12.78240 5.36956 1.24872
C 12.66605 5.18304 -0.22315
C 12.53954 3.74130 -0.29698
C 12.87619 6.64925 2.02782
C 12.65582 6.14434 -1.37294
O 12.30518 5.78123 -2.55109
C 12.97836 7.54417 -1.06001
N 12.14767 0.74414 -0.76625
C 11.82852 1.71344 -1.64177
C 11.36662 1.13082 -2.95615
C 11.67320 -0.43600 -2.86297
C 12.20031 -0.50491 -1.41287
C 9.89106 1.34113 -3.29511
C 12.54057 -1.05192 -3.99478
C 13.95088 -0.51333 -3.91538
N 13.32645 -0.94379 1.30708
C 12.94067 -1.96854 0.41537
C 13.15162 -3.25409 1.11200
C 13.62755 -2.88425 2.37896
C 13.68844 -1.46758 2.47288
C 12.86306 -4.54384 0.58341
C 14.08221 -3.36988 3.66198
O 14.32601 -4.47957 4.13408
C 14.15905 -2.14223 4.66865
C 15.48281 -2.20700 5.37999
O 16.54553 -2.05207 4.75292
O 15.26891 -2.22353 6.70828
C 16.55270 -2.27636 7.45723
H 12.46059 4.54176 3.88860
H 11.75296 3.57265 -2.24097
H 12.31583 -2.62262 -1.38277
H 13.57088 0.42336 6.37461
H 13.46532 3.19054 5.85632
H 11.36199 1.06900 5.97958
H 10.97939 2.43579 4.91196
H 11.29367 2.76563 6.58889
H 15.64199 2.36594 5.32453
H 16.08475 0.62326 5.43518
H 14.99001 1.41644 7.94116
H 15.81703 2.81548 7.35498
H 12.79422 6.47010 3.10698
H 11.98654 7.23916 1.78207
H 13.76605 7.23067 1.77729
H 12.27389 7.92085 -0.32224
H 13.00748 8.05944 -2.02205
H 13.96989 7.57919 -0.59497
H 11.92669 1.54992 -3.78306
H 10.75051 -1.03408 -2.89070
H 9.73436 1.85577 -4.26189
H 9.43167 1.89782 -2.48914
H 9.28950 0.43414 -3.32165
H 12.15094 -0.75866 -4.97271
H 12.57275 -2.13612 -3.97287
H 13.87948 0.44374 -4.44074
H 14.64641 -1.18595 -4.41324
H 14.23271 -0.29959 -2.87781
H 13.69881 -5.18039 0.84195
H 12.70850 -4.50692 -0.49293
H 11.94041 -4.77379 1.12295
H 13.31887 -2.23110 5.35842
H 16.50227 -3.14837 8.11658
H 16.65853 -1.28613 7.93888
H 17.45343 -2.48926 6.89350
