79

Mg 31.53256 2.83880 2.39533
C 31.70486 -0.63845 1.56391
C 30.50029 1.89112 5.50650
C 30.93776 5.89261 3.00943
C 31.46971 3.50224 -1.02543
N 31.18667 0.84844 3.30056
C 31.34701 -0.40701 2.89396
C 31.17254 -1.45312 4.03527
C 30.26215 -0.59649 5.02490
C 30.70012 0.79773 4.61229
C 28.76759 -0.74129 4.75691
C 32.53602 -1.83955 4.70110
C 32.49818 -3.08400 5.59289
H 33.65828 -3.96195 5.61957
N 31.29724 3.77701 4.11789
C 30.88560 3.23145 5.28760
C 30.87220 4.33637 6.27027
C 31.12666 5.60473 5.53231
C 31.10441 5.13933 4.16913
C 30.68416 4.12683 7.74149
C 31.34339 7.01455 5.98350
O 31.31578 8.00078 5.17038
C 31.50300 7.22289 7.43407
N 31.02269 4.45833 1.18092
C 30.87877 5.68587 1.69222
C 30.79566 6.72165 0.61047
C 31.15815 5.96942 -0.75060
C 31.31543 4.53362 -0.19205
C 29.43944 7.42443 0.45958
C 32.31316 6.56267 -1.59584
C 33.62365 6.40239 -0.85825
N 31.75511 1.68368 0.57126
C 31.67051 2.16107 -0.74464
C 31.77886 0.99170 -1.63622
C 31.90314 -0.09359 -0.77104
C 31.84789 0.36570 0.57591
C 31.69794 1.01631 -3.05653
C 32.04502 -1.53710 -0.67100
O 32.23800 -2.44748 -1.47813
C 31.80000 -1.96084 0.84434
C 32.90865 -2.89802 1.23916
O 34.08675 -2.49534 1.32461
O 32.38085 -4.04981 1.68115
C 33.42671 -5.01341 2.11680
H 29.94705 1.72151 6.43230
H 30.84060 6.96767 3.17448
H 31.54302 3.64105 -2.10562
H 30.64902 -2.36311 3.74158
H 30.51336 -0.77896 6.06956
H 28.57937 -1.30940 3.84601
H 28.39010 0.27643 4.65569
H 28.25809 -1.16513 5.62267
H 32.79928 -1.08678 5.44413
H 33.31349 -1.96064 3.94599
H 31.58642 -3.66054 5.43413
H 32.43539 -2.75830 6.63124
H 30.35512 3.11226 7.96270
H 29.84914 4.75623 8.04859
H 31.57451 4.39358 8.31110
H 30.61410 6.85906 7.94985
H 31.73738 8.27906 7.56218
H 32.33445 6.61323 7.78897
H 31.51531 7.52173 0.77901
H 30.31317 5.93945 -1.43892
H 29.49641 8.50964 0.54783
H 28.75916 7.00693 1.20134
H 28.91100 7.20391 -0.46753
H 32.16047 7.63029 -1.75019
H 32.41233 6.09667 -2.57628
H 33.63320 7.26217 -0.18928
H 34.46040 6.44167 -1.55647
H 33.62396 5.50635 -0.23729
H 32.48797 0.35844 -3.41850
H 31.81742 2.02842 -3.44247
H 30.69103 0.62774 -3.20818
H 30.82370 -2.44313 0.88103
H 33.27020 -5.93340 1.55346
H 33.36366 -5.06873 3.20371
H 34.45221 -4.77166 1.83530
