158

Mg 0.00000 0.00000 0.00000
C -0.21700 -2.21800 2.80100
C -1.25500 2.44200 2.02600
C -0.24500 1.85000 -2.56400
C 0.14600 -2.82400 -2.03700
N -0.61700 -0.00900 2.12600
C -0.59400 -0.90800 3.10500
C -0.93600 -0.30900 4.50200
C -1.77300 0.96400 4.03200
C -1.15500 1.16800 2.66000
C -3.26300 0.68500 3.86300
C 0.34500 0.11000 5.29900
C 0.12400 0.39700 6.78700
H 1.16800 0.03300 7.73300
N -0.18500 1.96100 -0.15200
C -0.70300 2.80000 0.77700
C -0.62000 4.15600 0.19300
C -0.18700 4.01500 -1.22500
C -0.21400 2.58300 -1.38000
C -0.88700 5.40600 0.97400
C 0.18100 5.01300 -2.27700
O 0.30300 4.69000 -3.50800
C 0.31000 6.41400 -1.83700
N -0.26500 -0.41300 -2.02900
C -0.27900 0.56900 -2.93700
C -0.19600 0.02400 -4.33200
C 0.12400 -1.53300 -4.18000
C 0.08600 -1.63200 -2.63500
C -1.45100 0.20500 -5.19700
C 1.37300 -2.07000 -4.92300
C 2.62600 -1.49000 -4.30600
N 0.15000 -2.14400 0.30300
C 0.17300 -3.13600 -0.68800
C 0.17300 -4.43800 0.00400
C 0.13300 -4.11100 1.35800
C 0.08300 -2.69500 1.50200
C 0.14900 -5.71500 -0.62300
C 0.09600 -4.62900 2.71600
O 0.20800 -5.74700 3.22100
C -0.25500 -3.42800 3.70100
C 0.71700 -3.48200 4.84800
O 1.93100 -3.25500 4.66900
O 0.03800 -3.55600 6.00300
C 0.94300 -3.58300 7.18300
H -1.85900 3.22000 2.49700
H -0.21800 2.45300 -3.47400
H 0.27600 -3.74700 -2.60500
H -1.55400 -0.94900 5.13200
H -1.58500 1.83100 4.66500
H -3.48400 -0.37700 3.96900
H -3.51100 1.02700 2.85800
H -3.85200 1.30100 4.54300
H 0.66900 1.09600 4.96600
H 1.13000 -0.63900 5.18900
H -0.84400 0.02600 7.12500
H 0.06200 1.47700 6.92100
H -1.34400 5.18600 1.93800
H -1.65100 5.96300 0.43200
H 0.00700 6.02000 1.08400
H -0.63500 6.74400 -1.40500
H 0.66500 6.97000 -2.70400
H 1.04800 6.46600 -1.03600
H 0.60800 0.50100 -4.89100
H -0.69200 -2.15600 -4.54700
H -1.26700 0.74000 -6.12900
H -2.20400 0.71400 -4.59600
H -1.96700 -0.72000 -5.45300
H 1.35600 -1.75900 -5.96700
H 1.45200 -3.15700 -4.90200
H 2.71400 -0.52200 -4.79800
H 3.48700 -2.12100 -4.52900
H 2.49500 -1.30300 -3.24000
H 0.86700 -6.33300 -0.08400
H 0.40400 -5.64200 -1.68000
H -0.89100 -5.99900 -0.46300
H -1.28300 -3.58100 4.02800
H 0.69800 -4.47800 7.75500
H 0.83300 -2.61900 7.68000
H 2.00000 -3.75400 6.97600
Mg 7.89081 0.70303 0.60183
C 8.09405 -1.43280 -2.27497
C 7.11930 -2.07511 2.42427
C 7.26350 2.61037 3.05865
C 7.54628 3.39035 -1.59028
N 7.66631 -1.42313 0.03501
C 7.82796 -2.12615 -1.07584
C 7.77658 -3.66471 -0.87652
C 6.91228 -3.70319 0.47639
C 7.27730 -2.33089 1.03874
C 5.41278 -3.73572 0.23187
C 9.20107 -4.28806 -0.66603
C 9.25781 -5.81350 -0.77365
H 10.44658 -6.42613 -1.36016
N 7.76355 0.29992 2.54087
C 7.46213 -0.88744 3.10708
C 7.47658 -0.65565 4.55975
C 7.64900 0.80280 4.80036
C 7.54218 1.30780 3.44623
C 7.41450 -1.77113 5.56239
C 7.86058 1.61073 6.04482
O 7.74645 2.88736 6.04633
C 8.11330 0.85633 7.28115
N 7.25509 2.67853 0.72678
C 7.11031 3.28411 1.91851
C 6.91396 4.77231 1.75387
C 7.19974 5.07514 0.20978
C 7.43497 3.63335 -0.29154
C 5.53205 5.30659 2.12972
C 8.27186 6.15281 -0.10935
C 9.63873 5.66070 0.30883
N 8.01165 0.99179 -1.53594
C 7.80868 2.19483 -2.24699
C 7.88275 1.86797 -3.68578
C 8.10251 0.48252 -3.71248
C 8.14111 -0.02194 -2.38451
C 7.70509 2.78726 -4.75791
C 8.30001 -0.66961 -4.56236
O 8.44961 -0.84182 -5.77137
C 8.17717 -1.98093 -3.67256
C 9.33748 -2.87842 -4.00531
O 10.50153 -2.53193 -3.73786
O 8.86944 -4.08219 -4.38247
C 9.98320 -5.01097 -4.71219
H 6.64929 -2.84021 3.04281
H 7.14894 3.33017 3.87243
H 7.54672 4.18858 -2.33559
H 7.26334 -4.20754 -1.66118
H 7.25498 -4.49136 1.14175
H 5.17211 -3.60790 -0.81306
H 5.00164 -2.92348 0.81691
H 4.98320 -4.65262 0.64548
H 9.49516 -4.16272 0.38399
H 9.91148 -3.85152 -1.34084
H 8.34878 -6.22895 -1.22533
H 9.27117 -6.23231 0.23552
H 7.12463 -2.71893 5.09222
H 6.58842 -1.54243 6.24441
H 8.33492 -1.86809 6.14213
H 7.27806 0.18693 7.47286
H 8.32788 1.60788 8.04339
H 8.99541 0.22392 7.13098
H 7.62327 5.32509 2.35753
H 6.30126 5.44454 -0.30607
H 5.56528 6.09750 2.90266
H 4.92359 4.47584 2.46164
H 4.94896 5.70312 1.30028
H 8.07922 7.06100 0.46706
H 8.30136 6.43601 -1.15621
H 9.66891 5.89437 1.37728
H 10.41914 6.19085 -0.23333
H 9.71301 4.57174 0.20733
H 8.47590 2.56995 -5.48532
H 7.76268 3.81726 -4.41214
H 6.69561 2.51829 -5.08019
H 7.21909 -2.44683 -3.90623
H 9.80730 -5.37210 -5.73019
H 9.99136 -5.76641 -3.90410
H 10.97678 -4.58863 -4.80633
