79

Mg 10.50222 0.94629 0.80459
C 11.42173 3.40147 3.25523
C 10.22641 -1.28944 3.36585
C 10.13056 -1.34050 -1.36333
C 11.93560 3.01661 -1.60475
N 10.80929 1.14953 2.98557
C 11.09754 2.14566 3.80957
C 10.95656 1.79607 5.31538
C 11.14706 0.20489 5.21169
C 10.66599 -0.00593 3.77753
C 12.59934 -0.23422 5.29774
C 9.54337 2.16941 5.88591
C 9.43858 2.14284 7.41236
H 8.58238 3.12717 8.06849
N 9.75261 -0.88263 0.98269
C 9.70113 -1.63556 2.10149
C 9.07587 -2.90614 1.70294
C 8.91267 -2.90494 0.22372
C 9.62688 -1.69154 -0.11929
C 8.62532 -3.93798 2.69578
C 8.23789 -3.84748 -0.72626
O 8.42378 -3.77514 -1.99238
C 7.42696 -4.91597 -0.12441
N 11.14988 0.74813 -1.16102
C 10.80512 -0.32241 -1.89791
C 11.15064 -0.11687 -3.35350
C 11.58046 1.41829 -3.48041
C 11.49069 1.82988 -1.99450
C 12.26641 -1.00469 -3.90415
C 10.82476 2.27610 -4.53195
C 9.38230 2.45123 -4.11481
N 11.33593 2.93909 0.76316
C 11.90470 3.60287 -0.34589
C 12.43809 4.89049 0.14397
C 12.16092 4.87626 1.51928
C 11.51942 3.65651 1.86593
C 13.12143 5.86083 -0.64192
C 12.27468 5.61116 2.75850
O 12.65105 6.74119 3.06690
C 11.91466 4.63477 3.95993
C 10.95573 5.35214 4.87007
O 9.81591 5.65468 4.47525
O 11.46055 5.36866 6.11717
C 10.54013 6.05997 7.05883
H 10.33173 -2.12192 4.06210
H 9.92938 -2.04875 -2.17042
H 12.30961 3.76067 -2.31126
H 11.72150 2.22129 5.95399
H 10.49961 -0.31687 5.91163
H 13.27560 0.60769 5.29582
H 12.76982 -0.85842 4.43036
H 12.74684 -0.88045 6.16778
H 8.83349 1.37077 5.63492
H 9.22452 3.12539 5.51840
H 10.42405 2.10975 7.89266
H 8.96312 1.20551 7.71129
H 9.02687 -3.73572 3.69640
H 9.08879 -4.88654 2.40375
H 7.54061 -4.06405 2.70937
H 8.05145 -5.51687 0.53238
H 6.95407 -5.43133 -0.96266
H 6.65681 -4.45772 0.50606
H 10.28818 -0.29363 -3.98439
H 12.63575 1.52316 -3.77233
H 11.95461 -1.60500 -4.77964
H 12.61575 -1.64761 -3.10719
H 13.17524 -0.47902 -4.19208
H 10.80873 1.76431 -5.49734
H 11.26904 3.25274 -4.69255
H 8.90898 1.53135 -4.47103
H 8.94935 3.32819 -4.59183
H 9.28778 2.46907 -3.02284
H 12.72802 6.82696 -0.35500
H 12.98795 5.67637 -1.70584
H 14.15099 5.68232 -0.32036
H 12.84677 4.38040 4.46593
H 11.11436 6.85877 7.53828
H 10.13408 5.26766 7.71543
H 9.71482 6.61884 6.63341
