79

Mg 15.75984 1.42332 1.20511
C 13.38799 -1.25064 1.52661
C 13.15003 3.43168 0.31629
C 17.87129 3.67740 0.47824
C 18.25504 -1.00075 0.99645
N 13.59494 1.02629 0.98641
C 12.79983 -0.01231 1.19489
C 11.28388 0.31250 1.11773
C 11.36497 1.61927 0.18787
C 12.77744 2.08202 0.53924
C 11.32141 1.30416 -1.29812
C 10.67152 0.64500 2.52360
C 9.14211 0.66858 2.56959
H 8.47476 0.19528 3.77918
N 15.52233 3.38061 0.97886
C 14.38882 4.02870 0.63768
C 14.74207 5.45574 0.58340
C 16.21449 5.58150 0.75908
C 16.60428 4.18618 0.72397
C 13.71544 6.54404 0.46064
C 17.12304 6.76282 0.91792
O 18.39596 6.65163 0.81720
C 16.47391 8.06906 1.10189
N 17.74280 1.35049 0.58473
C 18.44754 2.47860 0.38811
C 19.91778 2.18022 0.21563
C 20.08764 0.63229 0.57982
C 18.60729 0.26591 0.82423
C 20.49053 2.44086 -1.17736
C 21.12782 0.27758 1.67749
C 20.66408 0.80291 3.01703
N 15.86670 -0.72248 1.43349
C 17.00681 -1.54108 1.27816
C 16.55944 -2.94194 1.41917
C 15.17531 -2.84146 1.62547
C 14.78429 -1.47559 1.59373
C 17.38624 -4.09486 1.30384
C 13.95445 -3.58089 1.85229
O 13.68006 -4.76228 2.05909
C 12.72355 -2.59150 1.67232
C 11.79393 -2.78979 2.83808
O 12.15438 -2.49485 3.99120
O 10.56564 -3.08749 2.37650
C 9.60538 -3.28246 3.49530
H 12.44273 4.08807 -0.19142
H 18.65780 4.42127 0.33151
H 18.98762 -1.80942 1.04172
H 10.68013 -0.44842 0.63787
H 10.63351 2.36456 0.48932
H 11.36225 0.24154 -1.48599
H 12.18262 1.79791 -1.72890
H 10.44534 1.77134 -1.75700
H 10.88302 1.69412 2.76723
H 11.04517 -0.02791 3.27073
H 8.69582 0.20874 1.67947
H 8.80972 1.70873 2.52914
H 12.73325 6.14117 0.18424
H 14.00599 7.16261 -0.39540
H 13.66186 7.17486 1.35051
H 15.82832 8.27449 0.25132
H 17.28563 8.77532 1.28674
H 15.82554 8.01644 1.98363
H 20.51498 2.76990 0.90028
H 20.41793 0.04330 -0.28841
H 21.34351 3.14546 -1.17375
H 19.69454 2.81062 -1.80999
H 20.81944 1.55316 -1.71496
H 22.08253 0.76554 1.46637
H 21.32162 -0.78658 1.76118
H 20.98674 1.84819 2.99730
H 21.14174 0.25765 3.82855
H 19.57000 0.79688 3.08479
H 17.10356 -4.76231 2.10702
H 18.44132 -3.83423 1.35520
H 17.09744 -4.44320 0.30859
H 12.24568 -2.83259 0.72201
H 9.16088 -4.27408 3.36568
H 8.92067 -2.41448 3.45599
H 10.01202 -3.36221 4.49666
