79

Mg 10.51035 0.95500 0.80443
C 12.39439 -0.08437 3.67657
C 7.86270 1.43468 2.90073
C 8.69947 1.44178 -1.75509
C 12.88472 -0.66487 -1.16638
N 10.28170 0.67710 2.98680
C 11.08387 0.33669 3.98430
C 10.47122 0.53081 5.39728
C 8.91764 0.44892 4.99909
C 9.01235 0.91542 3.54786
C 8.36730 -0.96754 5.01052
C 10.83214 1.92561 6.01879
C 10.52959 2.06168 7.51268
H 11.43340 2.86031 8.33597
N 8.73871 1.83272 0.63278
C 7.79641 1.95795 1.59072
C 6.67028 2.66178 0.95776
C 6.95838 2.79568 -0.49612
C 8.16008 1.99267 -0.60178
C 5.50670 3.20191 1.73735
C 6.25986 3.51547 -1.60975
O 6.55302 3.30040 -2.83883
C 5.15893 4.40997 -1.22333
N 10.63551 0.28447 -1.15951
C 9.74826 0.68809 -2.08569
C 10.19576 0.30091 -3.47502
C 11.69293 -0.23653 -3.30998
C 11.82621 -0.14655 -1.77390
C 9.34830 -0.76125 -4.17504
C 12.78331 0.43737 -4.18725
C 12.98062 1.87211 -3.75367
N 12.41113 -0.01530 1.14151
C 13.22720 -0.65012 0.17968
C 14.35961 -1.26172 0.90495
C 14.10962 -0.95751 2.25159
C 12.89581 -0.22650 2.36009
C 15.40774 -2.02574 0.31860
C 14.59104 -1.09772 3.60706
O 15.61404 -1.54533 4.12363
C 13.43650 -0.64766 4.60248
C 14.03881 0.27685 5.62474
O 14.49039 1.38510 5.28640
O 13.78680 -0.20354 6.85604
C 14.35494 0.68498 7.90463
H 6.90984 1.40081 3.42968
H 8.17002 1.67575 -2.68161
H 13.71851 -1.10316 -1.71898
H 10.71429 -0.24915 6.10887
H 8.32249 1.14443 5.58511
H 9.14422 -1.70035 5.17024
H 7.90481 -1.11125 4.04279
H 7.56159 -1.05299 5.74528
H 10.14708 2.68404 5.61851
H 11.86015 2.17031 5.83455
H 10.33721 1.09039 7.98442
H 9.58951 2.60660 7.62813
H 5.48995 2.80687 2.76061
H 4.59832 2.79961 1.27598
H 5.45834 4.29280 1.72041
H 4.40315 3.84146 -0.68662
H 4.84376 4.90099 -2.14607
H 5.54584 5.15867 -0.52308
H 10.20172 1.16109 -4.13316
H 11.77442 -1.30202 -3.57060
H 8.94528 -0.42575 -5.14925
H 8.54498 -1.04967 -3.51019
H 9.85190 -1.70971 -4.35396
H 12.46256 0.47000 -5.23138
H 13.73839 -0.07647 -4.15965
H 12.17941 2.40093 -4.27852
H 13.95974 2.23395 -4.06096
H 12.80170 1.98640 -2.67822
H 16.32927 -1.69464 0.77867
H 15.43451 -1.90055 -0.76185
H 15.09924 -3.03403 0.60748
H 13.02632 -1.54991 5.05776
H 15.00736 0.06629 8.52853
H 13.48545 1.15760 8.39898
H 15.04087 1.46119 7.58611
