79

Mg 7.89124 0.70513 0.59375
C 7.76858 2.41990 -2.55642
C 7.40038 -2.19412 -1.13485
C 7.54448 -0.77901 3.37665
C 7.23025 3.76419 2.12703
N 7.63315 0.29472 -1.56431
C 7.66626 1.01802 -2.67340
C 7.66595 0.18621 -3.98400
C 6.97849 -1.15100 -3.41994
C 7.38801 -1.03631 -1.95304
C 5.46094 -1.12546 -3.49558
C 9.11579 -0.09327 -4.51490
C 9.18412 -0.63045 -5.94616
H 10.30023 -0.21700 -6.79223
N 8.01437 -1.22361 1.04473
C 7.80605 -2.26801 0.21581
C 7.99828 -3.47549 1.03387
C 8.17505 -3.05844 2.45145
C 7.89120 -1.64121 2.34663
C 8.08080 -4.85339 0.44394
C 8.52716 -3.81286 3.69767
O 8.39278 -3.29168 4.86092
C 8.94516 -5.21133 3.52141
N 7.24321 1.34600 2.46235
C 7.23859 0.51105 3.51628
C 6.99833 1.26065 4.80499
C 7.08355 2.81113 4.42246
C 7.27827 2.68471 2.89553
C 5.66558 0.98047 5.49901
C 8.08915 3.68011 5.22639
C 9.50564 3.26201 4.90370
N 7.73879 2.76380 -0.04396
C 7.42836 3.88426 0.75746
C 7.32727 5.04999 -0.14436
C 7.56508 4.51849 -1.42086
C 7.77798 3.11678 -1.32394
C 7.00150 6.37908 0.24745
C 7.67392 4.82271 -2.82951
O 7.67391 5.85583 -3.49764
C 7.68532 3.45671 -3.64211
C 8.80971 3.51883 -4.63930
O 9.99213 3.56414 -4.25662
O 8.31834 3.29596 -5.87189
C 9.39746 3.33660 -6.89447
H 7.02432 -3.12852 -1.55240
H 7.52063 -1.22239 4.37481
H 7.12407 4.76994 2.53918
H 7.06770 0.60208 -4.78582
H 7.41488 -2.03924 -3.86932
H 5.08930 -0.16092 -3.80813
H 5.11271 -1.36002 -2.49820
H 5.10187 -1.93445 -4.13819
H 9.53683 -0.94960 -3.97252
H 9.72879 0.78269 -4.42804
H 8.23279 -0.50829 -6.47814
H 9.33064 -1.71247 -5.90409
H 7.75026 -4.86360 -0.60202
H 7.34285 -5.47033 0.96804
H 9.06802 -5.30462 0.56418
H 8.15178 -5.76563 3.02566
H 9.24084 -5.55533 4.51444
H 9.81199 -5.23560 2.85161
H 7.76827 1.03540 5.53271
H 6.12154 3.32199 4.57534
H 5.78203 0.62151 6.53904
H 5.11741 0.25960 4.90707
H 4.97674 1.82280 5.53336
H 7.95499 3.51996 6.29901
H 7.98269 4.74423 5.04387
H 9.66536 2.40280 5.56198
H 10.20310 4.06642 5.12840
H 9.58482 2.90479 3.87036
H 7.67875 7.03497 -0.28325
H 7.08468 6.50771 1.32462
H 5.96426 6.43429 -0.09366
H 6.71345 3.35569 -4.12672
H 9.10162 4.07933 -7.64181
H 9.51930 2.29341 -7.24182
H 10.36425 3.71846 -6.58797
