158

Mg 0.00000 0.00000 0.00000
C -0.21700 -2.21800 2.80100
C -1.25500 2.44200 2.02600
C -0.24500 1.85000 -2.56400
C 0.14600 -2.82400 -2.03700
N -0.61700 -0.00900 2.12600
C -0.59400 -0.90800 3.10500
C -0.93600 -0.30900 4.50200
C -1.77300 0.96400 4.03200
C -1.15500 1.16800 2.66000
C -3.26300 0.68500 3.86300
C 0.34500 0.11000 5.29900
C 0.12400 0.39700 6.78700
H 1.16800 0.03300 7.73300
N -0.18500 1.96100 -0.15200
C -0.70300 2.80000 0.77700
C -0.62000 4.15600 0.19300
C -0.18700 4.01500 -1.22500
C -0.21400 2.58300 -1.38000
C -0.88700 5.40600 0.97400
C 0.18100 5.01300 -2.27700
O 0.30300 4.69000 -3.50800
C 0.31000 6.41400 -1.83700
N -0.26500 -0.41300 -2.02900
C -0.27900 0.56900 -2.93700
C -0.19600 0.02400 -4.33200
C 0.12400 -1.53300 -4.18000
C 0.08600 -1.63200 -2.63500
C -1.45100 0.20500 -5.19700
C 1.37300 -2.07000 -4.92300
C 2.62600 -1.49000 -4.30600
N 0.15000 -2.14400 0.30300
C 0.17300 -3.13600 -0.68800
C 0.17300 -4.43800 0.00400
C 0.13300 -4.11100 1.35800
C 0.08300 -2.69500 1.50200
C 0.14900 -5.71500 -0.62300
C 0.09600 -4.62900 2.71600
O 0.20800 -5.74700 3.22100
C -0.25500 -3.42800 3.70100
C 0.71700 -3.48200 4.84800
O 1.93100 -3.25500 4.66900
O 0.03800 -3.55600 6.00300
C 0.94300 -3.58300 7.18300
H -1.85900 3.22000 2.49700
H -0.21800 2.45300 -3.47400
H 0.27600 -3.74700 -2.60500
H -1.55400 -0.94900 5.13200
H -1.58500 1.83100 4.66500
H -3.48400 -0.37700 3.96900
H -3.51100 1.02700 2.85800
H -3.85200 1.30100 4.54300
H 0.66900 1.09600 4.96600
H 1.13000 -0.63900 5.18900
H -0.84400 0.02600 7.12500
H 0.06200 1.47700 6.92100
H -1.34400 5.18600 1.93800
H -1.65100 5.96300 0.43200
H 0.00700 6.02000 1.08400
H -0.63500 6.74400 -1.40500
H 0.66500 6.97000 -2.70400
H 1.04800 6.46600 -1.03600
H 0.60800 0.50100 -4.89100
H -0.69200 -2.15600 -4.54700
H -1.26700 0.74000 -6.12900
H -2.20400 0.71400 -4.59600
H -1.96700 -0.72000 -5.45300
H 1.35600 -1.75900 -5.96700
H 1.45200 -3.15700 -4.90200
H 2.71400 -0.52200 -4.79800
H 3.48700 -2.12100 -4.52900
H 2.49500 -1.30300 -3.24000
H 0.86700 -6.33300 -0.08400
H 0.40400 -5.64200 -1.68000
H -0.89100 -5.99900 -0.46300
H -1.28300 -3.58100 4.02800
H 0.69800 -4.47800 7.75500
H 0.83300 -2.61900 7.68000
H 2.00000 -3.75400 6.97600
Mg 15.77162 1.42432 1.20539
C 15.23281 -0.83220 3.94343
C 14.23585 3.82638 3.07785
C 15.82553 3.30811 -1.34722
C 16.20759 -1.37035 -0.83065
N 14.89134 1.38122 3.23406
C 14.79971 0.48449 4.20454
C 14.28492 1.04931 5.55566
C 13.48736 2.32526 4.99465
C 14.27030 2.55458 3.70349
C 12.04394 2.02022 4.63020
C 15.45512 1.47716 6.50937
C 15.03893 1.74696 7.95704
H 15.96653 1.38826 9.02632
N 15.57958 3.39413 1.05869
C 14.94438 4.21618 1.92010
C 15.06848 5.56760 1.35226
C 15.68584 5.45454 0.00288
C 15.70220 4.01461 -0.15971
C 14.69488 6.80703 2.11228
C 16.16837 6.47410 -0.98395
O 16.45087 6.15915 -2.19384
C 16.21124 7.86802 -0.51849
N 15.77523 1.03241 -0.83636
C 15.85526 2.03205 -1.73204
C 16.11984 1.50050 -3.12051
C 16.44270 -0.05431 -2.93102
C 16.21130 -0.17715 -1.40893
C 14.97874 1.66442 -4.12421
C 17.78434 -0.57123 -3.51879
C 18.94556 0.02293 -2.75464
N 15.91714 -0.71050 1.50448
C 16.07326 -1.70225 0.51144
C 16.00464 -3.01260 1.19019
C 15.78863 -2.69021 2.53849
C 15.70680 -1.27920 2.68634
C 16.08814 -4.28378 0.55518
C 15.60060 -3.22305 3.86868
O 15.65744 -4.34463 4.37125
C 15.10613 -2.04835 4.81839
C 15.92627 -2.09339 6.07849
O 17.14730 -1.85957 6.04660
O 15.10194 -2.18957 7.13755
C 15.86829 -2.22643 8.41159
H 13.57100 4.58782 3.48659
H 15.95906 3.91540 -2.24547
H 16.43233 -2.28648 -1.38099
H 13.60901 0.39530 6.09342
H 13.59005 3.17891 5.65956
H 11.82577 0.96477 4.69774
H 11.91738 2.36841 3.61344
H 11.36551 2.62215 5.24154
H 15.80181 2.47866 6.22379
H 16.24656 0.75337 6.48982
H 14.03445 1.36441 8.17527
H 14.95068 2.82704 8.09719
H 14.11598 6.56753 3.01279
H 13.99736 7.37008 1.48275
H 15.55670 7.43889 2.33745
H 15.21662 8.17420 -0.20314
H 16.66629 8.43436 -1.33339
H 16.85281 7.92121 0.36817
H 16.98047 1.98671 -3.56325
H 15.68695 -0.68946 -3.41605
H 15.27358 2.22235 -5.03298
H 14.15428 2.15718 -3.62623
H 14.52291 0.73494 -4.46107
H 17.89485 -0.24366 -4.55544
H 17.87080 -1.65265 -3.51181
H 19.07480 1.00253 -3.22451
H 19.83587 -0.59160 -2.87188
H 18.67991 0.19335 -1.70486
H 16.73532 -4.89637 1.16869
H 16.46783 -4.19655 -0.46070
H 15.03645 -4.58174 0.57616
H 14.04543 -2.20995 5.01430
H 15.56271 -3.13354 8.94211
H 15.66654 -1.25948 8.90965
H 16.94055 -2.36995 8.34753
