158

Mg 0.00000 0.00000 0.00000
C -0.21700 -2.21800 2.80100
C -1.25500 2.44200 2.02600
C -0.24500 1.85000 -2.56400
C 0.14600 -2.82400 -2.03700
N -0.61700 -0.00900 2.12600
C -0.59400 -0.90800 3.10500
C -0.93600 -0.30900 4.50200
C -1.77300 0.96400 4.03200
C -1.15500 1.16800 2.66000
C -3.26300 0.68500 3.86300
C 0.34500 0.11000 5.29900
C 0.12400 0.39700 6.78700
H 1.16800 0.03300 7.73300
N -0.18500 1.96100 -0.15200
C -0.70300 2.80000 0.77700
C -0.62000 4.15600 0.19300
C -0.18700 4.01500 -1.22500
C -0.21400 2.58300 -1.38000
C -0.88700 5.40600 0.97400
C 0.18100 5.01300 -2.27700
O 0.30300 4.69000 -3.50800
C 0.31000 6.41400 -1.83700
N -0.26500 -0.41300 -2.02900
C -0.27900 0.56900 -2.93700
C -0.19600 0.02400 -4.33200
C 0.12400 -1.53300 -4.18000
C 0.08600 -1.63200 -2.63500
C -1.45100 0.20500 -5.19700
C 1.37300 -2.07000 -4.92300
C 2.62600 -1.49000 -4.30600
N 0.15000 -2.14400 0.30300
C 0.17300 -3.13600 -0.68800
C 0.17300 -4.43800 0.00400
C 0.13300 -4.11100 1.35800
C 0.08300 -2.69500 1.50200
C 0.14900 -5.71500 -0.62300
C 0.09600 -4.62900 2.71600
O 0.20800 -5.74700 3.22100
C -0.25500 -3.42800 3.70100
C 0.71700 -3.48200 4.84800
O 1.93100 -3.25500 4.66900
O 0.03800 -3.55600 6.00300
C 0.94300 -3.58300 7.18300
H -1.85900 3.22000 2.49700
H -0.21800 2.45300 -3.47400
H 0.27600 -3.74700 -2.60500
H -1.55400 -0.94900 5.13200
H -1.58500 1.83100 4.66500
H -3.48400 -0.37700 3.96900
H -3.51100 1.02700 2.85800
H -3.85200 1.30100 4.54300
H 0.66900 1.09600 4.96600
H 1.13000 -0.63900 5.18900
H -0.84400 0.02600 7.12500
H 0.06200 1.47700 6.92100
H -1.34400 5.18600 1.93800
H -1.65100 5.96300 0.43200
H 0.00700 6.02000 1.08400
H -0.63500 6.74400 -1.40500
H 0.66500 6.97000 -2.70400
H 1.04800 6.46600 -1.03600
H 0.60800 0.50100 -4.89100
H -0.69200 -2.15600 -4.54700
H -1.26700 0.74000 -6.12900
H -2.20400 0.71400 -4.59600
H -1.96700 -0.72000 -5.45300
H 1.35600 -1.75900 -5.96700
H 1.45200 -3.15700 -4.90200
H 2.71400 -0.52200 -4.79800
H 3.48700 -2.12100 -4.52900
H 2.49500 -1.30300 -3.24000
H 0.86700 -6.33300 -0.08400
H 0.40400 -5.64200 -1.68000
H -0.89100 -5.99900 -0.46300
H -1.28300 -3.58100 4.02800
H 0.69800 -4.47800 7.75500
H 0.83300 -2.61900 7.68000
H 2.00000 -3.75400 6.97600
Mg 13.14633 1.17592 1.00011
C 13.33413 -0.57926 -2.12450
C 12.42118 -1.81699 2.46681
C 12.53152 2.75285 3.68390
C 12.75196 4.11373 -0.83277
N 12.93389 -0.86435 0.17280
C 13.08849 -1.42049 -1.01932
C 13.05309 -2.97236 -1.01456
C 12.20535 -3.18941 0.33196
C 12.56490 -1.89499 1.05849
C 10.70339 -3.20635 0.10136
C 14.48543 -3.60256 -0.89942
C 14.55437 -5.10171 -1.19866
H 15.74142 -5.62355 -1.87026
N 13.04577 0.53105 2.87430
C 12.76162 -0.72109 3.28987
C 12.79133 -0.67356 4.75991
C 12.95372 0.74479 5.18019
C 12.82630 1.41484 3.90156
C 12.75107 -1.90677 5.61489
C 13.17298 1.39205 6.51405
O 13.04759 2.65713 6.67734
C 13.44706 0.49090 7.64289
N 12.49471 3.11342 1.37934
C 12.35880 3.56293 2.63926
C 12.14736 5.05792 2.66522
C 12.41203 5.55531 1.16851
C 12.65400 4.19045 0.48734
C 10.76537 5.52652 3.12007
C 13.47070 6.67549 0.97599
C 14.84676 6.14879 1.31428
N 13.23912 1.73227 -1.08554
C 13.01707 3.01297 -1.63741
C 13.07687 2.87030 -3.10659
C 13.30852 1.50152 -3.30970
C 13.36741 0.83459 -2.05621
C 12.87832 3.91516 -4.05262
C 13.50605 0.46741 -4.29980
O 13.64274 0.45005 -5.52240
C 13.40542 -0.94653 -3.58074
C 14.56956 -1.78313 -4.03614
O 15.73362 -1.46106 -3.73973
O 14.10771 -2.93469 -4.55668
C 15.22563 -3.80320 -5.01252
H 11.96536 -2.65855 2.98921
H 12.42031 3.36346 4.58293
H 12.73646 4.99926 -1.47173
H 12.53534 -3.41751 -1.85572
H 12.56290 -4.05139 0.88919
H 10.44915 -2.95071 -0.91655
H 10.29208 -2.47834 0.78829
H 10.28688 -4.17232 0.40095
H 14.79090 -3.60715 0.15481
H 15.18387 -3.07741 -1.52154
H 13.64372 -5.46642 -1.68923
H 14.58345 -5.64387 -0.25038
H 12.46400 -2.79089 5.03239
H 11.93119 -1.77409 6.32908
H 13.67915 -2.06637 6.16793
H 12.62012 -0.20582 7.75782
H 13.66407 1.14286 8.49126
H 14.33288 -0.10854 7.40493
H 12.85891 5.53771 3.32598
H 11.50423 5.97737 0.71287
H 10.80082 6.21432 3.98595
H 10.16827 4.65444 3.35137
H 10.16895 6.01814 2.35339
H 13.27693 7.50201 1.66408
H 13.48522 7.08829 -0.02720
H 14.88760 6.24663 2.40325
H 15.61594 6.75085 0.83477
H 14.92944 5.08204 1.07583
H 13.64229 3.79891 -4.80981
H 12.93092 4.89408 -3.58068
H 11.86748 3.67848 -4.39534
H 12.44877 -1.38917 -3.86088
H 15.04080 -4.03532 -6.06591
H 15.25010 -4.65407 -4.30600
H 16.21425 -3.36219 -5.06343
