79

Mg 15.76628 1.41940 1.19766
C 15.24234 4.96022 1.21426
C 15.13319 1.49135 -2.15451
C 15.77546 -1.75155 1.23810
C 15.23680 1.47355 4.64184
N 15.26551 3.07701 -0.18154
C 15.15398 4.39612 -0.06034
C 15.00951 5.13199 -1.42599
C 14.42572 3.93178 -2.29815
C 15.00404 2.76271 -1.52049
C 12.90363 3.83879 -2.26513
C 16.38643 5.62785 -1.98273
C 16.30157 6.63156 -3.13630
H 17.29538 7.69137 -3.21696
N 15.97518 0.11993 -0.27563
C 15.68421 0.32409 -1.58289
C 16.01141 -0.94072 -2.27562
C 16.33664 -1.95740 -1.23702
C 16.01248 -1.23496 -0.03354
C 16.04192 -1.07805 -3.76692
C 16.84704 -3.36141 -1.31699
O 16.84042 -4.14606 -0.30761
C 17.27869 -3.82874 -2.64678
N 15.32370 0.01686 2.67909
C 15.46434 -1.29383 2.45257
C 15.36653 -2.08149 3.72535
C 15.37151 -1.01036 4.90958
C 15.39023 0.28293 4.05792
C 14.13326 -2.98534 3.85994
C 16.44775 -1.18419 6.01045
C 17.82105 -0.93028 5.43022
N 15.49349 2.94543 2.71683
C 15.26629 2.74144 4.08557
C 15.03651 4.06762 4.68768
C 15.13019 4.95521 3.61751
C 15.37526 4.22707 2.41832
C 14.72350 4.32030 6.05245
C 15.05580 6.34714 3.20418
O 14.96365 7.42368 3.79585
C 15.00426 6.39536 1.61332
C 16.00033 7.42649 1.15734
O 17.22485 7.24873 1.31959
O 15.37803 8.33961 0.39611
C 16.31567 9.37565 -0.11342
H 14.72324 1.35765 -3.15751
H 15.87931 -2.83579 1.31604
H 15.14902 1.57637 5.72498
H 14.30639 5.96507 -1.42122
H 14.81636 3.94047 -3.31552
H 12.47753 4.53499 -1.54287
H 12.68097 2.81046 -1.97974
H 12.48580 3.96979 -3.26365
H 16.88671 4.80334 -2.49063
H 16.99702 6.04850 -1.18301
H 15.29629 7.04236 -3.23404
H 16.46633 6.09360 -4.06992
H 15.59777 -0.21307 -4.25792
H 15.38092 -1.90549 -4.02406
H 17.04608 -1.28010 -4.13997
H 16.44254 -3.75627 -3.34259
H 17.69592 -4.82360 -2.49505
H 18.05037 -3.15695 -3.02379
H 16.22203 -2.74571 3.84089
H 14.42918 -1.00242 5.45787
H 14.37581 -4.03394 4.03407
H 13.52947 -2.86774 2.96056
H 13.42861 -2.68470 4.63486
H 16.44282 -2.20632 6.38749
H 16.30582 -0.51650 6.86033
H 18.07906 -1.89098 4.98600
H 18.52433 -0.66383 6.21991
H 17.78321 -0.19794 4.62354
H 15.32700 5.17771 6.35012
H 14.93573 3.45128 6.67484
H 13.65667 4.53099 5.97928
H 13.98392 6.66317 1.34072
H 15.92284 10.34420 0.19611
H 16.42782 9.19329 -1.18234
H 17.30462 9.39842 0.34570
