79

Mg 13.13767 1.17542 1.00558
C 10.86094 2.78061 3.26809
C 15.38087 1.07095 3.57302
C 15.31751 0.17400 -1.07116
C 11.19757 2.41846 -1.60911
N 13.01926 1.86769 3.10296
C 12.08190 2.40726 3.86752
C 12.44523 2.48147 5.37485
C 14.04513 2.46087 5.23785
C 14.16693 1.72333 3.90598
C 14.65308 3.84409 5.07519
C 11.92145 1.23933 6.17781
C 11.96874 1.39091 7.69983
H 10.90542 0.78097 8.49342
N 14.86964 0.25413 1.30566
C 15.63552 0.30265 2.41578
C 16.81516 -0.52765 2.12732
C 16.76269 -0.93651 0.69736
C 15.63411 -0.15097 0.23983
C 17.80847 -0.92407 3.18070
C 17.59883 -1.86915 -0.12559
O 17.52124 -1.89203 -1.40476
C 18.57782 -2.68845 0.60367
N 13.36753 1.45425 -1.04180
C 14.37404 0.86520 -1.71103
C 14.17878 0.98243 -3.20385
C 12.70213 1.56446 -3.39959
C 12.31527 1.77609 -1.91941
C 15.17898 1.87563 -3.93747
C 11.73906 0.74997 -4.30611
C 11.40531 -0.57028 -3.64964
N 11.25579 2.22156 0.82614
C 10.63923 2.67022 -0.36241
C 9.43391 3.42806 0.03166
C 9.44548 3.38696 1.43404
C 10.58895 2.67242 1.88279
C 8.53341 4.07980 -0.85743
C 8.75608 3.79467 2.63704
O 7.68488 4.34951 2.87873
C 9.70947 3.52860 3.88067
C 8.90470 2.82915 4.94163
O 8.46223 1.68336 4.74671
O 8.97453 3.53527 6.08482
C 8.20083 2.87571 7.17027
H 16.23490 1.19219 4.23996
H 15.97960 -0.24323 -1.83342
H 10.48724 2.75396 -2.36776
H 12.12651 3.38822 5.87484
H 14.50258 1.88318 6.03684
H 13.89632 4.60574 4.95966
H 15.27394 3.79036 4.19049
H 15.33090 4.05808 5.90651
H 12.62581 0.40731 6.04988
H 10.92694 0.97927 5.87130
H 12.12746 2.43218 8.00562
H 12.85023 0.86443 8.07376
H 17.67644 -0.33842 4.09884
H 18.79821 -0.63278 2.81270
H 17.80690 -1.99815 3.37823
H 19.26187 -2.03827 1.14386
H 19.01591 -3.35382 -0.14281
H 18.04635 -3.28116 1.35655
H 14.23956 0.01115 -3.67927
H 12.71525 2.56032 -3.86644
H 15.71946 1.35148 -4.74816
H 15.87557 2.27520 -3.21245
H 14.75722 2.77897 -4.37484
H 12.22433 0.51061 -5.25551
H 10.81791 1.27394 -4.53837
H 12.25546 -1.20301 -3.92166
H 10.47352 -0.96985 -4.04479
H 11.40027 -0.47659 -2.55747
H 7.53433 3.85830 -0.50634
H 8.67779 3.74790 -1.88347
H 8.83822 5.12014 -0.71578
H 10.08220 4.49563 4.22052
H 7.48540 3.61353 7.54638
H 8.95422 2.49470 7.88509
H 7.54003 2.06303 6.89214
