79

Mg 10.51874 0.93921 0.79904
C 10.67163 -0.19462 -2.60245
C 9.85850 -2.28705 1.68779
C 9.93315 1.97401 3.74075
C 10.05375 4.16237 -0.44224
N 10.31709 -0.91246 -0.39382
C 10.45691 -1.23226 -1.67152
C 10.44127 -2.75776 -1.95816
C 9.62110 -3.23731 -0.66346
C 9.97744 -2.09684 0.28787
C 8.11551 -3.23448 -0.86972
C 11.88335 -3.37555 -1.98591
C 11.96580 -4.79052 -2.56279
H 13.14690 -5.15800 -3.33895
N 10.46062 -0.04772 2.51983
C 10.20001 -1.35998 2.69687
C 10.25598 -1.58895 4.14897
C 10.40803 -0.27239 4.82592
C 10.24879 0.62379 3.69827
C 10.24698 -2.96128 4.75728
C 10.64341 0.11621 6.25413
O 10.50500 1.32595 6.65438
C 10.94948 -0.97646 7.18895
N 9.84966 2.76040 1.54600
C 9.73111 2.96304 2.86993
C 9.50125 4.42300 3.17989
C 9.73220 5.19680 1.79949
C 9.97896 3.98819 0.87010
C 8.12197 4.77581 3.73621
C 10.77290 6.34988 1.80463
C 12.16147 5.79093 2.01636
N 10.56634 1.87881 -1.14594
C 10.31803 3.23669 -1.44357
C 10.35277 3.37348 -2.91412
C 10.59801 2.07106 -3.37462
C 10.68824 1.18159 -2.27000
C 10.12374 4.57414 -3.64355
C 10.79050 1.24460 -4.54449
O 10.90503 1.45936 -5.75052
C 10.72095 -0.28065 -4.10271
C 11.88708 -0.99822 -4.72539
O 13.05218 -0.71912 -4.39185
O 11.43043 -2.03871 -5.44597
C 12.55074 -2.78827 -6.07436
H 9.42300 -3.21888 2.04962
H 9.83066 2.40305 4.74020
H 10.01534 5.15179 -0.90293
H 9.91392 -3.04516 -2.85987
H 9.99968 -4.18282 -0.28393
H 7.83950 -2.79627 -1.81731
H 7.70764 -2.65508 -0.05181
H 7.71683 -4.24602 -0.75071
H 12.20808 -3.57322 -0.95624
H 12.56359 -2.73186 -2.50895
H 11.05104 -5.07101 -3.09897
H 12.01908 -5.50062 -1.73397
H 9.96054 -3.72471 4.02343
H 9.43867 -2.97815 5.49635
H 11.18696 -3.20716 5.25592
H 10.13367 -1.69542 7.18365
H 11.17367 -0.49209 8.14131
H 11.83832 -1.50639 6.82874
H 10.21862 4.78138 3.90793
H 8.81095 5.68246 1.44556
H 8.16452 5.28921 4.71533
H 7.54031 3.86644 3.80863
H 7.50546 5.39315 3.08505
H 10.58127 7.02926 2.63882
H 10.76385 6.94393 0.89688
H 12.22097 5.68312 3.10353
H 12.91406 6.48448 1.64673
H 12.25329 4.78941 1.58028
H 10.87516 4.61433 -4.42089
H 10.17255 5.44771 -2.99680
H 9.10989 4.39002 -4.00889
H 9.76503 -0.67793 -4.44617
H 12.34965 -2.82130 -7.14960
H 12.59890 -3.75621 -5.54095
H 13.53260 -2.32990 -6.05680
