79

Mg 10.50228 0.94976 0.80360
C 8.25116 -1.80335 0.32208
C 8.21944 2.90452 -0.80952
C 12.64712 3.28793 0.81084
C 13.03087 -1.39015 1.32967
N 8.52746 0.49429 -0.08234
C 7.74718 -0.57380 -0.15083
C 6.31782 -0.29281 -0.68704
C 6.63191 1.04371 -1.52007
C 7.84815 1.53801 -0.73961
C 7.06126 0.77313 -2.95247
C 5.28915 -0.02226 0.46650
C 3.82050 -0.04639 0.03724
H 2.83100 -0.57654 0.97121
N 10.27151 2.90498 0.55374
C 9.27474 3.52863 -0.10868
C 9.57262 4.96669 -0.02268
C 10.91296 5.13151 0.60264
C 11.34764 3.75036 0.66230
C 8.59317 6.02667 -0.43564
C 11.68222 6.33436 1.05827
O 12.92734 6.26489 1.35437
C 10.95852 7.61410 1.05808
N 12.58117 0.95603 0.82623
C 13.26848 2.11044 0.87981
C 14.73045 1.86213 1.16506
C 14.83869 0.30961 1.53323
C 13.37035 -0.10873 1.30006
C 15.69479 2.18256 0.02324
C 15.50202 -0.04694 2.89173
C 14.62771 0.42280 4.03204
N 10.61545 -1.19782 1.01132
C 11.77828 -1.97639 1.20039
C 11.36317 -3.39381 1.16822
C 9.98017 -3.34164 0.93786
C 9.56608 -1.98790 0.81368
C 12.22867 -4.51710 1.29170
C 8.77815 -4.12428 0.76092
O 8.49874 -5.31922 0.84919
C 7.62600 -3.16754 0.22838
C 6.39024 -3.42953 1.04493
O 6.36558 -3.15930 2.25859
O 5.37674 -3.74997 0.22000
C 4.12623 -4.00812 0.98248
H 7.67883 3.55446 -1.49814
H 13.41145 4.05942 0.92954
H 13.74409 -2.17728 1.58348
H 5.92125 -1.05658 -1.34519
H 5.81517 1.75693 -1.44516
H 7.19872 -0.28151 -3.13947
H 7.99383 1.30569 -3.08563
H 6.35241 1.22743 -3.65067
H 5.37481 1.02482 0.78435
H 5.43939 -0.70614 1.27912
H 3.68871 -0.49202 -0.95623
H 3.47730 0.98397 -0.08352
H 7.76043 5.60293 -1.01043
H 9.10987 6.67971 -1.14727
H 8.24343 6.62801 0.40623
H 10.59964 7.82588 0.05368
H 11.64590 8.33861 1.49907
H 10.07216 7.51488 1.69458
H 15.06412 2.44834 2.01248
H 15.44314 -0.24222 0.79840
H 16.47740 2.91222 0.30468
H 15.11943 2.54729 -0.81727
H 16.20730 1.32213 -0.40359
H 16.45588 0.47593 2.99622
H 15.70109 -1.10681 3.01021
H 14.90045 1.47747 4.13385
H 14.85204 -0.13238 4.94060
H 13.56721 0.38158 3.75765
H 11.73763 -5.21711 1.95455
H 13.20559 -4.22636 1.67230
H 12.27474 -4.84335 0.24925
H 7.47440 -3.39374 -0.82776
H 3.78173 -5.00830 0.70204
H 3.45440 -3.16047 0.75033
H 4.20665 -4.10619 2.05876
