158

Mg 0.00000 0.00000 0.00000
C -0.21700 -2.21800 2.80100
C -1.25500 2.44200 2.02600
C -0.24500 1.85000 -2.56400
C 0.14600 -2.82400 -2.03700
N -0.61700 -0.00900 2.12600
C -0.59400 -0.90800 3.10500
C -0.93600 -0.30900 4.50200
C -1.77300 0.96400 4.03200
C -1.15500 1.16800 2.66000
C -3.26300 0.68500 3.86300
C 0.34500 0.11000 5.29900
C 0.12400 0.39700 6.78700
H 1.16800 0.03300 7.73300
N -0.18500 1.96100 -0.15200
C -0.70300 2.80000 0.77700
C -0.62000 4.15600 0.19300
C -0.18700 4.01500 -1.22500
C -0.21400 2.58300 -1.38000
C -0.88700 5.40600 0.97400
C 0.18100 5.01300 -2.27700
O 0.30300 4.69000 -3.50800
C 0.31000 6.41400 -1.83700
N -0.26500 -0.41300 -2.02900
C -0.27900 0.56900 -2.93700
C -0.19600 0.02400 -4.33200
C 0.12400 -1.53300 -4.18000
C 0.08600 -1.63200 -2.63500
C -1.45100 0.20500 -5.19700
C 1.37300 -2.07000 -4.92300
C 2.62600 -1.49000 -4.30600
N 0.15000 -2.14400 0.30300
C 0.17300 -3.13600 -0.68800
C 0.17300 -4.43800 0.00400
C 0.13300 -4.11100 1.35800
C 0.08300 -2.69500 1.50200
C 0.14900 -5.71500 -0.62300
C 0.09600 -4.62900 2.71600
O 0.20800 -5.74700 3.22100
C -0.25500 -3.42800 3.70100
C 0.71700 -3.48200 4.84800
O 1.93100 -3.25500 4.66900
O 0.03800 -3.55600 6.00300
C 0.94300 -3.58300 7.18300
H -1.85900 3.22000 2.49700
H -0.21800 2.45300 -3.47400
H 0.27600 -3.74700 -2.60500
H -1.55400 -0.94900 5.13200
H -1.58500 1.83100 4.66500
H -3.48400 -0.37700 3.96900
H -3.51100 1.02700 2.85800
H -3.85200 1.30100 4.54300
H 0.66900 1.09600 4.96600
H 1.13000 -0.63900 5.18900
H -0.84400 0.02600 7.12500
H 0.06200 1.47700 6.92100
H -1.34400 5.18600 1.93800
H -1.65100 5.96300 0.43200
H 0.00700 6.02000 1.08400
H -0.63500 6.74400 -1.40500
H 0.66500 6.97000 -2.70400
H 1.04800 6.46600 -1.03600
H 0.60800 0.50100 -4.89100
H -0.69200 -2.15600 -4.54700
H -1.26700 0.74000 -6.12900
H -2.20400 0.71400 -4.59600
H -1.96700 -0.72000 -5.45300
H 1.35600 -1.75900 -5.96700
H 1.45200 -3.15700 -4.90200
H 2.71400 -0.52200 -4.79800
H 3.48700 -2.12100 -4.52900
H 2.49500 -1.30300 -3.24000
H 0.86700 -6.33300 -0.08400
H 0.40400 -5.64200 -1.68000
H -0.89100 -5.99900 -0.46300
H -1.28300 -3.58100 4.02800
H 0.69800 -4.47800 7.75500
H 0.83300 -2.61900 7.68000
H 2.00000 -3.75400 6.97600
Mg 15.76106 1.41341 1.20469
C 14.55396 3.92143 3.47003
C 17.42698 0.04204 3.84640
C 17.19738 -0.53935 -0.84254
C 14.96260 3.58280 -1.40336
N 15.89453 1.99701 3.33397
C 15.34357 2.93242 4.09278
C 15.59081 2.75409 5.61483
C 16.93646 1.88095 5.53918
C 16.73159 1.23422 4.17081
C 18.19911 2.72479 5.48443
C 14.43265 1.96454 6.32003
C 14.45409 2.02083 7.84913
H 13.18024 2.05434 8.56232
N 16.70761 -0.30298 1.51554
C 17.30616 -0.70731 2.65551
C 17.87457 -2.03235 2.36338
C 17.70513 -2.30546 0.91031
C 17.20455 -1.02303 0.45767
C 18.43040 -2.93217 3.42864
C 17.96439 -3.51595 0.06550
O 17.97040 -3.45484 -1.21476
C 18.30315 -4.75464 0.78130
N 16.23767 1.58676 -0.81154
C 16.81419 0.56960 -1.47557
C 16.80999 0.81849 -2.96500
C 15.89022 2.10859 -3.18241
C 15.58079 2.45010 -1.70830
C 18.17827 1.05581 -3.60366
C 14.70253 1.96724 -4.17341
C 13.67226 1.01416 -3.61165
N 14.74715 3.31193 1.01589
C 14.54546 4.05737 -0.16636
C 13.90974 5.33195 0.22572
C 13.80584 5.24869 1.62242
C 14.35752 4.01834 2.07119
C 13.55793 6.39208 -0.65659
C 13.36456 5.92643 2.82018
O 12.74320 6.96246 3.05319
C 13.94406 5.15216 4.08155
C 12.82265 4.96318 5.06605
O 11.84977 4.24130 4.78498
O 13.18446 5.48614 6.25179
C 12.10896 5.31334 7.26433
H 18.16765 -0.33499 4.55219
H 17.58175 -1.22378 -1.60235
H 14.59330 4.27028 -2.16734
H 15.77467 3.67443 6.15607
H 16.96056 1.12408 6.31888
H 17.97660 3.77689 5.38593
H 18.75119 2.37256 4.62293
H 18.83022 2.51566 6.35294
H 14.58929 0.88866 6.16941
H 13.47583 2.28919 5.95987
H 15.12479 2.80379 8.22341
H 14.89057 1.09206 8.22448
H 18.57244 -2.39543 4.37476
H 19.44401 -3.20753 3.11776
H 17.84163 -3.84246 3.56049
H 19.19185 -4.59072 1.38611
H 18.36505 -5.52826 0.01347
H 17.48918 -4.99125 1.47563
H 16.37271 -0.01832 -3.49569
H 16.46449 2.95489 -3.58718
H 18.40617 0.34811 -4.42299
H 18.93140 0.99620 -2.82921
H 18.33479 2.05700 -4.00156
H 15.04533 1.53341 -5.11597
H 14.22204 2.91093 -4.40915
H 14.06773 0.03222 -3.88824
H 12.69944 1.19020 -4.06625
H 13.64674 1.06279 -2.51683
H 12.57489 6.73180 -0.35872
H 13.56908 6.06581 -1.69447
H 14.36192 7.10069 -0.44040
H 14.75310 5.75649 4.49363
H 11.87638 6.30828 7.65636
H 12.49307 4.56570 7.98353
H 11.13578 4.99206 6.91197
