79

Mg 31.52383 2.84110 2.38977
C 31.41538 0.06449 0.11871
C 31.72528 4.87468 -0.34126
C 32.07353 5.26667 4.36002
C 32.45585 0.58865 4.88046
N 31.55649 2.40727 0.22114
C 31.44742 1.31878 -0.52561
C 31.28738 1.59440 -2.04482
C 31.96933 3.04730 -2.09877
C 31.70747 3.49373 -0.66183
C 33.47238 2.99887 -2.31748
C 29.78292 1.64925 -2.48711
C 29.55534 1.60631 -3.99976
H 28.38150 0.90135 -4.50728
N 31.36411 4.79708 2.09451
C 31.44823 5.45189 0.91747
C 31.28509 6.87834 1.23809
C 31.26258 7.02674 2.71869
C 31.59398 5.67548 3.12411
C 31.08896 7.93146 0.18647
C 31.00040 8.19485 3.62034
O 31.26730 8.15160 4.87322
C 30.50943 9.42231 2.97708
N 32.37418 2.95451 4.28355
C 32.44497 4.12549 4.94059
C 32.83873 3.91834 6.38365
C 32.78201 2.33795 6.62184
C 32.43671 1.87822 5.18838
C 34.21902 4.44304 6.77847
C 31.89527 1.83418 7.79341
C 30.43816 2.09605 7.48740
N 31.70022 0.69438 2.55873
C 32.13254 -0.03995 3.68476
C 32.19527 -1.45958 3.28085
C 31.81421 -1.44977 1.93060
C 31.55327 -0.11569 1.51630
C 32.61228 -2.54168 4.10626
C 31.58362 -2.26343 0.75863
O 31.56270 -3.47231 0.53080
C 31.43738 -1.30520 -0.50104
C 30.22614 -1.74188 -1.27869
O 29.08879 -1.64233 -0.78562
O 30.58736 -1.99950 -2.54894
C 29.41782 -2.42576 -3.36276
H 32.02026 5.58331 -1.11568
H 32.17443 6.05405 5.11057
H 32.64293 -0.18688 5.62627
H 31.82283 0.90815 -2.68988
H 31.45518 3.69915 -2.80027
H 33.85227 1.98862 -2.28238
H 33.90453 3.59338 -1.52322
H 33.73411 3.50636 -3.25037
H 29.38044 2.64590 -2.26477
H 29.21816 0.86933 -2.01444
H 30.45556 1.29476 -4.54335
H 29.36850 2.62382 -4.35158
H 31.31699 7.54696 -0.81531
H 31.84736 8.70241 0.36063
H 30.09985 8.39226 0.23114
H 31.22780 9.75048 2.22961
H 30.29621 10.11494 3.79358
H 29.58212 9.18985 2.44166
H 32.13338 4.39968 7.04990
H 33.77473 1.92496 6.85374
H 34.18793 5.16770 7.61392
H 34.67736 4.88853 5.90554
H 34.94253 3.67768 7.05409
H 32.12483 2.38766 8.70726
H 32.02806 0.78014 8.01334
H 30.30656 3.13977 7.78811
H 29.79963 1.43422 8.06903
H 30.24544 2.03663 6.40992
H 31.91524 -3.35103 3.93428
H 32.63819 -2.25444 5.15535
H 33.61344 -2.71898 3.70436
H 32.35324 -1.39215 -1.08688
H 29.67139 -3.39489 -3.80342
H 29.21981 -1.59113 -4.06129
H 28.50164 -2.66608 -2.83616
