79

Mg 15.76910 1.42216 1.18783
C 18.38026 -0.95269 0.53902
C 18.08686 3.87763 0.70482
C 13.61069 3.51969 2.19235
C 13.99074 -1.15861 2.71188
N 17.92292 1.34666 0.69022
C 18.79330 0.38942 0.40652
C 20.16076 0.89950 -0.12208
C 20.13256 2.37151 0.51924
C 18.62090 2.56733 0.61533
C 20.71163 2.42752 1.92312
C 20.21216 0.95663 -1.68928
C 21.61060 1.14855 -2.28028
H 21.93153 0.48225 -3.53946
N 15.68446 3.39083 0.95172
C 16.71995 4.23050 0.74194
C 16.13465 5.57741 0.65580
C 14.68893 5.48326 0.99601
C 14.60805 4.10072 1.42279
C 16.91589 6.77668 0.20322
C 13.56773 6.47705 0.95736
O 12.44156 6.24396 1.52325
C 13.85834 7.76874 0.31817
N 14.14443 1.26643 2.47567
C 13.33674 2.31776 2.69991
C 12.08683 1.89812 3.43613
C 12.11085 0.29909 3.44671
C 13.47523 0.06197 2.76286
C 11.95361 2.41432 4.86867
C 10.86200 -0.42732 2.87629
C 10.75975 -0.18598 1.38744
N 16.01053 -0.71334 1.41004
C 15.16149 -1.59965 2.10838
C 15.80109 -2.93094 2.07674
C 16.99848 -2.72027 1.37647
C 17.10768 -1.35003 1.01591
C 15.29414 -4.11215 2.68818
C 18.19993 -3.34335 0.86953
O 18.61568 -4.49917 0.79895
C 19.20800 -2.20170 0.41478
C 19.73312 -2.56155 -0.94805
O 18.97123 -2.59489 -1.93040
O 21.07763 -2.59367 -0.90784
C 21.64561 -2.93549 -2.23915
H 18.77919 4.71483 0.79786
H 12.78528 4.17911 2.47045
H 13.45306 -2.03521 3.07950
H 21.02156 0.35167 0.24217
H 20.56991 3.10414 -0.15406
H 20.93918 1.44324 2.30464
H 19.95657 2.90482 2.53395
H 21.58122 3.09056 1.94602
H 19.73536 1.88486 -2.02957
H 19.75530 0.08567 -2.11747
H 22.39929 0.97028 -1.53925
H 21.73108 2.19999 -2.55227
H 17.99300 6.57001 0.18064
H 16.80253 7.54302 0.97765
H 16.55768 7.17870 -0.74691
H 14.69073 8.24580 0.83003
H 12.91016 8.30980 0.30830
H 14.18595 7.58396 -0.71098
H 11.19929 2.23279 2.91329
H 12.19752 -0.10037 4.46786
H 11.02579 2.99218 5.03987
H 12.82362 3.01549 5.09715
H 11.99284 1.64820 5.64114
H 9.95074 -0.01903 3.32020
H 10.86072 -1.49589 3.06373
H 10.26535 0.78829 1.32875
H 10.16115 -0.96152 0.91388
H 11.75335 -0.07910 0.93691
H 15.42663 -4.91391 1.97395
H 14.24927 -3.99746 2.96899
H 15.94914 -4.17639 3.56118
H 20.00313 -2.15101 1.15961
H 22.29064 -3.80805 -2.09683
H 22.12555 -2.00878 -2.60606
H 20.96199 -3.29924 -2.99730
