158

Mg 0.00000 0.00000 0.00000
C -0.21700 -2.21800 2.80100
C -1.25500 2.44200 2.02600
C -0.24500 1.85000 -2.56400
C 0.14600 -2.82400 -2.03700
N -0.61700 -0.00900 2.12600
C -0.59400 -0.90800 3.10500
C -0.93600 -0.30900 4.50200
C -1.77300 0.96400 4.03200
C -1.15500 1.16800 2.66000
C -3.26300 0.68500 3.86300
C 0.34500 0.11000 5.29900
C 0.12400 0.39700 6.78700
H 1.16800 0.03300 7.73300
N -0.18500 1.96100 -0.15200
C -0.70300 2.80000 0.77700
C -0.62000 4.15600 0.19300
C -0.18700 4.01500 -1.22500
C -0.21400 2.58300 -1.38000
C -0.88700 5.40600 0.97400
C 0.18100 5.01300 -2.27700
O 0.30300 4.69000 -3.50800
C 0.31000 6.41400 -1.83700
N -0.26500 -0.41300 -2.02900
C -0.27900 0.56900 -2.93700
C -0.19600 0.02400 -4.33200
C 0.12400 -1.53300 -4.18000
C 0.08600 -1.63200 -2.63500
C -1.45100 0.20500 -5.19700
C 1.37300 -2.07000 -4.92300
C 2.62600 -1.49000 -4.30600
N 0.15000 -2.14400 0.30300
C 0.17300 -3.13600 -0.68800
C 0.17300 -4.43800 0.00400
C 0.13300 -4.11100 1.35800
C 0.08300 -2.69500 1.50200
C 0.14900 -5.71500 -0.62300
C 0.09600 -4.62900 2.71600
O 0.20800 -5.74700 3.22100
C -0.25500 -3.42800 3.70100
C 0.71700 -3.48200 4.84800
O 1.93100 -3.25500 4.66900
O 0.03800 -3.55600 6.00300
C 0.94300 -3.58300 7.18300
H -1.85900 3.22000 2.49700
H -0.21800 2.45300 -3.47400
H 0.27600 -3.74700 -2.60500
H -1.55400 -0.94900 5.13200
H -1.58500 1.83100 4.66500
H -3.48400 -0.37700 3.96900
H -3.51100 1.02700 2.85800
H -3.85200 1.30100 4.54300
H 0.66900 1.09600 4.96600
H 1.13000 -0.63900 5.18900
H -0.84400 0.02600 7.12500
H 0.06200 1.47700 6.92100
H -1.34400 5.18600 1.93800
H -1.65100 5.96300 0.43200
H 0.00700 6.02000 1.08400
H -0.63500 6.74400 -1.40500
H 0.66500 6.97000 -2.70400
H 1.04800 6.46600 -1.03600
H 0.60800 0.50100 -4.89100
H -0.69200 -2.15600 -4.54700
H -1.26700 0.74000 -6.12900
H -2.20400 0.71400 -4.59600
H -1.96700 -0.72000 -5.45300
H 1.35600 -1.75900 -5.96700
H 1.45200 -3.15700 -4.90200
H 2.71400 -0.52200 -4.79800
H 3.48700 -2.12100 -4.52900
H 2.49500 -1.30300 -3.24000
H 0.86700 -6.33300 -0.08400
H 0.40400 -5.64200 -1.68000
H -0.89100 -5.99900 -0.46300
H -1.28300 -3.58100 4.02800
H 0.69800 -4.47800 7.75500
H 0.83300 -2.61900 7.68000
H 2.00000 -3.75400 6.97600
Mg 13.14117 1.17610 1.00581
C 10.47387 1.76093 3.33445
C 15.29841 2.15266 3.46085
C 15.46929 1.10418 -1.14875
C 10.77002 1.35542 -1.54197
N 12.80851 1.84662 3.08715
C 11.75657 1.97018 3.88246
C 12.10348 2.26027 5.36741
C 13.55339 2.91616 5.15192
C 13.93399 2.24091 3.83592
C 13.50661 4.41763 4.92230
C 12.18742 0.95118 6.22836
C 12.21620 1.17740 7.74155
H 11.54231 0.20972 8.60292
N 15.10965 1.09394 1.24434
C 15.81801 1.51406 2.31345
C 17.22891 1.25242 1.98930
C 17.30840 0.79565 0.57517
C 15.93788 1.00468 0.15320
C 18.33091 1.36458 3.00243
C 18.43479 0.27110 -0.26287
O 18.33178 0.15933 -1.53556
C 19.69362 -0.01976 0.43872
N 13.16150 1.43296 -1.05719
C 14.30024 1.29843 -1.75941
C 14.02393 1.25354 -3.24333
C 12.43453 1.14243 -3.38123
C 12.04395 1.23630 -1.88991
C 14.52181 2.45310 -4.04929
C 11.88187 -0.04465 -4.21675
C 12.16601 -1.35013 -3.50937
N 10.98794 1.31278 0.89181
C 10.19957 1.40201 -0.27635
C 8.79993 1.59201 0.15647
C 8.87471 1.62345 1.55715
C 10.22809 1.48452 1.96772
C 7.67825 1.75757 -0.70408
C 8.11778 1.75324 2.78145
O 6.92095 1.80992 3.06094
C 9.13439 1.97486 3.98303
C 8.74128 1.04843 5.10093
O 8.82427 -0.18428 4.95898
O 8.54097 1.76825 6.21990
C 8.15971 0.89220 7.35964
H 16.04059 2.65589 4.08118
H 16.22031 0.97417 -1.93139
H 9.95957 1.32199 -2.27323
H 11.44492 2.96691 5.85806
H 14.24010 2.62493 5.94248
H 12.49367 4.77880 4.82401
H 14.06106 4.59307 4.00969
H 14.05544 4.93718 5.71298
H 13.17494 0.49306 6.08806
H 11.38960 0.27907 5.97857
H 11.92514 2.19994 8.01106
H 13.25002 1.09358 8.08535
H 17.99213 1.87941 3.90994
H 19.08858 2.03226 2.57817
H 18.79477 0.40209 3.22853
H 20.05210 0.88346 0.92672
H 20.34873 -0.46864 -0.31043
H 19.49161 -0.74743 1.23263
H 14.47778 0.37995 -3.69495
H 12.00553 2.02690 -3.87470
H 15.20699 2.17252 -4.87141
H 15.00481 3.14354 -3.37065
H 13.74035 3.07027 -4.48931
H 12.39092 -0.09761 -5.18226
H 10.81801 0.02646 -4.41706
H 13.19535 -1.57264 -3.80610
H 11.48149 -2.12567 -3.84702
H 12.15788 -1.21802 -2.42119
H 6.88176 1.14822 -0.29812
H 7.91622 1.47245 -1.72674
H 7.51412 2.83398 -0.60567
H 9.06956 3.02291 4.27793
H 7.21070 1.27173 7.75081
H 9.02704 0.90084 8.04624
H 7.90038 -0.13610 7.13650
