158

Mg 0.00000 0.00000 0.00000
C -0.21700 -2.21800 2.80100
C -1.25500 2.44200 2.02600
C -0.24500 1.85000 -2.56400
C 0.14600 -2.82400 -2.03700
N -0.61700 -0.00900 2.12600
C -0.59400 -0.90800 3.10500
C -0.93600 -0.30900 4.50200
C -1.77300 0.96400 4.03200
C -1.15500 1.16800 2.66000
C -3.26300 0.68500 3.86300
C 0.34500 0.11000 5.29900
C 0.12400 0.39700 6.78700
H 1.16800 0.03300 7.73300
N -0.18500 1.96100 -0.15200
C -0.70300 2.80000 0.77700
C -0.62000 4.15600 0.19300
C -0.18700 4.01500 -1.22500
C -0.21400 2.58300 -1.38000
C -0.88700 5.40600 0.97400
C 0.18100 5.01300 -2.27700
O 0.30300 4.69000 -3.50800
C 0.31000 6.41400 -1.83700
N -0.26500 -0.41300 -2.02900
C -0.27900 0.56900 -2.93700
C -0.19600 0.02400 -4.33200
C 0.12400 -1.53300 -4.18000
C 0.08600 -1.63200 -2.63500
C -1.45100 0.20500 -5.19700
C 1.37300 -2.07000 -4.92300
C 2.62600 -1.49000 -4.30600
N 0.15000 -2.14400 0.30300
C 0.17300 -3.13600 -0.68800
C 0.17300 -4.43800 0.00400
C 0.13300 -4.11100 1.35800
C 0.08300 -2.69500 1.50200
C 0.14900 -5.71500 -0.62300
C 0.09600 -4.62900 2.71600
O 0.20800 -5.74700 3.22100
C -0.25500 -3.42800 3.70100
C 0.71700 -3.48200 4.84800
O 1.93100 -3.25500 4.66900
O 0.03800 -3.55600 6.00300
C 0.94300 -3.58300 7.18300
H -1.85900 3.22000 2.49700
H -0.21800 2.45300 -3.47400
H 0.27600 -3.74700 -2.60500
H -1.55400 -0.94900 5.13200
H -1.58500 1.83100 4.66500
H -3.48400 -0.37700 3.96900
H -3.51100 1.02700 2.85800
H -3.85200 1.30100 4.54300
H 0.66900 1.09600 4.96600
H 1.13000 -0.63900 5.18900
H -0.84400 0.02600 7.12500
H 0.06200 1.47700 6.92100
H -1.34400 5.18600 1.93800
H -1.65100 5.96300 0.43200
H 0.00700 6.02000 1.08400
H -0.63500 6.74400 -1.40500
H 0.66500 6.97000 -2.70400
H 1.04800 6.46600 -1.03600
H 0.60800 0.50100 -4.89100
H -0.69200 -2.15600 -4.54700
H -1.26700 0.74000 -6.12900
H -2.20400 0.71400 -4.59600
H -1.96700 -0.72000 -5.45300
H 1.35600 -1.75900 -5.96700
H 1.45200 -3.15700 -4.90200
H 2.71400 -0.52200 -4.79800
H 3.48700 -2.12100 -4.52900
H 2.49500 -1.30300 -3.24000
H 0.86700 -6.33300 -0.08400
H 0.40400 -5.64200 -1.68000
H -0.89100 -5.99900 -0.46300
H -1.28300 -3.58100 4.02800
H 0.69800 -4.47800 7.75500
H 0.83300 -2.61900 7.68000
H 2.00000 -3.75400 6.97600
Mg 10.50319 0.95074 0.80424
C 12.43089 2.45145 3.43310
C 8.90752 -0.86259 3.21262
C 9.10858 -0.71108 -1.51111
C 12.97556 1.99790 -1.41759
N 10.72802 0.89101 3.00382
C 11.44982 1.55063 3.89726
C 11.04563 1.28625 5.37249
C 10.36174 -0.15393 5.18005
C 9.93747 -0.02966 3.71812
C 11.34459 -1.30717 5.29577
C 10.01760 2.34320 5.90919
C 9.81535 2.33097 7.42599
H 9.57775 3.60084 8.10676
N 8.88178 -0.19302 0.84186
C 8.36253 -0.83371 1.91012
C 7.18223 -1.55635 1.41127
C 7.14209 -1.42288 -0.07038
C 8.41520 -0.77381 -0.31117
C 6.18585 -2.21376 2.32147
C 6.13158 -1.82577 -1.10128
O 6.40963 -1.82643 -2.35249
C 4.83759 -2.30855 -0.59730
N 11.07124 0.49508 -1.14307
C 10.25634 -0.19951 -1.95635
C 10.75249 -0.16798 -3.38226
C 11.94404 0.89856 -3.39907
C 11.99146 1.24873 -1.89557
C 11.25348 -1.49923 -3.94188
C 11.83505 2.05944 -4.42530
C 10.68636 2.96972 -4.05475
N 12.27418 2.18328 0.91613
C 13.18085 2.47050 -0.12767
C 14.28691 3.25410 0.45971
C 13.95592 3.34950 1.81979
C 12.74041 2.65589 2.06666
C 15.43295 3.72832 -0.23874
C 14.36386 3.87020 3.10477
O 15.26521 4.61089 3.49550
C 13.45977 3.20454 4.22989
C 12.97623 4.29698 5.14384
O 12.20371 5.17652 4.72403
O 13.32880 4.00185 6.40834
C 12.86170 5.05067 7.35364
H 8.50542 -1.64181 3.86070
H 8.61302 -1.17540 -2.36686
H 13.73481 2.44528 -2.06262
H 11.87571 1.21414 6.06498
H 9.49149 -0.26681 5.82136
H 12.36472 -0.96109 5.37119
H 11.21100 -1.89860 4.39944
H 11.06628 -1.95736 6.13012
H 9.00883 2.05930 5.58283
H 10.28441 3.33132 5.58817
H 10.59639 1.75888 7.94138
H 8.89390 1.78756 7.64884
H 6.56690 -2.28940 3.34737
H 6.08796 -3.25342 1.99073
H 5.20380 -1.73740 2.28517
H 4.99928 -3.17047 0.04566
H 4.21835 -2.46334 -1.48300
H 4.39275 -1.52749 0.02935
H 9.97267 0.16570 -4.05578
H 12.90816 0.42856 -3.64282
H 10.72694 -1.81106 -4.86361
H 11.15175 -2.25291 -3.17236
H 12.31906 -1.53601 -4.16184
H 11.61088 1.66595 -5.41982
H 12.74221 2.64855 -4.50900
H 9.81888 2.45969 -4.48421
H 10.82194 3.95588 -4.49422
H 10.54491 3.00253 -2.96821
H 15.59960 4.74528 0.09068
H 15.29138 3.67680 -1.31627
H 16.18372 3.01479 0.11122
H 14.07581 2.47387 4.75543
H 13.74136 5.40070 7.90260
H 12.05292 4.58135 7.94472
H 12.49323 5.97811 6.93109
