158

Mg 0.00000 0.00000 0.00000
C -0.21700 -2.21800 2.80100
C -1.25500 2.44200 2.02600
C -0.24500 1.85000 -2.56400
C 0.14600 -2.82400 -2.03700
N -0.61700 -0.00900 2.12600
C -0.59400 -0.90800 3.10500
C -0.93600 -0.30900 4.50200
C -1.77300 0.96400 4.03200
C -1.15500 1.16800 2.66000
C -3.26300 0.68500 3.86300
C 0.34500 0.11000 5.29900
C 0.12400 0.39700 6.78700
H 1.16800 0.03300 7.73300
N -0.18500 1.96100 -0.15200
C -0.70300 2.80000 0.77700
C -0.62000 4.15600 0.19300
C -0.18700 4.01500 -1.22500
C -0.21400 2.58300 -1.38000
C -0.88700 5.40600 0.97400
C 0.18100 5.01300 -2.27700
O 0.30300 4.69000 -3.50800
C 0.31000 6.41400 -1.83700
N -0.26500 -0.41300 -2.02900
C -0.27900 0.56900 -2.93700
C -0.19600 0.02400 -4.33200
C 0.12400 -1.53300 -4.18000
C 0.08600 -1.63200 -2.63500
C -1.45100 0.20500 -5.19700
C 1.37300 -2.07000 -4.92300
C 2.62600 -1.49000 -4.30600
N 0.15000 -2.14400 0.30300
C 0.17300 -3.13600 -0.68800
C 0.17300 -4.43800 0.00400
C 0.13300 -4.11100 1.35800
C 0.08300 -2.69500 1.50200
C 0.14900 -5.71500 -0.62300
C 0.09600 -4.62900 2.71600
O 0.20800 -5.74700 3.22100
C -0.25500 -3.42800 3.70100
C 0.71700 -3.48200 4.84800
O 1.93100 -3.25500 4.66900
O 0.03800 -3.55600 6.00300
C 0.94300 -3.58300 7.18300
H -1.85900 3.22000 2.49700
H -0.21800 2.45300 -3.47400
H 0.27600 -3.74700 -2.60500
H -1.55400 -0.94900 5.13200
H -1.58500 1.83100 4.66500
H -3.48400 -0.37700 3.96900
H -3.51100 1.02700 2.85800
H -3.85200 1.30100 4.54300
H 0.66900 1.09600 4.96600
H 1.13000 -0.63900 5.18900
H -0.84400 0.02600 7.12500
H 0.06200 1.47700 6.92100
H -1.34400 5.18600 1.93800
H -1.65100 5.96300 0.43200
H 0.00700 6.02000 1.08400
H -0.63500 6.74400 -1.40500
H 0.66500 6.97000 -2.70400
H 1.04800 6.46600 -1.03600
H 0.60800 0.50100 -4.89100
H -0.69200 -2.15600 -4.54700
H -1.26700 0.74000 -6.12900
H -2.20400 0.71400 -4.59600
H -1.96700 -0.72000 -5.45300
H 1.35600 -1.75900 -5.96700
H 1.45200 -3.15700 -4.90200
H 2.71400 -0.52200 -4.79800
H 3.48700 -2.12100 -4.52900
H 2.49500 -1.30300 -3.24000
H 0.86700 -6.33300 -0.08400
H 0.40400 -5.64200 -1.68000
H -0.89100 -5.99900 -0.46300
H -1.28300 -3.58100 4.02800
H 0.69800 -4.47800 7.75500
H 0.83300 -2.61900 7.68000
H 2.00000 -3.75400 6.97600
Mg 10.52006 0.95026 0.79503
C 12.85529 -1.18795 2.48434
C 11.95660 3.56979 2.44095
C 8.19710 2.79891 -0.32470
C 8.57708 -1.87960 0.19301
N 12.18430 1.05106 2.24844
C 13.03725 0.18152 2.76874
C 14.19602 0.82289 3.57834
C 13.48328 2.21029 3.96041
C 12.50100 2.30950 2.79509
C 12.68622 2.14161 5.25243
C 15.47778 1.05724 2.70415
C 16.74389 1.39162 3.49592
H 18.02436 0.88889 3.00590
N 10.41808 2.92517 0.62797
C 11.08673 3.83947 1.36163
C 10.64903 5.15280 0.86391
C 9.54478 4.94076 -0.11097
C 9.32499 3.51690 0.04529
C 11.32026 6.43680 1.25663
C 8.80007 5.86852 -1.02249
O 7.71788 5.51129 -1.60906
C 9.32388 7.23764 -1.13484
N 8.55792 0.56143 0.22832
C 7.77768 1.53446 -0.27406
C 6.50952 0.96622 -0.86504
C 6.71183 -0.62016 -0.87163
C 8.08547 -0.70301 -0.17045
C 5.21767 1.31118 -0.12442
C 6.53158 -1.34697 -2.23249
C 7.63819 -0.94717 -3.18168
N 10.74510 -1.17988 1.07770
C 9.79843 -2.18454 0.78012
C 10.36047 -3.46621 1.25327
C 11.59486 -3.11226 1.81849
C 11.77948 -1.70640 1.72369
C 9.71926 -4.73469 1.17623
C 12.77895 -3.60688 2.48331
O 13.22020 -4.72259 2.75574
C 13.59122 -2.36715 3.05750
C 15.03622 -2.54288 2.67853
O 15.38536 -2.50892 1.48540
O 15.79146 -2.50419 3.79140
C 17.23391 -2.66316 3.46599
H 12.18232 4.42871 3.07354
H 7.41151 3.37610 -0.81783
H 8.07632 -2.82037 -0.04547
H 14.47255 0.28675 4.47826
H 14.18882 3.03671 3.93579
H 12.63352 1.13516 5.64028
H 11.69678 2.50491 5.00734
H 13.09302 2.84545 5.98418
H 15.35899 1.98956 2.13723
H 15.66266 0.21534 2.06567
H 16.63025 1.17612 4.56531
H 16.90317 2.47191 3.45567
H 11.99157 6.29437 2.11247
H 10.53782 7.10445 1.63333
H 11.82520 6.92166 0.41841
H 9.33914 7.70034 -0.15090
H 8.71261 7.72265 -1.89838
H 10.36421 7.18738 -1.47514
H 6.37103 1.30706 -1.88374
H 5.99127 -1.12555 -0.21193
H 4.46830 1.81364 -0.76477
H 5.46720 1.93073 0.72672
H 4.71435 0.46707 0.34391
H 5.59368 -1.04224 -2.70327
H 6.51180 -2.42818 -2.14542
H 7.27728 -0.00155 -3.59717
H 7.76516 -1.69724 -3.95969
H 8.56599 -0.73541 -2.63762
H 10.46885 -5.44313 0.84955
H 8.87063 -4.71053 0.49577
H 9.40767 -4.85925 2.21674
H 13.45010 -2.35556 4.13895
H 17.60291 -3.50878 4.05458
H 17.69428 -1.67598 3.65908
H 17.48924 -2.97766 2.46083
