79

Mg 13.13152 1.17861 1.00475
C 12.68181 3.88805 3.31467
C 14.20051 -0.69780 3.64500
C 13.96321 -1.07874 -1.06409
C 13.13246 3.54404 -1.55464
N 13.36581 1.64632 3.15384
C 13.10528 2.68992 3.92673
C 13.23301 2.41116 5.44842
C 14.24468 1.16585 5.38067
C 13.89695 0.64393 3.98806
C 15.70741 1.57786 5.38486
C 11.86410 2.00443 6.09856
C 11.84950 2.01851 7.62870
H 10.62472 2.42980 8.30932
N 13.49001 -0.75286 1.28669
C 13.89487 -1.34711 2.42873
C 14.03559 -2.77648 2.11051
C 13.83991 -2.95242 0.64576
C 13.77601 -1.56860 0.22026
C 14.24928 -3.82687 3.16142
C 13.74113 -4.16525 -0.22915
O 13.80958 -4.08158 -1.50631
C 13.65574 -5.46300 0.45646
N 13.70712 1.23892 -0.99210
C 13.96344 0.10767 -1.67216
C 14.08739 0.37748 -3.15278
C 13.61939 1.89344 -3.35387
C 13.38036 2.28234 -1.87840
C 15.48305 0.19276 -3.74808
C 12.48084 2.14838 -4.37924
C 11.18784 1.54964 -3.87419
N 12.76110 3.30146 0.84866
C 12.84029 4.09786 -0.31476
C 12.61659 5.49799 0.10002
C 12.44427 5.42109 1.49030
C 12.57297 4.07103 1.91488
C 12.64009 6.63362 -0.75783
C 12.19331 6.17637 2.69665
O 11.91498 7.34870 2.94547
C 12.46158 5.23378 3.94802
C 11.30363 5.38054 4.89678
O 10.16550 5.00186 4.56834
O 11.76853 5.74008 6.10714
C 10.65825 5.88739 7.08562
H 14.76377 -1.30083 4.35773
H 14.14302 -1.83213 -1.83451
H 13.02010 4.32832 -2.30626
H 13.67366 3.21740 6.02252
H 14.00695 0.42224 6.13690
H 15.82448 2.64898 5.31327
H 16.15276 1.09045 4.52746
H 16.21285 1.16489 6.26254
H 11.68561 0.93646 5.91877
H 11.06738 2.61724 5.72393
H 12.71611 2.54688 8.04434
H 11.96442 0.99238 7.98628
H 14.51775 -3.38098 4.12708
H 15.13817 -4.39604 2.86854
H 13.40383 -4.51251 3.24969
H 14.53033 -5.59554 1.08890
H 13.50177 -6.20107 -0.33311
H 12.78521 -5.45056 1.12178
H 13.43133 -0.27106 -3.72030
H 14.44061 2.52861 -3.71719
H 15.50899 -0.53298 -4.58276
H 16.15390 -0.11388 -2.95658
H 15.95488 1.10446 -4.11056
H 12.70485 1.64999 -5.32559
H 12.32390 3.19933 -4.59799
H 11.26969 0.49967 -4.17073
H 10.33322 2.02818 -4.34819
H 11.14112 1.58030 -2.77942
H 11.80058 7.25476 -0.47516
H 12.58540 6.34228 -1.80469
H 13.61583 7.05340 -0.49901
H 13.40318 5.54867 4.39947
H 10.73128 6.89678 7.50213
H 10.76762 5.04228 7.79101
H 9.64610 5.89112 6.69835
