79

Mg 7.88314 0.70970 0.59883
C 7.51201 -0.31075 4.00957
C 6.65692 3.75418 1.53190
C 7.77346 1.48591 -2.47397
C 7.98861 -2.66966 -0.24645
N 7.20720 1.50047 2.55291
C 7.17197 1.02669 3.79447
C 6.81199 2.10686 4.85796
C 6.03269 3.13384 3.91987
C 6.69533 2.80286 2.59424
C 4.53927 2.84450 3.80824
C 8.08394 2.76288 5.49318
C 7.83157 3.58423 6.76087
H 8.83566 3.57310 7.81397
N 7.77001 2.47919 -0.27236
C 7.25550 3.61315 0.26120
C 7.40133 4.65515 -0.77786
C 7.86857 3.99070 -2.02617
C 7.79665 2.60375 -1.64330
C 7.15583 6.11077 -0.52358
C 8.29985 4.52099 -3.35693
O 8.44492 3.76333 -4.37648
C 8.46466 5.98226 -3.45974
N 7.66073 -0.41811 -1.14364
C 7.70582 0.15882 -2.34950
C 7.80886 -0.86484 -3.44104
C 8.07075 -2.26196 -2.71356
C 7.98633 -1.78207 -1.24357
C 6.58542 -0.98919 -4.35959
C 9.32076 -3.06248 -3.15748
C 10.57529 -2.32282 -2.74987
N 7.95080 -1.17321 1.67638
C 7.96726 -2.46149 1.12253
C 7.90319 -3.41521 2.24519
C 7.83675 -2.61015 3.38067
C 7.83150 -1.24046 2.99051
C 7.85276 -4.83268 2.13266
C 7.74413 -2.58863 4.83147
O 7.80349 -3.44297 5.71695
C 7.40735 -1.10131 5.29004
C 8.34458 -0.74862 6.41277
O 9.57018 -0.63023 6.20970
O 7.63151 -0.37577 7.48658
C 8.50182 0.01565 8.62742
H 6.06715 4.66406 1.65925
H 7.84653 1.70915 -3.54039
H 8.10256 -3.73981 -0.42873
H 6.15502 1.75858 5.65516
H 6.23270 4.16911 4.19544
H 4.27900 1.90193 4.28964
H 4.33128 2.79613 2.73918
H 3.95309 3.68082 4.19000
H 8.45082 3.54872 4.83294
H 8.84547 2.00943 5.69742
H 6.84234 3.38550 7.17420
H 7.80305 4.63836 6.48482
H 6.66485 6.27259 0.43522
H 6.42685 6.44443 -1.26179
H 8.06701 6.70241 -0.61324
H 7.51990 6.46896 -3.21663
H 8.86259 6.17062 -4.45624
H 9.18141 6.31061 -2.70647
H 8.64406 -0.64576 -4.10503
H 7.24435 -2.95864 -2.85626
H 6.81361 -0.84066 -5.41532
H 5.83392 -0.27791 -4.01809
H 6.04524 -1.93189 -4.27629
H 9.34356 -3.15907 -4.24242
H 9.36170 -4.06619 -2.73423
H 10.71021 -1.60735 -3.56026
H 11.41995 -3.01006 -2.69115
H 10.42115 -1.75228 -1.83378
H 8.53378 -5.22312 2.88880
H 8.13947 -5.16106 1.13388
H 6.79955 -5.01482 2.34581
H 6.36598 -1.10030 5.61047
H 8.21033 -0.59903 9.47914
H 8.41124 1.09723 8.72941
H 9.55767 -0.24261 8.53899
