158

Mg 0.00000 0.00000 0.00000
C -0.21700 -2.21800 2.80100
C -1.25500 2.44200 2.02600
C -0.24500 1.85000 -2.56400
C 0.14600 -2.82400 -2.03700
N -0.61700 -0.00900 2.12600
C -0.59400 -0.90800 3.10500
C -0.93600 -0.30900 4.50200
C -1.77300 0.96400 4.03200
C -1.15500 1.16800 2.66000
C -3.26300 0.68500 3.86300
C 0.34500 0.11000 5.29900
C 0.12400 0.39700 6.78700
H 1.16800 0.03300 7.73300
N -0.18500 1.96100 -0.15200
C -0.70300 2.80000 0.77700
C -0.62000 4.15600 0.19300
C -0.18700 4.01500 -1.22500
C -0.21400 2.58300 -1.38000
C -0.88700 5.40600 0.97400
C 0.18100 5.01300 -2.27700
O 0.30300 4.69000 -3.50800
C 0.31000 6.41400 -1.83700
N -0.26500 -0.41300 -2.02900
C -0.27900 0.56900 -2.93700
C -0.19600 0.02400 -4.33200
C 0.12400 -1.53300 -4.18000
C 0.08600 -1.63200 -2.63500
C -1.45100 0.20500 -5.19700
C 1.37300 -2.07000 -4.92300
C 2.62600 -1.49000 -4.30600
N 0.15000 -2.14400 0.30300
C 0.17300 -3.13600 -0.68800
C 0.17300 -4.43800 0.00400
C 0.13300 -4.11100 1.35800
C 0.08300 -2.69500 1.50200
C 0.14900 -5.71500 -0.62300
C 0.09600 -4.62900 2.71600
O 0.20800 -5.74700 3.22100
C -0.25500 -3.42800 3.70100
C 0.71700 -3.48200 4.84800
O 1.93100 -3.25500 4.66900
O 0.03800 -3.55600 6.00300
C 0.94300 -3.58300 7.18300
H -1.85900 3.22000 2.49700
H -0.21800 2.45300 -3.47400
H 0.27600 -3.74700 -2.60500
H -1.55400 -0.94900 5.13200
H -1.58500 1.83100 4.66500
H -3.48400 -0.37700 3.96900
H -3.51100 1.02700 2.85800
H -3.85200 1.30100 4.54300
H 0.66900 1.09600 4.96600
H 1.13000 -0.63900 5.18900
H -0.84400 0.02600 7.12500
H 0.06200 1.47700 6.92100
H -1.34400 5.18600 1.93800
H -1.65100 5.96300 0.43200
H 0.00700 6.02000 1.08400
H -0.63500 6.74400 -1.40500
H 0.66500 6.97000 -2.70400
H 1.04800 6.46600 -1.03600
H 0.60800 0.50100 -4.89100
H -0.69200 -2.15600 -4.54700
H -1.26700 0.74000 -6.12900
H -2.20400 0.71400 -4.59600
H -1.96700 -0.72000 -5.45300
H 1.35600 -1.75900 -5.96700
H 1.45200 -3.15700 -4.90200
H 2.71400 -0.52200 -4.79800
H 3.48700 -2.12100 -4.52900
H 2.49500 -1.30300 -3.24000
H 0.86700 -6.33300 -0.08400
H 0.40400 -5.64200 -1.68000
H -0.89100 -5.99900 -0.46300
H -1.28300 -3.58100 4.02800
H 0.69800 -4.47800 7.75500
H 0.83300 -2.61900 7.68000
H 2.00000 -3.75400 6.97600
Mg 13.14589 1.18183 1.00565
C 11.21776 -0.36954 3.60462
C 13.71827 3.75420 3.17127
C 14.46773 2.77877 -1.39642
C 11.50699 -0.89770 -1.26046
N 12.49861 1.53182 3.09151
C 11.81971 0.84409 3.99730
C 11.85130 1.45384 5.42445
C 12.15512 2.97989 5.02727
C 12.86752 2.74882 3.69619
C 10.89972 3.79411 4.76207
C 12.99979 0.85042 6.30698
C 12.89895 1.17001 7.80011
H 13.32865 0.15635 8.75944
N 14.37059 2.74338 1.02135
C 14.48932 3.67469 1.99080
C 15.51005 4.62174 1.51607
C 15.86537 4.26537 0.11555
C 14.87836 3.23904 -0.15381
C 16.10567 5.68381 2.39395
C 16.91113 4.77419 -0.82980
O 16.88631 4.48784 -2.07888
C 17.91159 5.69325 -0.26774
N 12.85949 1.12414 -1.05274
C 13.60195 1.88541 -1.87564
C 13.41264 1.47575 -3.31672
C 12.57012 0.11724 -3.27006
C 12.33122 0.01981 -1.74729
C 12.69462 2.48925 -4.20760
C 13.17458 -1.11132 -4.00352
C 14.43017 -1.56826 -3.29635
N 11.77465 -0.48296 1.13306
C 11.19174 -1.19196 0.05992
C 10.24043 -2.15998 0.64332
C 10.31953 -1.92934 2.02500
C 11.23918 -0.87711 2.28301
C 9.41466 -3.05913 -0.08863
C 9.82626 -2.32952 3.32317
O 9.09467 -3.22890 3.73503
C 10.29151 -1.25176 4.39478
C 10.86261 -1.98760 5.57584
O 11.90489 -2.65611 5.46030
O 10.21058 -1.60687 6.68952
C 10.74867 -2.30138 7.88949
H 13.76974 4.71252 3.68883
H 14.97697 3.22204 -2.25529
H 11.02976 -1.64863 -1.89373
H 10.91543 1.38998 5.96653
H 12.82620 3.44812 5.74266
H 10.01186 3.17946 4.76926
H 11.04090 4.24349 3.78782
H 10.83264 4.62491 5.47032
H 13.94109 1.36209 6.06847
H 13.06903 -0.21102 6.16850
H 11.91142 1.56226 8.07190
H 13.58467 1.99010 8.02653
H 15.53001 5.81046 3.31913
H 15.98725 6.63716 1.86769
H 17.16682 5.51947 2.59305
H 17.40908 6.56208 0.15067
H 18.62507 5.87678 -1.07344
H 18.41875 5.19203 0.56424
H 14.36631 1.28167 -3.79207
H 11.58095 0.23502 -3.73644
H 13.28592 2.78733 -5.09394
H 12.44564 3.35470 -3.60799
H 11.71915 2.17318 -4.57332
H 13.47228 -0.83758 -5.01870
H 12.48791 -1.94741 -4.08367
H 15.19789 -0.90234 -3.70162
H 14.64556 -2.60850 -3.53202
H 14.36565 -1.37947 -2.21846
H 9.46234 -4.01164 0.42220
H 9.74018 -3.14526 -1.12323
H 8.44999 -2.55190 -0.00270
H 9.41628 -0.65987 4.66538
H 9.90451 -2.80073 8.37500
H 11.27725 -1.52402 8.47264
H 11.42201 -3.13473 7.72640
