79

Mg 15.76538 1.41199 1.20519
C 13.48866 3.01718 3.46770
C 18.00858 1.30752 3.77263
C 17.94522 0.41057 -0.87155
C 13.82528 2.65503 -1.40950
N 15.64698 2.10425 3.30257
C 14.70961 2.64383 4.06713
C 15.07295 2.71804 5.57446
C 16.67285 2.69744 5.43746
C 16.79464 1.95990 4.10559
C 17.28079 4.08066 5.27480
C 14.54916 1.47589 6.37742
C 14.59646 1.62747 7.89944
H 13.53313 1.01753 8.69303
N 17.49735 0.49070 1.50527
C 18.26323 0.53922 2.61539
C 19.44287 -0.29108 2.32693
C 19.39040 -0.69994 0.89697
C 18.26182 0.08560 0.43944
C 20.43618 -0.68750 3.38031
C 20.22654 -1.63258 0.07402
O 20.14895 -1.65547 -1.20515
C 21.20554 -2.45188 0.80328
N 15.99524 1.69081 -0.84219
C 17.00176 1.10177 -1.51142
C 16.80650 1.21900 -3.00424
C 15.32984 1.80103 -3.19998
C 14.94298 2.01265 -1.71980
C 17.80669 2.11220 -3.73786
C 14.36677 0.98654 -4.10650
C 14.03303 -0.33371 -3.45003
N 13.88351 2.45813 1.02575
C 13.26695 2.90679 -0.16280
C 12.06162 3.66463 0.23127
C 12.07319 3.62353 1.63365
C 13.21667 2.90898 2.08240
C 11.16113 4.31637 -0.65782
C 11.38379 4.03124 2.83665
O 10.31259 4.58608 3.07834
C 12.33719 3.76516 4.08028
C 11.53241 3.06572 5.14124
O 11.08995 1.91993 4.94632
O 11.60225 3.77184 6.28443
C 10.82854 3.11228 7.36988
H 18.86261 1.42876 4.43957
H 18.60731 -0.00667 -1.63380
H 13.11496 2.99053 -2.16815
H 14.75422 3.62479 6.07445
H 17.13029 2.11975 6.23645
H 16.52403 4.84230 5.15927
H 17.90165 4.02692 4.39010
H 17.95862 4.29465 6.10612
H 15.25352 0.64388 6.24949
H 13.55465 1.21584 6.07091
H 14.75517 2.66874 8.20523
H 15.47794 1.10099 8.27337
H 20.30415 -0.10186 4.29845
H 21.42592 -0.39621 3.01231
H 20.43461 -1.76159 3.57784
H 21.88958 -1.80170 1.34348
H 21.64362 -3.11725 0.05680
H 20.67406 -3.04460 1.55617
H 16.86727 0.24772 -3.47966
H 15.34296 2.79688 -3.66683
H 18.34717 1.58805 -4.54855
H 18.50328 2.51176 -3.01284
H 17.38494 3.01554 -4.17523
H 14.85205 0.74718 -5.05590
H 13.44562 1.51051 -4.33875
H 14.88317 -0.96644 -3.72205
H 13.10123 -0.73328 -3.84518
H 14.02798 -0.24002 -2.35786
H 10.16204 4.09487 -0.30673
H 11.30550 3.98447 -1.68386
H 11.46593 5.35670 -0.51617
H 12.70992 4.73219 4.42013
H 10.11311 3.85009 7.74599
H 11.58194 2.73127 8.08471
H 10.16774 2.29960 7.09175
