158

Mg 0.00000 0.00000 0.00000
C -0.21700 -2.21800 2.80100
C -1.25500 2.44200 2.02600
C -0.24500 1.85000 -2.56400
C 0.14600 -2.82400 -2.03700
N -0.61700 -0.00900 2.12600
C -0.59400 -0.90800 3.10500
C -0.93600 -0.30900 4.50200
C -1.77300 0.96400 4.03200
C -1.15500 1.16800 2.66000
C -3.26300 0.68500 3.86300
C 0.34500 0.11000 5.29900
C 0.12400 0.39700 6.78700
H 1.16800 0.03300 7.73300
N -0.18500 1.96100 -0.15200
C -0.70300 2.80000 0.77700
C -0.62000 4.15600 0.19300
C -0.18700 4.01500 -1.22500
C -0.21400 2.58300 -1.38000
C -0.88700 5.40600 0.97400
C 0.18100 5.01300 -2.27700
O 0.30300 4.69000 -3.50800
C 0.31000 6.41400 -1.83700
N -0.26500 -0.41300 -2.02900
C -0.27900 0.56900 -2.93700
C -0.19600 0.02400 -4.33200
C 0.12400 -1.53300 -4.18000
C 0.08600 -1.63200 -2.63500
C -1.45100 0.20500 -5.19700
C 1.37300 -2.07000 -4.92300
C 2.62600 -1.49000 -4.30600
N 0.15000 -2.14400 0.30300
C 0.17300 -3.13600 -0.68800
C 0.17300 -4.43800 0.00400
C 0.13300 -4.11100 1.35800
C 0.08300 -2.69500 1.50200
C 0.14900 -5.71500 -0.62300
C 0.09600 -4.62900 2.71600
O 0.20800 -5.74700 3.22100
C -0.25500 -3.42800 3.70100
C 0.71700 -3.48200 4.84800
O 1.93100 -3.25500 4.66900
O 0.03800 -3.55600 6.00300
C 0.94300 -3.58300 7.18300
H -1.85900 3.22000 2.49700
H -0.21800 2.45300 -3.47400
H 0.27600 -3.74700 -2.60500
H -1.55400 -0.94900 5.13200
H -1.58500 1.83100 4.66500
H -3.48400 -0.37700 3.96900
H -3.51100 1.02700 2.85800
H -3.85200 1.30100 4.54300
H 0.66900 1.09600 4.96600
H 1.13000 -0.63900 5.18900
H -0.84400 0.02600 7.12500
H 0.06200 1.47700 6.92100
H -1.34400 5.18600 1.93800
H -1.65100 5.96300 0.43200
H 0.00700 6.02000 1.08400
H -0.63500 6.74400 -1.40500
H 0.66500 6.97000 -2.70400
H 1.04800 6.46600 -1.03600
H 0.60800 0.50100 -4.89100
H -0.69200 -2.15600 -4.54700
H -1.26700 0.74000 -6.12900
H -2.20400 0.71400 -4.59600
H -1.96700 -0.72000 -5.45300
H 1.35600 -1.75900 -5.96700
H 1.45200 -3.15700 -4.90200
H 2.71400 -0.52200 -4.79800
H 3.48700 -2.12100 -4.52900
H 2.49500 -1.30300 -3.24000
H 0.86700 -6.33300 -0.08400
H 0.40400 -5.64200 -1.68000
H -0.89100 -5.99900 -0.46300
H -1.28300 -3.58100 4.02800
H 0.69800 -4.47800 7.75500
H 0.83300 -2.61900 7.68000
H 2.00000 -3.75400 6.97600
Mg 31.54014 2.84151 2.38843
C 31.02942 6.38740 2.17663
C 30.92404 2.70316 -0.96357
C 31.53846 -0.32295 2.62002
C 30.98655 3.10673 5.81901
N 31.05240 4.41048 0.90766
C 30.94574 5.73048 0.93128
C 30.81785 6.39058 -0.46782
C 30.22726 5.13339 -1.27376
C 30.79500 4.00450 -0.41588
C 28.71053 5.04954 -1.23067
C 32.20535 6.84231 -1.04469
C 32.12568 7.76758 -2.26094
H 33.13118 8.81682 -2.40432
N 31.75538 1.45126 0.98863
C 31.47919 1.57145 -0.32688
C 31.78801 0.26292 -0.92400
C 32.11233 -0.68863 0.17331
C 31.78728 0.12193 1.32978
C 31.83477 0.03596 -2.40715
C 32.61766 -2.09958 0.18036
O 32.60221 -2.81503 1.24372
C 33.04427 -2.64964 -1.11460
N 31.09028 1.54213 3.94778
C 31.22156 0.21223 3.79920
C 31.10983 -0.49864 5.12682
C 31.11759 0.65532 6.23403
C 31.14375 1.89254 5.30991
C 29.86921 -1.37226 5.31130
C 32.18700 0.54756 7.35537
C 33.56763 0.74710 6.77276
N 31.27209 4.45462 3.80054
C 31.02815 4.34291 5.18694
C 30.80146 5.70935 5.70061
C 30.90731 6.52550 4.56431
C 31.16063 5.72229 3.41968
C 30.49205 6.05115 7.04729
C 30.85179 7.88285 4.07112
O 30.75450 8.99314 4.59221
C 30.80282 7.84186 2.48294
C 31.80748 8.83247 1.96154
O 33.02387 8.66024 2.15476
O 31.18691 9.69823 1.13951
C 32.14424 10.69397 0.58829
H 30.52457 2.51813 -1.96110
H 31.63577 -1.40007 2.77435
H 30.90472 3.28302 6.89367
H 30.12495 7.22204 -0.51619
H 30.63041 5.08581 -2.28201
H 28.28514 5.78505 -0.56419
H 28.48085 4.04955 -0.88672
H 28.30010 5.12212 -2.24192
H 32.70303 5.97628 -1.49973
H 32.80468 7.29946 -0.28151
H 31.11855 8.17876 -2.40078
H 32.29989 7.17319 -3.16115
H 31.39008 0.87481 -2.95667
H 31.17363 -0.81053 -2.62209
H 32.83898 -0.20000 -2.76570
H 32.21307 -2.61138 -1.81467
H 33.45626 -3.63579 -0.89177
H 33.83142 -2.00748 -1.52525
H 31.96083 -1.14835 5.29042
H 30.16752 0.69600 6.78680
H 30.10871 -2.42486 5.55364
H 29.27460 -1.31555 4.40921
H 29.17002 -1.02693 6.07096
H 32.17674 -0.45347 7.79355
H 32.03736 1.25477 8.16435
H 33.81866 -0.24562 6.38730
H 34.26782 1.05934 7.54496
H 33.53910 1.43455 5.91938
H 31.09129 6.91743 7.29419
H 30.69183 5.22269 7.72370
H 29.42230 6.25720 6.95536
H 29.78549 8.09253 2.17998
H 31.75063 11.68527 0.83341
H 32.24968 10.44499 -0.48439
H 33.13047 10.74163 1.03497
