79

Mg 7.88314 0.70970 0.59883
C 8.04276 -2.81378 -0.01094
C 6.82902 -0.03533 3.75744
C 7.30013 3.79883 1.01593
C 7.84247 1.15658 -2.85722
N 7.52238 -1.21806 1.62559
C 7.67874 -2.49735 1.29979
C 7.49278 -3.46867 2.50368
C 6.58120 -2.54721 3.43208
C 7.02835 -1.18379 2.93505
C 5.08744 -2.70172 3.16505
C 8.85062 -3.81866 3.20045
C 8.80169 -5.00426 4.16860
H 9.95725 -5.88412 4.25727
N 7.64297 1.75565 2.25750
C 7.22219 1.28676 3.45682
C 7.20884 2.45144 4.36787
C 7.47366 3.66961 3.55299
C 7.45664 3.11936 2.22171
C 7.01165 2.33588 5.84824
C 7.69490 5.10404 3.91575
O 7.67667 6.03720 3.04199
C 7.84753 5.40262 5.35123
N 7.38803 2.25184 -0.71810
C 7.24739 3.50979 -0.28596
C 7.17539 4.47573 -1.43127
C 7.54165 3.63759 -2.74013
C 7.68872 2.23912 -2.09136
C 5.82353 5.17386 -1.63400
C 8.70424 4.17108 -3.61431
C 10.00982 4.05156 -2.86048
N 8.11002 -0.55906 -1.14754
C 8.03505 -0.16513 -2.49137
C 8.14252 -1.38884 -3.30689
C 8.25663 -2.41803 -2.37438
C 8.19623 -1.87454 -1.05936
C 8.06957 -1.45339 -4.72638
C 8.39079 -3.85301 -2.18280
O 8.58371 -4.81331 -2.92986
C 8.13532 -4.17930 -0.64524
C 9.23710 -5.09485 -0.18573
O 10.41669 -4.69301 -0.11896
O 8.70115 -6.21405 0.32483
C 9.73980 -7.15310 0.82638
H 6.26985 -0.14372 4.68885
H 7.20739 4.88259 1.11238
H 7.92243 1.22673 -3.94356
H 6.96637 -4.39294 2.26483
H 6.82573 -2.66466 4.48761
H 4.90144 -3.32522 2.29065
H 4.71557 -1.69067 2.99774
H 4.57107 -3.06782 4.05280
H 9.11351 -3.02179 3.89611
H 9.63164 -3.99067 2.45900
H 7.88797 -5.58546 4.04116
H 8.73478 -4.61351 5.18400
H 6.67636 1.33879 6.13098
H 6.17809 2.98722 6.11023
H 7.90016 2.63389 6.40510
H 6.95400 5.07610 5.88372
H 8.08644 6.46368 5.41393
H 8.67398 4.81271 5.74865
H 7.89806 5.28152 -1.30925
H 6.70034 3.56821 -3.43011
H 5.88539 6.26219 -1.61394
H 5.13710 4.80705 -0.87140
H 5.29912 4.89780 -2.54845
H 8.55770 5.22755 -3.83647
H 8.80650 3.64379 -4.56286
H 10.01995 4.95172 -2.24693
H 10.85060 4.04292 -3.55490
H 10.00226 3.19643 -2.18432
H 8.85831 -2.13639 -5.04160
H 8.19619 -0.46816 -5.17459
H 7.06159 -1.84610 -4.85912
H 7.15644 -4.65383 -0.58394
H 9.58184 -8.10603 0.32119
H 9.67048 -7.13954 1.91423
H 10.76803 -6.93429 0.53619
