158

Mg 0.00000 0.00000 0.00000
C -0.21700 -2.21800 2.80100
C -1.25500 2.44200 2.02600
C -0.24500 1.85000 -2.56400
C 0.14600 -2.82400 -2.03700
N -0.61700 -0.00900 2.12600
C -0.59400 -0.90800 3.10500
C -0.93600 -0.30900 4.50200
C -1.77300 0.96400 4.03200
C -1.15500 1.16800 2.66000
C -3.26300 0.68500 3.86300
C 0.34500 0.11000 5.29900
C 0.12400 0.39700 6.78700
H 1.16800 0.03300 7.73300
N -0.18500 1.96100 -0.15200
C -0.70300 2.80000 0.77700
C -0.62000 4.15600 0.19300
C -0.18700 4.01500 -1.22500
C -0.21400 2.58300 -1.38000
C -0.88700 5.40600 0.97400
C 0.18100 5.01300 -2.27700
O 0.30300 4.69000 -3.50800
C 0.31000 6.41400 -1.83700
N -0.26500 -0.41300 -2.02900
C -0.27900 0.56900 -2.93700
C -0.19600 0.02400 -4.33200
C 0.12400 -1.53300 -4.18000
C 0.08600 -1.63200 -2.63500
C -1.45100 0.20500 -5.19700
C 1.37300 -2.07000 -4.92300
C 2.62600 -1.49000 -4.30600
N 0.15000 -2.14400 0.30300
C 0.17300 -3.13600 -0.68800
C 0.17300 -4.43800 0.00400
C 0.13300 -4.11100 1.35800
C 0.08300 -2.69500 1.50200
C 0.14900 -5.71500 -0.62300
C 0.09600 -4.62900 2.71600
O 0.20800 -5.74700 3.22100
C -0.25500 -3.42800 3.70100
C 0.71700 -3.48200 4.84800
O 1.93100 -3.25500 4.66900
O 0.03800 -3.55600 6.00300
C 0.94300 -3.58300 7.18300
H -1.85900 3.22000 2.49700
H -0.21800 2.45300 -3.47400
H 0.27600 -3.74700 -2.60500
H -1.55400 -0.94900 5.13200
H -1.58500 1.83100 4.66500
H -3.48400 -0.37700 3.96900
H -3.51100 1.02700 2.85800
H -3.85200 1.30100 4.54300
H 0.66900 1.09600 4.96600
H 1.13000 -0.63900 5.18900
H -0.84400 0.02600 7.12500
H 0.06200 1.47700 6.92100
H -1.34400 5.18600 1.93800
H -1.65100 5.96300 0.43200
H 0.00700 6.02000 1.08400
H -0.63500 6.74400 -1.40500
H 0.66500 6.97000 -2.70400
H 1.04800 6.46600 -1.03600
H 0.60800 0.50100 -4.89100
H -0.69200 -2.15600 -4.54700
H -1.26700 0.74000 -6.12900
H -2.20400 0.71400 -4.59600
H -1.96700 -0.72000 -5.45300
H 1.35600 -1.75900 -5.96700
H 1.45200 -3.15700 -4.90200
H 2.71400 -0.52200 -4.79800
H 3.48700 -2.12100 -4.52900
H 2.49500 -1.30300 -3.24000
H 0.86700 -6.33300 -0.08400
H 0.40400 -5.64200 -1.68000
H -0.89100 -5.99900 -0.46300
H -1.28300 -3.58100 4.02800
H 0.69800 -4.47800 7.75500
H 0.83300 -2.61900 7.68000
H 2.00000 -3.75400 6.97600
Mg 7.88160 0.71207 0.58862
C 9.87052 -1.81773 -0.99991
C 9.86656 3.02401 -0.94417
C 6.44260 2.94875 2.31892
C 6.82324 -1.72944 2.83909
N 9.61243 0.50627 -0.77305
C 10.24010 -0.50394 -1.35602
C 11.27027 -0.08274 -2.43809
C 11.57642 1.40367 -1.91298
C 10.25927 1.68456 -1.19265
C 12.70081 1.46171 -0.89233
C 10.65033 -0.06645 -3.87941
C 11.66932 0.03396 -5.01666
H 11.39583 -0.67923 -6.26126
N 7.78199 2.67612 0.32192
C 8.66122 3.45228 -0.34578
C 8.14871 4.82685 -0.23598
C 6.98385 4.82057 0.69018
C 7.03835 3.45530 1.17304
C 8.70879 5.97007 -1.03146
C 5.99346 5.87326 1.08663
O 5.20814 5.71618 2.08735
C 6.03425 7.13118 0.32673
N 6.95692 0.67707 2.45036
C 6.36424 1.77632 2.94866
C 5.53243 1.44395 4.16440
C 5.49562 -0.15326 4.23620
C 6.42731 -0.48149 3.04893
C 6.04359 2.00119 5.49278
C 4.09520 -0.82350 4.28407
C 3.37712 -0.61299 2.97051
N 8.11037 -1.42748 0.78368
C 7.60622 -2.24863 1.81598
C 8.11816 -3.61344 1.57591
C 8.90961 -3.48591 0.42446
C 8.90847 -2.13286 -0.01001
C 7.87441 -4.74986 2.39764
C 9.75435 -4.18617 -0.51615
O 10.05433 -5.36446 -0.70426
C 10.51620 -3.11299 -1.40737
C 10.39504 -3.53401 -2.84632
O 9.28620 -3.54918 -3.40921
O 11.62578 -3.63901 -3.37982
C 11.55752 -4.04363 -4.80931
H 10.56482 3.82390 -1.19218
H 5.84143 3.65908 2.89121
H 6.45969 -2.56601 3.43964
H 12.18186 -0.66809 -2.44972
H 11.71322 2.09465 -2.74074
H 13.03039 0.47593 -0.59950
H 12.29799 1.99443 -0.04087
H 13.52245 2.07631 -1.27117
H 10.11092 0.87808 -4.02652
H 10.02052 -0.92108 -4.03295
H 12.69108 -0.16941 -4.67374
H 11.70360 1.07030 -5.36139
H 9.66425 5.70401 -1.50019
H 8.96697 6.75999 -0.31785
H 7.99561 6.36807 -1.75647
H 7.02355 7.57400 0.41419
H 5.19464 7.72314 0.69620
H 5.88391 6.90384 -0.73455
H 4.52061 1.81416 4.05368
H 5.99385 -0.53206 5.14070
H 5.30107 2.63315 6.01563
H 6.95088 2.55898 5.30243
H 6.37840 1.25298 6.20921
H 3.47730 -0.35512 5.05411
H 4.13189 -1.88555 4.50248
H 2.94376 0.38528 3.08339
H 2.60363 -1.36568 2.83186
H 4.08690 -0.57181 2.13615
H 7.65779 -5.57473 1.73193
H 7.05462 -4.57115 3.09031
H 8.83616 -4.82888 2.91151
H 11.55442 -3.08808 -1.07413
H 12.16666 -4.94664 -4.91520
H 11.87116 -3.15385 -5.38696
H 10.60202 -4.38749 -5.18779
