158

Mg 0.00000 0.00000 0.00000
C -0.21700 -2.21800 2.80100
C -1.25500 2.44200 2.02600
C -0.24500 1.85000 -2.56400
C 0.14600 -2.82400 -2.03700
N -0.61700 -0.00900 2.12600
C -0.59400 -0.90800 3.10500
C -0.93600 -0.30900 4.50200
C -1.77300 0.96400 4.03200
C -1.15500 1.16800 2.66000
C -3.26300 0.68500 3.86300
C 0.34500 0.11000 5.29900
C 0.12400 0.39700 6.78700
H 1.16800 0.03300 7.73300
N -0.18500 1.96100 -0.15200
C -0.70300 2.80000 0.77700
C -0.62000 4.15600 0.19300
C -0.18700 4.01500 -1.22500
C -0.21400 2.58300 -1.38000
C -0.88700 5.40600 0.97400
C 0.18100 5.01300 -2.27700
O 0.30300 4.69000 -3.50800
C 0.31000 6.41400 -1.83700
N -0.26500 -0.41300 -2.02900
C -0.27900 0.56900 -2.93700
C -0.19600 0.02400 -4.33200
C 0.12400 -1.53300 -4.18000
C 0.08600 -1.63200 -2.63500
C -1.45100 0.20500 -5.19700
C 1.37300 -2.07000 -4.92300
C 2.62600 -1.49000 -4.30600
N 0.15000 -2.14400 0.30300
C 0.17300 -3.13600 -0.68800
C 0.17300 -4.43800 0.00400
C 0.13300 -4.11100 1.35800
C 0.08300 -2.69500 1.50200
C 0.14900 -5.71500 -0.62300
C 0.09600 -4.62900 2.71600
O 0.20800 -5.74700 3.22100
C -0.25500 -3.42800 3.70100
C 0.71700 -3.48200 4.84800
O 1.93100 -3.25500 4.66900
O 0.03800 -3.55600 6.00300
C 0.94300 -3.58300 7.18300
H -1.85900 3.22000 2.49700
H -0.21800 2.45300 -3.47400
H 0.27600 -3.74700 -2.60500
H -1.55400 -0.94900 5.13200
H -1.58500 1.83100 4.66500
H -3.48400 -0.37700 3.96900
H -3.51100 1.02700 2.85800
H -3.85200 1.30100 4.54300
H 0.66900 1.09600 4.96600
H 1.13000 -0.63900 5.18900
H -0.84400 0.02600 7.12500
H 0.06200 1.47700 6.92100
H -1.34400 5.18600 1.93800
H -1.65100 5.96300 0.43200
H 0.00700 6.02000 1.08400
H -0.63500 6.74400 -1.40500
H 0.66500 6.97000 -2.70400
H 1.04800 6.46600 -1.03600
H 0.60800 0.50100 -4.89100
H -0.69200 -2.15600 -4.54700
H -1.26700 0.74000 -6.12900
H -2.20400 0.71400 -4.59600
H -1.96700 -0.72000 -5.45300
H 1.35600 -1.75900 -5.96700
H 1.45200 -3.15700 -4.90200
H 2.71400 -0.52200 -4.79800
H 3.48700 -2.12100 -4.52900
H 2.49500 -1.30300 -3.24000
H 0.86700 -6.33300 -0.08400
H 0.40400 -5.64200 -1.68000
H -0.89100 -5.99900 -0.46300
H -1.28300 -3.58100 4.02800
H 0.69800 -4.47800 7.75500
H 0.83300 -2.61900 7.68000
H 2.00000 -3.75400 6.97600
Mg 7.88314 0.70970 0.59883
C 7.99626 -2.86732 0.66475
C 6.76828 0.58544 3.82136
C 7.34284 3.82929 0.41755
C 7.90337 0.49910 -2.87980
N 7.47587 -0.98583 1.96264
C 7.61694 -2.30544 1.88584
C 7.39686 -3.03057 3.24714
C 6.48569 -1.93947 3.96913
C 6.96212 -0.69963 3.23310
C 4.99400 -2.12249 3.70861
C 8.73796 -3.26045 4.02195
C 8.65514 -4.24209 5.19449
H 9.79507 -5.10414 5.46795
N 7.63383 2.05189 2.02684
C 7.18702 1.82230 3.28500
C 7.17800 3.13762 3.96067
C 7.47479 4.17734 2.93647
C 7.46975 3.38678 1.73215
C 6.95598 3.30505 5.43255
C 7.71310 5.65148 3.02732
O 7.72331 6.40381 1.99366
C 7.84809 6.21274 4.38372
N 7.43315 1.98278 -0.99315
C 7.30579 3.30125 -0.80763
C 7.26698 4.03538 -2.11510
C 7.64021 2.96146 -3.23632
C 7.75493 1.70821 -2.33384
C 5.92970 4.69999 -2.47002
C 8.82460 3.30624 -4.17375
C 10.11622 3.31409 -3.38715
N 8.11700 -0.86764 -0.87371
C 8.06922 -0.73256 -2.26875
C 8.16993 -2.08907 -2.83780
C 8.25315 -2.92588 -1.72664
C 8.18092 -2.14404 -0.53845
C 8.11806 -2.41851 -4.22099
C 8.36150 -4.30080 -1.26653
O 8.55075 -5.38683 -1.81627
C 8.07697 -4.32883 0.30002
C 9.15679 -5.15550 0.94337
O 10.34143 -4.76326 0.95503
O 8.59525 -6.15183 1.64519
C 9.61092 -6.99288 2.33309
H 6.19302 0.66124 4.74617
H 7.26584 4.91294 0.30701
H 8.00134 0.36266 -3.95834
H 6.85962 -3.97651 3.17657
H 6.71186 -1.85939 5.03222
H 4.81175 -2.89691 2.96364
H 4.64089 -1.15632 3.34761
H 4.45813 -2.30853 4.63974
H 9.00261 -2.35036 4.56024
H 9.52760 -3.57871 3.34040
H 7.73440 -4.82525 5.16181
H 8.57865 -3.66653 6.11703
H 6.60053 2.38326 5.89136
H 6.12888 4.00455 5.55225
H 7.84033 3.69118 5.93966
H 6.94131 6.00355 4.95164
H 8.10282 7.26354 4.25036
H 8.65878 5.69768 4.89990
H 8.00037 4.84051 -2.13342
H 6.80875 2.77422 -3.91624
H 6.00852 5.77181 -2.65361
H 5.22574 4.49189 -1.66477
H 5.41527 4.26355 -3.32577
H 8.69833 4.30384 -4.59304
H 8.93322 2.60871 -5.00435
H 10.13109 4.31338 -2.95353
H 10.96747 3.16435 -4.05211
H 10.08455 2.60156 -2.56267
H 8.90067 -3.15855 -4.38784
H 8.26728 -1.53685 -4.84389
H 7.10617 -2.81637 -4.29600
H 7.08985 -4.77091 0.43147
H 9.44573 -8.02173 2.01308
H 9.52490 -6.77409 3.39758
H 10.64689 -6.84560 2.02580
