158

Mg 0.00000 0.00000 0.00000
C -0.21700 -2.21800 2.80100
C -1.25500 2.44200 2.02600
C -0.24500 1.85000 -2.56400
C 0.14600 -2.82400 -2.03700
N -0.61700 -0.00900 2.12600
C -0.59400 -0.90800 3.10500
C -0.93600 -0.30900 4.50200
C -1.77300 0.96400 4.03200
C -1.15500 1.16800 2.66000
C -3.26300 0.68500 3.86300
C 0.34500 0.11000 5.29900
C 0.12400 0.39700 6.78700
H 1.16800 0.03300 7.73300
N -0.18500 1.96100 -0.15200
C -0.70300 2.80000 0.77700
C -0.62000 4.15600 0.19300
C -0.18700 4.01500 -1.22500
C -0.21400 2.58300 -1.38000
C -0.88700 5.40600 0.97400
C 0.18100 5.01300 -2.27700
O 0.30300 4.69000 -3.50800
C 0.31000 6.41400 -1.83700
N -0.26500 -0.41300 -2.02900
C -0.27900 0.56900 -2.93700
C -0.19600 0.02400 -4.33200
C 0.12400 -1.53300 -4.18000
C 0.08600 -1.63200 -2.63500
C -1.45100 0.20500 -5.19700
C 1.37300 -2.07000 -4.92300
C 2.62600 -1.49000 -4.30600
N 0.15000 -2.14400 0.30300
C 0.17300 -3.13600 -0.68800
C 0.17300 -4.43800 0.00400
C 0.13300 -4.11100 1.35800
C 0.08300 -2.69500 1.50200
C 0.14900 -5.71500 -0.62300
C 0.09600 -4.62900 2.71600
O 0.20800 -5.74700 3.22100
C -0.25500 -3.42800 3.70100
C 0.71700 -3.48200 4.84800
O 1.93100 -3.25500 4.66900
O 0.03800 -3.55600 6.00300
C 0.94300 -3.58300 7.18300
H -1.85900 3.22000 2.49700
H -0.21800 2.45300 -3.47400
H 0.27600 -3.74700 -2.60500
H -1.55400 -0.94900 5.13200
H -1.58500 1.83100 4.66500
H -3.48400 -0.37700 3.96900
H -3.51100 1.02700 2.85800
H -3.85200 1.30100 4.54300
H 0.66900 1.09600 4.96600
H 1.13000 -0.63900 5.18900
H -0.84400 0.02600 7.12500
H 0.06200 1.47700 6.92100
H -1.34400 5.18600 1.93800
H -1.65100 5.96300 0.43200
H 0.00700 6.02000 1.08400
H -0.63500 6.74400 -1.40500
H 0.66500 6.97000 -2.70400
H 1.04800 6.46600 -1.03600
H 0.60800 0.50100 -4.89100
H -0.69200 -2.15600 -4.54700
H -1.26700 0.74000 -6.12900
H -2.20400 0.71400 -4.59600
H -1.96700 -0.72000 -5.45300
H 1.35600 -1.75900 -5.96700
H 1.45200 -3.15700 -4.90200
H 2.71400 -0.52200 -4.79800
H 3.48700 -2.12100 -4.52900
H 2.49500 -1.30300 -3.24000
H 0.86700 -6.33300 -0.08400
H 0.40400 -5.64200 -1.68000
H -0.89100 -5.99900 -0.46300
H -1.28300 -3.58100 4.02800
H 0.69800 -4.47800 7.75500
H 0.83300 -2.61900 7.68000
H 2.00000 -3.75400 6.97600
Mg 7.89278 0.71401 0.59789
C 9.79828 -1.40472 2.77942
C 8.79558 3.32874 2.59357
C 5.86633 2.53009 -1.03392
C 6.24659 -2.14844 -0.51663
N 9.13979 0.82179 2.42151
C 9.86249 -0.03828 3.12317
C 10.76383 0.61243 4.20655
C 9.93701 1.97209 4.42233
C 9.27262 2.07440 3.05091
C 8.84631 1.85277 5.47374
C 12.21496 0.89949 3.68326
C 13.23391 1.24651 4.77096
H 14.61054 0.78775 4.60694
N 7.77603 2.68916 0.44393
C 8.21350 3.60218 1.33629
C 7.87385 4.91563 0.76738
C 7.05342 4.69929 -0.45524
C 6.84472 3.26706 -0.38262
C 8.38740 6.20630 1.33646
C 6.53099 5.62956 -1.50779
O 5.63979 5.25942 -2.35136
C 7.02477 7.01363 -1.46309
N 6.14568 0.28981 -0.44616
C 5.48580 1.25470 -1.11061
C 4.42202 0.66914 -2.00832
C 4.66735 -0.91108 -1.99099
C 5.82549 -0.97620 -0.97125
C 2.97685 0.96397 -1.60713
C 4.85294 -1.60959 -3.36588
C 6.14815 -1.15976 -4.00264
N 8.10462 -1.41596 0.89184
C 7.29234 -2.43663 0.35098
C 7.75752 -3.71473 0.92759
C 8.80147 -3.34356 1.78834
C 8.96139 -1.93167 1.76617
C 7.19411 -4.99666 0.67194
C 9.79755 -3.82409 2.71873
O 10.19068 -4.93458 3.07368
C 10.40389 -2.57845 3.49791
C 11.90235 -2.70891 3.48792
O 12.53586 -2.63786 2.42011
O 12.35581 -2.67784 4.75432
C 13.83800 -2.79289 4.79583
H 8.83101 4.17775 3.27680
H 5.21091 3.09902 -1.69741
H 5.84940 -3.09550 -0.88811
H 10.82407 0.06211 5.13784
H 10.60130 2.81625 4.58813
H 8.72924 0.83638 5.81926
H 7.93834 2.19694 4.99607
H 9.03709 2.54896 6.29549
H 12.21274 1.84178 3.12038
H 12.57801 0.07791 3.09689
H 12.86463 1.00285 5.77455
H 13.36556 2.33109 4.78982
H 8.82894 6.06039 2.33002
H 7.51614 6.84502 1.51756
H 9.06995 6.72344 0.65871
H 6.78107 7.45303 -0.49872
H 6.60810 7.50123 -2.34655
H 8.11806 6.99751 -1.53433
H 4.53083 1.03055 -3.02353
H 3.82102 -1.44989 -1.54016
H 2.39533 1.46262 -2.40541
H 2.98823 1.56914 -0.71038
H 2.39861 0.09663 -1.29320
H 4.05272 -1.31729 -4.05025
H 4.84474 -2.69272 -3.30467
H 5.87349 -0.21385 -4.47897
H 6.48704 -1.88770 -4.73701
H 6.90482 -0.93787 -3.24115
H 8.02238 -5.67816 0.53041
H 6.54088 -4.97755 -0.19795
H 6.63762 -5.15369 1.59980
H 9.99816 -2.59612 4.51016
H 14.07446 -3.64279 5.44348
H 14.20596 -1.79938 5.11409
H 14.34448 -3.07691 3.88081
