79

Mg 15.76628 1.41940 1.19766
C 15.74721 2.29478 -2.27301
C 15.24930 -1.81234 0.23245
C 15.32650 0.69163 4.25275
C 15.14793 4.77725 1.89634
N 15.54562 0.48482 -0.79696
C 15.61790 0.92208 -2.05026
C 15.61930 -0.22423 -3.10541
C 14.89801 -1.35759 -2.24679
C 15.28219 -0.88895 -0.85442
C 13.37773 -1.33974 -2.36901
C 17.06831 -0.65201 -3.51662
C 17.16022 -1.52808 -4.76938
H 18.29564 -1.35543 -5.66289
N 15.83319 -0.32556 2.12150
C 15.61282 -1.54303 1.56968
C 15.77857 -2.52288 2.66472
C 15.92608 -1.76281 3.93697
C 15.67165 -0.41858 3.48567
C 15.83356 -4.00326 2.44287
C 16.23531 -2.18277 5.33916
O 16.08807 -1.39312 6.33382
C 16.63586 -3.58844 5.53072
N 15.08643 2.52000 2.83599
C 15.04727 1.98243 4.06011
C 14.80157 3.02742 5.10776
C 14.92264 4.43552 4.36455
C 15.14897 3.92187 2.92122
C 13.44962 2.94613 5.82998
C 15.93046 5.45577 4.95089
C 17.34244 4.94670 4.76579
N 15.66677 3.26402 0.05814
C 15.37260 4.54400 0.54986
C 15.31461 5.45024 -0.61179
C 15.56432 4.62603 -1.70732
C 15.73956 3.28501 -1.26093
C 15.00010 6.83729 -0.57179
C 15.69946 4.56205 -3.15352
O 15.74273 5.39703 -4.05819
C 15.70240 3.03039 -3.58922
C 16.84714 2.83193 -4.54499
O 18.02895 2.93968 -4.15887
O 16.38281 2.31755 -5.69406
C 17.47201 2.06863 -6.67581
H 14.85447 -2.81565 0.06088
H 15.27389 0.50444 5.32729
H 15.04349 5.85356 2.04505
H 15.04100 -0.01427 -4.00536
H 15.31593 -2.34477 -2.44311
H 13.03298 -0.46823 -2.92535
H 13.00377 -1.31033 -1.34539
H 13.01235 -2.27463 -2.79475
H 17.46201 -1.34697 -2.77494
H 17.70821 0.22237 -3.64041
H 16.22634 -1.51808 -5.33213
H 17.27497 -2.56498 -4.45337
H 15.53071 -4.26804 1.43059
H 15.07027 -4.44929 3.08018
H 16.80974 -4.41957 2.69201
H 15.83931 -4.24150 5.17355
H 16.90378 -3.68413 6.58235
H 17.50549 -3.79598 4.90653
H 15.55093 2.97421 5.89646
H 13.97504 4.97458 4.35275
H 13.53642 2.86014 6.91339
H 12.89539 2.10520 5.41410
H 12.77181 3.77459 5.62587
H 15.77011 5.57442 6.02194
H 15.85909 6.44267 4.49352
H 17.47528 4.28191 5.61857
H 18.05258 5.77355 4.80098
H 17.43228 4.34132 3.86361
H 15.70952 7.33021 -1.23642
H 15.06899 7.22985 0.44248
H 13.97635 6.82307 -0.94540
H 14.73862 2.83624 -4.05885
H 17.21085 2.60538 -7.58792
H 17.58892 0.98675 -6.74124
H 18.44023 2.51422 -6.44488
