158

Mg 0.00000 0.00000 0.00000
C -0.21700 -2.21800 2.80100
C -1.25500 2.44200 2.02600
C -0.24500 1.85000 -2.56400
C 0.14600 -2.82400 -2.03700
N -0.61700 -0.00900 2.12600
C -0.59400 -0.90800 3.10500
C -0.93600 -0.30900 4.50200
C -1.77300 0.96400 4.03200
C -1.15500 1.16800 2.66000
C -3.26300 0.68500 3.86300
C 0.34500 0.11000 5.29900
C 0.12400 0.39700 6.78700
H 1.16800 0.03300 7.73300
N -0.18500 1.96100 -0.15200
C -0.70300 2.80000 0.77700
C -0.62000 4.15600 0.19300
C -0.18700 4.01500 -1.22500
C -0.21400 2.58300 -1.38000
C -0.88700 5.40600 0.97400
C 0.18100 5.01300 -2.27700
O 0.30300 4.69000 -3.50800
C 0.31000 6.41400 -1.83700
N -0.26500 -0.41300 -2.02900
C -0.27900 0.56900 -2.93700
C -0.19600 0.02400 -4.33200
C 0.12400 -1.53300 -4.18000
C 0.08600 -1.63200 -2.63500
C -1.45100 0.20500 -5.19700
C 1.37300 -2.07000 -4.92300
C 2.62600 -1.49000 -4.30600
N 0.15000 -2.14400 0.30300
C 0.17300 -3.13600 -0.68800
C 0.17300 -4.43800 0.00400
C 0.13300 -4.11100 1.35800
C 0.08300 -2.69500 1.50200
C 0.14900 -5.71500 -0.62300
C 0.09600 -4.62900 2.71600
O 0.20800 -5.74700 3.22100
C -0.25500 -3.42800 3.70100
C 0.71700 -3.48200 4.84800
O 1.93100 -3.25500 4.66900
O 0.03800 -3.55600 6.00300
C 0.94300 -3.58300 7.18300
H -1.85900 3.22000 2.49700
H -0.21800 2.45300 -3.47400
H 0.27600 -3.74700 -2.60500
H -1.55400 -0.94900 5.13200
H -1.58500 1.83100 4.66500
H -3.48400 -0.37700 3.96900
H -3.51100 1.02700 2.85800
H -3.85200 1.30100 4.54300
H 0.66900 1.09600 4.96600
H 1.13000 -0.63900 5.18900
H -0.84400 0.02600 7.12500
H 0.06200 1.47700 6.92100
H -1.34400 5.18600 1.93800
H -1.65100 5.96300 0.43200
H 0.00700 6.02000 1.08400
H -0.63500 6.74400 -1.40500
H 0.66500 6.97000 -2.70400
H 1.04800 6.46600 -1.03600
H 0.60800 0.50100 -4.89100
H -0.69200 -2.15600 -4.54700
H -1.26700 0.74000 -6.12900
H -2.20400 0.71400 -4.59600
H -1.96700 -0.72000 -5.45300
H 1.35600 -1.75900 -5.96700
H 1.45200 -3.15700 -4.90200
H 2.71400 -0.52200 -4.79800
H 3.48700 -2.12100 -4.52900
H 2.49500 -1.30300 -3.24000
H 0.86700 -6.33300 -0.08400
H 0.40400 -5.64200 -1.68000
H -0.89100 -5.99900 -0.46300
H -1.28300 -3.58100 4.02800
H 0.69800 -4.47800 7.75500
H 0.83300 -2.61900 7.68000
H 2.00000 -3.75400 6.97600
Mg 31.52946 2.84319 2.40447
C 29.35120 0.29035 3.67618
C 28.84799 4.95057 2.46180
C 33.30162 4.97980 0.86767
C 33.68511 0.30155 1.38517
N 29.42403 2.54259 3.01199
C 28.72598 1.54702 3.53726
C 27.30084 1.94024 4.01046
C 27.07903 3.22080 3.06715
C 28.53681 3.62501 2.85699
C 26.47945 2.87507 1.71426
C 27.26224 2.33208 5.52934
C 25.85946 2.42786 6.13333
H 25.66913 2.01316 7.52051
N 31.29406 4.80389 2.20746
C 30.13810 5.49628 2.28253
C 30.49625 6.90377 2.04826
C 31.93309 6.96473 1.66555
C 32.23325 5.55234 1.54245
C 29.53557 8.03567 2.27035
C 32.87700 8.10572 1.43450
O 34.01829 7.93319 0.87725
C 32.38773 9.44453 1.79462
N 33.13994 2.66434 1.10189
C 33.76157 3.75376 0.61747
C 35.05311 3.38351 -0.07190
C 35.29091 1.83784 0.26266
C 33.99320 1.54629 1.04774
C 35.08046 3.58614 -1.58669
C 36.64948 1.45961 0.91374
C 36.73122 2.03565 2.30905
N 31.63769 0.70035 2.65860
C 32.61066 -0.17369 2.12619
C 32.19801 -1.54872 2.47466
C 30.99199 -1.37935 3.17130
C 30.66499 0.00219 3.23384
C 32.88299 -2.74116 2.10722
C 29.91573 -2.05592 3.85878
O 29.69570 -3.21836 4.19650
C 28.74075 -1.01456 4.10653
C 28.30029 -1.14337 5.53898
O 29.07074 -0.83994 6.46686
O 26.97873 -1.39377 5.57280
C 26.49261 -1.51888 6.97275
H 28.02680 5.62771 2.22515
H 34.00413 5.68281 0.41408
H 34.35390 -0.53913 1.18857
H 26.53638 1.19776 3.81527
H 26.53695 4.00586 3.58792
H 26.41082 1.80778 1.56488
H 27.13781 3.31849 0.97874
H 25.51286 3.37219 1.59218
H 27.58534 3.37539 5.63829
H 27.86126 1.65931 6.11172
H 25.10050 1.96959 5.48763
H 25.57229 3.48119 6.17855
H 28.50720 7.67291 2.38976
H 29.51141 8.62085 1.34469
H 29.83614 8.68795 3.09306
H 31.48157 9.66081 1.23376
H 33.23464 10.11618 1.64131
H 32.10887 9.44178 2.85426
H 35.88100 3.95984 0.32248
H 35.25681 1.21493 -0.64325
H 35.89879 4.25018 -1.92352
H 34.12076 3.97838 -1.89598
H 35.15656 2.67235 -2.17355
H 37.47549 1.89779 0.34819
H 36.82302 0.38971 0.96054
H 37.06030 3.06407 2.13257
H 37.45507 1.48693 2.90821
H 35.73978 2.08205 2.77439
H 32.89326 -3.37669 2.98272
H 33.89107 -2.52884 1.75728
H 32.23545 -3.09774 1.30173
H 27.93793 -1.25423 3.40824
H 25.99716 -2.49138 7.05320
H 25.87257 -0.62107 7.15504
H 27.23685 -1.59517 7.75680
