158

Mg 0.00000 0.00000 0.00000
C -0.21700 -2.21800 2.80100
C -1.25500 2.44200 2.02600
C -0.24500 1.85000 -2.56400
C 0.14600 -2.82400 -2.03700
N -0.61700 -0.00900 2.12600
C -0.59400 -0.90800 3.10500
C -0.93600 -0.30900 4.50200
C -1.77300 0.96400 4.03200
C -1.15500 1.16800 2.66000
C -3.26300 0.68500 3.86300
C 0.34500 0.11000 5.29900
C 0.12400 0.39700 6.78700
H 1.16800 0.03300 7.73300
N -0.18500 1.96100 -0.15200
C -0.70300 2.80000 0.77700
C -0.62000 4.15600 0.19300
C -0.18700 4.01500 -1.22500
C -0.21400 2.58300 -1.38000
C -0.88700 5.40600 0.97400
C 0.18100 5.01300 -2.27700
O 0.30300 4.69000 -3.50800
C 0.31000 6.41400 -1.83700
N -0.26500 -0.41300 -2.02900
C -0.27900 0.56900 -2.93700
C -0.19600 0.02400 -4.33200
C 0.12400 -1.53300 -4.18000
C 0.08600 -1.63200 -2.63500
C -1.45100 0.20500 -5.19700
C 1.37300 -2.07000 -4.92300
C 2.62600 -1.49000 -4.30600
N 0.15000 -2.14400 0.30300
C 0.17300 -3.13600 -0.68800
C 0.17300 -4.43800 0.00400
C 0.13300 -4.11100 1.35800
C 0.08300 -2.69500 1.50200
C 0.14900 -5.71500 -0.62300
C 0.09600 -4.62900 2.71600
O 0.20800 -5.74700 3.22100
C -0.25500 -3.42800 3.70100
C 0.71700 -3.48200 4.84800
O 1.93100 -3.25500 4.66900
O 0.03800 -3.55600 6.00300
C 0.94300 -3.58300 7.18300
H -1.85900 3.22000 2.49700
H -0.21800 2.45300 -3.47400
H 0.27600 -3.74700 -2.60500
H -1.55400 -0.94900 5.13200
H -1.58500 1.83100 4.66500
H -3.48400 -0.37700 3.96900
H -3.51100 1.02700 2.85800
H -3.85200 1.30100 4.54300
H 0.66900 1.09600 4.96600
H 1.13000 -0.63900 5.18900
H -0.84400 0.02600 7.12500
H 0.06200 1.47700 6.92100
H -1.34400 5.18600 1.93800
H -1.65100 5.96300 0.43200
H 0.00700 6.02000 1.08400
H -0.63500 6.74400 -1.40500
H 0.66500 6.97000 -2.70400
H 1.04800 6.46600 -1.03600
H 0.60800 0.50100 -4.89100
H -0.69200 -2.15600 -4.54700
H -1.26700 0.74000 -6.12900
H -2.20400 0.71400 -4.59600
H -1.96700 -0.72000 -5.45300
H 1.35600 -1.75900 -5.96700
H 1.45200 -3.15700 -4.90200
H 2.71400 -0.52200 -4.79800
H 3.48700 -2.12100 -4.52900
H 2.49500 -1.30300 -3.24000
H 0.86700 -6.33300 -0.08400
H 0.40400 -5.64200 -1.68000
H -0.89100 -5.99900 -0.46300
H -1.28300 -3.58100 4.02800
H 0.69800 -4.47800 7.75500
H 0.83300 -2.61900 7.68000
H 2.00000 -3.75400 6.97600
Mg 15.76116 1.42161 1.18865
C 16.93392 -1.23275 -0.92277
C 17.12062 3.60397 -1.05273
C 15.14120 3.76080 3.24078
C 15.52252 -0.91729 3.76125
N 16.85938 1.10522 -0.70504
C 17.19194 0.05416 -1.43923
C 17.76448 0.40277 -2.83931
C 18.29465 1.88463 -2.52014
C 17.34676 2.24249 -1.37728
C 19.71750 1.91297 -1.98719
C 16.65762 0.41582 -3.95139
C 17.18818 0.44335 -5.38649
H 16.45009 -0.28386 -6.41550
N 15.63916 3.38175 0.90312
C 16.23678 4.10108 -0.06987
C 15.84945 5.50012 0.16853
C 15.10886 5.56868 1.45753
C 15.28969 4.21344 1.93785
C 16.11638 6.59805 -0.81977
C 14.37209 6.67490 2.15012
O 14.00624 6.57686 3.37461
C 14.17383 7.91234 1.38141
N 15.58772 1.47113 3.25983
C 15.25956 2.60759 3.89912
C 14.92369 2.34144 5.34713
C 14.85995 0.74967 5.48782
C 15.27594 0.35209 4.05455
C 15.90795 2.90372 6.37254
C 13.55335 0.14658 6.07239
C 12.40927 0.36099 5.10777
N 15.97056 -0.72140 1.36678
C 15.85423 -1.49501 2.54240
C 16.19332 -2.88718 2.18279
C 16.50823 -2.82228 0.81710
C 16.39438 -1.48065 0.36261
C 16.23013 -3.99245 3.07897
C 16.92138 -3.58186 -0.34093
O 17.08931 -4.77673 -0.58140
C 17.33794 -2.56541 -1.48971
C 16.67992 -3.01225 -2.76636
O 15.44185 -2.98831 -2.88129
O 17.62262 -3.18627 -3.71050
C 17.01779 -3.61899 -4.99843
H 17.70577 4.36477 -1.57010
H 14.81880 4.51090 3.96665
H 15.37701 -1.72246 4.48458
H 18.58638 -0.22450 -3.16303
H 18.14065 2.54991 -3.36575
H 20.09706 0.91968 -1.79891
H 19.67607 2.48268 -1.06808
H 20.36250 2.48007 -2.66447
H 16.13547 1.38092 -3.92557
H 15.98603 -0.41177 -3.83023
H 18.25657 0.20032 -5.43570
H 17.12921 1.46904 -5.75864
H 16.82163 6.27744 -1.59645
H 16.64709 7.39078 -0.28145
H 15.20051 7.01258 -1.24640
H 15.14052 8.31047 1.08230
H 13.55100 8.55081 2.01093
H 13.63479 7.66867 0.45909
H 13.95601 2.75579 5.60214
H 15.64305 0.36832 6.15951
H 15.43328 3.58103 7.10739
H 16.70003 3.41430 5.84107
H 16.45693 2.15686 6.94352
H 13.27986 0.66023 6.99733
H 13.63073 -0.91090 6.30205
H 12.08340 1.38062 5.33416
H 11.61329 -0.35777 5.29170
H 12.76225 0.35051 4.07000
H 15.75447 -4.82096 2.57120
H 15.73043 -3.76040 4.01717
H 17.31020 -4.10469 3.20596
H 18.42606 -2.58144 -1.56259
H 17.51286 -4.55151 -5.28654
H 17.12727 -2.75785 -5.68414
H 15.97864 -3.92634 -4.98591
