79

Mg 7.88943 0.71640 0.60411
C 7.53871 -0.52062 3.95461
C 6.65302 3.68876 1.73148
C 7.76159 1.69361 -2.41188
C 7.99979 -2.60020 -0.46063
N 7.21900 1.37622 2.60596
C 7.18941 0.83889 3.81623
C 6.83856 1.83506 4.95382
C 6.04171 2.92377 4.08282
C 6.69812 2.67898 2.72567
C 4.55731 2.62392 3.95646
C 8.11642 2.45593 5.61985
C 7.86115 3.19610 6.93467
H 8.87700 3.12610 7.98139
N 7.76536 2.54874 -0.14802
C 7.25571 3.64315 0.45514
C 7.37738 4.73509 -0.52313
C 7.84908 4.15977 -1.81201
C 7.78908 2.74443 -1.50657
C 7.13474 6.17399 -0.17085
C 8.27064 4.78022 -3.10952
O 8.41533 4.08161 -4.17434
C 8.41841 6.24294 -3.11932
N 7.66914 -0.29649 -1.19808
C 7.69907 0.36258 -2.36968
C 7.79880 -0.59590 -3.53233
C 8.07448 -2.03131 -2.88336
C 7.99417 -1.65268 -1.38817
C 6.56934 -0.67437 -4.43713
C 9.32679 -2.80150 -3.38457
C 10.58334 -2.08212 -2.94987
N 7.97593 -1.22091 1.55668
C 7.98898 -2.48299 0.92339
C 7.93544 -3.50518 1.98861
C 7.87121 -2.76081 3.17616
C 7.86346 -1.37278 2.87151
C 7.90112 -4.91406 1.78862
C 7.79749 -2.83371 4.61767
O 7.85857 -3.74156 5.44581
C 7.45132 -1.38781 5.17974
C 8.39277 -1.09322 6.31526
O 9.61288 -0.96940 6.10879
O 7.67714 -0.79238 7.41423
C 8.56688 -0.48180 8.56476
H 6.06535 4.58566 1.92923
H 7.82817 1.97663 -3.46494
H 8.12920 -3.65649 -0.70596
H 6.19429 1.43339 5.72671
H 6.24680 3.93345 4.42900
H 4.30354 1.66166 4.37575
H 4.34256 2.64306 2.89601
H 3.97012 3.43446 4.39755
H 8.47352 3.28939 5.00132
H 8.87105 1.70791 5.76689
H 6.86907 2.97453 7.34653
H 7.83249 4.26891 6.72906
H 6.64098 6.27175 0.80385
H 6.40078 6.55914 -0.88698
H 8.04045 6.78112 -0.23202
H 7.47458 6.70315 -2.83675
H 8.81134 6.49035 -4.10738
H 9.14847 6.52596 -2.35282
H 8.62937 -0.33644 -4.17727
H 7.24762 -2.73083 -3.07524
H 6.79312 -0.45294 -5.49777
H 5.82095 0.00767 -4.05598
H 6.04345 -1.62745 -4.42003
H 9.34480 -2.82511 -4.47694
H 9.36858 -3.82921 -3.03950
H 10.70465 -1.31173 -3.71725
H 11.43084 -2.76450 -2.93819
H 10.43312 -1.57186 -1.99137
H 8.58136 -5.34754 2.50964
H 8.17882 -5.17795 0.77028
H 6.84557 -5.11416 1.99119
H 6.41026 -1.40321 5.50459
H 8.27947 -1.15189 9.38090
H 8.45712 0.60451 8.74257
H 9.62019 -0.71464 8.46093
