79

Mg 15.77438 1.41448 1.19292
C 15.67763 2.92793 -2.05964
C 15.27869 -1.58562 -0.35249
C 15.40491 0.11024 4.06170
C 15.12013 4.56707 2.52665
N 15.52618 0.87011 -0.93647
C 15.56899 1.52194 -2.08870
C 15.57179 0.60923 -3.34429
C 14.87460 -0.68660 -2.70116
C 15.27659 -0.48161 -1.24203
C 13.35764 -0.65890 -2.78708
C 17.02314 0.29018 -3.84808
C 17.09670 -0.33641 -5.24226
H 18.21950 0.01777 -6.10618
N 15.88545 -0.48256 1.76518
C 15.67653 -1.57614 1.00249
C 15.85824 -2.73055 1.89606
C 16.02926 -2.22584 3.28557
C 15.75302 -0.81674 3.09006
C 15.93718 -4.14324 1.39457
C 16.37072 -2.90186 4.57886
O 16.23252 -2.30782 5.70617
C 16.78274 -4.31056 4.49345
N 15.11924 2.17478 3.01366
C 15.10466 1.40792 4.11803
C 14.86101 2.23832 5.35556
C 14.95604 3.76121 4.87664
C 15.15856 3.53795 3.36187
C 13.52307 2.00856 6.05807
C 15.96148 4.67448 5.63010
C 17.37764 4.23035 5.34263
N 15.63567 3.42957 0.42596
C 15.32639 4.59971 1.15341
C 15.23607 5.70676 0.17939
C 15.47828 5.09480 -1.05969
C 15.68368 3.70102 -0.87345
C 14.91475 7.05938 0.48482
C 15.59640 5.30917 -2.48405
O 15.60521 6.29813 -3.21590
C 15.60551 3.89465 -3.20893
C 16.73568 3.88864 -4.20150
O 17.91618 3.95252 -3.81555
O 16.25002 3.59083 -5.42044
C 17.33496 3.56198 -6.43725
H 14.90030 -2.54273 -0.71255
H 15.37335 -0.26926 5.08564
H 15.01668 5.59727 2.87402
H 14.98005 0.97650 -4.17418
H 15.30905 -1.60340 -3.09116
H 12.99252 0.28574 -3.16191
H 13.00275 -0.82855 -1.77895
H 12.99811 -1.50510 -3.37955
H 17.43692 -0.53221 -3.25042
H 17.63999 1.16704 -3.81300
H 16.14894 -0.24363 -5.78640
H 17.23761 -1.41430 -5.13128
H 15.61237 -4.21781 0.34942
H 15.19329 -4.72253 1.95217
H 16.92147 -4.59055 1.54873
H 15.98938 -4.89134 4.02899
H 17.07123 -4.59268 5.50787
H 17.65313 -4.38098 3.83157
H 15.62579 2.05582 6.10048
H 13.99574 4.28512 4.99145
H 13.63200 1.71531 7.11930
H 12.97461 1.25436 5.50952
H 12.83824 2.85455 6.03529
H 15.82061 4.58284 6.70988
H 15.86131 5.72546 5.38031
H 17.52946 3.41359 6.05463
H 18.07784 5.04411 5.52028
H 17.46075 3.80839 4.33432
H 15.59816 7.67740 -0.08218
H 14.99261 7.25524 1.55223
H 13.87969 7.09777 0.13488
H 14.63584 3.76778 -3.69186
H 17.04694 4.25751 -7.23159
H 17.45354 2.49843 -6.71751
H 18.30193 3.95794 -6.14978
