79

Mg 8.94053 0.81001 0.68502
C 8.66680 -1.03972 3.74812
C 7.68736 3.49770 2.37040
C 8.74522 2.33417 -2.09099
C 9.07343 -2.24539 -0.98607
N 8.29848 1.07135 2.78543
C 8.29782 0.31586 3.87336
C 7.95523 1.07493 5.18332
C 7.12886 2.29506 4.54514
C 7.76341 2.32000 3.15611
C 5.64632 2.00074 4.38776
C 9.23708 1.57986 5.93427
C 8.99652 2.05575 7.36864
H 10.03213 1.80653 8.36757
N 8.77952 2.74881 0.29295
C 8.26715 3.70221 1.09904
C 8.35707 4.96026 0.34181
C 8.81240 4.64483 -1.03945
C 8.77592 3.19654 -1.00475
C 8.10269 6.30334 0.96216
C 9.20228 5.50456 -2.20352
O 9.33632 5.02078 -3.38285
C 9.33129 6.94525 -1.94034
N 8.70019 0.15029 -1.27185
C 8.70035 1.01808 -2.29891
C 8.79096 0.29675 -3.62249
C 9.09662 -1.23045 -3.25944
C 9.03885 -1.14072 -1.71866
C 7.54626 0.37010 -4.50665
C 10.34922 -1.87280 -3.91598
C 11.60429 -1.22801 -3.37336
N 9.06896 -1.27011 1.25478
C 9.08643 -2.39041 0.39530
C 9.06532 -3.59521 1.24996
C 9.01338 -3.08825 2.55717
C 8.98247 -1.66801 2.51916
C 9.04522 -4.94181 0.78912
C 8.96695 -3.43178 3.96021
O 9.05464 -4.47793 4.60178
C 8.61281 -2.12287 4.78951
C 9.57105 -2.03189 5.94537
O 10.78551 -1.85214 5.74691
O 8.87186 -1.95423 7.09232
C 9.77847 -1.85120 8.26674
H 7.09208 4.33204 2.74243
H 8.78894 2.81097 -3.07294
H 9.21171 -3.23461 -1.42766
H 7.33033 0.52506 5.87681
H 7.32743 3.22488 5.07180
H 5.41247 0.97295 4.62249
H 5.41200 2.21532 3.35331
H 5.05706 2.70458 4.98251
H 9.57222 2.52022 5.47804
H 10.00369 0.82962 5.92623
H 8.01501 1.74503 7.74687
H 8.95051 3.14749 7.36893
H 7.62563 6.20843 1.94542
H 7.35095 6.80444 0.34276
H 8.99937 6.92546 1.00218
H 8.38702 7.32915 -1.56160
H 9.70293 7.38006 -2.87023
H 10.07160 7.09082 -1.14575
H 9.60625 0.68589 -4.21997
H 8.27532 -1.89451 -3.56656
H 7.74780 0.79034 -5.51007
H 6.79638 0.95644 -3.99243
H 7.03289 -0.57745 -4.66093
H 10.34756 -1.69052 -4.99345
H 10.41032 -2.94623 -3.77106
H 11.70178 -0.32537 -3.98396
H 12.46044 -1.88689 -3.50343
H 11.46515 -0.90931 -2.33378
H 9.74396 -5.49214 1.40508
H 9.30758 -5.00529 -0.26487
H 7.99616 -5.19313 0.96685
H 7.57813 -2.21555 5.12183
H 9.51454 -2.66713 8.94665
H 9.65822 -0.81950 8.64737
H 10.83257 -2.04363 8.10458
