79

Mg 8.94186 0.80656 0.67167
C 8.44993 4.33438 0.23402
C 8.34360 0.46014 -2.66850
C 8.92320 -2.33698 1.10206
C 8.37066 1.28993 4.07546
N 8.47010 2.28135 -0.90779
C 8.36986 3.60070 -0.96796
C 8.25297 4.17192 -2.40657
C 7.66060 2.86918 -3.13517
C 8.21799 1.79398 -2.20461
C 6.14327 2.79520 -3.09572
C 9.64586 4.58001 -3.00266
C 9.57750 5.42718 -4.27521
H 10.58897 6.46065 -4.47853
N 9.15792 -0.67010 -0.63653
C 8.88959 -0.63175 -1.95858
C 9.19521 -1.97671 -2.47030
C 9.50873 -2.85872 -1.31338
C 9.18134 -1.97542 -0.21216
C 9.24903 -2.29687 -3.93592
C 10.00702 -4.26874 -1.21454
O 9.98214 -4.91569 -0.10835
C 10.43802 -4.90125 -2.46979
N 8.47696 -0.38991 2.30711
C 8.60245 -1.72712 2.24333
C 8.47987 -2.35241 3.61241
C 8.48724 -1.13104 4.64478
C 8.52464 0.04537 3.64475
C 7.23392 -3.20695 3.84432
C 9.54990 -1.17286 5.77689
C 10.93470 -1.01678 5.19092
N 8.67402 2.50665 1.97780
C 8.42189 2.48363 3.36704
C 8.19915 3.88075 3.79231
C 8.31532 4.62320 2.60750
C 8.57097 3.74831 1.51722
C 7.88401 4.30813 5.11298
C 8.26926 5.94702 2.02951
O 8.17461 7.08836 2.47906
C 8.22885 5.80627 0.44680
C 9.24128 6.75743 -0.13010
O 10.45572 6.59212 0.08067
O 8.62957 7.57253 -1.00861
C 9.59485 8.52715 -1.61586
H 7.94872 0.21447 -3.65470
H 9.01430 -3.40268 1.32448
H 8.28378 1.53396 5.13639
H 7.56448 5.00186 -2.51124
H 8.06908 2.75632 -4.13605
H 5.71786 3.57320 -2.47936
H 5.90673 1.81993 -2.69081
H 5.73879 2.80582 -4.11189
H 10.14174 3.68475 -3.39935
H 10.24323 5.08157 -2.26631
H 8.57321 5.83336 -4.44653
H 9.75372 4.77646 -5.13517
H 8.81154 -1.49227 -4.53975
H 8.58488 -3.15217 -4.10097
H 10.25401 -2.55958 -4.27304
H 9.61090 -4.90334 -3.17571
H 10.84389 -5.87328 -2.18290
H 11.23061 -4.28987 -2.91548
H 9.32672 -2.99444 3.82156
H 7.53435 -1.05123 5.18835
H 7.46686 -4.24329 4.15385
H 6.64459 -3.20445 2.93700
H 6.53227 -2.81123 4.57664
H 9.53225 -2.14423 6.27717
H 9.39930 -0.41541 6.53885
H 11.18292 -2.03296 4.87020
H 11.63215 -0.65975 5.94598
H 10.91429 -0.38434 4.29579
H 8.48617 5.18548 5.30831
H 8.07594 3.52303 5.84136
H 6.81582 4.51291 5.00202
H 7.21447 6.04204 0.12274
H 9.20483 9.53372 -1.43595
H 9.70498 8.21059 -2.67010
H 10.57883 8.59831 -1.16734
