79

Mg 31.53956 2.84234 2.40246
C 30.85032 0.66108 5.16762
C 30.72336 5.44758 4.44724
C 31.70125 4.74961 -0.12807
C 31.18855 0.07584 0.31225
N 30.88735 2.91747 4.51462
C 30.72035 2.02964 5.48324
C 30.47475 2.64689 6.88618
C 29.89501 4.07138 6.42402
C 30.56752 4.17705 5.05682
C 28.38953 4.06995 6.21694
C 31.80088 2.80620 7.70959
C 31.60225 3.11208 9.19577
H 32.54637 2.54583 10.15518
N 31.73252 4.81436 2.29084
C 31.36968 5.72147 3.22185
C 31.70202 7.03680 2.65299
C 32.13839 6.84166 1.24366
C 31.84811 5.43246 1.07055
C 31.66707 8.30366 3.45753
C 32.70905 7.77256 0.21702
O 32.79345 7.44226 -1.01854
C 33.07969 9.11631 0.68443
N 31.24923 2.51576 0.36987
C 31.43347 3.50458 -0.52244
C 31.43812 2.97075 -1.93502
C 31.46040 1.37804 -1.79232
C 31.37076 1.26043 -0.25494
C 30.25387 3.38678 -2.80730
C 32.60137 0.62158 -2.52623
C 33.93216 0.95100 -1.88915
N 31.28422 0.71359 2.66951
C 31.13252 -0.26075 1.65871
C 30.87416 -1.55004 2.33205
C 30.87058 -1.22962 3.69799
C 31.08975 0.16469 3.86339
C 30.63336 -2.79386 1.68316
C 30.72066 -1.75204 5.03713
O 30.60382 -2.87635 5.52294
C 30.57499 -0.52996 6.04296
C 31.49752 -0.77301 7.20588
O 32.73034 -0.78585 7.04272
O 30.78697 -0.73344 8.34777
C 31.66022 -0.95816 9.53046
H 30.27177 6.31408 4.93111
H 31.85856 5.34351 -1.03141
H 31.16551 -0.85065 -0.26547
H 29.74182 2.12532 7.48995
H 30.23646 4.86830 7.07952
H 27.97227 3.07747 6.30074
H 28.22901 4.46512 5.22240
H 27.91404 4.77713 6.90260
H 32.30951 3.72646 7.39470
H 32.42434 1.94033 7.59905
H 30.57013 2.93087 9.51954
H 31.74791 4.18372 9.35198
H 31.15007 8.15854 4.41411
H 31.03442 9.01183 2.91155
H 32.65702 8.74485 3.59172
H 32.20568 9.60505 1.10832
H 33.55072 9.60379 -0.17136
H 33.80868 9.01562 1.49625
H 32.32728 3.28851 -2.46560
H 30.54569 0.91991 -2.19639
H 30.55726 3.90055 -3.73900
H 29.60229 4.01928 -2.21914
H 29.58781 2.57646 -3.09875
H 32.66552 0.94998 -3.56651
H 32.46921 -0.45518 -2.53600
H 34.20518 1.89829 -2.36369
H 34.66355 0.17529 -2.10683
H 33.81828 1.14091 -0.81555
H 31.20535 -3.54010 2.21836
H 30.91360 -2.75502 0.63258
H 29.55145 -2.87721 1.81659
H 29.53012 -0.48293 6.35217
H 31.23640 -1.80111 10.08498
H 31.71034 0.01503 10.05403
H 32.66899 -1.31016 9.34898
