79

Mg 8.94226 0.79766 0.67686
C 9.00909 0.77720 -2.91120
C 8.37224 -2.56240 0.53656
C 8.43037 0.85420 3.80771
C 8.37673 4.23241 0.50835
N 8.73838 -0.59869 -1.02634
C 8.84380 -0.50322 -2.34320
C 8.84825 -1.86487 -3.08848
C 8.07876 -2.74439 -1.98702
C 8.44316 -1.94493 -0.73772
C 6.56762 -2.71997 -2.14579
C 10.30027 -2.40313 -3.34135
C 10.39144 -3.56714 -4.33055
H 11.55420 -3.64311 -5.21071
N 8.95749 -0.67470 2.00746
C 8.72773 -1.98405 1.77490
C 8.83397 -2.64962 3.08253
C 8.98219 -1.60357 4.13064
C 8.77025 -0.40717 3.34083
C 8.87045 -4.14254 3.23513
C 9.25516 -1.66974 5.60281
O 9.10640 -0.64769 6.36183
C 9.61148 -2.98911 6.14485
N 8.26247 2.27870 1.96789
C 8.18203 2.05816 3.29182
C 7.93423 3.34343 4.04486
C 8.10656 4.51267 2.96747
C 8.34684 3.65853 1.70331
C 6.56676 3.46797 4.71634
C 9.12468 5.63616 3.30493
C 10.52968 5.07820 3.29921
N 8.91034 2.29412 -0.88122
C 8.62683 3.66994 -0.73682
C 8.61241 4.25614 -2.09277
C 8.86779 3.16764 -2.94038
C 9.00991 1.98280 -2.16871
C 8.33752 5.61672 -2.40797
C 9.03893 2.74963 -4.31322
O 9.11112 3.33029 -5.39551
C 9.01255 1.16123 -4.36486
C 10.17190 0.70457 -5.20741
O 11.34142 0.89920 -4.83199
O 9.71263 -0.07409 -6.20397
C 10.82662 -0.56067 -7.06076
H 7.96629 -3.57226 0.60187
H 8.35138 0.94974 4.89312
H 8.30487 5.31436 0.37841
H 8.29822 -1.87366 -4.02185
H 8.48715 -3.74997 -1.92880
H 6.25344 -2.01785 -2.90372
H 6.17484 -2.43386 -1.17888
H 6.19230 -3.72941 -2.33686
H 10.66112 -2.90067 -2.43197
H 10.95119 -1.61039 -3.65517
H 9.46570 -3.69334 -4.90502
H 10.48447 -4.49713 -3.76446
H 8.57557 -4.64900 2.30779
H 8.08640 -4.40996 3.95180
H 9.83026 -4.50430 3.61003
H 8.80980 -3.69363 5.93648
H 9.85640 -2.81726 7.19478
H 10.49844 -3.35642 5.61665
H 8.66730 3.47876 4.83061
H 7.16547 5.05807 2.80403
H 6.63045 3.65404 5.80510
H 6.00515 2.56495 4.51710
H 5.91827 4.23906 4.30392
H 8.94660 6.01830 4.31310
H 9.07556 6.48153 2.62676
H 10.62559 4.64086 4.29752
H 11.25682 5.87287 3.14490
H 10.62678 4.26384 2.57186
H 9.06306 5.91657 -3.15241
H 8.39007 6.24818 -1.52351
H 7.31632 5.52645 -2.78780
H 8.05401 0.86320 -4.79142
H 10.59228 -0.26485 -8.08802
H 10.91012 -1.64444 -6.85527
H 11.79961 -0.10298 -6.92560
