79

Mg 10.50077 0.94884 0.79640
C 9.46503 -1.86956 -1.16901
C 9.75194 2.90956 -1.89235
C 11.82311 3.38945 2.33339
C 12.20610 -1.28856 2.85349
N 9.71604 0.46581 -1.21435
C 9.30114 -0.63277 -1.82698
C 8.60183 -0.38388 -3.19027
C 9.26631 1.03414 -3.54604
C 9.56872 1.52415 -2.13144
C 10.58004 0.91094 -4.29989
C 7.04323 -0.26892 -3.05037
C 6.27243 -0.33487 -4.37070
H 4.97021 -0.99555 -4.38418
N 10.31213 2.90309 0.50673
C 9.97910 3.52691 -0.64271
C 9.99585 4.96619 -0.33880
C 10.52624 5.14839 1.03968
C 10.93619 3.79253 1.34574
C 9.46275 6.00363 -1.28375
C 10.65624 6.34722 1.92969
O 11.36473 6.31948 2.99744
C 10.00601 7.58158 1.46597
N 11.99307 1.06467 2.23932
C 12.34222 2.24542 2.77953
C 13.23294 2.05233 3.98358
C 13.21268 0.48198 4.28556
C 12.34712 0.00704 3.09786
C 14.67903 2.52086 3.82327
C 12.80347 0.04623 5.71921
C 11.34638 0.36877 5.96052
N 10.65164 -1.19946 0.96980
C 11.44275 -1.92789 1.88502
C 11.30225 -3.35753 1.54036
C 10.45064 -3.36005 0.42535
C 10.10226 -2.02482 0.08581
C 11.95606 -4.43923 2.19503
C 9.77568 -4.18797 -0.54813
O 9.62981 -5.39934 -0.70640
C 9.20884 -3.25224 -1.70117
C 7.78167 -3.64927 -1.96207
O 6.91060 -3.48594 -1.08961
O 7.63964 -3.95163 -3.26544
C 6.23822 -4.34099 -3.57567
H 9.76515 3.58628 -2.74720
H 12.22127 4.18778 2.96394
H 12.62774 -2.05517 3.50710
H 8.83720 -1.10850 -3.96053
H 8.55289 1.69345 -4.03358
H 10.91040 -0.11486 -4.36868
H 11.29522 1.50223 -3.74318
H 10.49687 1.38481 -5.28217
H 6.78636 0.75009 -2.73354
H 6.66564 -1.01099 -2.37406
H 6.89717 -0.70001 -5.19491
H 6.00481 0.68215 -4.66745
H 9.29159 5.58673 -2.28390
H 10.25846 6.74213 -1.42984
H 8.57667 6.51085 -0.89613
H 10.40907 7.85924 0.49493
H 10.13340 8.30139 2.27685
H 8.93906 7.38067 1.31807
H 12.84040 2.58068 4.84372
H 14.20580 0.02849 4.15180
H 14.98369 3.26460 4.58361
H 14.79841 2.92500 2.82680
H 15.42586 1.72899 3.84241
H 13.37316 0.60863 6.46306
H 12.97096 -1.00768 5.91465
H 11.37166 1.42392 6.24882
H 10.94460 -0.24952 6.76072
H 10.76788 0.29442 5.03237
H 11.21681 -5.21888 2.32205
H 12.37714 -4.13023 3.14949
H 12.73153 -4.67184 1.46031
H 9.84041 -3.39475 -2.57889
H 6.27723 -5.33044 -4.04166
H 5.82594 -3.51381 -4.18356
H 5.57304 -4.52663 -2.74049
