158

Mg 0.00000 0.00000 0.00000
C -0.21700 -2.21800 2.80100
C -1.25500 2.44200 2.02600
C -0.24500 1.85000 -2.56400
C 0.14600 -2.82400 -2.03700
N -0.61700 -0.00900 2.12600
C -0.59400 -0.90800 3.10500
C -0.93600 -0.30900 4.50200
C -1.77300 0.96400 4.03200
C -1.15500 1.16800 2.66000
C -3.26300 0.68500 3.86300
C 0.34500 0.11000 5.29900
C 0.12400 0.39700 6.78700
H 1.16800 0.03300 7.73300
N -0.18500 1.96100 -0.15200
C -0.70300 2.80000 0.77700
C -0.62000 4.15600 0.19300
C -0.18700 4.01500 -1.22500
C -0.21400 2.58300 -1.38000
C -0.88700 5.40600 0.97400
C 0.18100 5.01300 -2.27700
O 0.30300 4.69000 -3.50800
C 0.31000 6.41400 -1.83700
N -0.26500 -0.41300 -2.02900
C -0.27900 0.56900 -2.93700
C -0.19600 0.02400 -4.33200
C 0.12400 -1.53300 -4.18000
C 0.08600 -1.63200 -2.63500
C -1.45100 0.20500 -5.19700
C 1.37300 -2.07000 -4.92300
C 2.62600 -1.49000 -4.30600
N 0.15000 -2.14400 0.30300
C 0.17300 -3.13600 -0.68800
C 0.17300 -4.43800 0.00400
C 0.13300 -4.11100 1.35800
C 0.08300 -2.69500 1.50200
C 0.14900 -5.71500 -0.62300
C 0.09600 -4.62900 2.71600
O 0.20800 -5.74700 3.22100
C -0.25500 -3.42800 3.70100
C 0.71700 -3.48200 4.84800
O 1.93100 -3.25500 4.66900
O 0.03800 -3.55600 6.00300
C 0.94300 -3.58300 7.18300
H -1.85900 3.22000 2.49700
H -0.21800 2.45300 -3.47400
H 0.27600 -3.74700 -2.60500
H -1.55400 -0.94900 5.13200
H -1.58500 1.83100 4.66500
H -3.48400 -0.37700 3.96900
H -3.51100 1.02700 2.85800
H -3.85200 1.30100 4.54300
H 0.66900 1.09600 4.96600
H 1.13000 -0.63900 5.18900
H -0.84400 0.02600 7.12500
H 0.06200 1.47700 6.92100
H -1.34400 5.18600 1.93800
H -1.65100 5.96300 0.43200
H 0.00700 6.02000 1.08400
H -0.63500 6.74400 -1.40500
H 0.66500 6.97000 -2.70400
H 1.04800 6.46600 -1.03600
H 0.60800 0.50100 -4.89100
H -0.69200 -2.15600 -4.54700
H -1.26700 0.74000 -6.12900
H -2.20400 0.71400 -4.59600
H -1.96700 -0.72000 -5.45300
H 1.35600 -1.75900 -5.96700
H 1.45200 -3.15700 -4.90200
H 2.71400 -0.52200 -4.79800
H 3.48700 -2.12100 -4.52900
H 2.49500 -1.30300 -3.24000
H 0.86700 -6.33300 -0.08400
H 0.40400 -5.64200 -1.68000
H -0.89100 -5.99900 -0.46300
H -1.28300 -3.58100 4.02800
H 0.69800 -4.47800 7.75500
H 0.83300 -2.61900 7.68000
H 2.00000 -3.75400 6.97600
Mg 7.89145 0.71450 0.60333
C 8.48382 -1.44210 3.40996
C 7.39735 3.24194 2.83995
C 6.92537 2.53019 -1.81274
C 7.30656 -2.14834 -1.29609
N 7.95989 0.76894 2.81344
C 8.25579 -0.09766 3.77041
C 8.38935 0.52712 5.18511
C 7.47966 1.83103 4.95899
C 7.64527 1.98567 3.44858
C 6.00793 1.59707 5.25665
C 9.87047 0.91294 5.53073
C 10.12268 1.24014 7.00419
H 11.40289 0.85696 7.59302
N 7.73299 2.68777 0.46305
C 7.55897 3.56409 1.47451
C 7.48211 4.89250 0.84716
C 7.45977 4.71308 -0.63000
C 7.34843 3.27092 -0.71871
C 7.51765 6.16862 1.63690
C 7.51493 5.68041 -1.77343
O 7.24159 5.32123 -2.97305
C 7.80720 7.08071 -1.43398
N 7.00817 0.27372 -1.22639
C 6.73775 1.24549 -2.11547
C 6.36348 0.66677 -3.45913
C 6.67477 -0.89839 -3.35456
C 7.11022 -0.97148 -1.87455
C 4.91067 0.86885 -3.88912
C 7.61588 -1.50235 -4.43262
C 9.01455 -0.95460 -4.26210
N 8.06639 -1.41722 0.90862
C 7.74469 -2.43979 -0.01060
C 7.92062 -3.72758 0.69159
C 8.31339 -3.36129 1.98776
C 8.35816 -1.94475 2.09228
C 7.67504 -5.01642 0.13959
C 8.69001 -3.85066 3.29442
O 8.91157 -4.96118 3.77546
C 8.69471 -2.62793 4.30995
C 9.97160 -2.68749 5.10275
O 11.07049 -2.52198 4.54448
O 9.67482 -2.71257 6.41487
C 10.90936 -2.76067 7.24276
H 7.00102 4.04844 3.45751
H 6.68673 3.10732 -2.70910
H 7.23871 -3.08848 -1.84764
H 7.98228 -0.07556 5.98813
H 7.88977 2.69358 5.47782
H 5.79802 0.55715 5.45824
H 5.47351 1.92700 4.37540
H 5.67948 2.25000 6.07037
H 10.10136 1.88666 5.07985
H 10.54871 0.14647 5.20955
H 9.29310 0.91877 7.64564
H 10.14531 2.32652 7.11947
H 7.36934 5.98315 2.70788
H 6.64102 6.75377 1.33861
H 8.41733 6.75741 1.44564
H 7.05511 7.44864 -0.74011
H 7.89302 7.60131 -2.38975
H 8.76728 7.11999 -0.90738
H 6.97139 1.09409 -4.24713
H 5.75992 -1.50258 -3.44316
H 4.81135 1.38758 -4.86130
H 4.39761 1.41808 -3.11089
H 4.31844 -0.04205 -3.95787
H 7.28637 -1.20652 -5.43165
H 7.65435 -2.58640 -4.41406
H 8.96947 0.00476 -4.78621
H 9.74475 -1.61980 -4.71856
H 9.22912 -0.74450 -3.20784
H 8.49741 -5.64864 0.44701
H 7.58813 -4.97479 -0.94415
H 6.72198 -5.25552 0.61894
H 7.81352 -2.72620 4.94510
H 10.82384 -3.63652 7.89334
H 10.97768 -1.77233 7.73496
H 11.84523 -2.96443 6.73571
