158

Mg 0.00000 0.00000 0.00000
C -0.21700 -2.21800 2.80100
C -1.25500 2.44200 2.02600
C -0.24500 1.85000 -2.56400
C 0.14600 -2.82400 -2.03700
N -0.61700 -0.00900 2.12600
C -0.59400 -0.90800 3.10500
C -0.93600 -0.30900 4.50200
C -1.77300 0.96400 4.03200
C -1.15500 1.16800 2.66000
C -3.26300 0.68500 3.86300
C 0.34500 0.11000 5.29900
C 0.12400 0.39700 6.78700
H 1.16800 0.03300 7.73300
N -0.18500 1.96100 -0.15200
C -0.70300 2.80000 0.77700
C -0.62000 4.15600 0.19300
C -0.18700 4.01500 -1.22500
C -0.21400 2.58300 -1.38000
C -0.88700 5.40600 0.97400
C 0.18100 5.01300 -2.27700
O 0.30300 4.69000 -3.50800
C 0.31000 6.41400 -1.83700
N -0.26500 -0.41300 -2.02900
C -0.27900 0.56900 -2.93700
C -0.19600 0.02400 -4.33200
C 0.12400 -1.53300 -4.18000
C 0.08600 -1.63200 -2.63500
C -1.45100 0.20500 -5.19700
C 1.37300 -2.07000 -4.92300
C 2.62600 -1.49000 -4.30600
N 0.15000 -2.14400 0.30300
C 0.17300 -3.13600 -0.68800
C 0.17300 -4.43800 0.00400
C 0.13300 -4.11100 1.35800
C 0.08300 -2.69500 1.50200
C 0.14900 -5.71500 -0.62300
C 0.09600 -4.62900 2.71600
O 0.20800 -5.74700 3.22100
C -0.25500 -3.42800 3.70100
C 0.71700 -3.48200 4.84800
O 1.93100 -3.25500 4.66900
O 0.03800 -3.55600 6.00300
C 0.94300 -3.58300 7.18300
H -1.85900 3.22000 2.49700
H -0.21800 2.45300 -3.47400
H 0.27600 -3.74700 -2.60500
H -1.55400 -0.94900 5.13200
H -1.58500 1.83100 4.66500
H -3.48400 -0.37700 3.96900
H -3.51100 1.02700 2.85800
H -3.85200 1.30100 4.54300
H 0.66900 1.09600 4.96600
H 1.13000 -0.63900 5.18900
H -0.84400 0.02600 7.12500
H 0.06200 1.47700 6.92100
H -1.34400 5.18600 1.93800
H -1.65100 5.96300 0.43200
H 0.00700 6.02000 1.08400
H -0.63500 6.74400 -1.40500
H 0.66500 6.97000 -2.70400
H 1.04800 6.46600 -1.03600
H 0.60800 0.50100 -4.89100
H -0.69200 -2.15600 -4.54700
H -1.26700 0.74000 -6.12900
H -2.20400 0.71400 -4.59600
H -1.96700 -0.72000 -5.45300
H 1.35600 -1.75900 -5.96700
H 1.45200 -3.15700 -4.90200
H 2.71400 -0.52200 -4.79800
H 3.48700 -2.12100 -4.52900
H 2.49500 -1.30300 -3.24000
H 0.86700 -6.33300 -0.08400
H 0.40400 -5.64200 -1.68000
H -0.89100 -5.99900 -0.46300
H -1.28300 -3.58100 4.02800
H 0.69800 -4.47800 7.75500
H 0.83300 -2.61900 7.68000
H 2.00000 -3.75400 6.97600
Mg 10.50775 0.95065 0.80758
C 8.32949 -1.60219 2.07930
C 7.82629 3.05803 0.86491
C 12.27992 3.08726 -0.72922
C 12.66340 -1.59098 -0.21171
N 8.40233 0.65005 1.41510
C 7.70427 -0.34551 1.94038
C 6.27913 0.04771 2.41358
C 6.05733 1.32827 1.47027
C 7.51511 1.73248 1.26011
C 5.45774 0.98254 0.11738
C 6.24053 0.43955 3.93245
C 4.83776 0.53532 4.53644
H 4.64742 0.12063 5.92362
N 10.27235 2.91135 0.61057
C 9.11640 3.60375 0.68564
C 9.47454 5.01123 0.45137
C 10.91139 5.07220 0.06867
C 11.21155 3.65981 -0.05443
C 8.51387 6.14314 0.67346
C 11.85530 6.21319 -0.16238
O 12.99658 6.04065 -0.71963
C 11.36602 7.55200 0.19773
N 12.11824 0.77181 -0.49499
C 12.73987 1.86123 -0.97941
C 14.03140 1.49098 -1.66879
C 14.26920 -0.05469 -1.33423
C 12.97150 -0.34624 -0.54915
C 14.05876 1.69360 -3.18358
C 15.62777 -0.43292 -0.68314
C 15.70952 0.14311 0.71217
N 10.61598 -1.19219 1.06171
C 11.58896 -2.06622 0.52931
C 11.17630 -3.44125 0.87777
C 9.97028 -3.27189 1.57442
C 9.64329 -1.89035 1.63696
C 11.86128 -4.63369 0.51033
C 8.89403 -3.94846 2.26189
O 8.67400 -5.11090 2.59962
C 7.71905 -2.90709 2.50965
C 7.27859 -3.03591 3.94210
O 8.04903 -2.73247 4.86997
O 5.95703 -3.28631 3.97591
C 5.47090 -3.41142 5.37586
H 7.00509 3.73517 0.62827
H 12.98242 3.79027 -1.18280
H 13.33219 -2.43167 -0.40831
H 5.51467 -0.69477 2.21838
H 5.51525 2.11332 1.99103
H 5.38912 -0.08476 -0.03200
H 6.11610 1.42595 -0.61814
H 4.49115 1.47966 -0.00470
H 6.56364 1.48285 4.04141
H 6.83955 -0.23323 4.51484
H 4.07880 0.07705 3.89075
H 4.55058 1.58865 4.58166
H 7.48550 5.78037 0.79288
H 8.48970 6.72831 -0.25220
H 8.81443 6.79542 1.49618
H 10.45987 7.76828 -0.36313
H 12.21294 8.22365 0.04443
H 11.08717 7.54925 1.25738
H 14.85930 2.06731 -1.27440
H 14.23510 -0.67760 -2.24013
H 14.87709 2.35765 -3.52040
H 13.09906 2.08585 -3.49286
H 14.13485 0.77982 -3.77043
H 16.45379 0.00525 -1.24870
H 15.80132 -1.50282 -0.63634
H 16.03859 1.17153 0.53569
H 16.43337 -0.40560 1.31133
H 14.71807 0.18952 1.17750
H 11.87155 -5.26922 1.38583
H 12.86937 -4.42137 0.16040
H 11.21375 -4.99027 -0.29515
H 6.91623 -3.14677 1.81136
H 4.97546 -4.38391 5.45632
H 4.85087 -2.51360 5.55816
H 6.21514 -3.48771 6.15992
