79

Mg 13.14637 1.17584 0.99962
C 13.32406 -0.37812 -2.23034
C 12.44357 -1.90706 2.27884
C 12.53994 2.57756 3.78078
C 12.72782 4.22125 -0.64232
N 12.93852 -0.80930 0.04660
C 13.08874 -1.28850 -1.17902
C 13.06051 -2.83774 -1.27184
C 12.22163 -3.14337 0.06298
C 12.57944 -1.89550 0.86763
C 10.71845 -3.15320 -0.15993
C 14.49639 -3.46682 -1.20455
C 14.57049 -4.94379 -1.59801
H 15.75600 -5.41640 -2.30770
N 13.05969 0.41373 2.82999
C 12.78374 -0.86348 3.16741
C 12.82179 -0.90848 4.63734
C 12.98009 0.48138 5.14524
C 12.84215 1.22997 3.91209
C 12.79219 -2.19327 5.41314
C 13.20412 1.04443 6.51600
O 13.07386 2.29608 6.75936
C 13.48892 0.07535 7.58430
N 12.48806 3.08236 1.50376
C 12.35742 3.45095 2.79023
C 12.13925 4.94027 2.91149
C 12.39290 5.53223 1.44765
C 12.63719 4.21420 0.68052
C 10.75778 5.37243 3.40258
C 13.44527 6.66756 1.32025
C 14.82568 6.12744 1.61709
N 13.22446 1.86288 -1.04731
C 12.99330 3.17468 -1.51616
C 13.04520 3.12511 -2.99172
C 13.28197 1.77300 -3.28194
C 13.35123 1.02877 -2.07330
C 12.83634 4.22648 -3.86893
C 13.47850 0.80429 -4.33630
O 13.60814 0.86464 -5.55830
C 13.38856 -0.65260 -3.70720
C 14.55388 -1.45307 -4.22083
O 15.71814 -1.14454 -3.91114
O 14.09431 -2.57185 -4.81032
C 15.21354 -3.40436 -5.32613
H 11.99468 -2.78209 2.74968
H 12.43116 3.12978 4.71710
H 12.70451 5.14518 -1.22412
H 12.53993 -3.23160 -2.13651
H 12.58639 -4.03694 0.56281
H 10.45712 -2.83523 -1.15830
H 10.30780 -2.47194 0.57377
H 10.30815 -4.13818 0.08050
H 14.80801 -3.53628 -0.15440
H 15.18876 -2.90008 -1.79619
H 13.65869 -5.28140 -2.10556
H 14.60758 -5.54445 -0.68595
H 12.50581 -3.04037 4.77768
H 11.97588 -2.10989 6.13878
H 13.72420 -2.38277 5.94989
H 12.66588 -0.63132 7.65967
H 13.70786 0.67367 8.47084
H 14.37609 -0.50350 7.30416
H 12.85241 5.38102 3.59723
H 11.48053 5.97764 1.02453
H 10.79510 6.00450 4.30987
H 10.16607 4.48456 3.58177
H 10.15465 5.90839 2.67170
H 13.25170 7.44814 2.06011
H 13.45204 7.14278 0.34500
H 14.87241 6.15670 2.70981
H 15.58927 6.76231 1.17222
H 14.91188 5.07824 1.31145
H 13.59642 4.16193 -4.63614
H 12.88718 5.17398 -3.33656
H 11.82462 4.00683 -4.22029
H 12.43235 -1.08147 -4.00939
H 15.02366 -3.57060 -6.39103
H 15.24605 -4.29791 -4.67478
H 16.19981 -2.95613 -5.35462
