79

Mg 15.76628 1.41940 1.19766
C 15.48862 4.16360 -1.08368
C 15.27410 -0.65304 -1.46801
C 15.55417 -0.99000 3.24863
C 15.10467 3.67977 3.76645
N 15.43702 1.82356 -0.95382
C 15.41237 2.91717 -1.70918
C 15.37389 2.61232 -3.23659
C 14.74367 1.14870 -3.18535
C 15.20810 0.73259 -1.80076
C 13.21869 1.14061 -3.21496
C 16.80299 2.59864 -3.87631
C 16.83400 2.63353 -5.40705
H 17.90125 3.36820 -6.06929
N 15.94335 -0.52711 0.91026
C 15.71966 -1.19886 -0.24473
C 15.98588 -2.62250 0.05365
C 16.19816 -2.74759 1.52246
C 15.87701 -1.41365 1.96162
C 16.06635 -3.68316 -1.00100
C 16.61287 -3.89107 2.39343
O 16.51160 -3.84747 3.66718
C 17.06387 -5.11290 1.70296
N 15.16879 1.30268 3.19442
C 15.22724 0.14732 3.86578
C 15.02435 0.35969 5.33672
C 15.05621 1.93994 5.56375
C 15.19847 2.38754 4.08805
C 13.72705 -0.21407 5.92308
C 16.07299 2.48113 6.59994
C 17.48266 2.26672 6.09600
N 15.53939 3.57102 1.37121
C 15.24412 4.29660 2.53440
C 15.08289 5.70667 2.13471
C 15.28049 5.70081 0.75530
C 15.52223 4.36745 0.31712
C 14.73386 6.78278 2.99762
C 15.31926 6.50725 -0.45383
O 15.27834 7.71514 -0.69225
C 15.33477 5.52763 -1.70919
C 16.41729 6.00004 -2.64101
O 17.61909 5.93342 -2.31147
O 15.89063 6.23134 -3.85331
C 16.91739 6.67486 -4.83373
H 14.89626 -1.38621 -2.18330
H 15.57948 -1.77560 4.00666
H 14.98103 4.45431 4.52556
H 14.73054 3.27459 -3.81616
H 15.17430 0.49347 -3.94230
H 12.81333 2.14926 -3.13601
H 12.91412 0.53975 -2.35781
H 12.85116 0.61379 -4.09596
H 17.26484 1.62659 -3.70349
H 17.40882 3.41652 -3.48470
H 15.86429 2.91431 -5.81905
H 16.99826 1.61838 -5.76856
H 15.70314 -3.32084 -1.96191
H 15.36042 -4.46480 -0.72098
H 17.06820 -4.10489 -1.08329
H 16.26322 -5.47936 1.06014
H 17.40480 -5.79134 2.48420
H 17.89468 -4.85969 1.04373
H 15.82649 -0.10015 5.91252
H 14.09555 2.32304 5.90877
H 13.88923 -0.91460 6.74263
H 13.16926 -0.68259 5.11274
H 13.01452 0.53224 6.27344
H 15.98222 1.93765 7.53980
H 15.94381 3.54167 6.81629
H 17.69104 1.23756 6.38624
H 18.17060 2.95721 6.58506
H 17.52789 2.31391 5.00778
H 15.38293 7.61496 2.72532
H 14.86036 6.50786 4.04453
H 13.68797 6.92732 2.72729
H 14.34713 5.58713 -2.16545
H 16.58054 7.62760 -5.24244
H 17.05925 5.84767 -5.52946
H 17.88641 6.95875 -4.42175
