79

Mg 31.53692 2.83311 2.40313
C 28.85887 2.79196 4.79172
C 33.43491 4.37477 4.78127
C 33.76245 3.29071 0.18840
C 29.14162 2.35517 -0.08279
N 31.09251 3.44987 4.48024
C 30.06038 3.32698 5.30118
C 30.35591 3.73007 6.77079
C 31.59149 4.72070 6.50460
C 32.09999 4.12978 5.19124
C 31.16687 6.15730 6.24927
C 30.78215 2.50423 7.65264
C 30.78621 2.76700 9.16019
H 30.39362 1.68319 10.05668
N 33.46838 3.24914 2.59008
C 34.07249 3.85801 3.63201
C 35.49674 3.94792 3.27481
C 35.65712 3.49125 1.86752
C 34.26900 3.34243 1.47886
C 36.55753 4.35520 4.25575
C 36.86039 3.24338 1.00909
O 36.76111 3.07878 -0.25814
C 38.16681 3.29194 1.68171
N 31.44811 3.03702 0.33604
C 32.56902 3.17314 -0.39401
C 32.28072 3.02507 -1.86892
C 30.76663 2.51866 -1.96200
C 30.39722 2.54840 -0.46265
C 32.44629 4.29094 -2.70947
C 30.50956 1.21157 -2.76080
C 31.12541 0.03534 -2.03790
N 29.41569 2.42693 2.34462
C 28.60498 2.28892 1.19667
C 27.21184 2.13508 1.66347
C 27.30658 2.21799 3.06084
C 28.66038 2.43014 3.43731
C 26.06603 1.99549 0.83055
C 26.56776 2.18489 4.30251
O 25.40091 1.94873 4.61301
C 27.52265 2.68147 5.47212
C 27.39714 1.71366 6.61672
O 27.78180 0.53732 6.49484
O 27.04783 2.38783 7.72751
C 26.92171 1.47227 8.89271
H 34.04137 5.06169 5.37223
H 34.50513 3.33279 -0.61169
H 28.34955 2.10347 -0.79127
H 29.55269 4.26226 7.26615
H 32.34600 4.62869 7.28153
H 30.09399 6.25259 6.17176
H 31.64026 6.44307 5.31907
H 31.58573 6.81603 7.01541
H 31.84944 2.30299 7.49413
H 30.17192 1.64892 7.43657
H 30.25525 3.69116 9.41894
H 31.81544 2.95139 9.47752
H 36.12071 4.79132 5.16261
H 37.11546 5.17996 3.79930
H 37.25149 3.54416 4.48663
H 38.29918 4.26747 2.14353
H 38.89685 3.00222 0.92343
H 38.16977 2.55630 2.49377
H 32.92822 2.28122 -2.31675
H 30.12012 3.25638 -2.45963
H 33.16190 4.16989 -3.54453
H 32.75638 5.09604 -2.05663
H 31.52632 4.68343 -3.13939
H 30.99481 1.26362 -3.73855
H 29.45750 1.01086 -2.93369
H 32.17107 0.06885 -2.35813
H 30.64877 -0.89406 -2.34297
H 31.10804 0.18753 -0.95245
H 25.45558 1.21711 1.26870
H 26.34548 1.75391 -0.19283
H 25.64085 2.99925 0.91391
H 27.20491 3.68724 5.74971
H 25.91669 1.61307 9.30234
H 27.77408 1.71304 9.55546
H 26.92222 0.40670 8.69520
