158

Mg 0.00000 0.00000 0.00000
C -0.21700 -2.21800 2.80100
C -1.25500 2.44200 2.02600
C -0.24500 1.85000 -2.56400
C 0.14600 -2.82400 -2.03700
N -0.61700 -0.00900 2.12600
C -0.59400 -0.90800 3.10500
C -0.93600 -0.30900 4.50200
C -1.77300 0.96400 4.03200
C -1.15500 1.16800 2.66000
C -3.26300 0.68500 3.86300
C 0.34500 0.11000 5.29900
C 0.12400 0.39700 6.78700
H 1.16800 0.03300 7.73300
N -0.18500 1.96100 -0.15200
C -0.70300 2.80000 0.77700
C -0.62000 4.15600 0.19300
C -0.18700 4.01500 -1.22500
C -0.21400 2.58300 -1.38000
C -0.88700 5.40600 0.97400
C 0.18100 5.01300 -2.27700
O 0.30300 4.69000 -3.50800
C 0.31000 6.41400 -1.83700
N -0.26500 -0.41300 -2.02900
C -0.27900 0.56900 -2.93700
C -0.19600 0.02400 -4.33200
C 0.12400 -1.53300 -4.18000
C 0.08600 -1.63200 -2.63500
C -1.45100 0.20500 -5.19700
C 1.37300 -2.07000 -4.92300
C 2.62600 -1.49000 -4.30600
N 0.15000 -2.14400 0.30300
C 0.17300 -3.13600 -0.68800
C 0.17300 -4.43800 0.00400
C 0.13300 -4.11100 1.35800
C 0.08300 -2.69500 1.50200
C 0.14900 -5.71500 -0.62300
C 0.09600 -4.62900 2.71600
O 0.20800 -5.74700 3.22100
C -0.25500 -3.42800 3.70100
C 0.71700 -3.48200 4.84800
O 1.93100 -3.25500 4.66900
O 0.03800 -3.55600 6.00300
C 0.94300 -3.58300 7.18300
H -1.85900 3.22000 2.49700
H -0.21800 2.45300 -3.47400
H 0.27600 -3.74700 -2.60500
H -1.55400 -0.94900 5.13200
H -1.58500 1.83100 4.66500
H -3.48400 -0.37700 3.96900
H -3.51100 1.02700 2.85800
H -3.85200 1.30100 4.54300
H 0.66900 1.09600 4.96600
H 1.13000 -0.63900 5.18900
H -0.84400 0.02600 7.12500
H 0.06200 1.47700 6.92100
H -1.34400 5.18600 1.93800
H -1.65100 5.96300 0.43200
H 0.00700 6.02000 1.08400
H -0.63500 6.74400 -1.40500
H 0.66500 6.97000 -2.70400
H 1.04800 6.46600 -1.03600
H 0.60800 0.50100 -4.89100
H -0.69200 -2.15600 -4.54700
H -1.26700 0.74000 -6.12900
H -2.20400 0.71400 -4.59600
H -1.96700 -0.72000 -5.45300
H 1.35600 -1.75900 -5.96700
H 1.45200 -3.15700 -4.90200
H 2.71400 -0.52200 -4.79800
H 3.48700 -2.12100 -4.52900
H 2.49500 -1.30300 -3.24000
H 0.86700 -6.33300 -0.08400
H 0.40400 -5.64200 -1.68000
H -0.89100 -5.99900 -0.46300
H -1.28300 -3.58100 4.02800
H 0.69800 -4.47800 7.75500
H 0.83300 -2.61900 7.68000
H 2.00000 -3.75400 6.97600
Mg 8.94366 0.80889 0.68023
C 10.31021 -1.31281 3.23170
C 9.24294 3.39717 2.88157
C 7.33253 2.61204 -1.37412
C 7.71316 -2.06651 -0.85717
N 9.69452 0.90441 2.75854
C 10.24576 0.04624 3.60353
C 10.82954 0.69333 4.88807
C 9.93444 2.02637 4.91392
C 9.62894 2.14463 3.42216
C 8.62077 1.85483 5.65836
C 12.35586 1.02896 4.74763
C 13.06159 1.37538 6.06052
H 14.44898 0.95523 6.23688
N 8.80936 2.78362 0.53529
C 8.98360 3.68580 1.52371
C 8.75655 5.00351 0.91031
C 8.27262 4.79586 -0.48160
C 8.09569 3.35754 -0.48735
C 9.07342 6.29272 1.61099
C 8.00035 5.73755 -1.61530
O 7.35834 5.36542 -2.66037
C 8.42558 7.13209 -1.42574
N 7.52444 0.36610 -0.77307
C 7.02162 1.32971 -1.56462
C 6.23246 0.73926 -2.70872
C 6.51330 -0.83430 -2.65741
C 7.38310 -0.89468 -1.38258
C 4.72472 0.98822 -2.67525
C 7.05573 -1.49504 -3.95428
C 8.45438 -0.99794 -4.24070
N 9.13992 -1.32150 0.98182
C 8.51867 -2.34900 0.23860
C 8.86427 -3.62843 0.89133
C 9.64989 -3.25185 1.99109
C 9.76766 -1.83628 2.03321
C 8.42099 -4.91760 0.48187
C 10.39751 -3.72931 3.13205
O 10.72338 -4.83776 3.55501
C 10.75335 -2.48779 4.05854
C 12.21052 -2.58046 4.41992
O 13.08709 -2.46820 3.54492
O 12.33388 -2.56819 5.75970
C 13.76202 -2.64709 6.16715
H 9.08185 4.23030 3.56627
H 6.84572 3.18002 -2.17029
H 7.44948 -3.01409 -1.33176
H 10.67301 0.12269 5.79561
H 10.51092 2.88269 5.25413
H 8.45220 0.82789 5.94669
H 7.85004 2.18745 4.97544
H 8.58026 2.53582 6.51331
H 12.46519 1.98402 4.21786
H 12.87783 0.23090 4.25644
H 12.46200 1.09875 6.93626
H 13.15166 2.46217 6.12982
H 9.25839 6.13429 2.68062
H 8.16564 6.90496 1.58008
H 9.88709 6.84275 1.13341
H 7.93673 7.54218 -0.54523
H 8.22703 7.63000 -2.37682
H 9.50225 7.14502 -1.22267
H 6.57921 1.12732 -3.65860
H 5.59813 -1.40468 -2.44072
H 4.34507 1.49102 -3.58472
H 4.49463 1.57198 -1.79388
H 4.11301 0.09946 -2.52988
H 6.44225 -1.20665 -4.81139
H 7.06523 -2.57919 -3.91527
H 8.27833 -0.04813 -4.75445
H 8.98693 -1.69950 -4.87964
H 8.99103 -0.77538 -3.31111
H 9.27860 -5.57462 0.53967
H 8.00416 -4.89414 -0.52286
H 7.65635 -5.11053 1.23909
H 10.10951 -2.53968 4.93738
H 13.85563 -3.50598 6.83889
H 14.00923 -1.65254 6.58369
H 14.48833 -2.89650 5.40248
