79

Mg 15.76628 1.41940 1.19766
C 15.90722 0.50692 -2.26062
C 15.12828 -1.86162 1.88388
C 15.18848 2.27169 4.19706
C 15.28601 4.71075 0.15747
N 15.56911 -0.35742 -0.10797
C 15.70483 -0.58295 -1.41100
C 15.68724 -2.09623 -1.78120
C 14.88372 -2.65407 -0.52216
C 15.24231 -1.58035 0.49000
C 13.37108 -2.65883 -0.71811
C 17.12726 -2.70630 -1.85796
C 17.21967 -4.08105 -2.52645
H 18.39180 -4.39114 -3.33100
N 15.71810 0.33797 2.85025
C 15.45858 -0.98845 2.94281
C 15.53988 -1.32022 4.38156
C 15.68025 -0.04363 5.13568
C 15.50598 0.92057 4.07959
C 15.53143 -2.72405 4.90400
C 15.92113 0.25934 6.58078
O 15.77812 1.43505 7.06227
C 16.24717 -0.88796 7.44705
N 15.08457 3.19207 2.06401
C 14.97809 3.31488 3.39163
C 14.74722 4.74212 3.79117
C 14.96077 5.61142 2.46888
C 15.21122 4.45813 1.46615
C 13.36913 5.05480 4.39044
C 15.99576 6.76194 2.54324
C 17.38722 6.19106 2.70146
N 15.79403 2.48452 -0.69331
C 15.54492 3.84967 -0.89580
C 15.56994 4.08207 -2.35163
C 15.81703 2.82473 -2.89925
C 15.91257 1.86298 -1.85320
C 15.32103 5.32290 -3.00186
C 15.99808 2.06577 -4.12606
O 16.11202 2.35755 -5.31743
C 15.94249 0.51496 -3.76868
C 17.10827 -0.15015 -4.44832
O 18.28006 0.10078 -4.10002
O 16.65920 -1.14414 -5.22990
C 17.76799 -1.86455 -5.91088
H 14.69194 -2.81231 2.19654
H 15.09044 2.62903 5.22426
H 15.22823 5.72696 -0.23679
H 15.15061 -2.33313 -2.70008
H 15.26033 -3.62331 -0.19591
H 13.08757 -2.15671 -1.64300
H 12.96435 -2.12844 0.14314
H 12.97605 -3.67335 -0.65916
H 17.46177 -2.96557 -0.85350
H 17.81213 -2.01753 -2.35381
H 16.30703 -4.32072 -3.07285
H 17.27383 -4.83826 -1.74420
H 15.25087 -3.43764 4.13029
H 14.72643 -2.78654 5.63597
H 16.47753 -2.99263 5.37422
H 15.43288 -1.61177 7.40730
H 16.47428 -0.46982 8.42707
H 17.12660 -1.39362 7.04721
H 15.46590 5.05798 4.54625
H 14.04102 6.10146 2.14857
H 13.41482 5.50140 5.38400
H 12.78975 4.13205 4.40272
H 12.73911 5.69811 3.77673
H 15.80493 7.38791 3.41427
H 15.98733 7.40592 1.66377
H 17.45899 6.01858 3.77474
H 18.13453 6.91337 2.37128
H 17.47862 5.22276 2.20899
H 16.07544 5.41457 -3.78316
H 15.37410 6.15519 -2.30037
H 14.31108 5.15583 -3.37593
H 14.98706 0.14249 -4.13682
H 17.56401 -1.82951 -6.98112
H 17.83513 -2.84566 -5.44045
H 18.74802 -1.38768 -5.87246
