79

Mg 10.51893 0.94245 0.79274
C 10.34358 3.03816 -2.11524
C 10.03314 -1.72146 -1.28144
C 10.21850 -0.88312 3.37042
C 9.84926 3.77763 2.70560
N 10.23877 0.80387 -1.39691
C 10.25226 1.66112 -2.40651
C 10.24368 1.00064 -3.81124
C 9.57484 -0.40383 -3.41253
C 10.00079 -0.47020 -1.94732
C 8.05632 -0.38457 -3.46808
C 11.68950 0.80499 -4.38858
C 11.74550 0.45267 -5.87670
H 12.84775 0.98060 -6.67596
N 10.66446 -1.02630 0.99620
C 10.45552 -1.96034 0.04479
C 10.66815 -3.25901 0.70236
C 10.85812 -3.02162 2.15916
C 10.56052 -1.60545 2.23648
C 10.75580 -4.55093 -0.05704
C 11.23170 -3.92302 3.29676
O 11.10660 -3.55356 4.51769
C 11.65991 -5.28388 2.94153
N 9.88759 1.33673 2.73395
C 9.90291 0.37595 3.67448
C 9.67142 0.95515 5.04974
C 9.73837 2.54220 4.86436
C 9.91598 2.61068 3.33166
C 8.34956 0.57631 5.71724
C 10.74576 3.31355 5.76039
C 12.16194 2.95387 5.37251
N 10.34070 3.06327 0.42070
C 10.02996 4.07089 1.35996
C 9.90783 5.33961 0.61306
C 10.13510 4.97521 -0.72262
C 10.36151 3.57469 -0.80506
C 9.57503 6.60551 1.17240
C 10.22444 5.45514 -2.08291
O 10.20734 6.56398 -2.61575
C 10.23822 4.20228 -3.06094
C 11.35005 4.40076 -4.05440
O 12.53650 4.40975 -3.68174
O 10.84601 4.32953 -5.29988
C 11.91246 4.50942 -6.32074
H 9.66039 -2.59979 -1.80914
H 10.21047 -1.44864 4.30508
H 9.73912 4.72246 3.24209
H 9.63226 1.50782 -4.54794
H 10.01367 -1.22404 -3.97471
H 7.67248 0.60773 -3.65283
H 7.72210 -0.74618 -2.50445
H 7.69678 -1.11003 -4.20346
H 12.12453 -0.10834 -3.96277
H 12.29573 1.66934 -4.19882
H 10.78686 0.63094 -6.37886
H 11.90207 -0.62450 -5.97263
H 10.41292 -4.43301 -1.09238
H 10.02963 -5.23638 0.39318
H 11.74833 -5.00354 -0.00510
H 10.86561 -5.77961 2.38853
H 11.97044 -5.74690 3.88018
H 12.51888 -5.21489 2.26475
H 10.45193 0.64816 5.73505
H 8.77377 3.01991 5.09058
H 8.48157 0.09072 6.70255
H 7.80076 -0.07005 5.04524
H 7.65376 1.40053 5.86464
H 10.62582 3.01850 6.80572
H 10.62773 4.39101 5.71431
H 12.33708 2.02043 5.91574
H 12.85490 3.73079 5.68912
H 12.23195 2.73018 4.30166
H 10.24008 7.32980 0.72118
H 9.66990 6.59860 2.25625
H 8.53335 6.69250 0.85208
H 9.26158 4.15299 -3.54396
H 11.60119 5.33710 -6.96551
H 12.03937 3.51946 -6.79783
H 12.87943 4.85964 -5.97902
