79

Mg 7.88474 0.71233 0.58869
C 10.36213 -1.70622 -0.35586
C 10.15592 3.12920 -0.20826
C 5.89744 2.85034 1.83246
C 6.27762 -1.82793 2.35220
N 9.95790 0.60085 -0.17408
C 10.77304 -0.37155 -0.55399
C 12.07001 0.11361 -1.25544
C 12.14201 1.59181 -0.63204
C 10.65709 1.81049 -0.34942
C 12.89336 1.65253 0.68748
C 11.92509 0.15531 -2.81726
C 13.24074 0.32133 -3.58098
H 13.39227 -0.36132 -4.86297
N 7.79724 2.67973 0.34319
C 8.80927 3.50224 -0.00403
C 8.23569 4.85666 -0.03109
C 6.84297 4.78673 0.48867
C 6.79796 3.40958 0.93755
C 8.96979 6.04015 -0.59132
C 5.73905 5.79632 0.57981
O 4.68980 5.58494 1.28495
C 5.96425 7.07761 -0.10507
N 6.43259 0.59230 2.07166
C 5.67343 1.65732 2.38367
C 4.52033 1.26281 3.27537
C 4.52429 -0.33623 3.30061
C 5.78881 -0.59956 2.45383
C 4.57478 1.79429 4.70748
C 3.20422 -1.04970 2.89933
C 2.91915 -0.82085 1.43245
N 8.12381 -1.42429 0.80260
C 7.35745 -2.29158 1.61166
C 7.97032 -3.63227 1.51489
C 9.07305 -3.44560 0.66776
C 9.15430 -2.08053 0.28116
C 7.52848 -4.80021 2.19813
C 10.19303 -4.09081 0.02119
O 10.58128 -5.25316 -0.08810
C 11.15112 -2.96825 -0.56898
C 11.49625 -3.34843 -1.98279
O 10.61674 -3.37989 -2.86148
O 12.83464 -3.39973 -2.11107
C 13.22649 -3.76222 -3.49919
H 10.86549 3.95707 -0.21204
H 5.12226 3.52427 2.20448
H 5.77875 -2.69314 2.79403
H 12.96237 -0.44325 -0.99590
H 12.50109 2.31167 -1.36295
H 13.15391 0.66866 1.04838
H 12.22730 2.14646 1.38279
H 13.76766 2.30304 0.59384
H 11.42171 1.08715 -3.10540
H 11.40662 -0.71288 -3.17511
H 14.11375 0.13856 -2.94271
H 13.34007 1.36832 -3.87759
H 10.03273 5.81763 -0.74642
H 8.96468 6.81527 0.18265
H 8.50055 6.43843 -1.49346
H 6.86055 7.54728 0.29309
H 5.02959 7.63228 -0.00203
H 6.15766 6.87846 -1.16505
H 3.57871 1.60545 2.86421
H 4.73311 -0.72732 4.30723
H 3.68351 2.38715 4.98720
H 5.47448 2.38485 4.81843
H 4.70046 1.03493 5.47741
H 2.36135 -0.62406 3.44939
H 3.21230 -2.11634 3.09731
H 2.43426 0.15993 1.42537
H 2.25563 -1.59199 1.04629
H 3.84970 -0.73264 0.85977
H 7.55966 -5.61046 1.48188
H 6.52872 -4.66770 2.60640
H 8.28693 -4.86579 2.98281
H 12.03403 -2.92216 0.06971
H 13.87265 -4.64270 -3.42916
H 13.66884 -2.84606 -3.93363
H 12.44838 -4.12307 -4.16159
