79

Mg 7.88314 0.70970 0.59883
C 7.26397 3.38189 2.89845
C 6.99867 2.85575 -1.90222
C 7.98322 -1.75043 -1.39976
C 7.61216 -1.47863 3.29761
N 7.23458 2.82619 0.62125
C 7.09594 3.75424 1.56288
C 6.82911 5.17897 0.99161
C 6.21505 4.77225 -0.42243
C 6.88224 3.41936 -0.59691
C 4.70288 4.57439 -0.39580
C 8.14612 6.00965 0.82671
C 7.94719 7.50912 0.58721
H 8.90239 8.44317 1.16384
N 8.01690 0.66447 -1.37168
C 7.62315 1.63355 -2.23257
C 7.93241 1.12608 -3.58664
C 8.36267 -0.29349 -3.45326
C 8.10979 -0.52754 -2.05446
C 7.85478 1.97239 -4.82013
C 8.90436 -1.28537 -4.43351
O 8.99521 -2.53114 -4.16081
C 9.24784 -0.76754 -5.77027
N 7.59196 -1.34136 0.85576
C 7.75149 -2.19386 -0.16246
C 7.77129 -3.61599 0.31408
C 7.83538 -3.54722 1.90810
C 7.75431 -2.01046 2.08146
C 6.57712 -4.48121 -0.11180
C 8.99556 -4.30719 2.59866
C 10.31391 -3.64760 2.26104
N 7.68286 0.89527 2.75208
C 7.56470 -0.14872 3.68095
C 7.34406 0.47033 5.00086
C 7.33257 1.83989 4.74392
C 7.50709 2.06136 3.34793
C 7.12740 -0.22639 6.22237
C 7.18884 3.16683 5.32048
O 7.11151 3.61036 6.46713
C 7.01680 4.21334 4.13261
C 7.94691 5.36452 4.40279
O 9.18460 5.20951 4.36463
O 7.24419 6.50737 4.42785
C 8.11190 7.69237 4.66241
H 6.51852 3.36339 -2.74108
H 8.12264 -2.62547 -2.03796
H 7.60305 -2.09549 4.19809
H 6.10551 5.76696 1.55648
H 6.52789 5.45385 -1.21317
H 4.31302 4.61957 0.62100
H 4.53085 3.58756 -0.82598
H 4.20787 5.28190 -1.06151
H 8.62956 5.73458 -0.11067
H 8.80308 5.86571 1.68520
H 6.92641 7.81719 0.81525
H 8.05632 7.70195 -0.48008
H 7.35125 2.91852 -4.62563
H 7.19955 1.45494 -5.52057
H 8.83335 2.12434 -5.27581
H 8.36018 -0.32671 -6.22444
H 9.70270 -1.59922 -6.30717
H 9.97016 0.04187 -5.66049
H 8.65113 -4.14038 -0.05650
H 6.93697 -3.95555 2.37157
H 6.86101 -5.38053 -0.65892
H 5.90455 -3.86000 -0.70259
H 5.92451 -4.79262 0.70340
H 9.04726 -5.33254 2.23407
H 8.89931 -4.34549 3.68379
H 10.56440 -4.08459 1.29505
H 11.06678 -3.89714 3.00945
H 10.19539 -2.57415 2.11218
H 7.72753 0.28427 6.97538
H 7.40972 -1.27536 6.13536
H 6.05266 -0.09190 6.34366
H 5.97186 4.52191 4.13557
H 7.71669 8.21181 5.53546
H 8.14858 8.24078 3.72097
H 9.13149 7.48599 4.98980
