158

Mg 0.00000 0.00000 0.00000
C -0.21700 -2.21800 2.80100
C -1.25500 2.44200 2.02600
C -0.24500 1.85000 -2.56400
C 0.14600 -2.82400 -2.03700
N -0.61700 -0.00900 2.12600
C -0.59400 -0.90800 3.10500
C -0.93600 -0.30900 4.50200
C -1.77300 0.96400 4.03200
C -1.15500 1.16800 2.66000
C -3.26300 0.68500 3.86300
C 0.34500 0.11000 5.29900
C 0.12400 0.39700 6.78700
H 1.16800 0.03300 7.73300
N -0.18500 1.96100 -0.15200
C -0.70300 2.80000 0.77700
C -0.62000 4.15600 0.19300
C -0.18700 4.01500 -1.22500
C -0.21400 2.58300 -1.38000
C -0.88700 5.40600 0.97400
C 0.18100 5.01300 -2.27700
O 0.30300 4.69000 -3.50800
C 0.31000 6.41400 -1.83700
N -0.26500 -0.41300 -2.02900
C -0.27900 0.56900 -2.93700
C -0.19600 0.02400 -4.33200
C 0.12400 -1.53300 -4.18000
C 0.08600 -1.63200 -2.63500
C -1.45100 0.20500 -5.19700
C 1.37300 -2.07000 -4.92300
C 2.62600 -1.49000 -4.30600
N 0.15000 -2.14400 0.30300
C 0.17300 -3.13600 -0.68800
C 0.17300 -4.43800 0.00400
C 0.13300 -4.11100 1.35800
C 0.08300 -2.69500 1.50200
C 0.14900 -5.71500 -0.62300
C 0.09600 -4.62900 2.71600
O 0.20800 -5.74700 3.22100
C -0.25500 -3.42800 3.70100
C 0.71700 -3.48200 4.84800
O 1.93100 -3.25500 4.66900
O 0.03800 -3.55600 6.00300
C 0.94300 -3.58300 7.18300
H -1.85900 3.22000 2.49700
H -0.21800 2.45300 -3.47400
H 0.27600 -3.74700 -2.60500
H -1.55400 -0.94900 5.13200
H -1.58500 1.83100 4.66500
H -3.48400 -0.37700 3.96900
H -3.51100 1.02700 2.85800
H -3.85200 1.30100 4.54300
H 0.66900 1.09600 4.96600
H 1.13000 -0.63900 5.18900
H -0.84400 0.02600 7.12500
H 0.06200 1.47700 6.92100
H -1.34400 5.18600 1.93800
H -1.65100 5.96300 0.43200
H 0.00700 6.02000 1.08400
H -0.63500 6.74400 -1.40500
H 0.66500 6.97000 -2.70400
H 1.04800 6.46600 -1.03600
H 0.60800 0.50100 -4.89100
H -0.69200 -2.15600 -4.54700
H -1.26700 0.74000 -6.12900
H -2.20400 0.71400 -4.59600
H -1.96700 -0.72000 -5.45300
H 1.35600 -1.75900 -5.96700
H 1.45200 -3.15700 -4.90200
H 2.71400 -0.52200 -4.79800
H 3.48700 -2.12100 -4.52900
H 2.49500 -1.30300 -3.24000
H 0.86700 -6.33300 -0.08400
H 0.40400 -5.64200 -1.68000
H -0.89100 -5.99900 -0.46300
H -1.28300 -3.58100 4.02800
H 0.69800 -4.47800 7.75500
H 0.83300 -2.61900 7.68000
H 2.00000 -3.75400 6.97600
Mg 15.75923 1.41517 1.20436
C 15.30953 4.12461 3.51428
C 16.82823 -0.46124 3.84461
C 16.59093 -0.84218 -0.86448
C 15.76017 3.78060 -1.35503
N 15.99352 1.88289 3.35345
C 15.73299 2.92649 4.12635
C 15.86072 2.64773 5.64803
C 16.87239 1.40242 5.58028
C 16.52467 0.88050 4.18768
C 18.33512 1.81442 5.58447
C 14.49181 2.24100 6.29817
C 14.47721 2.25507 7.82831
H 13.25244 2.66637 8.50893
N 16.11772 -0.51629 1.48631
C 16.52259 -1.11054 2.62834
C 16.66330 -2.53991 2.31012
C 16.46763 -2.71585 0.84537
C 16.40372 -1.33203 0.41987
C 16.87699 -3.59031 3.36103
C 16.36884 -3.92869 -0.02954
O 16.43729 -3.84502 -1.30670
C 16.28345 -5.22643 0.65607
N 16.33484 1.47549 -0.79248
C 16.59115 0.34423 -1.47255
C 16.71510 0.61405 -2.95316
C 16.24711 2.13001 -3.15426
C 16.00807 2.51890 -1.67879
C 18.11076 0.42933 -3.54847
C 15.10855 2.38494 -4.17963
C 13.81555 1.78621 -3.67458
N 15.38882 3.53802 1.04827
C 15.46801 4.33443 -0.11515
C 15.24431 5.73455 0.29963
C 15.07198 5.65766 1.68991
C 15.20069 4.30760 2.11449
C 15.26781 6.87018 -0.55822
C 14.82103 6.41294 2.89626
O 14.54269 7.58527 3.14508
C 15.08929 5.47034 4.14763
C 13.93135 5.61710 5.09640
O 12.79322 5.23843 4.76795
O 14.39624 5.97665 6.30675
C 13.28597 6.12396 7.28523
H 17.39148 -1.06427 4.55734
H 16.77073 -1.59556 -1.63490
H 15.64781 4.56489 -2.10665
H 16.30138 3.45396 6.22213
H 16.63467 0.65880 6.33651
H 18.45219 2.88555 5.51288
H 18.78048 1.32701 4.72707
H 18.84056 1.40145 6.46215
H 14.31332 1.17303 6.11838
H 13.69510 2.85381 5.92354
H 15.34382 2.78344 8.24395
H 14.59214 1.22894 8.18589
H 17.14547 -3.14441 4.32669
H 17.76588 -4.15947 3.06815
H 16.03155 -4.27595 3.44930
H 17.15804 -5.35898 1.28851
H 16.12949 -5.96450 -0.13350
H 15.41293 -5.21400 1.32139
H 16.05904 -0.03449 -3.52069
H 17.06833 2.76517 -3.51758
H 18.13671 -0.29641 -4.38315
H 18.78161 0.12269 -2.75696
H 18.58259 1.34102 -3.91095
H 15.33256 1.88656 -5.12598
H 14.95162 3.43590 -4.39838
H 13.89740 0.73623 -3.97112
H 12.96094 2.26475 -4.14857
H 13.76883 1.81687 -2.57981
H 14.42830 7.49132 -0.27555
H 15.21312 6.57885 -1.60508
H 16.24354 7.28997 -0.29940
H 16.03089 5.78524 4.59908
H 13.35900 7.13335 7.70174
H 13.39533 5.27885 7.99062
H 12.27381 6.12768 6.89796
