158

Mg 0.00000 0.00000 0.00000
C -0.21700 -2.21800 2.80100
C -1.25500 2.44200 2.02600
C -0.24500 1.85000 -2.56400
C 0.14600 -2.82400 -2.03700
N -0.61700 -0.00900 2.12600
C -0.59400 -0.90800 3.10500
C -0.93600 -0.30900 4.50200
C -1.77300 0.96400 4.03200
C -1.15500 1.16800 2.66000
C -3.26300 0.68500 3.86300
C 0.34500 0.11000 5.29900
C 0.12400 0.39700 6.78700
H 1.16800 0.03300 7.73300
N -0.18500 1.96100 -0.15200
C -0.70300 2.80000 0.77700
C -0.62000 4.15600 0.19300
C -0.18700 4.01500 -1.22500
C -0.21400 2.58300 -1.38000
C -0.88700 5.40600 0.97400
C 0.18100 5.01300 -2.27700
O 0.30300 4.69000 -3.50800
C 0.31000 6.41400 -1.83700
N -0.26500 -0.41300 -2.02900
C -0.27900 0.56900 -2.93700
C -0.19600 0.02400 -4.33200
C 0.12400 -1.53300 -4.18000
C 0.08600 -1.63200 -2.63500
C -1.45100 0.20500 -5.19700
C 1.37300 -2.07000 -4.92300
C 2.62600 -1.49000 -4.30600
N 0.15000 -2.14400 0.30300
C 0.17300 -3.13600 -0.68800
C 0.17300 -4.43800 0.00400
C 0.13300 -4.11100 1.35800
C 0.08300 -2.69500 1.50200
C 0.14900 -5.71500 -0.62300
C 0.09600 -4.62900 2.71600
O 0.20800 -5.74700 3.22100
C -0.25500 -3.42800 3.70100
C 0.71700 -3.48200 4.84800
O 1.93100 -3.25500 4.66900
O 0.03800 -3.55600 6.00300
C 0.94300 -3.58300 7.18300
H -1.85900 3.22000 2.49700
H -0.21800 2.45300 -3.47400
H 0.27600 -3.74700 -2.60500
H -1.55400 -0.94900 5.13200
H -1.58500 1.83100 4.66500
H -3.48400 -0.37700 3.96900
H -3.51100 1.02700 2.85800
H -3.85200 1.30100 4.54300
H 0.66900 1.09600 4.96600
H 1.13000 -0.63900 5.18900
H -0.84400 0.02600 7.12500
H 0.06200 1.47700 6.92100
H -1.34400 5.18600 1.93800
H -1.65100 5.96300 0.43200
H 0.00700 6.02000 1.08400
H -0.63500 6.74400 -1.40500
H 0.66500 6.97000 -2.70400
H 1.04800 6.46600 -1.03600
H 0.60800 0.50100 -4.89100
H -0.69200 -2.15600 -4.54700
H -1.26700 0.74000 -6.12900
H -2.20400 0.71400 -4.59600
H -1.96700 -0.72000 -5.45300
H 1.35600 -1.75900 -5.96700
H 1.45200 -3.15700 -4.90200
H 2.71400 -0.52200 -4.79800
H 3.48700 -2.12100 -4.52900
H 2.49500 -1.30300 -3.24000
H 0.86700 -6.33300 -0.08400
H 0.40400 -5.64200 -1.68000
H -0.89100 -5.99900 -0.46300
H -1.28300 -3.58100 4.02800
H 0.69800 -4.47800 7.75500
H 0.83300 -2.61900 7.68000
H 2.00000 -3.75400 6.97600
Mg 10.51716 0.95352 0.80291
C 10.11787 0.15089 4.27788
C 9.29931 4.05488 1.53299
C 10.43168 1.54472 -2.31328
C 10.60487 -2.47151 0.16480
N 9.83212 1.86578 2.69784
C 9.78405 1.48524 3.96560
C 9.43127 2.61964 4.96472
C 8.65502 3.59714 3.95437
C 9.32339 3.17781 2.64666
C 7.16906 3.29691 3.84901
C 10.70823 3.30803 5.56263
C 10.44649 4.20992 6.77087
H 11.45029 4.26316 7.83013
N 10.41996 2.67773 -0.17495
C 9.91514 3.84377 0.27978
C 10.05849 4.80288 -0.82644
C 10.53805 4.06587 -2.02709
C 10.46025 2.70077 -1.54694
C 9.82687 6.27675 -0.66070
C 10.97983 4.51444 -3.38717
O 11.12875 3.68620 -4.35395
C 11.14270 5.96296 -3.57894
N 10.30580 -0.27601 -0.86020
C 10.35505 0.23017 -2.10490
C 10.45739 -0.86777 -3.13661
C 10.71135 -2.21254 -2.30915
C 10.61891 -1.64816 -0.87447
C 9.23696 -1.04856 -4.03896
C 11.96099 -3.05069 -2.69463
C 13.22013 -2.29348 -2.33884
N 10.57355 -0.84928 1.99236
C 10.58043 -2.18106 1.52289
C 10.50499 -3.06064 2.70741
C 10.43569 -2.17227 3.79115
C 10.44545 -0.83357 3.31440
C 10.45836 -4.48312 2.68566
C 10.34578 -2.06263 5.22941
O 10.38865 -2.85961 6.16574
C 10.00846 -0.55451 5.60115
C 10.94067 -0.12777 6.70179
O 12.16412 -0.04169 6.49596
O 10.21643 0.31522 7.74563
C 11.09693 0.76017 8.85854
H 8.71879 4.97468 1.60944
H 10.51244 1.69244 -3.39269
H 10.72605 -3.55137 0.05572
H 8.77467 2.32408 5.77422
H 8.86674 4.64050 4.17334
H 6.90095 2.39731 4.38284
H 6.96589 3.18442 2.79207
H 6.58552 4.16165 4.17771
H 11.08047 4.05388 4.84857
H 11.45352 2.57781 5.81149
H 9.44783 4.05069 7.19545
H 10.43106 5.24856 6.43174
H 9.32372 6.50069 0.28804
H 9.10462 6.57524 -1.42825
H 10.73937 6.86334 -0.78688
H 10.20067 6.46338 -3.36772
H 11.54872 6.08065 -4.58551
H 11.86738 6.33367 -2.84543
H 11.29745 -0.69884 -3.79909
H 9.87946 -2.92330 -2.42145
H 9.47435 -0.96428 -5.11628
H 8.49157 -0.31741 -3.75550
H 8.70116 -1.98723 -3.90850
H 11.99046 -3.21167 -3.77508
H 11.98852 -4.02716 -2.22268
H 13.35756 -1.62683 -3.19545
H 14.06040 -2.97643 -2.23140
H 13.06489 -1.66540 -1.45392
H 11.12635 -4.82846 3.46350
H 10.74423 -4.87545 1.71194
H 9.39870 -4.64682 2.89917
H 8.96387 -0.51973 5.91293
H 10.79392 0.20062 9.74892
H 10.99642 1.86115 8.89710
H 12.14884 0.50682 8.79735
