79

Mg 15.76628 1.41940 1.19766
C 15.77071 2.07446 -2.32130
C 15.23860 -1.86432 0.43489
C 15.30604 0.88759 4.28991
C 15.16076 4.81741 1.67988
N 15.55200 0.36204 -0.73539
C 15.63336 0.71913 -2.01330
C 15.63490 -0.49137 -2.99415
C 14.90326 -1.56505 -2.07007
C 15.28208 -1.01139 -0.70776
C 13.38379 -1.54794 -2.20201
C 17.08402 -0.95088 -3.36916
C 17.17849 -1.90455 -4.56371
H 18.31967 -1.79377 -5.45969
N 15.81943 -0.26418 2.22993
C 15.59607 -1.51297 1.75460
C 15.75090 -2.42264 2.91012
C 15.89516 -1.58461 4.13282
C 15.64990 -0.27032 3.59628
C 15.79976 -3.91429 2.78226
C 16.19456 -1.91682 5.56045
O 16.04575 -1.06540 6.50253
C 16.58706 -3.30945 5.84248
N 15.08287 2.62415 2.75944
C 15.03428 2.16496 4.01474
C 14.78800 3.27500 4.99305
C 14.92015 4.63290 4.16336
C 15.15190 4.02830 2.75658
C 13.43169 3.24560 5.71108
C 15.92977 5.68342 4.69014
C 17.34021 5.15719 4.54569
N 15.68222 3.18901 -0.05632
C 15.39169 4.49876 0.35210
C 15.34461 5.33027 -0.86464
C 15.59628 4.43754 -1.90461
C 15.76239 3.12652 -1.37365
C 15.03678 6.71852 -0.91390
C 15.73908 4.28195 -3.34311
O 15.79148 5.05806 -4.29830
C 15.73682 2.72589 -3.68146
C 16.88582 2.46233 -4.61615
O 18.06600 2.58875 -4.23071
O 16.42529 1.87873 -5.73323
C 17.51864 1.56343 -6.69101
H 14.83975 -2.87461 0.32455
H 15.24657 0.76871 5.37378
H 15.06084 5.90142 1.75990
H 15.06262 -0.33587 -3.90889
H 15.31736 -2.56455 -2.20139
H 13.04644 -0.71162 -2.81414
H 13.00434 -1.45237 -1.18448
H 13.01613 -2.50610 -2.57016
H 17.47016 -1.59954 -2.58291
H 17.72892 -0.08899 -3.54404
H 16.24779 -1.92572 -5.13139
H 17.28635 -2.92000 -4.18236
H 15.50120 -4.24093 1.78691
H 15.03077 -4.31576 3.44194
H 16.77248 -4.31857 3.06280
H 15.78926 -3.98004 5.52251
H 16.84870 -3.33993 6.89958
H 17.45908 -3.55991 5.23766
H 15.53272 3.26813 5.78789
H 13.97532 5.17451 4.11211
H 13.51209 3.22763 6.79824
H 12.87560 2.38270 5.34576
H 12.75914 4.06266 5.45125
H 15.76410 5.87005 5.75065
H 15.86583 6.63986 4.17112
H 17.46504 4.54685 5.43940
H 18.05424 5.98133 4.53288
H 17.43202 4.49577 3.68396
H 15.75229 7.16531 -1.60411
H 15.10202 7.17387 0.07402
H 14.01505 6.68551 -1.29183
H 14.77470 2.50697 -4.14353
H 17.26519 2.04285 -7.63660
H 17.63054 0.47906 -6.68750
H 18.48777 2.01822 -6.48296
