158

Mg 0.00000 0.00000 0.00000
C -0.21700 -2.21800 2.80100
C -1.25500 2.44200 2.02600
C -0.24500 1.85000 -2.56400
C 0.14600 -2.82400 -2.03700
N -0.61700 -0.00900 2.12600
C -0.59400 -0.90800 3.10500
C -0.93600 -0.30900 4.50200
C -1.77300 0.96400 4.03200
C -1.15500 1.16800 2.66000
C -3.26300 0.68500 3.86300
C 0.34500 0.11000 5.29900
C 0.12400 0.39700 6.78700
H 1.16800 0.03300 7.73300
N -0.18500 1.96100 -0.15200
C -0.70300 2.80000 0.77700
C -0.62000 4.15600 0.19300
C -0.18700 4.01500 -1.22500
C -0.21400 2.58300 -1.38000
C -0.88700 5.40600 0.97400
C 0.18100 5.01300 -2.27700
O 0.30300 4.69000 -3.50800
C 0.31000 6.41400 -1.83700
N -0.26500 -0.41300 -2.02900
C -0.27900 0.56900 -2.93700
C -0.19600 0.02400 -4.33200
C 0.12400 -1.53300 -4.18000
C 0.08600 -1.63200 -2.63500
C -1.45100 0.20500 -5.19700
C 1.37300 -2.07000 -4.92300
C 2.62600 -1.49000 -4.30600
N 0.15000 -2.14400 0.30300
C 0.17300 -3.13600 -0.68800
C 0.17300 -4.43800 0.00400
C 0.13300 -4.11100 1.35800
C 0.08300 -2.69500 1.50200
C 0.14900 -5.71500 -0.62300
C 0.09600 -4.62900 2.71600
O 0.20800 -5.74700 3.22100
C -0.25500 -3.42800 3.70100
C 0.71700 -3.48200 4.84800
O 1.93100 -3.25500 4.66900
O 0.03800 -3.55600 6.00300
C 0.94300 -3.58300 7.18300
H -1.85900 3.22000 2.49700
H -0.21800 2.45300 -3.47400
H 0.27600 -3.74700 -2.60500
H -1.55400 -0.94900 5.13200
H -1.58500 1.83100 4.66500
H -3.48400 -0.37700 3.96900
H -3.51100 1.02700 2.85800
H -3.85200 1.30100 4.54300
H 0.66900 1.09600 4.96600
H 1.13000 -0.63900 5.18900
H -0.84400 0.02600 7.12500
H 0.06200 1.47700 6.92100
H -1.34400 5.18600 1.93800
H -1.65100 5.96300 0.43200
H 0.00700 6.02000 1.08400
H -0.63500 6.74400 -1.40500
H 0.66500 6.97000 -2.70400
H 1.04800 6.46600 -1.03600
H 0.60800 0.50100 -4.89100
H -0.69200 -2.15600 -4.54700
H -1.26700 0.74000 -6.12900
H -2.20400 0.71400 -4.59600
H -1.96700 -0.72000 -5.45300
H 1.35600 -1.75900 -5.96700
H 1.45200 -3.15700 -4.90200
H 2.71400 -0.52200 -4.79800
H 3.48700 -2.12100 -4.52900
H 2.49500 -1.30300 -3.24000
H 0.86700 -6.33300 -0.08400
H 0.40400 -5.64200 -1.68000
H -0.89100 -5.99900 -0.46300
H -1.28300 -3.58100 4.02800
H 0.69800 -4.47800 7.75500
H 0.83300 -2.61900 7.68000
H 2.00000 -3.75400 6.97600
Mg 10.51882 0.94463 0.79164
C 10.21154 3.83181 -1.31758
C 10.01863 -0.95886 -1.99424
C 10.33503 -1.59686 2.68227
C 9.85596 3.02852 3.50527
N 10.17222 1.48289 -1.32553
C 10.13737 2.61058 -2.01939
C 10.09697 2.41742 -3.55907
C 9.46804 0.94038 -3.59970
C 9.94133 0.43565 -2.23811
C 7.94844 0.93340 -3.60984
C 11.52728 2.45062 -4.20338
C 11.54289 2.57797 -5.72827
H 12.60901 3.35800 -6.35070
N 10.70831 -0.98552 0.37073
C 10.48725 -1.58463 -0.81817
C 10.74535 -3.01658 -0.60126
C 10.97675 -3.23660 0.85227
C 10.65474 -1.92282 1.37228
C 10.83360 -4.00698 -1.72587
C 11.40329 -4.43504 1.64473
O 11.30985 -4.46533 2.92269
C 11.84597 -5.60656 0.87461
N 9.94179 0.70081 2.77405
C 10.00522 -0.50309 3.36946
C 9.80633 -0.38478 4.86172
C 9.83705 1.18293 5.17627
C 9.96474 1.72744 3.73662
C 8.51373 -0.98846 5.41049
C 10.85736 1.66687 6.24278
C 12.26717 1.48470 5.72836
N 10.28842 3.07059 1.10031
C 9.98835 3.72886 2.31305
C 9.81843 5.16253 1.99977
C 10.01025 5.23600 0.61185
C 10.26066 3.93670 0.09356
C 9.47937 6.18327 2.93210
C 10.04732 6.11574 -0.53417
O 9.99219 7.33412 -0.69615
C 10.05409 5.22807 -1.85265
C 11.12993 5.75535 -2.76207
O 12.32719 5.68173 -2.43379
O 10.58819 6.05909 -3.95565
C 11.61818 6.57592 -4.89578
H 9.64623 -1.64076 -2.75923
H 10.36738 -2.42392 3.39529
H 9.74482 3.75740 4.31090
H 9.45297 3.11042 -4.08708
H 9.90446 0.34710 -4.39902
H 7.54005 1.92301 -3.46830
H 7.65184 0.28206 -2.79815
H 7.57974 0.46146 -4.52508
H 11.99293 1.46289 -4.09255
H 12.12258 3.23038 -3.76953
H 10.56561 2.87604 -6.12703
H 11.71690 1.58823 -6.15738
H 10.45594 -3.58400 -2.66494
H 10.13527 -4.81817 -1.49311
H 11.83575 -4.42549 -1.84089
H 11.04419 -5.92877 0.21447
H 12.19483 -6.32852 1.61552
H 12.68162 -5.30746 0.23208
H 10.61386 -0.86687 5.39891
H 8.87113 1.53996 5.56277
H 8.68611 -1.75132 6.19305
H 7.95640 -1.41013 4.58459
H 7.80733 -0.27015 5.82308
H 10.77621 1.05950 7.14758
H 10.71737 2.70194 6.53609
H 12.47722 0.43423 5.95081
H 12.95483 2.14452 6.25353
H 12.30753 1.60553 4.63959
H 10.11585 7.02997 2.71191
H 9.60860 5.84385 3.95770
H 8.42661 6.33597 2.67982
H 9.06377 5.30342 -2.30339
H 11.27090 7.55349 -5.24425
H 11.74882 5.78622 -5.65937
H 12.58861 6.83006 -4.48574
