79

Mg 31.53655 2.84171 2.38595
C 34.24270 0.50903 2.04772
C 33.86061 5.33290 2.22060
C 29.23898 4.89915 3.13128
C 29.61892 0.22082 3.65058
N 33.73662 2.80030 2.16185
C 34.64952 1.85789 1.98066
C 36.06490 2.39190 1.63263
C 35.93512 3.85618 2.27909
C 34.42066 4.03087 2.18656
C 36.33279 3.90427 3.74500
C 36.31148 2.46711 0.08488
C 37.77002 2.68410 -0.32416
H 38.25591 2.03615 -1.53929
N 31.45354 4.81159 2.15952
C 32.49484 5.66718 2.08920
C 31.90543 7.00709 1.94291
C 30.42999 6.89001 2.09812
C 30.31637 5.50187 2.49843
C 32.71970 8.22157 1.60318
C 29.30814 7.86922 1.92839
O 28.12343 7.61495 2.34629
C 29.65775 9.17167 1.34283
N 29.76571 2.65016 3.45823
C 28.92108 3.68813 3.58918
C 27.59499 3.24380 4.15878
C 27.64075 1.64521 4.15732
C 29.08339 1.43381 3.64790
C 27.27577 3.74225 5.56805
C 26.48394 0.90870 3.42794
C 26.56560 1.16518 1.94034
N 31.77926 0.70726 2.61671
C 30.86237 -0.19793 3.19466
C 31.52019 -1.52019 3.23107
C 32.79271 -1.28591 2.68858
C 32.92630 0.08959 2.35741
C 30.95783 -2.71474 3.76298
C 34.05716 -1.88733 2.33060
O 34.49524 -3.03668 2.30193
C 35.09757 -0.72744 2.01665
C 35.79453 -1.06513 0.72718
O 35.16234 -1.09766 -0.34328
O 37.12373 -1.07987 0.93547
C 37.85900 -1.39932 -0.31718
H 34.52357 6.17812 2.40761
H 28.37571 5.54444 3.30977
H 29.05220 -0.66686 3.93961
H 36.88113 1.85151 2.09687
H 36.44271 4.60198 1.67288
H 36.52502 2.91891 4.14283
H 35.50026 4.36470 4.26069
H 37.18292 4.57848 3.88304
H 35.86764 3.39266 -0.30385
H 35.92461 1.59498 -0.40539
H 38.46213 2.50809 0.50829
H 37.90835 3.74000 -0.56902
H 33.79404 8.02946 1.71401
H 32.49904 8.97769 2.36440
H 32.47760 8.62934 0.61942
H 30.41239 9.65400 1.95954
H 28.71052 9.70019 1.21914
H 30.11443 9.00269 0.36125
H 26.77520 3.57247 3.53186
H 27.60455 1.23562 5.17750
H 26.32550 4.30582 5.62688
H 28.10145 4.35233 5.90951
H 27.22901 2.96818 6.33213
H 25.51838 1.29992 3.75779
H 26.47472 -0.16182 3.60372
H 26.06834 2.13341 1.82920
H 26.04242 0.38709 1.38817
H 27.60618 1.29023 1.61907
H 31.19045 -3.50669 3.06355
H 29.88444 -2.61703 3.91152
H 31.49910 -2.77999 4.71063
H 35.79225 -0.67449 2.85581
H 38.49373 -2.26478 -0.10322
H 38.36762 -0.46231 -0.61228
H 37.28116 -1.76365 -1.15849
