158

Mg 0.00000 0.00000 0.00000
C -0.21700 -2.21800 2.80100
C -1.25500 2.44200 2.02600
C -0.24500 1.85000 -2.56400
C 0.14600 -2.82400 -2.03700
N -0.61700 -0.00900 2.12600
C -0.59400 -0.90800 3.10500
C -0.93600 -0.30900 4.50200
C -1.77300 0.96400 4.03200
C -1.15500 1.16800 2.66000
C -3.26300 0.68500 3.86300
C 0.34500 0.11000 5.29900
C 0.12400 0.39700 6.78700
H 1.16800 0.03300 7.73300
N -0.18500 1.96100 -0.15200
C -0.70300 2.80000 0.77700
C -0.62000 4.15600 0.19300
C -0.18700 4.01500 -1.22500
C -0.21400 2.58300 -1.38000
C -0.88700 5.40600 0.97400
C 0.18100 5.01300 -2.27700
O 0.30300 4.69000 -3.50800
C 0.31000 6.41400 -1.83700
N -0.26500 -0.41300 -2.02900
C -0.27900 0.56900 -2.93700
C -0.19600 0.02400 -4.33200
C 0.12400 -1.53300 -4.18000
C 0.08600 -1.63200 -2.63500
C -1.45100 0.20500 -5.19700
C 1.37300 -2.07000 -4.92300
C 2.62600 -1.49000 -4.30600
N 0.15000 -2.14400 0.30300
C 0.17300 -3.13600 -0.68800
C 0.17300 -4.43800 0.00400
C 0.13300 -4.11100 1.35800
C 0.08300 -2.69500 1.50200
C 0.14900 -5.71500 -0.62300
C 0.09600 -4.62900 2.71600
O 0.20800 -5.74700 3.22100
C -0.25500 -3.42800 3.70100
C 0.71700 -3.48200 4.84800
O 1.93100 -3.25500 4.66900
O 0.03800 -3.55600 6.00300
C 0.94300 -3.58300 7.18300
H -1.85900 3.22000 2.49700
H -0.21800 2.45300 -3.47400
H 0.27600 -3.74700 -2.60500
H -1.55400 -0.94900 5.13200
H -1.58500 1.83100 4.66500
H -3.48400 -0.37700 3.96900
H -3.51100 1.02700 2.85800
H -3.85200 1.30100 4.54300
H 0.66900 1.09600 4.96600
H 1.13000 -0.63900 5.18900
H -0.84400 0.02600 7.12500
H 0.06200 1.47700 6.92100
H -1.34400 5.18600 1.93800
H -1.65100 5.96300 0.43200
H 0.00700 6.02000 1.08400
H -0.63500 6.74400 -1.40500
H 0.66500 6.97000 -2.70400
H 1.04800 6.46600 -1.03600
H 0.60800 0.50100 -4.89100
H -0.69200 -2.15600 -4.54700
H -1.26700 0.74000 -6.12900
H -2.20400 0.71400 -4.59600
H -1.96700 -0.72000 -5.45300
H 1.35600 -1.75900 -5.96700
H 1.45200 -3.15700 -4.90200
H 2.71400 -0.52200 -4.79800
H 3.48700 -2.12100 -4.52900
H 2.49500 -1.30300 -3.24000
H 0.86700 -6.33300 -0.08400
H 0.40400 -5.64200 -1.68000
H -0.89100 -5.99900 -0.46300
H -1.28300 -3.58100 4.02800
H 0.69800 -4.47800 7.75500
H 0.83300 -2.61900 7.68000
H 2.00000 -3.75400 6.97600
Mg 15.76628 1.41940 1.19766
C 15.68043 -1.56187 3.17677
C 14.52958 3.07819 3.91098
C 15.40497 3.96461 -0.65921
C 15.90169 -0.63008 -1.61782
N 15.21714 0.73547 3.23023
C 15.28827 -0.42141 3.88118
C 14.97926 -0.29409 5.40291
C 14.10364 1.03793 5.37139
C 14.67391 1.67383 4.11586
C 12.61464 0.78339 5.16022
C 16.27660 -0.10672 6.25939
C 16.09735 -0.30074 7.76789
H 17.17752 -0.91034 8.52878
N 15.53913 3.32515 1.66604
C 15.03484 3.82053 2.82171
C 15.07340 5.29247 2.68537
C 15.46393 5.60951 1.28356
C 15.45941 4.29566 0.69266
C 14.80741 6.23132 3.82183
C 15.77933 6.89403 0.58450
O 15.86847 6.97150 -0.68853
C 15.89539 8.09304 1.43417
N 15.44515 1.64753 -0.85233
C 15.38367 2.86157 -1.41027
C 15.43289 2.77772 -2.90710
C 15.78723 1.25973 -3.25340
C 15.80003 0.68631 -1.81489
C 14.14792 3.18241 -3.64268
C 17.02213 1.01427 -4.15628
C 18.28271 1.40960 -3.42024
N 15.96673 -0.70801 0.81687
C 15.97731 -1.34346 -0.43323
C 16.02408 -2.79518 -0.17950
C 16.02070 -2.90464 1.20969
C 15.94824 -1.60475 1.78703
C 16.00466 -3.81552 -1.17096
C 16.03659 -3.81839 2.34047
O 16.18586 -5.03421 2.47085
C 15.69405 -2.99160 3.65763
C 16.70271 -3.37080 4.70745
O 17.90588 -3.06567 4.57843
O 16.06213 -3.81766 5.79856
C 17.00436 -4.18328 6.88974
H 13.92603 3.65495 4.61454
H 15.39164 4.82020 -1.33762
H 16.03126 -1.32790 -2.44710
H 14.39385 -1.11470 5.81802
H 14.29498 1.67130 6.23739
H 12.41744 -0.26501 4.93683
H 12.32848 1.41261 4.31720
H 12.03579 1.14190 6.01179
H 16.57100 0.94258 6.24098
H 17.07189 -0.76262 5.90352
H 15.14779 -0.78507 7.99740
H 16.01899 0.68256 8.23178
H 14.38543 5.71103 4.68076
H 14.01614 6.90714 3.49799
H 15.69255 6.80587 4.09525
H 14.95840 8.24653 1.96993
H 16.21209 8.89982 0.77412
H 16.65724 7.91516 2.19371
H 16.20954 3.42662 -3.30979
H 14.97208 0.75837 -3.77574
H 14.29209 3.98456 -4.36689
H 13.40473 3.45909 -2.89542
H 13.64185 2.36804 -4.16047
H 16.96617 1.63257 -5.05156
H 17.12251 -0.02318 -4.47544
H 18.33659 2.48442 -3.58964
H 19.14813 0.90297 -3.84873
H 18.18196 1.25369 -2.34599
H 16.75103 -4.54967 -0.86778
H 16.22465 -3.41180 -2.15900
H 14.97586 -4.16407 -1.08188
H 14.68002 -3.26701 3.94576
H 16.79473 -5.21787 7.16161
H 16.89174 -3.42395 7.66378
H 18.05736 -4.25217 6.61443
