79

Mg 10.50898 0.95078 0.80785
C 8.47387 -1.55809 2.37084
C 7.88408 3.09738 1.17740
C 12.10247 3.04692 -0.96259
C 12.48581 -1.63137 -0.44529
N 8.49263 0.68654 1.67777
C 7.85287 -0.29381 2.29742
C 6.50371 0.12451 2.94112
C 6.18229 1.39928 2.01888
C 7.60741 1.78025 1.62319
C 5.41315 1.04965 0.75574
C 6.66121 0.53107 4.44841
C 5.34670 0.65288 5.22235
H 5.32646 0.25400 6.62697
N 10.27674 2.91277 0.62013
C 9.14862 3.62258 0.83179
C 9.49316 5.02245 0.53886
C 10.87131 5.05892 -0.02157
C 11.13490 3.64123 -0.16562
C 8.58304 6.17023 0.86702
C 11.79380 6.18385 -0.38177
O 12.85376 5.98953 -1.07572
C 11.37138 7.53295 0.02194
N 11.94077 0.73635 -0.68424
C 12.51110 1.81203 -1.25483
C 13.70090 1.41660 -2.09649
C 13.95829 -0.12917 -1.77722
C 12.76560 -0.39445 -0.83249
C 13.54064 1.60462 -3.60492
C 15.38268 -0.52101 -1.29739
C 15.64650 0.06681 0.07018
N 10.61983 -1.19093 1.07020
C 11.50664 -2.08397 0.42978
C 11.12278 -3.44953 0.84248
C 10.01606 -3.25613 1.68287
C 9.71784 -1.86945 1.77055
C 11.74037 -4.65520 0.40535
C 9.02570 -3.91051 2.50729
O 8.83440 -5.06642 2.88282
C 7.90501 -2.84989 2.88878
C 7.64611 -2.95888 4.36648
O 8.53085 -2.65801 5.18704
O 6.33603 -3.18970 4.56845
C 6.02780 -3.29462 6.01959
H 7.04873 3.78416 1.03804
H 12.75176 3.73536 -1.50843
H 13.11344 -2.48349 -0.71482
H 5.71103 -0.60857 2.85154
H 5.72029 2.19697 2.59473
H 5.31218 -0.01788 0.62800
H 5.97983 1.47654 -0.06138
H 4.44556 1.55962 0.75025
H 7.00923 1.57053 4.50441
H 7.31960 -0.14487 4.95856
H 4.50671 0.19968 4.68201
H 5.08146 1.71066 5.29151
H 7.57306 5.82360 1.11841
H 8.45067 6.74701 -0.05475
H 8.99308 6.82575 1.63828
H 10.40496 7.75713 -0.42330
H 12.20119 8.19075 -0.24377
H 11.22768 7.54417 1.10814
H 14.57930 1.98449 -1.81541
H 13.80252 -0.75996 -2.66473
H 14.31897 2.25351 -4.04901
H 12.55500 2.00787 -3.79582
H 13.53037 0.68437 -4.18650
H 16.13694 -0.10020 -1.96685
H 15.54653 -1.59283 -1.26083
H 15.96443 1.08864 -0.15757
H 16.43247 -0.48674 0.57995
H 14.72198 0.13198 0.65557
H 11.85199 -5.28259 1.27967
H 12.69930 -4.46085 -0.07051
H 10.99221 -5.00985 -0.30861
H 7.01780 -3.08439 2.29932
H 5.53352 -4.25901 6.17231
H 5.44750 -2.38621 6.26818
H 6.86346 -3.37438 6.70498
