79

Mg 31.53256 2.83880 2.39533
C 31.60824 -0.70238 2.91159
C 30.38201 3.13071 5.59441
C 31.02628 5.91547 1.81701
C 31.58790 2.19217 -1.02877
N 31.09332 1.33194 3.95644
C 31.22165 0.01195 4.04778
C 30.97956 -0.53422 5.48669
C 30.07195 0.64703 6.05492
C 30.56895 1.78019 5.17465
C 28.58134 0.44588 5.80171
C 32.30985 -0.67667 6.30017
C 32.20440 -1.50226 7.58572
H 33.33242 -2.33311 7.97891
N 31.28175 4.35209 3.64027
C 30.81916 4.28653 4.91189
C 30.81639 5.67642 5.41675
C 31.13479 6.57640 4.27362
C 31.13455 5.64072 3.17823
C 30.58034 6.02960 6.85317
C 31.38724 8.04809 4.18134
O 31.41624 8.66432 3.06152
C 31.51344 8.77429 5.45796
N 31.11274 3.90547 0.65073
C 30.99694 5.23787 0.66756
C 30.97969 5.80204 -0.72217
C 31.35387 4.59236 -1.69502
C 31.44604 3.46161 -0.64090
C 29.65317 6.42852 -1.17372
C 32.55170 4.80602 -2.65416
C 33.83484 4.90133 -1.85944
N 31.76598 1.08678 1.13558
C 31.73455 1.04573 -0.26585
C 31.82741 -0.37241 -0.65868
C 31.89013 -1.06352 0.54974
C 31.81320 -0.13784 1.62932
C 31.78699 -0.87274 -1.99002
C 31.97942 -2.37056 1.18026
O 32.16339 -3.51874 0.77365
C 31.67785 -2.19881 2.73441
C 32.74217 -2.94751 3.48937
O 33.93058 -2.56740 3.46576
O 32.16295 -3.84265 4.30409
C 33.16250 -4.59944 5.10429
H 29.79769 3.32731 6.49543
H 30.96160 6.97724 1.57026
H 31.69602 1.92029 -2.08037
H 30.43343 -1.47675 5.52916
H 30.28753 0.85818 7.10214
H 28.39915 -0.41445 5.15784
H 28.24205 1.36205 5.31796
H 28.03364 0.38318 6.74238
H 32.57805 0.29153 6.72295
H 33.10344 -1.08509 5.67349
H 31.27812 -2.07674 7.61561
H 32.12394 -0.81458 8.42763
H 30.21056 5.17602 7.41992
H 29.75924 6.74588 6.87415
H 31.46312 6.46862 7.31824
H 30.59853 8.64621 6.03681
H 31.78035 9.79768 5.19665
H 32.31322 8.32110 6.04440
H 31.72145 6.59195 -0.83279
H 30.52786 4.32844 -2.35588
H 29.74495 7.46799 -1.48960
H 28.93853 6.32958 -0.35715
H 29.14350 5.89247 -1.97391
H 32.44018 5.74404 -3.19697
H 32.66206 4.00862 -3.38916
H 33.85532 5.94705 -1.55469
H 34.69158 4.66162 -2.49011
H 33.78702 4.29846 -0.95239
H 32.56370 -1.63477 -2.05321
H 31.95192 -0.07778 -2.71696
H 30.77193 -1.26792 -2.02650
H 30.68489 -2.61211 2.90859
H 32.99020 -5.65887 4.91416
H 33.06733 -4.24775 6.13174
H 34.20315 -4.50114 4.79330
