79

Mg 31.53256 2.83880 2.39533
C 31.09222 2.48281 5.92967
C 30.34047 6.01973 2.71738
C 31.48307 3.02458 -0.77006
C 31.59749 -0.64028 2.20191
N 30.83892 3.99147 4.15341
C 30.77685 3.76013 5.46101
C 30.41756 5.02552 6.29592
C 29.66937 5.86753 5.16755
C 30.34723 5.28477 3.94001
C 28.17346 5.58131 5.08498
C 31.68973 5.77313 6.81975
C 31.43073 6.82138 7.90578
H 32.41801 6.99578 8.96040
N 31.46112 4.41415 1.20536
C 30.95644 5.63465 1.50694
C 31.13496 6.46071 0.29349
C 31.61096 5.56747 -0.79905
C 31.51108 4.27831 -0.16386
C 30.90868 7.94116 0.26531
C 32.07128 5.83251 -2.19762
O 32.22015 4.89484 -3.05388
C 32.26085 7.24616 -2.57004
N 31.31941 1.40631 0.89194
C 31.39243 1.74554 -0.39980
C 31.49618 0.53364 -1.27756
C 31.72449 -0.70493 -0.29595
C 31.62483 0.04388 1.05594
C 30.28536 0.25426 -2.17861
C 32.96838 -1.59044 -0.55869
C 34.22801 -0.80327 -0.27440
N 31.55352 1.19144 3.80841
C 31.55814 -0.17811 3.50679
C 31.46146 -0.90278 4.78725
C 31.39015 0.10224 5.74990
C 31.41273 1.37406 5.10938
C 31.39028 -2.31537 4.94207
C 31.27531 0.39741 7.16889
O 31.30730 -0.27583 8.20002
C 30.95509 1.94858 7.33371
C 31.88021 2.49422 8.38715
O 33.11056 2.55677 8.18788
O 31.15653 3.07139 9.35860
C 32.01508 3.65932 10.42132
H 29.76332 6.94473 2.66076
H 31.57627 3.04232 -1.85792
H 31.69725 -1.72699 2.22599
H 29.74282 4.84174 7.13221
H 29.88148 6.93353 5.24737
H 27.89079 4.74948 5.73002
H 27.98139 5.33539 4.04041
H 27.59476 6.48187 5.29208
H 32.07927 6.41605 6.03047
H 32.43592 5.06195 7.17576
H 30.43215 6.71648 8.33093
H 31.42325 7.80505 7.43617
H 30.40547 8.28664 1.16752
H 30.19667 8.13925 -0.53562
H 31.83043 8.49379 0.08278
H 31.32027 7.78183 -2.43998
H 32.67719 7.23868 -3.57674
H 32.97091 7.70121 -1.87888
H 32.34498 0.61332 -1.95551
H 30.88945 -1.40549 -0.32033
H 30.53229 0.19869 -3.23910
H 29.54003 1.02654 -1.99058
H 29.72905 -0.64902 -1.92961
H 33.00654 -1.88963 -1.60557
H 32.98679 -2.49707 0.04623
H 34.38687 -0.25476 -1.20215
H 35.06063 -1.47786 -0.07222
H 34.06870 -0.06872 0.51524
H 32.05316 -2.56523 5.77039
H 31.68726 -2.82933 4.02815
H 30.33112 -2.44080 5.16635
H 29.90901 2.02303 7.62916
H 31.70065 3.21954 11.36787
H 31.94012 4.74184 10.31668
H 33.06794 3.37567 10.40229
