79

Mg 7.88314 0.70970 0.59883
C 8.09545 -2.33314 -1.27421
C 6.96812 -1.18300 3.28649
C 7.24983 3.40551 2.14419
C 7.69942 2.39743 -2.44477
N 7.60416 -1.47198 0.85002
C 7.77552 -2.53489 0.07025
C 7.65726 -3.88736 0.83458
C 6.76244 -3.40498 2.06283
C 7.16041 -1.93983 2.09265
C 5.26318 -3.50145 1.79933
C 9.04826 -4.42263 1.31454
C 9.06244 -5.88255 1.77691
H 10.23937 -6.69282 1.50187
N 7.68456 1.06163 2.53263
C 7.32063 0.16949 3.48495
C 7.31722 0.91511 4.76195
C 7.52392 2.35621 4.44796
C 7.46745 2.33522 3.00860
C 7.17987 0.25527 6.09967
C 7.72785 3.56260 5.30887
O 7.65568 4.75092 4.84275
C 7.92926 3.31605 6.74821
N 7.30426 2.61068 -0.04055
C 7.15316 3.61511 0.82967
C 7.01609 4.93213 0.12495
C 7.34964 4.64863 -1.41067
C 7.55192 3.11543 -1.32907
C 5.64259 5.60887 0.23234
C 8.46578 5.50644 -2.05781
C 9.80177 5.16244 -1.43822
N 8.06990 0.18267 -1.49840
C 7.93460 1.04139 -2.59884
C 8.03701 0.20896 -3.81154
C 8.20931 -1.08692 -3.32901
C 8.18794 -1.06888 -1.90510
C 7.91074 0.66975 -5.15175
C 8.38184 -2.48594 -3.68517
O 8.56655 -3.09597 -4.73932
C 8.19304 -3.36461 -2.37060
C 9.33133 -4.34659 -2.31290
O 10.50363 -3.95734 -2.13523
O 8.83987 -5.59291 -2.23742
C 9.91722 -6.61439 -2.14760
H 6.44779 -1.64627 4.12707
H 7.13742 4.37352 2.63691
H 7.73586 2.86579 -3.43004
H 7.14219 -4.67602 0.28582
H 7.05001 -3.89476 2.99295
H 5.05713 -3.76472 0.76195
H 4.86330 -2.51337 2.02798
H 4.78952 -4.18655 2.50293
H 9.32046 -3.92978 2.24785
H 9.80362 -4.28222 0.54057
H 8.15729 -6.40690 1.46920
H 9.02632 -5.89617 2.86627
H 6.87743 -0.78672 6.00309
H 6.34311 0.73507 6.60695
H 8.08253 0.35739 6.70224
H 7.06424 2.78571 7.14699
H 8.14735 4.28682 7.19195
H 8.78302 2.64999 6.87627
H 7.72529 5.66053 0.51595
H 6.48403 4.80957 -2.05370
H 5.68157 6.61460 0.65149
H 4.99422 4.96340 0.82419
H 5.08939 5.67148 -0.70439
H 8.28791 6.56469 -1.86960
H 8.54276 5.36980 -3.13653
H 9.81605 5.77282 -0.53596
H 10.61511 5.43932 -2.10980
H 9.83885 4.11857 -1.12606
H 8.70135 0.17861 -5.71893
H 7.99858 1.75454 -5.20744
H 6.90714 0.31920 -5.39209
H 7.22778 -3.86169 -2.46177
H 9.76057 -7.31880 -2.96460
H 9.88966 -7.00519 -1.13029
H 10.92849 -6.26878 -2.36490
