79

Mg 7.89004 0.70760 0.60660
C 8.01713 -2.87536 0.44732
C 6.79260 0.37680 3.81920
C 7.33767 3.83194 0.63457
C 7.88421 0.72372 -2.87843
N 7.49608 -1.07189 1.85979
C 7.63902 -2.38045 1.71284
C 7.43902 -3.19968 3.01607
C 6.51914 -2.15558 3.81766
C 6.98422 -0.86075 3.15449
C 5.03445 -2.32667 3.54239
C 8.79057 -3.46848 3.76645
C 8.71216 -4.51954 4.87590
H 9.86341 -5.39180 5.09095
N 7.64571 1.95498 2.13071
C 7.21372 1.64840 3.37194
C 7.18867 2.91822 4.11429
C 7.48343 4.02379 3.16269
C 7.47977 3.29930 1.90762
C 6.98317 2.98851 5.59964
C 7.71584 5.49252 3.34979
O 7.71885 6.30539 2.35880
C 7.84678 5.96417 4.73612
N 7.43280 2.07208 -0.89389
C 7.29436 3.38103 -0.61927
C 7.24183 4.20154 -1.88592
C 7.61825 3.19197 -3.06772
C 7.74148 1.88486 -2.25429
C 5.90004 4.86624 -2.19278
C 8.79671 3.60029 -3.99355
C 10.09427 3.57673 -3.21820
N 8.12582 -0.76574 -0.95601
C 8.06345 -0.54825 -2.34988
C 8.16730 -1.86984 -3.00182
C 8.26049 -2.77385 -1.93290
C 8.19741 -2.06748 -0.70141
C 8.11925 -2.11199 -4.40366
C 8.38719 -4.16603 -1.56619
O 8.57073 -5.21392 -2.18425
C 8.10805 -4.30551 -0.00766
C 9.19438 -5.16127 0.58402
O 10.37304 -4.76492 0.60001
O 8.63446 -6.20347 1.22486
C 9.67149 -7.07551 1.83799
H 6.22926 0.38253 4.75274
H 7.25550 4.92019 0.58525
H 7.98865 0.65304 -3.96322
H 6.91151 -4.13713 2.88689
H 6.76034 -2.14918 4.87744
H 4.85026 -3.04755 2.75974
H 4.67518 -1.34910 3.24854
H 4.50602 -2.57662 4.46684
H 9.05084 -2.58466 4.36300
H 9.56543 -3.73205 3.07309
H 7.78861 -5.10861 4.82111
H 8.64509 -4.00480 5.83745
H 6.62779 2.03196 6.00227
H 6.15371 3.68208 5.77522
H 7.86589 3.35170 6.13027
H 6.94662 5.70985 5.29064
H 8.09714 7.02420 4.66175
H 8.67292 5.42469 5.21264
H 7.97288 5.00029 -1.85987
H 6.77958 3.05021 -3.76512
H 5.97312 5.96415 -2.30823
H 5.20492 4.61230 -1.40357
H 5.39073 4.49105 -3.07880
H 8.66397 4.62634 -4.34536
H 8.89561 2.96939 -4.87057
H 10.10107 4.55022 -2.71884
H 10.94179 3.47322 -3.89276
H 10.07292 2.80646 -2.43853
H 8.89665 -2.83202 -4.62207
H 8.25622 -1.19357 -4.97070
H 7.10374 -2.50561 -4.49890
H 7.12199 -4.75669 0.10945
H 9.50595 -8.08699 1.45433
H 9.57689 -6.92940 2.93044
H 10.70256 -6.90634 1.55038
