158

Mg 0.00000 0.00000 0.00000
C -0.21700 -2.21800 2.80100
C -1.25500 2.44200 2.02600
C -0.24500 1.85000 -2.56400
C 0.14600 -2.82400 -2.03700
N -0.61700 -0.00900 2.12600
C -0.59400 -0.90800 3.10500
C -0.93600 -0.30900 4.50200
C -1.77300 0.96400 4.03200
C -1.15500 1.16800 2.66000
C -3.26300 0.68500 3.86300
C 0.34500 0.11000 5.29900
C 0.12400 0.39700 6.78700
H 1.16800 0.03300 7.73300
N -0.18500 1.96100 -0.15200
C -0.70300 2.80000 0.77700
C -0.62000 4.15600 0.19300
C -0.18700 4.01500 -1.22500
C -0.21400 2.58300 -1.38000
C -0.88700 5.40600 0.97400
C 0.18100 5.01300 -2.27700
O 0.30300 4.69000 -3.50800
C 0.31000 6.41400 -1.83700
N -0.26500 -0.41300 -2.02900
C -0.27900 0.56900 -2.93700
C -0.19600 0.02400 -4.33200
C 0.12400 -1.53300 -4.18000
C 0.08600 -1.63200 -2.63500
C -1.45100 0.20500 -5.19700
C 1.37300 -2.07000 -4.92300
C 2.62600 -1.49000 -4.30600
N 0.15000 -2.14400 0.30300
C 0.17300 -3.13600 -0.68800
C 0.17300 -4.43800 0.00400
C 0.13300 -4.11100 1.35800
C 0.08300 -2.69500 1.50200
C 0.14900 -5.71500 -0.62300
C 0.09600 -4.62900 2.71600
O 0.20800 -5.74700 3.22100
C -0.25500 -3.42800 3.70100
C 0.71700 -3.48200 4.84800
O 1.93100 -3.25500 4.66900
O 0.03800 -3.55600 6.00300
C 0.94300 -3.58300 7.18300
H -1.85900 3.22000 2.49700
H -0.21800 2.45300 -3.47400
H 0.27600 -3.74700 -2.60500
H -1.55400 -0.94900 5.13200
H -1.58500 1.83100 4.66500
H -3.48400 -0.37700 3.96900
H -3.51100 1.02700 2.85800
H -3.85200 1.30100 4.54300
H 0.66900 1.09600 4.96600
H 1.13000 -0.63900 5.18900
H -0.84400 0.02600 7.12500
H 0.06200 1.47700 6.92100
H -1.34400 5.18600 1.93800
H -1.65100 5.96300 0.43200
H 0.00700 6.02000 1.08400
H -0.63500 6.74400 -1.40500
H 0.66500 6.97000 -2.70400
H 1.04800 6.46600 -1.03600
H 0.60800 0.50100 -4.89100
H -0.69200 -2.15600 -4.54700
H -1.26700 0.74000 -6.12900
H -2.20400 0.71400 -4.59600
H -1.96700 -0.72000 -5.45300
H 1.35600 -1.75900 -5.96700
H 1.45200 -3.15700 -4.90200
H 2.71400 -0.52200 -4.79800
H 3.48700 -2.12100 -4.52900
H 2.49500 -1.30300 -3.24000
H 0.86700 -6.33300 -0.08400
H 0.40400 -5.64200 -1.68000
H -0.89100 -5.99900 -0.46300
H -1.28300 -3.58100 4.02800
H 0.69800 -4.47800 7.75500
H 0.83300 -2.61900 7.68000
H 2.00000 -3.75400 6.97600
Mg 10.51742 0.95458 0.79821
C 9.93590 2.36871 4.04492
C 9.46712 3.92112 -0.51752
C 10.58857 -0.40510 -2.06774
C 10.41699 -2.18781 2.30186
N 9.81798 2.82771 1.74395
C 9.69772 3.27016 2.98658
C 9.37786 4.78474 3.10191
C 8.70312 4.99846 1.66041
C 9.39395 3.87004 0.89745
C 7.20654 4.73482 1.65139
C 10.67113 5.65798 3.26593
C 10.41961 7.10587 3.69266
H 11.38334 7.74640 4.58340
N 10.56499 1.77131 -1.00990
C 10.11636 2.99431 -1.36242
C 10.36131 3.11137 -2.80826
C 10.84002 1.79501 -3.31101
C 10.65931 0.97911 -2.12706
C 10.21536 4.40470 -3.55620
C 11.36070 1.34216 -4.64143
O 11.49500 0.09928 -4.92434
C 11.62035 2.39322 -5.63609
N 10.29427 -1.01312 0.16521
C 10.42261 -1.34063 -1.13256
C 10.49622 -2.83815 -1.31252
C 10.63430 -3.44179 0.16197
C 10.52199 -2.13722 0.98104
C 9.30249 -3.48305 -2.01644
C 11.84344 -4.37981 0.42804
C 13.13251 -3.59345 0.35518
N 10.41615 0.20044 2.82035
C 10.35845 -1.15132 3.22470
C 10.18315 -1.15987 4.69155
C 10.12749 0.19836 5.03883
C 10.23856 0.99684 3.86853
C 10.04925 -2.31913 5.50660
C 9.98936 1.13808 6.12811
O 9.94671 1.04645 7.35430
C 9.73219 2.58351 5.51903
C 10.64609 3.55177 6.21885
O 11.87953 3.46618 6.08501
O 9.91115 4.54508 6.75136
C 10.77414 5.53670 7.44689
H 8.94226 4.72428 -1.03552
H 10.71974 -0.92514 -3.01948
H 10.47506 -3.12677 2.85654
H 8.67357 5.04202 3.88394
H 8.97058 5.96368 1.23830
H 6.86285 4.33139 2.59227
H 7.03755 4.02588 0.85145
H 6.66557 5.64251 1.36894
H 11.11608 5.82813 2.27709
H 11.35959 5.19523 3.94602
H 9.39742 7.25537 4.06107
H 10.48166 7.74416 2.80792
H 9.69099 5.15908 -2.95674
H 9.54304 4.21238 -4.39933
H 11.16666 4.77848 -3.94090
H 10.70375 2.94747 -5.82346
H 12.07125 1.88301 -6.48947
H 12.33790 3.10531 -5.21342
H 11.36996 -3.11587 -1.88919
H 9.76486 -4.05870 0.43277
H 9.58587 -4.05735 -2.91864
H 8.59354 -2.70540 -2.26782
H 8.70489 -4.14871 -1.39597
H 11.90436 -5.14813 -0.34664
H 11.79220 -4.88989 1.38417
H 13.34383 -3.56488 -0.71795
H 13.92407 -4.10413 0.89988
H 12.98264 -2.56021 0.68926
H 10.66416 -2.15704 6.38188
H 10.34744 -3.21815 4.97123
H 8.97406 -2.29612 5.70331
H 8.68057 2.82422 5.67938
H 10.40303 5.61902 8.47314
H 10.74070 6.45052 6.82434
H 11.80989 5.26732 7.61751
