158

Mg 0.00000 0.00000 0.00000
C -0.21700 -2.21800 2.80100
C -1.25500 2.44200 2.02600
C -0.24500 1.85000 -2.56400
C 0.14600 -2.82400 -2.03700
N -0.61700 -0.00900 2.12600
C -0.59400 -0.90800 3.10500
C -0.93600 -0.30900 4.50200
C -1.77300 0.96400 4.03200
C -1.15500 1.16800 2.66000
C -3.26300 0.68500 3.86300
C 0.34500 0.11000 5.29900
C 0.12400 0.39700 6.78700
H 1.16800 0.03300 7.73300
N -0.18500 1.96100 -0.15200
C -0.70300 2.80000 0.77700
C -0.62000 4.15600 0.19300
C -0.18700 4.01500 -1.22500
C -0.21400 2.58300 -1.38000
C -0.88700 5.40600 0.97400
C 0.18100 5.01300 -2.27700
O 0.30300 4.69000 -3.50800
C 0.31000 6.41400 -1.83700
N -0.26500 -0.41300 -2.02900
C -0.27900 0.56900 -2.93700
C -0.19600 0.02400 -4.33200
C 0.12400 -1.53300 -4.18000
C 0.08600 -1.63200 -2.63500
C -1.45100 0.20500 -5.19700
C 1.37300 -2.07000 -4.92300
C 2.62600 -1.49000 -4.30600
N 0.15000 -2.14400 0.30300
C 0.17300 -3.13600 -0.68800
C 0.17300 -4.43800 0.00400
C 0.13300 -4.11100 1.35800
C 0.08300 -2.69500 1.50200
C 0.14900 -5.71500 -0.62300
C 0.09600 -4.62900 2.71600
O 0.20800 -5.74700 3.22100
C -0.25500 -3.42800 3.70100
C 0.71700 -3.48200 4.84800
O 1.93100 -3.25500 4.66900
O 0.03800 -3.55600 6.00300
C 0.94300 -3.58300 7.18300
H -1.85900 3.22000 2.49700
H -0.21800 2.45300 -3.47400
H 0.27600 -3.74700 -2.60500
H -1.55400 -0.94900 5.13200
H -1.58500 1.83100 4.66500
H -3.48400 -0.37700 3.96900
H -3.51100 1.02700 2.85800
H -3.85200 1.30100 4.54300
H 0.66900 1.09600 4.96600
H 1.13000 -0.63900 5.18900
H -0.84400 0.02600 7.12500
H 0.06200 1.47700 6.92100
H -1.34400 5.18600 1.93800
H -1.65100 5.96300 0.43200
H 0.00700 6.02000 1.08400
H -0.63500 6.74400 -1.40500
H 0.66500 6.97000 -2.70400
H 1.04800 6.46600 -1.03600
H 0.60800 0.50100 -4.89100
H -0.69200 -2.15600 -4.54700
H -1.26700 0.74000 -6.12900
H -2.20400 0.71400 -4.59600
H -1.96700 -0.72000 -5.45300
H 1.35600 -1.75900 -5.96700
H 1.45200 -3.15700 -4.90200
H 2.71400 -0.52200 -4.79800
H 3.48700 -2.12100 -4.52900
H 2.49500 -1.30300 -3.24000
H 0.86700 -6.33300 -0.08400
H 0.40400 -5.64200 -1.68000
H -0.89100 -5.99900 -0.46300
H -1.28300 -3.58100 4.02800
H 0.69800 -4.47800 7.75500
H 0.83300 -2.61900 7.68000
H 2.00000 -3.75400 6.97600
Mg 7.88314 0.70970 0.59883
C 8.05176 -0.63172 -2.71544
C 7.20418 -2.45319 1.68428
C 7.28202 1.93754 3.46024
C 7.44785 3.84819 -0.85239
N 7.68175 -1.21542 -0.47542
C 7.82910 -1.60424 -1.73806
C 7.79994 -3.15185 -1.91534
C 6.97729 -3.53977 -0.60585
C 7.33602 -2.35049 0.26756
C 5.46687 -3.55578 -0.81766
C 9.23436 -3.77943 -1.89765
C 9.31982 -5.22811 -2.38692
H 10.49726 -5.64727 -3.13211
N 7.80616 -0.15482 2.37352
C 7.53206 -1.45671 2.62894
C 7.59452 -1.60559 4.09885
C 7.73990 -0.24558 4.68818
C 7.58686 0.57963 3.51729
C 7.56607 -2.93243 4.79343
C 7.96839 0.23461 6.08652
O 7.83230 1.46276 6.41470
C 8.27333 -0.79747 7.09393
N 7.21042 2.58321 1.22736
C 7.09099 2.87297 2.52765
C 6.87050 4.34111 2.74188
C 7.10713 5.03527 1.32347
C 7.35646 3.76285 0.47668
C 5.48936 4.73884 3.28063
C 8.15302 6.17682 1.26499
C 9.53677 5.61810 1.51027
N 7.94209 1.52823 -1.41054
C 7.70919 2.85921 -1.78593
C 7.75219 2.90643 -3.25902
C 7.99221 1.58806 -3.64130
C 8.06666 0.76472 -2.48162
C 7.52301 4.05778 -4.06295
C 8.17859 0.67926 -4.76077
O 8.30829 0.81786 -5.97792
C 8.10327 -0.81374 -4.21202
C 9.26937 -1.56932 -4.78874
O 10.43987 -1.28694 -4.46080
O 8.81852 -2.64971 -5.44451
C 9.92710 -3.45982 -6.01630
H 6.75478 -3.35310 2.10870
H 7.17665 2.42210 4.43315
H 7.40473 4.80721 -1.37189
H 7.27078 -3.49769 -2.80349
H 7.34042 -4.46358 -0.15592
H 5.19846 -3.17149 -1.80163
H 5.05640 -2.91771 -0.03480
H 5.06084 -4.55130 -0.63640
H 9.55541 -3.91325 -0.86465
H 9.93154 -3.16457 -2.46792
H 8.41067 -5.52652 -2.90972
H 9.35782 -5.88136 -1.51513
H 7.28651 -3.73516 4.11224
H 6.75267 -2.89525 5.51779
H 8.50427 -3.14808 5.30492
H 7.45212 -1.51330 7.13575
H 8.49420 -0.26141 8.01626
H 9.15175 -1.35715 6.77131
H 7.58426 4.74307 3.45980
H 6.19594 5.48924 0.93318
H 5.52898 5.30645 4.21066
H 4.90044 3.83013 3.40187
H 4.87259 5.30540 2.58348
H 7.95930 6.90903 2.04811
H 8.16062 6.70512 0.31153
H 9.59526 5.58136 2.59750
H 10.29495 6.28651 1.10087
H 9.62349 4.59478 1.14452
H 8.28665 4.04378 -4.84054
H 7.57710 4.97119 -3.47104
H 6.51546 3.85391 -4.42508
H 7.14806 -1.22109 -4.54180
H 9.73497 -3.55787 -7.08480
H 9.97911 -4.37453 -5.42553
H 10.91150 -2.99059 -6.02642
