79

Mg 7.88314 0.70970 0.59883
C 7.27077 3.77433 2.34390
C 7.07191 2.35810 -2.27654
C 7.97523 -2.08348 -0.89994
C 7.53546 -0.92840 3.65520
N 7.26801 2.80068 0.21146
C 7.12948 3.89095 0.95931
C 6.89424 5.18608 0.12583
C 6.29588 4.52849 -1.19763
C 6.94414 3.15858 -1.10267
C 4.78053 4.35835 -1.16195
C 8.22668 5.95416 -0.16807
C 8.05535 7.38423 -0.68855
H 9.01617 8.39788 -0.28027
N 8.04682 0.29299 -1.32533
C 7.68196 1.08777 -2.35997
C 8.00417 0.33081 -3.58874
C 8.40970 -1.04368 -3.18326
C 8.13139 -1.00725 -1.77025
C 7.95920 0.93095 -4.96044
C 8.95076 -2.20900 -3.94969
O 9.01756 -3.38230 -3.44624
C 9.32319 -1.95621 -5.35341
N 7.55546 -1.25258 1.23107
C 7.71726 -2.28332 0.39419
C 7.70705 -3.59058 1.12965
C 7.74740 -3.22406 2.68328
C 7.68806 -1.68122 2.56339
C 6.50606 -4.50525 0.85211
C 8.88447 -3.85524 3.52537
C 10.21823 -3.28767 3.09402
N 7.65234 1.29945 2.67488
C 7.50317 0.45037 3.78099
C 7.27186 1.30936 4.95687
C 7.28613 2.60619 4.44709
C 7.48586 2.55893 3.03778
C 7.02518 0.85760 6.28334
C 7.15453 4.01960 4.76143
O 7.06642 4.67181 5.80275
C 7.01765 4.82612 3.39519
C 7.96161 5.99569 3.46129
O 9.19713 5.82060 3.47555
O 7.27683 7.13167 3.25840
C 8.15949 8.32854 3.28202
H 6.61299 2.70496 -3.20445
H 8.11066 -3.06463 -1.35976
H 7.50254 -1.36473 4.65520
H 6.17136 5.87894 0.55689
H 6.63178 5.04519 -2.09647
H 4.37565 4.59889 -0.17903
H 4.59956 3.31048 -1.40219
H 4.30724 4.93424 -1.95764
H 8.72023 5.50160 -1.02810
H 8.86783 5.96594 0.71404
H 7.03616 7.74261 -0.54113
H 8.18412 7.37149 -1.77089
H 7.46779 1.90308 -4.95635
H 7.30682 0.29935 -5.56309
H 8.94703 0.98208 -5.41860
H 8.44982 -1.59745 -5.89845
H 9.77308 -2.87973 -5.71614
H 10.05648 -1.14982 -5.38444
H 8.58411 -4.18642 0.88030
H 6.83552 -3.52652 3.19870
H 6.78412 -5.49494 0.48893
H 5.85272 -3.99776 0.14297
H 5.83598 -4.64949 1.69922
H 8.92555 -4.93143 3.36088
H 8.77075 -3.68755 4.59645
H 10.47676 -3.90168 2.23205
H 10.95530 -3.40153 3.88962
H 10.11910 -2.25997 2.74405
H 7.62155 1.49313 6.93787
H 7.29212 -0.19250 6.40008
H 5.95095 1.02612 6.35755
H 5.97783 5.14296 3.32104
H 7.75903 9.00788 4.03459
H 8.21952 8.68960 2.25516
H 9.17045 8.17452 3.66092
