158

Mg 0.00000 0.00000 0.00000
C -0.21700 -2.21800 2.80100
C -1.25500 2.44200 2.02600
C -0.24500 1.85000 -2.56400
C 0.14600 -2.82400 -2.03700
N -0.61700 -0.00900 2.12600
C -0.59400 -0.90800 3.10500
C -0.93600 -0.30900 4.50200
C -1.77300 0.96400 4.03200
C -1.15500 1.16800 2.66000
C -3.26300 0.68500 3.86300
C 0.34500 0.11000 5.29900
C 0.12400 0.39700 6.78700
H 1.16800 0.03300 7.73300
N -0.18500 1.96100 -0.15200
C -0.70300 2.80000 0.77700
C -0.62000 4.15600 0.19300
C -0.18700 4.01500 -1.22500
C -0.21400 2.58300 -1.38000
C -0.88700 5.40600 0.97400
C 0.18100 5.01300 -2.27700
O 0.30300 4.69000 -3.50800
C 0.31000 6.41400 -1.83700
N -0.26500 -0.41300 -2.02900
C -0.27900 0.56900 -2.93700
C -0.19600 0.02400 -4.33200
C 0.12400 -1.53300 -4.18000
C 0.08600 -1.63200 -2.63500
C -1.45100 0.20500 -5.19700
C 1.37300 -2.07000 -4.92300
C 2.62600 -1.49000 -4.30600
N 0.15000 -2.14400 0.30300
C 0.17300 -3.13600 -0.68800
C 0.17300 -4.43800 0.00400
C 0.13300 -4.11100 1.35800
C 0.08300 -2.69500 1.50200
C 0.14900 -5.71500 -0.62300
C 0.09600 -4.62900 2.71600
O 0.20800 -5.74700 3.22100
C -0.25500 -3.42800 3.70100
C 0.71700 -3.48200 4.84800
O 1.93100 -3.25500 4.66900
O 0.03800 -3.55600 6.00300
C 0.94300 -3.58300 7.18300
H -1.85900 3.22000 2.49700
H -0.21800 2.45300 -3.47400
H 0.27600 -3.74700 -2.60500
H -1.55400 -0.94900 5.13200
H -1.58500 1.83100 4.66500
H -3.48400 -0.37700 3.96900
H -3.51100 1.02700 2.85800
H -3.85200 1.30100 4.54300
H 0.66900 1.09600 4.96600
H 1.13000 -0.63900 5.18900
H -0.84400 0.02600 7.12500
H 0.06200 1.47700 6.92100
H -1.34400 5.18600 1.93800
H -1.65100 5.96300 0.43200
H 0.00700 6.02000 1.08400
H -0.63500 6.74400 -1.40500
H 0.66500 6.97000 -2.70400
H 1.04800 6.46600 -1.03600
H 0.60800 0.50100 -4.89100
H -0.69200 -2.15600 -4.54700
H -1.26700 0.74000 -6.12900
H -2.20400 0.71400 -4.59600
H -1.96700 -0.72000 -5.45300
H 1.35600 -1.75900 -5.96700
H 1.45200 -3.15700 -4.90200
H 2.71400 -0.52200 -4.79800
H 3.48700 -2.12100 -4.52900
H 2.49500 -1.30300 -3.24000
H 0.86700 -6.33300 -0.08400
H 0.40400 -5.64200 -1.68000
H -0.89100 -5.99900 -0.46300
H -1.28300 -3.58100 4.02800
H 0.69800 -4.47800 7.75500
H 0.83300 -2.61900 7.68000
H 2.00000 -3.75400 6.97600
Mg 15.77438 1.41385 1.19368
C 15.72803 2.50698 -2.22422
C 15.26451 -1.75230 0.03173
C 15.36082 0.48411 4.19900
C 15.13827 4.71482 2.11275
N 15.54343 0.60819 -0.85323
C 15.60528 1.10952 -2.07765
C 15.61217 0.04614 -3.20846
C 14.89486 -1.15230 -2.41594
C 15.28327 -0.76897 -0.98945
C 13.37927 -1.12222 -2.52274
C 17.06548 -0.34656 -3.65083
C 17.14754 -1.14415 -4.95423
H 18.28311 -0.91138 -5.84236
N 15.85983 -0.39705 2.00108
C 15.64788 -1.57599 1.37942
C 15.80815 -2.61040 2.41309
C 15.96944 -1.93646 3.73010
C 15.70979 -0.56076 3.35578
C 15.87795 -4.07559 2.09408
C 16.29007 -2.44744 5.10206
O 16.14590 -1.71512 6.14406
C 16.68850 -3.85928 5.19928
N 15.10761 2.40288 2.89649
C 15.07332 1.78118 4.08823
C 14.82496 2.76275 5.20859
C 14.94074 4.21241 4.54326
C 15.15718 3.79862 3.07107
C 13.47728 2.63501 5.91841
C 15.94737 5.20427 5.18791
C 17.36190 4.71502 4.97543
N 15.66459 3.31761 0.17796
C 15.35956 4.57265 0.74885
C 15.29105 5.54915 -0.35757
C 15.54023 4.78409 -1.50695
C 15.72930 3.42304 -1.14460
C 14.98037 6.93223 -0.22840
C 15.67580 4.81655 -2.94545
O 15.70260 5.70549 -3.79562
C 15.67815 3.32206 -3.48666
C 16.81878 3.18127 -4.45706
O 17.99566 3.28276 -4.06815
O 16.34318 2.73681 -5.63461
C 17.43859 2.57072 -6.62673
H 14.88020 -2.74372 -0.20968
H 15.31439 0.23671 5.26207
H 15.04168 5.78140 2.32664
H 15.03315 0.31133 -4.08492
H 15.32403 -2.11467 -2.68243
H 13.02791 -0.22904 -3.01764
H 13.01187 -1.16058 -1.50559
H 13.01745 -2.03301 -3.00842
H 17.46437 -1.09087 -2.94966
H 17.69089 0.52227 -3.71887
H 16.20666 -1.11218 -5.51698
H 17.27618 -2.20072 -4.70700
H 15.56361 -4.27815 1.06279
H 15.12223 -4.57355 2.71116
H 16.85589 -4.50864 2.31496
H 15.89423 -4.48683 4.80206
H 16.96318 -4.01410 6.24448
H 17.56516 -4.02008 4.56192
H 15.57980 2.66865 5.97961
H 13.98470 4.75506 4.57986
H 13.57182 2.47662 7.00930
H 12.92702 1.82268 5.46249
H 12.80146 3.47743 5.78134
H 15.79401 5.25042 6.26888
H 15.86068 6.21633 4.80684
H 17.49769 3.99300 5.78619
H 18.06847 5.53844 5.05775
H 17.45147 4.16887 4.02920
H 15.67613 7.46797 -0.86038
H 15.04880 7.26010 0.80678
H 13.94958 6.93544 -0.59270
H 14.71247 3.14403 -3.96135
H 17.16626 3.16333 -7.50555
H 17.54924 1.47936 -6.76967
H 18.40644 2.99113 -6.37979
