158

Mg 0.00000 0.00000 0.00000
C -0.21700 -2.21800 2.80100
C -1.25500 2.44200 2.02600
C -0.24500 1.85000 -2.56400
C 0.14600 -2.82400 -2.03700
N -0.61700 -0.00900 2.12600
C -0.59400 -0.90800 3.10500
C -0.93600 -0.30900 4.50200
C -1.77300 0.96400 4.03200
C -1.15500 1.16800 2.66000
C -3.26300 0.68500 3.86300
C 0.34500 0.11000 5.29900
C 0.12400 0.39700 6.78700
H 1.16800 0.03300 7.73300
N -0.18500 1.96100 -0.15200
C -0.70300 2.80000 0.77700
C -0.62000 4.15600 0.19300
C -0.18700 4.01500 -1.22500
C -0.21400 2.58300 -1.38000
C -0.88700 5.40600 0.97400
C 0.18100 5.01300 -2.27700
O 0.30300 4.69000 -3.50800
C 0.31000 6.41400 -1.83700
N -0.26500 -0.41300 -2.02900
C -0.27900 0.56900 -2.93700
C -0.19600 0.02400 -4.33200
C 0.12400 -1.53300 -4.18000
C 0.08600 -1.63200 -2.63500
C -1.45100 0.20500 -5.19700
C 1.37300 -2.07000 -4.92300
C 2.62600 -1.49000 -4.30600
N 0.15000 -2.14400 0.30300
C 0.17300 -3.13600 -0.68800
C 0.17300 -4.43800 0.00400
C 0.13300 -4.11100 1.35800
C 0.08300 -2.69500 1.50200
C 0.14900 -5.71500 -0.62300
C 0.09600 -4.62900 2.71600
O 0.20800 -5.74700 3.22100
C -0.25500 -3.42800 3.70100
C 0.71700 -3.48200 4.84800
O 1.93100 -3.25500 4.66900
O 0.03800 -3.55600 6.00300
C 0.94300 -3.58300 7.18300
H -1.85900 3.22000 2.49700
H -0.21800 2.45300 -3.47400
H 0.27600 -3.74700 -2.60500
H -1.55400 -0.94900 5.13200
H -1.58500 1.83100 4.66500
H -3.48400 -0.37700 3.96900
H -3.51100 1.02700 2.85800
H -3.85200 1.30100 4.54300
H 0.66900 1.09600 4.96600
H 1.13000 -0.63900 5.18900
H -0.84400 0.02600 7.12500
H 0.06200 1.47700 6.92100
H -1.34400 5.18600 1.93800
H -1.65100 5.96300 0.43200
H 0.00700 6.02000 1.08400
H -0.63500 6.74400 -1.40500
H 0.66500 6.97000 -2.70400
H 1.04800 6.46600 -1.03600
H 0.60800 0.50100 -4.89100
H -0.69200 -2.15600 -4.54700
H -1.26700 0.74000 -6.12900
H -2.20400 0.71400 -4.59600
H -1.96700 -0.72000 -5.45300
H 1.35600 -1.75900 -5.96700
H 1.45200 -3.15700 -4.90200
H 2.71400 -0.52200 -4.79800
H 3.48700 -2.12100 -4.52900
H 2.49500 -1.30300 -3.24000
H 0.86700 -6.33300 -0.08400
H 0.40400 -5.64200 -1.68000
H -0.89100 -5.99900 -0.46300
H -1.28300 -3.58100 4.02800
H 0.69800 -4.47800 7.75500
H 0.83300 -2.61900 7.68000
H 2.00000 -3.75400 6.97600
Mg 31.53002 2.84727 2.40117
C 33.67515 2.37912 5.23989
C 28.89220 2.70359 4.55891
C 29.60024 2.80615 -0.11710
C 34.19027 1.82202 0.39676
N 31.42497 2.57405 4.59356
C 32.30798 2.46816 5.57510
C 31.69687 2.53782 7.00032
C 30.20458 2.06233 6.64559
C 30.14868 2.50251 5.18415
C 30.02518 0.55419 6.69735
C 31.71191 3.99316 7.58664
C 31.41725 4.08572 9.08543
H 32.11091 5.10378 9.86957
N 29.59221 3.25215 2.26141
C 28.66931 3.16209 3.24194
C 27.38989 3.54805 2.62690
C 27.60410 3.71426 1.16361
C 28.96552 3.23320 1.04018
C 26.14546 3.80035 3.42762
C 26.72434 4.21047 0.05636
O 27.03531 4.04547 -1.17607
C 25.44374 4.81196 0.45605
N 31.77607 2.18172 0.44699
C 30.79646 2.32937 -0.46213
C 31.29633 2.03225 -1.85578
C 32.88341 1.88840 -1.72139
C 33.02311 2.04581 -0.19132
C 30.72560 0.77604 -2.51348
C 33.75215 2.79102 -2.63968
C 33.59479 4.23977 -2.23750
N 33.61951 2.38890 2.70446
C 34.54717 1.95405 1.73264
C 35.81167 1.66117 2.43811
C 35.52281 1.92606 3.78528
C 34.16769 2.33445 3.91318
C 37.00432 1.16804 1.83767
C 36.05307 1.94285 5.12962
O 37.16626 1.77649 5.62649
C 34.84451 2.11539 6.14745
C 35.21915 3.18512 7.13631
O 35.37273 4.36237 6.76601
O 35.12147 2.68704 8.38240
C 35.47258 3.71406 9.39914
H 27.98951 2.44648 5.11382
H 29.00934 2.87856 -1.03311
H 35.09490 1.59176 -0.17007
H 32.14202 1.86030 7.71906
H 29.46757 2.60183 7.23475
H 30.96355 0.04183 6.84931
H 29.59240 0.27657 5.74516
H 29.28226 0.28873 7.45493
H 30.85092 4.54737 7.19131
H 32.64222 4.48143 7.37043
H 31.48334 3.10881 9.57961
H 30.37371 4.38221 9.21626
H 26.24980 3.43842 4.45792
H 25.35636 3.17364 2.99818
H 25.82626 4.84416 3.39231
H 24.86533 4.08642 1.02306
H 24.99628 5.18667 -0.46658
H 25.64674 5.65009 1.13203
H 31.07343 2.85070 -2.52925
H 33.22236 0.87072 -1.96485
H 30.23076 0.97706 -3.48240
H 30.03408 0.31295 -1.82219
H 31.44580 -0.02132 -2.68875
H 33.41098 2.71757 -3.67523
H 34.80556 2.53181 -2.62850
H 32.67589 4.53976 -2.75008
H 34.44590 4.82633 -2.57750
H 33.41623 4.33191 -1.15988
H 37.82388 1.72904 2.26674
H 36.97574 1.26981 0.75480
H 36.96327 0.12199 2.15287
H 34.68216 1.15073 6.62979
H 36.27195 3.29242 10.01632
H 34.52358 3.96726 9.90808
H 35.93627 4.62860 9.04834
