158

Mg 0.00000 0.00000 0.00000
C -0.21700 -2.21800 2.80100
C -1.25500 2.44200 2.02600
C -0.24500 1.85000 -2.56400
C 0.14600 -2.82400 -2.03700
N -0.61700 -0.00900 2.12600
C -0.59400 -0.90800 3.10500
C -0.93600 -0.30900 4.50200
C -1.77300 0.96400 4.03200
C -1.15500 1.16800 2.66000
C -3.26300 0.68500 3.86300
C 0.34500 0.11000 5.29900
C 0.12400 0.39700 6.78700
H 1.16800 0.03300 7.73300
N -0.18500 1.96100 -0.15200
C -0.70300 2.80000 0.77700
C -0.62000 4.15600 0.19300
C -0.18700 4.01500 -1.22500
C -0.21400 2.58300 -1.38000
C -0.88700 5.40600 0.97400
C 0.18100 5.01300 -2.27700
O 0.30300 4.69000 -3.50800
C 0.31000 6.41400 -1.83700
N -0.26500 -0.41300 -2.02900
C -0.27900 0.56900 -2.93700
C -0.19600 0.02400 -4.33200
C 0.12400 -1.53300 -4.18000
C 0.08600 -1.63200 -2.63500
C -1.45100 0.20500 -5.19700
C 1.37300 -2.07000 -4.92300
C 2.62600 -1.49000 -4.30600
N 0.15000 -2.14400 0.30300
C 0.17300 -3.13600 -0.68800
C 0.17300 -4.43800 0.00400
C 0.13300 -4.11100 1.35800
C 0.08300 -2.69500 1.50200
C 0.14900 -5.71500 -0.62300
C 0.09600 -4.62900 2.71600
O 0.20800 -5.74700 3.22100
C -0.25500 -3.42800 3.70100
C 0.71700 -3.48200 4.84800
O 1.93100 -3.25500 4.66900
O 0.03800 -3.55600 6.00300
C 0.94300 -3.58300 7.18300
H -1.85900 3.22000 2.49700
H -0.21800 2.45300 -3.47400
H 0.27600 -3.74700 -2.60500
H -1.55400 -0.94900 5.13200
H -1.58500 1.83100 4.66500
H -3.48400 -0.37700 3.96900
H -3.51100 1.02700 2.85800
H -3.85200 1.30100 4.54300
H 0.66900 1.09600 4.96600
H 1.13000 -0.63900 5.18900
H -0.84400 0.02600 7.12500
H 0.06200 1.47700 6.92100
H -1.34400 5.18600 1.93800
H -1.65100 5.96300 0.43200
H 0.00700 6.02000 1.08400
H -0.63500 6.74400 -1.40500
H 0.66500 6.97000 -2.70400
H 1.04800 6.46600 -1.03600
H 0.60800 0.50100 -4.89100
H -0.69200 -2.15600 -4.54700
H -1.26700 0.74000 -6.12900
H -2.20400 0.71400 -4.59600
H -1.96700 -0.72000 -5.45300
H 1.35600 -1.75900 -5.96700
H 1.45200 -3.15700 -4.90200
H 2.71400 -0.52200 -4.79800
H 3.48700 -2.12100 -4.52900
H 2.49500 -1.30300 -3.24000
H 0.86700 -6.33300 -0.08400
H 0.40400 -5.64200 -1.68000
H -0.89100 -5.99900 -0.46300
H -1.28300 -3.58100 4.02800
H 0.69800 -4.47800 7.75500
H 0.83300 -2.61900 7.68000
H 2.00000 -3.75400 6.97600
Mg 15.76628 1.41940 1.19766
C 15.34135 4.80001 0.10078
C 15.21662 0.45994 -2.03040
C 15.68577 -1.58212 2.21796
C 15.15547 2.54946 4.43734
N 15.34554 2.57661 -0.64204
C 15.26806 3.87011 -0.93872
C 15.17727 4.14864 -2.46893
C 14.58137 2.74845 -2.94473
C 15.10780 1.86749 -1.82549
C 13.05692 2.69940 -2.93273
C 16.58056 4.42091 -3.10796
C 16.55171 5.01866 -4.51765
H 17.57643 5.98196 -4.89093
N 15.97428 -0.27675 0.20638
C 15.72080 -0.48270 -1.10839
C 16.02913 -1.90602 -1.36485
C 16.30060 -2.55636 -0.05280
C 15.96780 -1.49014 0.85704
C 16.09181 -2.49977 -2.73863
C 16.77332 -3.92538 0.32196
O 16.72036 -4.35790 1.52392
C 17.22371 -4.79035 -0.78348
N 15.24898 0.55436 3.02571
C 15.35833 -0.76437 3.22061
C 15.20781 -1.11630 4.67093
C 15.21414 0.26907 5.46495
C 15.28959 1.23374 4.25582
C 13.94685 -1.91006 5.03961
C 16.25819 0.42481 6.59903
C 17.65167 0.45989 6.01246
N 15.49967 3.34635 2.16039
C 15.23385 3.58142 3.51713
C 15.02678 5.03309 3.67156
C 15.17108 5.54293 2.38273
C 15.42458 4.47416 1.47622
C 14.68808 5.70263 4.88046
C 15.14566 6.73912 1.55669
O 15.06939 7.94765 1.78282
C 15.13393 6.29241 0.02825
C 16.16919 7.11198 -0.69277
O 17.38398 6.96996 -0.44481
O 15.59124 7.75561 -1.71856
C 16.56953 8.56434 -2.49384
H 14.82744 0.02954 -2.95519
H 15.75734 -2.59047 2.63095
H 15.04446 2.98489 5.43210
H 14.49782 4.95537 -2.74453
H 14.99656 2.43364 -3.90193
H 12.63314 3.59333 -2.47532
H 12.79875 1.81479 -2.35022
H 12.66716 2.52213 -3.93545
H 17.06971 3.47011 -3.31959
H 17.18319 5.05716 -2.45884
H 15.56096 5.39800 -4.76951
H 16.72386 4.21456 -5.23318
H 15.68402 -1.82147 -3.48707
H 15.41432 -3.35337 -2.74778
H 17.09864 -2.82673 -2.99885
H 16.40698 -4.92135 -1.49365
H 17.60917 -5.69684 -0.31813
H 18.02278 -4.28354 -1.32532
H 16.04135 -1.72812 5.01342
H 14.25943 0.46471 5.95375
H 14.15568 -2.85734 5.53736
H 13.36849 -2.06576 4.12937
H 13.23236 -1.37045 5.66070
H 16.21556 -0.42964 7.27361
H 16.11449 1.32579 7.19554
H 17.89336 -0.59596 5.89585
H 18.34284 0.94470 6.70272
H 17.65383 0.90643 5.01793
H 15.30796 6.59839 4.91703
H 14.86082 5.06568 5.74767
H 13.62965 5.90057 4.71194
H 14.12837 6.48189 -0.34600
H 16.19658 9.58846 -2.51192
H 16.70233 8.05727 -3.44969
H 17.54736 8.70952 -2.03327
