79

Mg 15.75626 1.42240 1.19938
C 13.97047 -1.38779 -0.13961
C 14.13779 3.35552 -1.09806
C 17.63697 3.83240 2.04921
C 18.02046 -0.84562 2.56875
N 14.26881 0.93179 -0.36237
C 13.61895 -0.15966 -0.73758
C 12.47531 0.09112 -1.75678
C 13.01102 1.46840 -2.38526
C 13.83084 1.97516 -1.20045
C 13.94890 1.26744 -3.56396
C 11.08326 0.28158 -1.05825
C 9.87803 0.22222 -1.99934
H 8.64033 -0.37727 -1.50822
N 15.54274 3.37637 0.92559
C 14.83135 3.98929 -0.04371
C 15.00948 5.43263 0.17808
C 16.01693 5.62058 1.25717
C 16.46304 4.25426 1.44219
C 14.20218 6.47248 -0.54331
C 16.50798 6.83157 1.99105
O 17.55890 6.79466 2.72388
C 15.77628 8.08423 1.75243
N 17.67860 1.50071 1.98729
C 18.24357 2.67567 2.31627
C 19.50821 2.46817 3.11502
C 19.54569 0.90758 3.46250
C 18.28702 0.44712 2.69497
C 20.80869 2.86520 2.41681
C 19.67909 0.52336 4.96159
C 18.42600 0.91867 5.70918
N 15.88499 -0.72621 1.38634
C 16.93181 -1.47012 1.97358
C 16.62405 -2.89899 1.75905
C 15.42171 -2.88668 1.03606
C 15.01972 -1.54457 0.79806
C 17.43486 -3.99511 2.16800
C 14.40669 -3.70375 0.41088
O 14.17034 -4.91023 0.36326
C 13.48775 -2.76854 -0.48762
C 12.05199 -3.10442 -0.19047
O 11.57042 -2.88134 0.93422
O 11.42874 -3.42877 -1.33796
C 9.99898 -3.75928 -1.09640
H 13.85851 4.01170 -1.92287
H 18.26737 4.62518 2.45858
H 18.62627 -1.61629 3.05013
H 12.38442 -0.66064 -2.53161
H 12.19167 2.14919 -2.60102
H 14.19440 0.22610 -3.71050
H 14.83926 1.83704 -3.33189
H 13.52598 1.72269 -4.46408
H 10.99726 1.31824 -0.70799
H 10.95596 -0.42687 -0.26294
H 10.14151 -0.18985 -2.98103
H 9.55567 1.24374 -2.21521
H 13.65969 6.04184 -1.39400
H 14.91328 7.16970 -0.99947
H 13.53990 7.02889 0.12337
H 15.80226 8.32115 0.69146
H 16.21893 8.81519 2.43187
H 14.72367 7.92997 2.01477
H 19.47938 3.03324 4.03858
H 20.40290 0.40549 2.99034
H 21.39820 3.61068 2.98322
H 20.56623 3.24107 1.43169
H 21.48167 2.04004 2.19007
H 20.50232 1.07504 5.42213
H 19.86978 -0.53260 5.12152
H 18.59282 1.97765 5.92786
H 18.32626 0.33771 6.62383
H 17.54374 0.85069 5.06215
H 16.76771 -4.73649 2.58725
H 18.18883 -3.68489 2.88846
H 17.87599 -4.27986 1.20905
H 13.74564 -2.95979 -1.52997
H 9.82863 -4.75960 -1.50632
H 9.42083 -2.92754 -1.54104
H 9.68265 -3.89513 -0.06882
