79

Mg 10.51760 0.95415 0.79631
C 9.90205 3.14319 3.57269
C 9.55880 3.51482 -1.24288
C 10.61656 -1.07889 -1.63769
C 10.31858 -1.71134 3.03265
N 9.84032 3.01508 1.22773
C 9.70484 3.75561 2.31750
C 9.41581 5.25598 2.04376
C 8.77494 5.11391 0.57817
C 9.45617 3.81978 0.13791
C 7.27345 4.88049 0.59794
C 10.72426 6.12157 2.01709
C 10.49585 7.63401 2.06313
H 11.45525 8.46102 2.78982
N 10.61921 1.29277 -1.15653
C 10.20450 2.39611 -1.81375
C 10.48089 2.14456 -3.23659
C 10.94078 0.73684 -3.38337
C 10.71863 0.24535 -2.03832
C 10.37818 3.21241 -4.28664
C 11.47805 -0.04212 -4.54560
O 11.59087 -1.31827 -4.50642
C 11.78043 0.72303 -5.76404
N 10.26436 -1.10542 0.66830
C 10.41153 -1.74855 -0.50330
C 10.45608 -3.24457 -0.30251
C 10.55138 -3.46315 1.27886
C 10.45112 -1.99378 1.74392
C 9.26294 -4.02547 -0.85295
C 11.73421 -4.32439 1.80026
C 13.04132 -3.60198 1.56581
N 10.35939 0.73043 2.93943
C 10.26415 -0.47648 3.66633
C 10.05932 -0.11576 5.08420
C 10.02632 1.28688 5.08054
C 10.17822 1.76603 3.75132
C 9.88387 -1.03253 6.15884
C 9.88689 2.47087 5.89750
O 9.81767 2.68895 7.10638
C 9.67355 3.72243 4.94122
C 10.59412 4.81990 5.40016
O 11.82783 4.68376 5.32257
O 9.87047 5.92640 5.64989
C 10.74074 7.04623 6.09759
H 9.06206 4.17159 -1.95758
H 10.75543 -1.82211 -2.42625
H 10.34504 -2.48291 3.80509
H 8.70176 5.71164 2.71925
H 9.07178 5.93876 -0.06438
H 6.90225 4.73031 1.60083
H 7.10513 3.99712 -0.00403
H 6.75816 5.69752 0.08484
H 11.19255 6.03229 1.02841
H 11.38870 5.83222 2.80793
H 9.46998 7.88718 2.35714
H 10.58952 8.03014 1.04907
H 9.85847 4.10089 -3.90731
H 9.71888 2.82654 -5.07168
H 11.34493 3.46294 -4.72857
H 10.88007 1.22765 -6.10635
H 12.23713 0.00875 -6.45186
H 12.50471 1.50645 -5.51447
H 11.33496 -3.67149 -0.76987
H 9.66345 -3.97884 1.67315
H 9.55178 -4.81129 -1.57623
H 8.57629 -3.32389 -1.30774
H 8.63865 -4.50545 -0.10123
H 11.79390 -5.26265 1.24326
H 11.65271 -4.57874 2.85177
H 13.27469 -3.84562 0.52500
H 13.81047 -3.97319 2.24008
H 12.90733 -2.51578 1.62802
H 10.48449 -0.66699 6.98112
H 10.17308 -2.04142 5.87199
H 8.80571 -0.94383 6.31683
H 8.62441 4.01246 5.01034
H 10.35101 7.38810 7.06139
H 10.73972 7.77611 5.26631
H 11.76674 6.81132 6.35564
