79

Mg 10.51817 0.94527 0.80604
C 8.59005 -0.60611 3.40501
C 11.09056 3.51764 2.97166
C 11.84001 2.54221 -1.59603
C 8.87928 -1.13427 -1.46007
N 9.87090 1.29526 2.89190
C 9.19200 0.60752 3.79769
C 9.22358 1.21728 5.22484
C 9.52741 2.74332 4.82766
C 10.23981 2.51226 3.49658
C 8.27201 3.55755 4.56246
C 10.37208 0.61385 6.10737
C 10.27124 0.93345 7.60050
H 10.70093 -0.08022 8.55983
N 11.74288 2.50681 0.82174
C 11.86161 3.43812 1.79119
C 12.88233 4.38517 1.31646
C 13.23766 4.02880 -0.08406
C 12.25065 3.00248 -0.35342
C 13.47796 5.44724 2.19434
C 14.28342 4.53763 -1.02941
O 14.25860 4.25127 -2.27849
C 15.28388 5.45668 -0.46735
N 10.23178 0.88758 -1.25235
C 10.97424 1.64884 -2.07525
C 10.78493 1.23918 -3.51634
C 9.94241 -0.11933 -3.46967
C 9.70350 -0.21676 -1.94690
C 10.06691 2.25268 -4.40721
C 10.54687 -1.34788 -4.20313
C 11.80246 -1.80482 -3.49596
N 9.14694 -0.71952 0.93345
C 8.56403 -1.42853 -0.13969
C 7.61271 -2.39655 0.44371
C 7.69182 -2.16590 1.82539
C 8.61146 -1.11368 2.08339
C 6.78695 -3.29570 -0.28824
C 7.19855 -2.56609 3.12356
O 6.46696 -3.46547 3.53542
C 7.66379 -1.48833 4.19517
C 8.23489 -2.22417 5.37623
O 9.27718 -2.89267 5.26069
O 7.58287 -1.84344 6.48991
C 8.12096 -2.53795 7.68988
H 11.14202 4.47595 3.48922
H 12.34926 2.98548 -2.45490
H 8.40204 -1.88520 -2.09334
H 8.28772 1.15342 5.76692
H 10.19848 3.21156 5.54305
H 7.38415 2.94289 4.56965
H 8.41318 4.00693 3.58821
H 8.20493 4.38835 5.27070
H 11.31338 1.12553 5.86886
H 10.44132 -0.44759 5.96889
H 9.28371 1.32569 7.87229
H 10.95696 1.75353 7.82692
H 12.90230 5.57390 3.11952
H 13.35953 6.40060 1.66808
H 14.53910 5.28290 2.39343
H 14.78136 6.32552 -0.04894
H 15.99736 5.64021 -1.27305
H 15.79103 4.95546 0.36463
H 11.73860 1.04510 -3.99168
H 8.95324 -0.00155 -3.93605
H 10.65820 2.55076 -5.29355
H 9.81792 3.11814 -3.80760
H 9.09143 1.93662 -4.77293
H 10.84457 -1.07415 -5.21831
H 9.86020 -2.18398 -4.28328
H 12.57018 -1.13890 -3.90123
H 12.01785 -2.84507 -3.73163
H 11.73794 -1.61603 -2.41807
H 6.83462 -4.24821 0.22259
H 7.11247 -3.38183 -1.32284
H 5.82227 -2.78847 -0.20231
H 6.78857 -0.89643 4.46577
H 7.27679 -3.03730 8.17539
H 8.64953 -1.76058 8.27303
H 8.79430 -3.37130 7.52679
