79

Mg 31.53256 2.83880 2.39533
C 31.49665 -0.36827 3.98454
C 30.31368 4.13067 5.30883
C 31.12667 5.59334 0.87731
C 31.65250 1.16089 -0.65686
N 31.01375 1.89927 4.33150
C 31.10286 0.67054 4.83097
C 30.81090 0.60244 6.35985
C 29.92323 1.91881 6.50550
C 30.47285 2.71326 5.33388
C 28.43413 1.67754 6.27996
C 32.11665 0.69399 7.21914
C 31.95711 0.31012 8.69309
H 33.05162 -0.37916 9.35965
N 31.29417 4.66815 3.10209
C 30.79935 5.00917 4.31623
C 30.82327 6.48689 4.36570
C 31.19425 6.98157 3.01080
C 31.19429 5.75242 2.25942
C 30.56256 7.27270 5.61401
C 31.48992 8.34692 2.47552
O 31.56319 8.58467 1.22145
C 31.60551 9.43078 3.46795
N 31.18501 3.31943 0.39387
C 31.10616 4.59327 -0.00625
C 31.13827 4.69870 -1.50218
C 31.50186 3.23999 -2.04043
C 31.53687 2.49050 -0.68570
C 29.84110 5.17941 -2.16721
C 32.72802 3.12262 -2.98020
C 33.99375 3.43524 -2.21384
N 31.74724 0.77828 1.74785
C 31.74854 0.30511 0.42771
C 31.81116 -1.16643 0.49631
C 31.82530 -1.44963 1.86066
C 31.74824 -0.23341 2.59766
C 31.78893 -2.05423 -0.61534
C 31.86275 -2.49803 2.86729
O 32.02429 -3.71899 2.84212
C 31.52864 -1.84688 4.28158
C 32.55305 -2.34463 5.26451
O 33.75185 -2.01337 5.16200
O 31.92950 -2.93162 6.29754
C 32.88787 -3.42178 7.32391
H 29.71349 4.60823 6.08578
H 31.09769 6.52722 0.31209
H 31.77834 0.57418 -1.56867
H 30.23775 -0.26980 6.67470
H 30.11927 2.44025 7.44219
H 28.24355 0.66356 5.92861
H 28.13239 2.40475 5.52590
H 27.86232 1.92024 7.17602
H 32.40153 1.74026 7.32970
H 32.91341 0.09622 6.77510
H 31.01468 -0.20894 8.87002
H 31.87561 1.22646 9.27779
H 30.15546 6.64429 6.40515
H 29.76154 7.97570 5.38624
H 31.44578 7.81739 5.94802
H 30.67365 9.50610 4.02877
H 31.90718 10.31732 2.91127
H 32.37790 9.16669 4.19088
H 31.90430 5.40100 -1.82835
H 30.68500 2.79990 -2.61292
H 29.96952 6.06765 -2.78627
H 29.10445 5.35235 -1.38316
H 29.33610 4.43141 -2.77786
H 32.65593 3.84791 -3.78995
H 32.83375 2.13459 -3.42838
H 34.03610 4.52332 -2.24727
H 34.85844 2.99538 -2.71189
H 33.90719 3.14454 -1.16671
H 32.54532 -2.81296 -0.41492
H 31.99355 -1.52731 -1.54705
H 30.76439 -2.42175 -0.55979
H 30.52059 -2.16671 4.54364
H 32.69064 -4.48443 7.46572
H 32.77778 -2.76694 8.18848
H 33.93807 -3.44470 7.03086
