79

Mg 7.89018 0.70771 0.60650
C 5.74931 -0.61473 3.16519
C 8.75290 3.16631 2.80778
C 9.43279 2.14958 -1.76179
C 6.03261 -1.12701 -1.70194
N 7.26513 1.11564 2.68861
C 6.49369 0.50973 3.57860
C 6.58316 1.09658 5.01289
C 7.08117 2.57621 4.63667
C 7.77603 2.27063 3.31135
C 5.94139 3.54427 4.36631
C 7.63539 0.34498 5.90166
C 7.55623 0.65997 7.39708
H 7.84294 -0.40906 8.34968
N 9.30085 2.10281 0.65414
C 9.52301 3.00222 1.63546
C 10.66054 3.81818 1.18337
C 10.98635 3.43384 -0.21693
C 9.88190 2.54234 -0.50935
C 11.37338 4.78830 2.08011
C 12.09978 3.81657 -1.14429
O 12.05531 3.54794 -2.39676
C 13.20034 4.59708 -0.56028
N 7.62534 0.70677 -1.45558
C 8.46799 1.37682 -2.26112
C 8.24735 1.00843 -3.70887
C 7.24048 -0.23388 -3.68743
C 6.97165 -0.31555 -2.16873
C 7.67372 2.11283 -4.59636
C 7.69539 -1.52134 -4.42783
C 8.87451 -2.13934 -3.71148
N 6.31935 -0.77281 0.69908
C 5.66594 -1.39235 -0.38872
C 4.59324 -2.23891 0.17258
C 4.68286 -2.03368 1.55762
C 5.72388 -1.10791 1.83821
C 3.67067 -3.01995 -0.57906
C 4.12659 -2.38152 2.84536
O 3.28268 -3.18589 3.23847
C 4.70957 -1.38136 3.93450
C 5.16856 -2.19473 5.11360
O 6.12012 -2.98770 5.00247
O 4.55518 -1.74612 6.22395
C 4.98637 -2.51453 7.42205
H 8.91755 4.10542 3.33680
H 10.00465 2.53382 -2.60962
H 5.47311 -1.80576 -2.34919
H 5.63977 1.14544 5.54337
H 7.79643 2.94936 5.36505
H 4.98340 3.04597 4.35625
H 6.15037 3.98194 3.39894
H 5.96998 4.36988 5.08316
H 8.63645 0.73669 5.67988
H 7.57267 -0.71533 5.75190
H 6.62231 1.17045 7.66192
H 8.33647 1.38514 7.64074
H 10.80630 4.97714 2.99998
H 11.38231 5.75413 1.56343
H 12.40286 4.49002 2.28955
H 12.80548 5.51798 -0.13781
H 13.94152 4.69747 -1.35555
H 13.62983 4.02794 0.27172
H 9.17517 0.70078 -4.17537
H 6.28000 0.01182 -4.16382
H 8.30911 2.34301 -5.47235
H 7.52761 2.99675 -3.98982
H 6.67108 1.92544 -4.97689
H 8.03814 -1.27717 -5.43632
H 6.91032 -2.26372 -4.52543
H 9.72488 -1.57117 -4.10025
H 8.96067 -3.19602 -3.95650
H 8.82031 -1.95458 -2.63233
H 3.59185 -3.97589 -0.07860
H 3.99610 -3.13607 -1.61075
H 2.77624 -2.39643 -0.49848
H 3.91213 -0.68691 4.20172
H 4.08003 -2.90865 7.89206
H 5.60075 -1.81551 8.02009
H 5.55185 -3.42421 7.25725
