79

Mg 15.76628 1.41940 1.19766
C 15.16152 3.42005 4.10350
C 14.78548 4.10122 -0.67021
C 15.85625 -0.46226 -1.35339
C 15.59774 -1.37782 3.26958
N 15.08449 3.44887 1.76074
C 14.95436 4.10974 2.90681
C 14.65052 5.62571 2.71477
C 14.00812 5.57094 1.25658
C 14.69247 4.31908 0.73653
C 12.50047 5.33978 1.26328
C 15.94947 6.49978 2.73608
C 15.72054 8.00693 2.88253
H 16.67461 8.78839 3.65480
N 15.85172 1.86959 -0.72402
C 15.42115 3.01382 -1.30766
C 15.70479 2.86666 -2.75147
C 16.16103 1.46837 -2.98535
C 15.94680 0.88766 -1.68448
C 15.58291 3.99177 -3.73281
C 16.69409 0.76412 -4.19283
O 16.81174 -0.50803 -4.24164
C 16.99586 1.60610 -5.36460
N 15.51464 -0.63682 0.94022
C 15.66252 -1.20499 -0.26157
C 15.71705 -2.70023 -0.15564
C 15.81963 -3.02949 1.40347
C 15.71816 -1.58656 1.95657
C 14.52675 -3.45783 -0.75998
C 17.00870 -3.91210 1.85903
C 18.30746 -3.16062 1.67039
N 15.61662 1.05810 3.33264
C 15.53841 -0.18675 3.97365
C 15.34070 0.07887 5.41046
C 15.30079 1.46867 5.50383
C 15.43697 2.03479 4.20412
C 15.16572 -0.90483 6.42345
C 15.15008 2.60660 6.39616
O 15.09415 2.74860 7.61854
C 14.93175 3.91212 5.51084
C 15.84963 4.97963 6.04114
O 17.08832 4.86604 5.94068
O 15.12944 6.06459 6.36480
C 15.98352 7.17237 6.87030
H 14.27651 4.79131 -1.34598
H 15.99383 -1.14740 -2.19249
H 15.62095 -2.19967 3.98755
H 13.93180 6.03847 3.42294
H 14.29020 6.43474 0.65491
H 12.13532 5.12163 2.26678
H 12.33371 4.48777 0.60391
H 11.97773 6.17990 0.80534
H 16.41383 6.47759 1.75021
H 16.62980 6.16079 3.51811
H 14.70091 8.22613 3.20068
H 15.79998 8.46198 1.89520
H 15.06920 4.84838 -3.29822
H 14.91888 3.65105 -4.52697
H 16.54727 4.27378 -4.15566
H 16.09020 2.12675 -5.67646
H 17.45056 0.94457 -6.10114
H 17.70756 2.37816 -5.07075
H 16.59573 -3.09642 -0.66295
H 14.93971 -3.55992 1.76825
H 14.81139 -4.18602 -1.51987
H 13.82979 -2.72380 -1.16338
H 13.89970 -3.97672 -0.03542
H 17.06782 -4.81287 1.24906
H 16.94008 -4.22171 2.90195
H 18.54086 -3.33752 0.62108
H 19.08261 -3.57233 2.31757
H 18.16800 -2.08679 1.79664
H 15.77608 -0.58498 7.26792
H 15.46265 -1.89260 6.07170
H 14.09231 -0.82826 6.59600
H 13.88237 4.18737 5.61170
H 15.60182 7.44911 7.85313
H 15.98795 7.93876 6.09504
H 17.01412 6.91319 7.11529
