158

Mg 0.00000 0.00000 0.00000
C -0.21700 -2.21800 2.80100
C -1.25500 2.44200 2.02600
C -0.24500 1.85000 -2.56400
C 0.14600 -2.82400 -2.03700
N -0.61700 -0.00900 2.12600
C -0.59400 -0.90800 3.10500
C -0.93600 -0.30900 4.50200
C -1.77300 0.96400 4.03200
C -1.15500 1.16800 2.66000
C -3.26300 0.68500 3.86300
C 0.34500 0.11000 5.29900
C 0.12400 0.39700 6.78700
H 1.16800 0.03300 7.73300
N -0.18500 1.96100 -0.15200
C -0.70300 2.80000 0.77700
C -0.62000 4.15600 0.19300
C -0.18700 4.01500 -1.22500
C -0.21400 2.58300 -1.38000
C -0.88700 5.40600 0.97400
C 0.18100 5.01300 -2.27700
O 0.30300 4.69000 -3.50800
C 0.31000 6.41400 -1.83700
N -0.26500 -0.41300 -2.02900
C -0.27900 0.56900 -2.93700
C -0.19600 0.02400 -4.33200
C 0.12400 -1.53300 -4.18000
C 0.08600 -1.63200 -2.63500
C -1.45100 0.20500 -5.19700
C 1.37300 -2.07000 -4.92300
C 2.62600 -1.49000 -4.30600
N 0.15000 -2.14400 0.30300
C 0.17300 -3.13600 -0.68800
C 0.17300 -4.43800 0.00400
C 0.13300 -4.11100 1.35800
C 0.08300 -2.69500 1.50200
C 0.14900 -5.71500 -0.62300
C 0.09600 -4.62900 2.71600
O 0.20800 -5.74700 3.22100
C -0.25500 -3.42800 3.70100
C 0.71700 -3.48200 4.84800
O 1.93100 -3.25500 4.66900
O 0.03800 -3.55600 6.00300
C 0.94300 -3.58300 7.18300
H -1.85900 3.22000 2.49700
H -0.21800 2.45300 -3.47400
H 0.27600 -3.74700 -2.60500
H -1.55400 -0.94900 5.13200
H -1.58500 1.83100 4.66500
H -3.48400 -0.37700 3.96900
H -3.51100 1.02700 2.85800
H -3.85200 1.30100 4.54300
H 0.66900 1.09600 4.96600
H 1.13000 -0.63900 5.18900
H -0.84400 0.02600 7.12500
H 0.06200 1.47700 6.92100
H -1.34400 5.18600 1.93800
H -1.65100 5.96300 0.43200
H 0.00700 6.02000 1.08400
H -0.63500 6.74400 -1.40500
H 0.66500 6.97000 -2.70400
H 1.04800 6.46600 -1.03600
H 0.60800 0.50100 -4.89100
H -0.69200 -2.15600 -4.54700
H -1.26700 0.74000 -6.12900
H -2.20400 0.71400 -4.59600
H -1.96700 -0.72000 -5.45300
H 1.35600 -1.75900 -5.96700
H 1.45200 -3.15700 -4.90200
H 2.71400 -0.52200 -4.79800
H 3.48700 -2.12100 -4.52900
H 2.49500 -1.30300 -3.24000
H 0.86700 -6.33300 -0.08400
H 0.40400 -5.64200 -1.68000
H -0.89100 -5.99900 -0.46300
H -1.28300 -3.58100 4.02800
H 0.69800 -4.47800 7.75500
H 0.83300 -2.61900 7.68000
H 2.00000 -3.75400 6.97600
Mg 31.53256 2.83880 2.39533
C 31.58781 -0.66313 3.13400
C 30.36584 3.33697 5.56292
C 31.04476 5.87522 1.62147
C 31.60359 1.97748 -0.98087
N 31.07723 1.43532 4.04565
C 31.19850 0.12314 4.22068
C 30.94577 -0.33017 5.68969
C 30.04091 0.88870 6.17712
C 30.54838 1.96184 5.23014
C 28.55074 0.67886 5.92840
C 32.27083 -0.42721 6.51827
C 32.15418 -1.16968 7.85262
H 33.27588 -1.97930 8.30391
N 31.28239 4.42866 3.54102
C 30.81247 4.44548 4.81152
C 30.81382 5.86441 5.22784
C 31.14299 6.68910 4.03217
C 31.14414 5.68628 2.99789
C 30.57160 6.30847 6.63776
C 31.40325 8.15088 3.84886
O 31.44148 8.69519 2.69264
C 31.52600 8.95547 5.07793
N 31.12768 3.79536 0.58461
C 31.01840 5.12669 0.51682
C 31.01162 5.60226 -0.90576
C 31.38515 4.33198 -1.79830
C 31.46589 3.26948 -0.67455
C 29.69074 6.20515 -1.40358
C 32.58931 4.47927 -2.76201
C 33.86850 4.61855 -1.96741
N 31.76423 1.00983 1.24979
C 31.74033 0.88072 -0.14643
C 31.82832 -0.55977 -0.44862
C 31.88093 -1.17365 0.80127
C 31.80264 -0.18145 1.81994
C 31.79277 -1.14279 -1.74603
C 31.96026 -2.43876 1.51335
O 32.14077 -3.61112 1.18093
C 31.65097 -2.16805 3.05182
C 32.70738 -2.87260 3.85861
O 33.89778 -2.50021 3.81803
O 32.11923 -3.71196 4.72470
C 33.11058 -4.42142 5.57677
H 29.77753 3.59264 6.44636
H 30.98671 6.91963 1.30797
H 31.71616 1.63940 -2.01261
H 30.39474 -1.26563 5.78826
H 30.25175 1.16441 7.21020
H 28.36784 -0.21947 5.33894
H 28.21868 1.56429 5.38596
H 27.99755 0.67808 6.86795
H 32.54149 0.56445 6.88078
H 33.06583 -0.87796 5.92318
H 31.22492 -1.73687 7.91323
H 32.07249 -0.42996 8.64907
H 30.19446 5.49400 7.25498
H 29.75395 7.02842 6.60881
H 31.45397 6.77185 7.07939
H 30.60728 8.86833 5.65836
H 31.79943 9.95913 4.75425
H 32.32027 8.53645 5.69640
H 31.75790 6.38021 -1.06158
H 30.56151 4.03076 -2.44603
H 29.78943 7.22222 -1.78375
H 28.97112 6.16114 -0.58657
H 29.18284 5.62210 -2.17137
H 32.48545 5.38173 -3.36344
H 32.69977 3.63664 -3.44468
H 33.89249 5.68129 -1.72900
H 34.72751 4.33564 -2.57674
H 33.81269 4.07425 -1.02449
H 32.56603 -1.91086 -1.75658
H 31.96565 -0.39597 -2.52061
H 30.77597 -1.53480 -1.76345
H 30.65503 -2.56499 3.24590
H 32.93407 -5.48992 5.45274
H 33.01149 -4.00526 6.57947
H 34.15341 -4.34770 5.26628
