158

Mg 0.00000 0.00000 0.00000
C -0.21700 -2.21800 2.80100
C -1.25500 2.44200 2.02600
C -0.24500 1.85000 -2.56400
C 0.14600 -2.82400 -2.03700
N -0.61700 -0.00900 2.12600
C -0.59400 -0.90800 3.10500
C -0.93600 -0.30900 4.50200
C -1.77300 0.96400 4.03200
C -1.15500 1.16800 2.66000
C -3.26300 0.68500 3.86300
C 0.34500 0.11000 5.29900
C 0.12400 0.39700 6.78700
H 1.16800 0.03300 7.73300
N -0.18500 1.96100 -0.15200
C -0.70300 2.80000 0.77700
C -0.62000 4.15600 0.19300
C -0.18700 4.01500 -1.22500
C -0.21400 2.58300 -1.38000
C -0.88700 5.40600 0.97400
C 0.18100 5.01300 -2.27700
O 0.30300 4.69000 -3.50800
C 0.31000 6.41400 -1.83700
N -0.26500 -0.41300 -2.02900
C -0.27900 0.56900 -2.93700
C -0.19600 0.02400 -4.33200
C 0.12400 -1.53300 -4.18000
C 0.08600 -1.63200 -2.63500
C -1.45100 0.20500 -5.19700
C 1.37300 -2.07000 -4.92300
C 2.62600 -1.49000 -4.30600
N 0.15000 -2.14400 0.30300
C 0.17300 -3.13600 -0.68800
C 0.17300 -4.43800 0.00400
C 0.13300 -4.11100 1.35800
C 0.08300 -2.69500 1.50200
C 0.14900 -5.71500 -0.62300
C 0.09600 -4.62900 2.71600
O 0.20800 -5.74700 3.22100
C -0.25500 -3.42800 3.70100
C 0.71700 -3.48200 4.84800
O 1.93100 -3.25500 4.66900
O 0.03800 -3.55600 6.00300
C 0.94300 -3.58300 7.18300
H -1.85900 3.22000 2.49700
H -0.21800 2.45300 -3.47400
H 0.27600 -3.74700 -2.60500
H -1.55400 -0.94900 5.13200
H -1.58500 1.83100 4.66500
H -3.48400 -0.37700 3.96900
H -3.51100 1.02700 2.85800
H -3.85200 1.30100 4.54300
H 0.66900 1.09600 4.96600
H 1.13000 -0.63900 5.18900
H -0.84400 0.02600 7.12500
H 0.06200 1.47700 6.92100
H -1.34400 5.18600 1.93800
H -1.65100 5.96300 0.43200
H 0.00700 6.02000 1.08400
H -0.63500 6.74400 -1.40500
H 0.66500 6.97000 -2.70400
H 1.04800 6.46600 -1.03600
H 0.60800 0.50100 -4.89100
H -0.69200 -2.15600 -4.54700
H -1.26700 0.74000 -6.12900
H -2.20400 0.71400 -4.59600
H -1.96700 -0.72000 -5.45300
H 1.35600 -1.75900 -5.96700
H 1.45200 -3.15700 -4.90200
H 2.71400 -0.52200 -4.79800
H 3.48700 -2.12100 -4.52900
H 2.49500 -1.30300 -3.24000
H 0.86700 -6.33300 -0.08400
H 0.40400 -5.64200 -1.68000
H -0.89100 -5.99900 -0.46300
H -1.28300 -3.58100 4.02800
H 0.69800 -4.47800 7.75500
H 0.83300 -2.61900 7.68000
H 2.00000 -3.75400 6.97600
Mg 8.94158 0.79907 0.68422
C 9.15130 -2.25264 -1.19252
C 8.02448 -1.09137 3.37118
C 8.31203 3.49250 2.23874
C 8.75091 2.49271 -2.35568
N 8.65995 -1.38063 0.93286
C 8.82821 -2.44776 0.16652
C 8.71840 -3.80221 0.91682
C 7.81593 -3.31919 2.15420
C 8.21212 -1.84448 2.18471
C 6.32360 -3.40728 1.88120
C 10.11418 -4.33435 1.39708
C 10.12140 -5.79240 1.86163
H 11.30427 -6.60404 1.58862
N 8.74655 1.14403 2.62883
C 8.38880 0.25684 3.58078
C 8.37073 1.00874 4.84509
C 8.58645 2.44875 4.53759
C 8.53484 2.41970 3.08963
C 8.24240 0.34444 6.18512
C 8.79094 3.65462 5.40376
O 8.72079 4.84357 4.93016
C 8.98301 3.40529 6.83988
N 8.37095 2.69415 0.04751
C 8.21394 3.70030 0.92554
C 8.07356 5.02616 0.21645
C 8.41250 4.73058 -1.31826
C 8.61188 3.20087 -1.24332
C 6.70091 5.69134 0.31524
C 9.52953 5.59049 -1.97054
C 10.86649 5.25827 -1.34799
N 9.13180 0.27459 -1.40308
C 8.99022 1.13374 -2.51479
C 9.09307 0.29674 -3.72775
C 9.26569 -1.00490 -3.23336
C 9.24990 -0.98354 -1.81252
C 8.97707 0.75830 -5.06925
C 9.44705 -2.39355 -3.59037
O 9.62426 -3.00361 -4.64401
C 9.25442 -3.28017 -2.28530
C 10.39199 -4.26201 -2.21872
O 11.55938 -3.86653 -2.05312
O 9.89351 -5.50949 -2.14335
C 10.98342 -6.51828 -2.06422
H 7.51138 -1.56330 4.20956
H 8.19967 4.46440 2.72480
H 8.79956 2.95875 -3.34214
H 8.20885 -4.58534 0.36833
H 8.11264 -3.81287 3.07594
H 6.11667 -3.66953 0.85429
H 5.92449 -2.42762 2.10930
H 5.85137 -4.09684 2.58677
H 10.38305 -3.83621 2.33746
H 10.85772 -4.19364 0.63684
H 9.21155 -6.32556 1.56019
H 10.09221 -5.80876 2.95383
H 7.93331 -0.70349 6.08664
H 7.40600 0.82687 6.70238
H 9.14243 0.44868 6.79483
H 8.12023 2.87242 7.23246
H 9.20200 4.38050 7.27907
H 9.84669 2.74320 6.96758
H 8.78438 5.74739 0.60072
H 7.54198 4.90256 -1.96823
H 6.73978 6.71100 0.74286
H 6.05523 5.05549 0.90628
H 6.15515 5.76578 -0.62380
H 9.35226 6.65135 -1.77740
H 9.59792 5.46600 -3.04610
H 10.87490 5.86957 -0.44061
H 11.67948 5.53345 -2.01684
H 10.90606 4.20757 -1.03797
H 9.75992 0.27087 -5.63500
H 9.06040 1.84165 -5.12557
H 7.96831 0.41121 -5.30839
H 8.28777 -3.77855 -2.36757
H 10.82363 -7.22618 -2.88338
H 10.94307 -6.92155 -1.03490
H 11.99318 -6.18228 -2.26899
