158

Mg 0.00000 0.00000 0.00000
C -0.21700 -2.21800 2.80100
C -1.25500 2.44200 2.02600
C -0.24500 1.85000 -2.56400
C 0.14600 -2.82400 -2.03700
N -0.61700 -0.00900 2.12600
C -0.59400 -0.90800 3.10500
C -0.93600 -0.30900 4.50200
C -1.77300 0.96400 4.03200
C -1.15500 1.16800 2.66000
C -3.26300 0.68500 3.86300
C 0.34500 0.11000 5.29900
C 0.12400 0.39700 6.78700
H 1.16800 0.03300 7.73300
N -0.18500 1.96100 -0.15200
C -0.70300 2.80000 0.77700
C -0.62000 4.15600 0.19300
C -0.18700 4.01500 -1.22500
C -0.21400 2.58300 -1.38000
C -0.88700 5.40600 0.97400
C 0.18100 5.01300 -2.27700
O 0.30300 4.69000 -3.50800
C 0.31000 6.41400 -1.83700
N -0.26500 -0.41300 -2.02900
C -0.27900 0.56900 -2.93700
C -0.19600 0.02400 -4.33200
C 0.12400 -1.53300 -4.18000
C 0.08600 -1.63200 -2.63500
C -1.45100 0.20500 -5.19700
C 1.37300 -2.07000 -4.92300
C 2.62600 -1.49000 -4.30600
N 0.15000 -2.14400 0.30300
C 0.17300 -3.13600 -0.68800
C 0.17300 -4.43800 0.00400
C 0.13300 -4.11100 1.35800
C 0.08300 -2.69500 1.50200
C 0.14900 -5.71500 -0.62300
C 0.09600 -4.62900 2.71600
O 0.20800 -5.74700 3.22100
C -0.25500 -3.42800 3.70100
C 0.71700 -3.48200 4.84800
O 1.93100 -3.25500 4.66900
O 0.03800 -3.55600 6.00300
C 0.94300 -3.58300 7.18300
H -1.85900 3.22000 2.49700
H -0.21800 2.45300 -3.47400
H 0.27600 -3.74700 -2.60500
H -1.55400 -0.94900 5.13200
H -1.58500 1.83100 4.66500
H -3.48400 -0.37700 3.96900
H -3.51100 1.02700 2.85800
H -3.85200 1.30100 4.54300
H 0.66900 1.09600 4.96600
H 1.13000 -0.63900 5.18900
H -0.84400 0.02600 7.12500
H 0.06200 1.47700 6.92100
H -1.34400 5.18600 1.93800
H -1.65100 5.96300 0.43200
H 0.00700 6.02000 1.08400
H -0.63500 6.74400 -1.40500
H 0.66500 6.97000 -2.70400
H 1.04800 6.46600 -1.03600
H 0.60800 0.50100 -4.89100
H -0.69200 -2.15600 -4.54700
H -1.26700 0.74000 -6.12900
H -2.20400 0.71400 -4.59600
H -1.96700 -0.72000 -5.45300
H 1.35600 -1.75900 -5.96700
H 1.45200 -3.15700 -4.90200
H 2.71400 -0.52200 -4.79800
H 3.48700 -2.12100 -4.52900
H 2.49500 -1.30300 -3.24000
H 0.86700 -6.33300 -0.08400
H 0.40400 -5.64200 -1.68000
H -0.89100 -5.99900 -0.46300
H -1.28300 -3.58100 4.02800
H 0.69800 -4.47800 7.75500
H 0.83300 -2.61900 7.68000
H 2.00000 -3.75400 6.97600
Mg 13.14495 1.17945 1.00580
C 10.74392 0.24657 3.50457
C 14.40982 3.40078 3.26422
C 14.97710 2.33930 -1.31054
C 11.02222 -0.24078 -1.36540
N 12.56650 1.66798 3.08402
C 11.67767 1.20521 3.95015
C 11.84726 1.74442 5.39586
C 12.62128 3.10934 5.05417
C 13.27254 2.69750 3.73549
C 11.68885 4.27800 4.78188
C 12.72210 0.79603 6.28874
C 12.67389 1.09905 7.78794
H 12.73613 -0.01820 8.72622
N 14.79103 2.28391 1.10164
C 15.15850 3.11158 2.10225
C 16.43758 3.70566 1.68372
C 16.71312 3.28684 0.28251
C 15.46706 2.62291 -0.04403
C 17.30186 4.51180 2.60924
C 17.89668 3.46672 -0.61917
O 17.82737 3.22900 -1.87676
C 19.11233 4.01824 -0.00315
N 12.92543 1.25750 -1.06012
C 13.89455 1.76868 -1.83950
C 13.63737 1.46885 -3.29702
C 12.41515 0.43761 -3.31434
C 12.10582 0.38638 -1.80203
C 13.29870 2.67382 -4.17437
C 12.63506 -0.90175 -4.06960
C 13.66296 -1.74033 -3.34461
N 11.32281 0.01919 1.04595
C 10.58642 -0.45110 -0.06339
C 9.36310 -1.08896 0.46486
C 9.46225 -0.92387 1.85461
C 10.65267 -0.21419 2.16886
C 8.32545 -1.67206 -0.31578
C 8.82528 -1.17924 3.12652
O 7.83789 -1.81626 3.49120
C 9.56386 -0.32193 4.24273
C 9.83877 -1.22367 5.41483
O 10.62673 -2.17961 5.30569
O 9.29860 -0.68361 6.52249
C 9.55426 -1.53624 7.71391
H 14.73719 4.28464 3.81239
H 15.62751 2.62126 -2.14176
H 10.35824 -0.79310 -2.03380
H 10.91949 1.96210 5.91125
H 13.37930 3.33113 5.80089
H 10.65479 3.96872 4.74699
H 11.99528 4.68229 3.82600
H 11.85761 5.07331 5.51355
H 13.78304 0.99582 6.09069
H 12.46459 -0.23140 6.11928
H 11.84724 1.77207 8.04607
H 13.57132 1.66122 8.05738
H 16.76220 4.79074 3.52267
H 17.50198 5.46599 2.10989
H 18.25279 4.02251 2.83060
H 18.88893 4.99085 0.42881
H 19.87476 3.98888 -0.78400
H 19.41094 3.36682 0.82576
H 14.50005 0.99904 -3.75326
H 11.52740 0.86609 -3.80234
H 13.98316 2.79293 -5.03541
H 13.30900 3.56076 -3.55488
H 12.28643 2.68350 -4.57488
H 13.03738 -0.71204 -5.06775
H 11.72677 -1.48199 -4.19340
H 14.61231 -1.33656 -3.70901
H 13.55424 -2.79081 -3.60675
H 13.62306 -1.56400 -2.26343
H 8.05888 -2.60318 0.16636
H 8.64365 -1.83261 -1.34376
H 7.56243 -0.89283 -0.23921
H 8.90570 0.50609 4.50876
H 8.58099 -1.75971 8.16165
H 10.27691 -0.97362 8.33438
H 9.94224 -2.53352 7.54259
