79

Mg 10.51392 0.93975 0.80622
C 7.82901 1.36853 3.14854
C 12.62001 2.06358 3.24261
C 12.82909 1.00249 -1.36253
C 8.12107 0.95554 -1.72750
N 10.15212 1.59951 2.88614
C 9.09924 1.66106 3.68739
C 9.43603 1.98059 5.16862
C 10.84050 2.72516 4.94067
C 11.25499 2.06792 3.62579
C 10.69797 4.21943 4.70363
C 9.60730 0.68414 6.03574
C 9.63078 0.92007 7.54754
H 9.02426 -0.08330 8.41809
N 12.48505 0.98287 1.03279
C 13.17193 1.45260 2.09526
C 14.59454 1.27842 1.76359
C 14.69420 0.81974 0.35136
C 13.31075 0.93984 -0.06306
C 15.69330 1.46525 2.76919
C 15.84635 0.36245 -0.49104
O 15.74301 0.23740 -1.76246
C 17.12514 0.15521 0.20411
N 10.50578 1.18599 -1.25816
C 11.64653 1.11947 -1.96682
C 11.36477 1.04909 -3.44873
C 9.78471 0.83749 -3.57606
C 9.39789 0.91484 -2.08282
C 11.78139 2.27312 -4.26395
C 9.30288 -0.38659 -4.40198
C 9.67280 -1.66769 -3.68971
N 8.35572 0.94013 0.70505
C 7.55636 0.97314 -0.45857
C 6.15014 1.07714 -0.01795
C 6.23112 1.12096 1.38206
C 7.59298 1.06968 1.78482
C 5.01516 1.16708 -0.87227
C 5.47482 1.20964 2.61041
O 4.27848 1.19249 2.89711
C 6.48261 1.50138 3.80441
C 6.15522 0.55825 4.92951
O 6.31476 -0.66756 4.79337
O 5.91667 1.27022 6.04601
C 5.59808 0.37824 7.19260
H 13.33273 2.61590 3.85567
H 13.58214 0.91565 -2.14920
H 7.31000 0.86717 -2.45347
H 8.73725 2.64711 5.65977
H 11.54886 2.48206 5.72838
H 9.66375 4.51564 4.60985
H 11.23485 4.42434 3.78666
H 11.21772 4.77682 5.48817
H 10.62083 0.28826 5.89159
H 8.85188 -0.03818 5.79443
H 9.27757 1.92376 7.81362
H 10.66986 0.90333 7.88527
H 15.32821 1.96275 3.67616
H 16.40493 2.17690 2.33675
H 16.21814 0.53510 2.99732
H 17.42898 1.08187 0.68521
H 17.80273 -0.25571 -0.54683
H 16.97404 -0.57933 1.00301
H 11.86999 0.20329 -3.89870
H 9.29799 1.69049 -4.07136
H 12.47796 2.03165 -5.08891
H 12.22401 2.99630 -3.59191
H 10.96003 2.83748 -4.70222
H 9.80851 -0.41277 -5.37039
H 8.23548 -0.38364 -4.59597
H 10.71232 -1.82667 -3.99175
H 9.03644 -2.48660 -4.01906
H 9.66285 -1.53035 -2.60220
H 4.26103 0.51110 -0.45819
H 5.26452 0.89184 -1.89493
H 4.78423 2.23156 -0.77836
H 6.35372 2.54489 4.09433
H 4.62941 0.69949 7.58777
H 6.46722 0.44519 7.87368
H 5.40264 -0.66556 6.97638
