79

Mg 13.14576 1.18134 1.00569
C 11.10760 -0.25898 3.58454
C 13.86516 3.70144 3.18884
C 14.58048 2.70426 -1.37962
C 11.39361 -0.77929 -1.28158
N 12.50868 1.56064 3.08956
C 11.78220 0.91234 3.98749
C 11.84310 1.51156 5.41815
C 12.24478 3.01748 5.03121
C 12.94959 2.74890 3.70314
C 11.04476 3.91044 4.76305
C 12.94580 0.83254 6.30414
C 12.85588 1.15018 7.79839
H 13.21494 0.10657 8.75465
N 14.46612 2.66263 1.03729
C 14.63708 3.57963 2.01257
C 15.71831 4.46301 1.54915
C 16.05932 4.09218 0.14882
C 15.01143 3.13139 -0.13207
C 16.37402 5.48097 2.43640
C 17.14093 4.53905 -0.78746
O 17.10600 4.26124 -2.03824
C 18.19365 5.39044 -0.21440
N 12.86925 1.15235 -1.05466
C 13.66326 1.86961 -1.86891
C 13.45763 1.48008 -3.31333
C 12.53107 0.17705 -3.27918
C 12.27694 0.08703 -1.75843
C 12.81038 2.54131 -4.20285
C 13.06167 -1.08332 -4.01580
C 14.28157 -1.62198 -3.30372
N 11.67177 -0.39451 1.11574
C 11.05219 -1.05991 0.03526
C 10.03823 -1.96914 0.60764
C 10.12300 -1.75103 1.99101
C 11.10536 -0.76009 2.26029
C 9.16217 -2.81079 -0.13417
C 9.59739 -2.12605 3.28399
O 8.80811 -2.97972 3.68652
C 10.12275 -1.08521 4.36429
C 10.63901 -1.86159 5.54465
O 11.63790 -2.59375 5.43162
O 10.00523 -1.44631 6.65651
C 10.49104 -2.17946 7.85581
H 13.97353 4.65194 3.71198
H 15.12198 3.11901 -2.23299
H 10.87408 -1.49544 -1.92181
H 10.90168 1.50393 5.95429
H 12.93946 3.43889 5.75315
H 10.11998 3.35284 4.76157
H 11.22003 4.35504 3.79215
H 11.02561 4.74016 5.47546
H 13.91889 1.28520 6.07406
H 12.94903 -0.23043 6.16022
H 11.89328 1.60238 8.06647
H 13.59038 1.92432 8.03341
H 15.80166 5.63884 3.35883
H 16.31909 6.44258 1.91472
H 17.42146 5.24917 2.64090
H 17.74415 6.28701 0.20580
H 18.92230 5.53285 -1.01481
H 18.66304 4.85403 0.61780
H 14.40017 1.22882 -3.78406
H 11.55421 0.35923 -3.75078
H 13.42481 2.80615 -5.08400
H 12.61255 3.41763 -3.59996
H 11.81927 2.28914 -4.57611
H 13.38237 -0.82364 -5.02767
H 12.32430 -1.87413 -4.10466
H 15.09218 -1.00361 -3.70073
H 14.43259 -2.67249 -3.54384
H 14.22227 -1.43504 -2.22520
H 9.14664 -3.76702 0.37167
H 9.48812 -2.91191 -1.16727
H 8.23078 -2.24431 -0.05118
H 9.28480 -0.44082 4.63295
H 9.61410 -2.62719 8.33352
H 11.06377 -1.43990 8.44638
H 11.11164 -3.05267 7.69213
