79

Mg 15.77404 1.41249 1.19972
C 15.96184 -0.34269 -1.92489
C 15.04890 -1.58043 2.66642
C 15.15924 2.98942 3.88351
C 15.37968 4.35030 -0.63316
N 15.56160 -0.62778 0.37241
C 15.71620 -1.18393 -0.81971
C 15.68080 -2.73579 -0.81495
C 14.83306 -2.95285 0.53157
C 15.19261 -1.65842 1.25810
C 13.33110 -2.96978 0.30097
C 17.11314 -3.36599 -0.69981
C 17.18208 -4.86514 -0.99905
H 18.36914 -5.38698 -1.67065
N 15.67348 0.76761 3.07391
C 15.38933 -0.48452 3.48948
C 15.41904 -0.43699 4.95952
C 15.58143 0.98136 5.37980
C 15.45402 1.65140 4.10117
C 15.37878 -1.67020 5.81450
C 15.80069 1.62861 6.71366
O 15.67530 2.89370 6.87695
C 16.07478 0.72747 7.84251
N 15.12243 3.34999 1.57895
C 14.98652 3.79949 2.83887
C 14.77508 5.29449 2.86483
C 15.03974 5.79187 1.36812
C 15.28171 4.42701 0.68695
C 13.39308 5.76308 3.31968
C 16.09842 6.91206 1.17560
C 17.47447 6.38536 1.51389
N 15.86683 1.96883 -0.88593
C 15.64478 3.24954 -1.43780
C 15.70458 3.10687 -2.90698
C 15.93624 1.73808 -3.11009
C 15.99512 1.07116 -1.85660
C 15.50603 4.15173 -3.85301
C 16.13376 0.70398 -4.10019
O 16.27045 0.68661 -5.32279
C 16.03313 -0.70996 -3.38113
C 17.19727 -1.54656 -3.83653
O 18.36133 -1.22449 -3.54012
O 16.73542 -2.69812 -4.35707
C 17.85334 -3.56663 -4.81291
H 14.59307 -2.42198 3.18882
H 15.04803 3.60003 4.78254
H 15.36417 5.23583 -1.27212
H 15.16305 -3.18094 -1.65611
H 15.19062 -3.81483 1.08880
H 13.07687 -2.71414 -0.71694
H 12.91980 -2.24177 0.98790
H 12.91460 -3.93575 0.60056
H 17.41862 -3.37059 0.35442
H 17.81158 -2.84084 -1.32193
H 16.27143 -5.22985 -1.48962
H 17.21116 -5.40731 -0.05077
H 15.09171 -2.55433 5.23200
H 14.55891 -1.53752 6.52869
H 16.30687 -1.82980 6.36754
H 15.24783 0.03074 7.95743
H 16.29178 1.37943 8.69087
H 16.96059 0.12803 7.60454
H 15.48663 5.77428 3.52559
H 14.13195 6.21393 0.91249
H 13.42853 6.45089 4.18556
H 12.79599 4.89100 3.55098
H 12.79666 6.25470 2.55300
H 15.90464 7.73858 1.86369
H 16.11293 7.32485 0.17241
H 17.51532 6.48319 2.60286
H 18.24365 6.98742 1.03438
H 17.55715 5.31861 1.27544
H 16.27000 4.03547 -4.61020
H 15.55864 5.13064 -3.38107
H 14.49519 3.91504 -4.19573
H 15.07649 -1.15260 -3.66127
H 17.66851 -3.79875 -5.86630
H 17.87781 -4.41751 -4.10639
H 18.84196 -3.12562 -4.86382
