79

Mg 10.50226 0.94782 0.80444
C 11.81732 3.15159 3.31304
C 9.76149 -1.23237 3.32092
C 9.75120 -1.19749 -1.40937
C 12.34581 2.74597 -1.54368
N 10.79885 1.05883 2.99350
C 11.25247 1.97130 3.83964
C 11.01871 1.63311 5.33649
C 10.90941 0.03611 5.20797
C 10.42577 -0.06025 3.76246
C 12.25158 -0.66916 5.31057
C 9.68962 2.25715 5.88977
C 9.55157 2.22910 7.41355
H 8.88238 3.34734 8.07250
N 9.41956 -0.71006 0.93770
C 9.20570 -1.45571 2.04203
C 8.36123 -2.58044 1.61073
C 8.23041 -2.52764 0.12924
C 9.16615 -1.46526 -0.18032
C 7.70562 -3.52324 2.57754
C 7.40972 -3.31309 -0.84838
O 7.63087 -3.25901 -2.10973
C 6.40106 -4.21864 -0.27913
N 11.13996 0.65941 -1.15323
C 10.61516 -0.31676 -1.91455
C 11.02179 -0.15917 -3.36030
C 11.73433 1.26956 -3.45291
C 11.69401 1.66959 -1.96169
C 11.96191 -1.23288 -3.90776
C 11.17385 2.26887 -4.50168
C 9.78187 2.70591 -4.10573
N 11.69558 2.74893 0.81212
C 12.40054 3.30970 -0.27538
C 13.15618 4.46713 0.24597
C 12.85415 4.48573 1.61598
C 11.98854 3.40340 1.93029
C 14.02477 5.30288 -0.51114
C 13.07921 5.16854 2.86969
O 13.65468 6.20327 3.20423
C 12.51879 4.26023 4.04753
C 11.69363 5.13199 4.95399
O 10.63880 5.64882 4.54553
O 12.16786 5.03571 6.20946
C 11.37500 5.87419 7.14762
H 9.69502 -2.07960 4.00404
H 9.43675 -1.84382 -2.23208
H 12.86661 3.41647 -2.23060
H 11.83705 1.89798 5.99522
H 10.16189 -0.36461 5.88767
H 13.07364 0.03067 5.33481
H 12.31906 -1.30192 4.43529
H 12.25804 -1.34386 6.17143
H 8.84766 1.60970 5.61289
H 9.56305 3.26111 5.53388
H 10.50367 2.00468 7.90962
H 8.90295 1.39362 7.68791
H 8.11814 -3.41421 3.58816
H 7.98864 -4.53774 2.27663
H 6.61647 -3.44349 2.57074
H 6.88867 -4.93541 0.37734
H 5.85656 -4.62407 -1.13413
H 5.71822 -3.63287 0.34635
H 10.15412 -0.16182 -4.00856
H 12.79611 1.17846 -3.72523
H 11.56042 -1.75146 -4.79880
H 12.16866 -1.94121 -3.11652
H 12.95871 -0.88326 -4.17112
H 11.08119 1.78294 -5.47607
H 11.79650 3.14685 -4.63757
H 9.15156 1.89646 -4.48598
H 9.53059 3.65525 -4.57439
H 9.67082 2.72571 -3.01535
H 13.81395 6.32154 -0.21386
H 13.88010 5.16187 -1.58023
H 14.99603 4.92961 -0.17558
H 13.37647 3.82815 4.56450
H 12.07927 6.54403 7.65062
H 10.81467 5.16303 7.78326
H 10.67772 6.58411 6.71837
