79

Mg 8.93082 0.79740 0.68594
C 7.18559 2.98018 2.93732
C 10.94259 -0.05206 3.30621
C 10.76422 -0.78544 -1.36362
C 7.56065 2.63620 -1.93839
N 8.96041 1.44714 2.80000
C 8.21009 2.23409 3.55635
C 8.52672 2.15972 5.07417
C 10.04563 1.64732 4.97813
C 9.97906 0.93707 3.62765
C 11.05651 2.77721 4.87423
C 7.61749 1.12411 5.82439
C 7.65716 1.22090 7.35109
H 6.43086 0.95362 8.09756
N 10.28191 -0.62145 1.00214
C 10.98679 -0.83646 2.13271
C 11.86121 -1.98505 1.84935
C 11.73396 -2.32676 0.40652
C 10.91978 -1.22055 -0.05555
C 12.64668 -2.69225 2.91533
C 12.26859 -3.45472 -0.42298
O 12.23159 -3.42500 -1.70383
C 12.92085 -4.55250 0.30567
N 9.30559 1.03511 -1.34516
C 10.10307 0.17765 -2.00600
C 10.00485 0.38160 -3.49904
C 8.78800 1.39662 -3.71487
C 8.43502 1.68591 -2.23937
C 11.25665 0.93641 -4.17843
C 7.65199 0.94028 -4.67086
C 6.90426 -0.22532 -4.06450
N 7.47172 2.37879 0.49027
C 7.06510 3.02179 -0.69939
C 6.14025 4.10720 -0.31340
C 6.09051 4.03448 1.08686
C 6.94109 2.99132 1.54275
C 5.51629 5.02480 -1.20491
C 5.52010 4.60985 2.28363
O 4.66521 5.46400 2.51455
C 6.30140 4.03484 3.54273
C 5.28401 3.59662 4.56027
O 4.51603 2.64879 4.31853
O 5.52946 4.22166 5.72623
C 4.55309 3.81120 6.77028
H 11.76891 -0.21577 3.99851
H 11.29064 -1.37085 -2.12101
H 7.01521 3.19149 -2.70444
H 8.48692 3.10967 5.59359
H 10.27448 0.93932 5.77042
H 10.57662 3.73816 4.76279
H 11.66028 2.55272 4.00469
H 11.73839 2.75275 5.72908
H 8.03417 0.11773 5.68904
H 6.60241 1.19167 5.48428
H 8.11936 2.15493 7.69302
H 8.31942 0.43930 7.73126
H 12.67075 -2.11434 3.84745
H 13.68999 -2.71417 2.58232
H 12.30646 -3.71695 3.07937
H 13.75343 -4.15803 0.88331
H 13.15714 -5.30470 -0.44946
H 12.20675 -4.96735 1.02579
H 9.77871 -0.55028 -4.00259
H 9.12424 2.34915 -4.15013
H 11.63610 0.28809 -4.99070
H 12.01736 1.08481 -3.42356
H 11.14998 1.93514 -4.59839
H 8.07175 0.58275 -5.61432
H 6.94641 1.72875 -4.91057
H 7.52602 -1.08436 -4.33386
H 5.90871 -0.30792 -4.49587
H 6.89102 -0.15812 -2.97044
H 4.48625 5.11632 -0.88689
H 5.58607 4.68659 -2.23666
H 6.12266 5.91619 -1.02324
H 6.94288 4.83125 3.92193
H 4.08828 4.72615 7.15041
H 5.12689 3.20025 7.49225
H 3.68341 3.24945 6.45006
