79

Mg 31.53256 2.83880 2.39533
C 31.62183 2.59449 -1.17462
C 30.94884 -0.52243 2.46207
C 30.99892 3.10325 5.51012
C 30.99168 6.25890 2.00031
N 31.33409 1.33594 0.78205
C 31.44883 1.36135 -0.54210
C 31.44365 -0.05554 -1.18998
C 30.67041 -0.85262 -0.04597
C 31.03380 0.01742 1.14436
C 29.15462 -0.84452 -0.21574
C 32.88964 -0.61739 -1.40251
C 32.98724 -1.84047 -2.31898
H 34.14830 -1.97526 -3.18565
N 31.52829 1.46559 3.81558
C 31.28735 0.14144 3.66105
C 31.39911 -0.45333 5.01029
C 31.53706 0.66096 5.98876
C 31.33131 1.80347 5.13571
C 31.41801 -1.93026 5.25945
C 31.80045 0.69089 7.46113
O 31.65137 1.75281 8.15731
C 32.15678 -0.59338 8.09098
N 30.84438 4.40614 3.59011
C 30.76064 4.27569 4.91863
C 30.51903 5.59863 5.58301
C 30.69736 6.70411 4.44465
C 30.94404 5.76381 3.23914
C 29.14828 5.77125 6.25177
C 31.71887 7.83647 4.71794
C 33.12011 7.26821 4.74429
N 31.51225 4.24045 0.73822
C 31.24220 5.61520 0.80000
C 31.23766 6.11728 -0.58635
C 31.49062 4.98926 -1.36445
C 31.61744 3.84980 -0.51957
C 30.96121 7.45405 -0.98766
C 31.65882 4.47722 -2.71478
O 31.74726 4.98935 -3.83164
C 31.62943 2.88620 -2.65462
C 32.79092 2.37919 -3.46529
O 33.96561 2.57880 -3.09430
O 32.34028 1.54269 -4.41278
C 33.44549 0.98071 -5.23428
H 30.53037 -1.52173 2.59710
H 30.91515 3.25970 6.58759
H 30.91383 7.33003 1.80516
H 30.89336 -0.12413 -2.12855
H 31.06518 -1.85979 0.08627
H 28.84792 -0.18218 -1.02516
H 28.75701 -0.49187 0.73611
H 28.77362 -1.85820 -0.34251
H 33.24571 -1.05537 -0.47007
H 33.55655 0.16305 -1.77057
H 32.06788 -1.98770 -2.88643
H 33.06528 -2.73017 -1.69405
H 31.13243 -2.49019 4.36981
H 30.62738 -2.14190 5.97904
H 32.37587 -2.26732 5.65598
H 31.35113 -1.30968 7.92850
H 32.39644 -0.36321 9.12850
H 33.03509 -1.00091 7.58954
H 31.24734 5.77842 6.37275
H 29.76577 7.23092 4.23658
H 29.20645 6.02396 7.31076
H 28.58096 4.85354 6.09931
H 28.49905 6.50830 5.77989
H 31.53607 8.28458 5.69402
H 31.68620 8.63397 3.97553
H 33.21366 6.89837 5.76473
H 33.85205 8.05145 4.54426
H 33.21476 6.41122 4.07714
H 31.69999 7.70281 -1.74943
H 31.01653 8.14050 -0.14307
H 29.94678 7.34419 -1.37071
H 30.67222 2.57438 -3.07133
H 33.22156 1.21291 -6.27551
H 33.53363 -0.07011 -4.95786
H 34.41993 1.45738 -5.12211
