79

Mg 7.88967 0.71805 0.59909
C 7.32055 1.92200 3.93160
C 6.81807 3.75630 -0.52131
C 7.95039 -0.45808 -2.34718
C 7.81246 -2.51326 1.90231
N 7.18712 2.52440 1.66481
C 7.07207 2.88712 2.93349
C 6.74590 4.38982 3.14577
C 6.06181 4.69055 1.72435
C 6.75337 3.61586 0.88801
C 4.56644 4.42057 1.70699
C 8.03608 5.25741 3.35735
C 7.78038 6.67429 3.87582
H 8.74632 7.26223 4.79981
N 7.92295 1.64724 -1.15421
C 7.46665 2.88778 -1.42649
C 7.70264 3.09687 -2.86342
C 8.18447 1.81718 -3.45074
C 8.01441 0.92745 -2.31956
C 7.54637 4.43399 -3.52758
C 8.69947 1.45160 -4.80990
O 8.83784 0.22968 -5.17129
C 8.94848 2.56448 -5.73778
N 7.67190 -1.20697 -0.15538
C 7.79419 -1.45146 -1.47189
C 7.87365 -2.93430 -1.74625
C 8.02309 -3.62890 -0.31350
C 7.90954 -2.37907 0.58673
C 6.67883 -3.53951 -2.48281
C 9.23806 -4.57580 -0.11374
C 10.52306 -3.78003 -0.14402
N 7.80364 -0.16244 2.57023
C 7.75453 -1.53725 2.88893
C 7.58781 -1.63903 4.35326
C 7.52791 -0.30565 4.78572
C 7.62850 0.56548 3.66746
C 7.46400 -2.84796 5.09438
C 7.39180 0.56290 5.93280
O 7.35672 0.39403 7.15099
C 7.12444 2.04253 5.41741
C 8.03793 2.96932 6.17180
O 9.27095 2.89846 6.02602
O 7.30153 3.92347 6.76987
C 8.16398 4.87359 7.52172
H 6.28651 4.58788 -0.98478
H 8.07841 -0.91650 -3.33051
H 7.87809 -3.48498 2.39640
H 6.04500 4.59384 3.94633
H 6.32236 5.68175 1.36242
H 4.23008 3.95699 2.62247
H 4.39606 3.76258 0.86493
H 4.01965 5.34155 1.48529
H 8.47447 5.49170 2.37874
H 8.73061 4.75617 4.00312
H 6.75967 6.79521 4.25856
H 7.83434 7.36732 3.03273
H 7.02203 5.14651 -2.87889
H 6.87005 4.29181 -4.37742
H 8.49369 4.83597 -3.89320
H 8.02826 3.12488 -5.88480
H 9.39675 2.11127 -6.62408
H 9.66520 3.25210 -5.27506
H 8.74529 -3.17081 -2.34409
H 7.15809 -4.26595 -0.07732
H 6.95959 -4.05443 -3.42094
H 5.96485 -2.75110 -2.68078
H 6.08792 -4.24587 -1.90222
H 9.29802 -5.29350 -0.93561
H 9.19474 -5.14533 0.80863
H 10.72799 -3.68288 -1.21437
H 11.32011 -4.32006 0.36304
H 10.37038 -2.77063 0.25531
H 8.08324 -2.73827 5.97473
H 7.76320 -3.70999 4.50181
H 6.38987 -2.84272 5.29809
H 6.07267 2.26744 5.59842
H 7.79848 4.88927 8.55315
H 8.12271 5.82462 6.95818
H 9.20193 4.59914 7.66931
