158

Mg 0.00000 0.00000 0.00000
C -0.21700 -2.21800 2.80100
C -1.25500 2.44200 2.02600
C -0.24500 1.85000 -2.56400
C 0.14600 -2.82400 -2.03700
N -0.61700 -0.00900 2.12600
C -0.59400 -0.90800 3.10500
C -0.93600 -0.30900 4.50200
C -1.77300 0.96400 4.03200
C -1.15500 1.16800 2.66000
C -3.26300 0.68500 3.86300
C 0.34500 0.11000 5.29900
C 0.12400 0.39700 6.78700
H 1.16800 0.03300 7.73300
N -0.18500 1.96100 -0.15200
C -0.70300 2.80000 0.77700
C -0.62000 4.15600 0.19300
C -0.18700 4.01500 -1.22500
C -0.21400 2.58300 -1.38000
C -0.88700 5.40600 0.97400
C 0.18100 5.01300 -2.27700
O 0.30300 4.69000 -3.50800
C 0.31000 6.41400 -1.83700
N -0.26500 -0.41300 -2.02900
C -0.27900 0.56900 -2.93700
C -0.19600 0.02400 -4.33200
C 0.12400 -1.53300 -4.18000
C 0.08600 -1.63200 -2.63500
C -1.45100 0.20500 -5.19700
C 1.37300 -2.07000 -4.92300
C 2.62600 -1.49000 -4.30600
N 0.15000 -2.14400 0.30300
C 0.17300 -3.13600 -0.68800
C 0.17300 -4.43800 0.00400
C 0.13300 -4.11100 1.35800
C 0.08300 -2.69500 1.50200
C 0.14900 -5.71500 -0.62300
C 0.09600 -4.62900 2.71600
O 0.20800 -5.74700 3.22100
C -0.25500 -3.42800 3.70100
C 0.71700 -3.48200 4.84800
O 1.93100 -3.25500 4.66900
O 0.03800 -3.55600 6.00300
C 0.94300 -3.58300 7.18300
H -1.85900 3.22000 2.49700
H -0.21800 2.45300 -3.47400
H 0.27600 -3.74700 -2.60500
H -1.55400 -0.94900 5.13200
H -1.58500 1.83100 4.66500
H -3.48400 -0.37700 3.96900
H -3.51100 1.02700 2.85800
H -3.85200 1.30100 4.54300
H 0.66900 1.09600 4.96600
H 1.13000 -0.63900 5.18900
H -0.84400 0.02600 7.12500
H 0.06200 1.47700 6.92100
H -1.34400 5.18600 1.93800
H -1.65100 5.96300 0.43200
H 0.00700 6.02000 1.08400
H -0.63500 6.74400 -1.40500
H 0.66500 6.97000 -2.70400
H 1.04800 6.46600 -1.03600
H 0.60800 0.50100 -4.89100
H -0.69200 -2.15600 -4.54700
H -1.26700 0.74000 -6.12900
H -2.20400 0.71400 -4.59600
H -1.96700 -0.72000 -5.45300
H 1.35600 -1.75900 -5.96700
H 1.45200 -3.15700 -4.90200
H 2.71400 -0.52200 -4.79800
H 3.48700 -2.12100 -4.52900
H 2.49500 -1.30300 -3.24000
H 0.86700 -6.33300 -0.08400
H 0.40400 -5.64200 -1.68000
H -0.89100 -5.99900 -0.46300
H -1.28300 -3.58100 4.02800
H 0.69800 -4.47800 7.75500
H 0.83300 -2.61900 7.68000
H 2.00000 -3.75400 6.97600
Mg 15.76628 1.41940 1.19766
C 15.54126 3.85721 -1.41360
C 15.28145 -0.96743 -1.19212
C 15.50749 -0.71093 3.53248
C 15.10042 3.99067 3.45396
N 15.46426 1.55263 -0.99133
C 15.45894 2.54273 -1.87837
C 15.43370 2.04854 -3.35570
C 14.78797 0.60861 -3.12846
C 15.23324 0.36587 -1.69712
C 13.26340 0.61034 -3.17500
C 16.86935 1.94188 -3.97155
C 16.91712 1.78368 -5.49406
H 17.99889 2.41976 -6.23061
N 15.92643 -0.54929 1.15929
C 15.70825 -1.35897 0.09529
C 15.95663 -2.73608 0.57336
C 16.15185 -2.67730 2.04867
C 15.83973 -1.29593 2.31285
C 16.03750 -3.92163 -0.33860
C 16.54545 -3.70576 3.06132
O 16.43099 -3.50142 4.31819
C 16.99126 -5.00868 2.53529
N 15.14627 1.56003 3.18599
C 15.18565 0.49782 3.99787
C 14.96920 0.89531 5.42794
C 15.01485 2.49122 5.45494
C 15.17749 2.74838 3.93649
C 13.65987 0.41134 6.06625
C 16.02597 3.14943 6.42696
C 17.43868 2.86089 5.97080
N 15.55964 3.57768 1.09672
C 15.25939 4.44638 2.15591
C 15.11693 5.79636 1.58029
C 15.32923 5.61530 0.21501
C 15.56196 4.23533 -0.04922
C 14.76974 6.97549 2.29690
C 15.38924 6.26288 -1.08534
O 15.36327 7.43149 -1.47412
C 15.40813 5.13304 -2.20736
C 16.50537 5.47491 -3.17819
O 17.70283 5.43966 -2.82858
O 15.99414 5.55654 -4.41614
C 17.03584 5.86413 -5.43221
H 14.90379 -1.78138 -1.81404
H 15.51660 -1.39514 4.38348
H 14.97661 4.85560 4.10819
H 14.80342 2.63831 -4.02154
H 15.21994 -0.14040 -3.79188
H 12.86759 1.62445 -3.22827
H 12.94351 0.12477 -2.25283
H 12.89993 -0.01984 -3.98712
H 17.31932 0.99524 -3.67246
H 17.47931 2.79714 -3.67864
H 15.95482 2.01896 -5.94962
H 17.07481 0.72971 -5.72315
H 15.68835 -3.67985 -1.34169
H 15.32062 -4.65558 0.02899
H 17.03579 -4.35920 -0.35529
H 16.19383 -5.44599 1.93413
H 17.31682 -5.58645 3.39961
H 17.83165 -4.84774 1.85942
H 15.76036 0.50447 6.06648
H 14.05452 2.92314 5.73761
H 13.80606 -0.18195 6.96921
H 13.10602 -0.15044 5.31461
H 12.95133 1.20205 6.31152
H 15.91955 2.72930 7.42651
H 15.90537 4.22987 6.50676
H 17.63336 1.87461 6.39053
H 18.12839 3.60130 6.37737
H 17.49605 2.77043 4.88589
H 15.43020 7.76105 1.92994
H 14.88219 6.83333 3.37149
H 13.72835 7.09411 1.99810
H 14.42611 5.14340 -2.67922
H 16.71318 6.76084 -5.96139
H 17.17665 4.95478 -6.01673
H 18.00326 6.18901 -5.04764
