79

Mg 31.54024 2.84055 2.38824
C 31.06825 6.33602 1.72643
C 30.95871 2.28715 -0.92691
C 31.50360 -0.26951 3.01562
C 30.95267 3.54004 5.75145
N 31.08453 4.21506 0.71632
C 30.99118 5.52845 0.57260
C 30.88506 6.00843 -0.89978
C 30.29027 4.66512 -1.54833
C 30.83717 3.64813 -0.54868
C 28.77239 4.60076 -1.51313
C 32.28324 6.37173 -1.51227
C 32.22611 7.13735 -2.83602
H 33.24379 8.15130 -3.09812
N 31.75619 1.28343 1.17691
C 31.49535 1.23964 -0.14647
C 31.79711 -0.13627 -0.57069
C 32.09986 -0.94508 0.64128
C 31.77078 0.00734 1.68276
C 31.85743 -0.54838 -2.01290
C 32.59059 -2.34835 0.83162
O 32.55639 -2.92421 1.97619
C 33.02537 -3.06067 -0.37877
N 31.06038 1.75165 4.09304
C 31.17959 0.41252 4.11434
C 31.04635 -0.12471 5.51934
C 31.05408 1.15923 6.47277
C 31.10285 2.27011 5.40087
C 29.79492 -0.95719 5.79734
C 32.11026 1.18392 7.61143
C 33.49903 1.29640 7.02486
N 31.27364 4.62077 3.58314
C 31.01373 4.68648 4.96957
C 30.79559 6.10863 5.30471
C 30.92198 6.77441 4.07620
C 31.17929 5.83141 3.04468
C 30.47529 6.61982 6.59398
C 30.88568 8.05939 3.41572
O 30.79421 9.22721 3.79195
C 30.85331 7.81940 1.84481
C 31.87362 8.72764 1.21507
O 33.08604 8.57035 1.44289
O 31.27082 9.48859 0.28342
C 32.24417 10.39859 -0.37711
H 30.56808 1.98165 -1.89797
H 31.58818 -1.31948 3.30524
H 30.86114 3.85082 6.79438
H 30.20129 6.83329 -1.06051
H 30.70370 4.48754 -2.53773
H 28.34746 5.41799 -0.94948
H 28.52878 3.65404 -1.04900
H 28.37359 4.54920 -2.53030
H 32.77685 5.45099 -1.84890
H 32.87901 6.91593 -0.80550
H 31.22480 7.53655 -3.03842
H 32.40384 6.43294 -3.65225
H 31.42728 0.21859 -2.66874
H 31.18997 -1.40932 -2.12762
H 32.86294 -0.83643 -2.32695
H 32.20216 -3.10342 -1.08797
H 33.42482 -4.01455 -0.02889
H 33.82343 -2.48224 -0.85746
H 31.88884 -0.75618 5.77343
H 30.09862 1.27752 7.00468
H 30.02099 -1.97303 6.17288
H 29.21062 -1.00914 4.88826
H 29.09121 -0.51289 6.49919
H 32.08503 0.24609 8.17178
H 31.95922 1.98856 8.32329
H 33.74397 0.26090 6.77023
H 34.19407 1.69708 7.75999
H 33.48670 1.87127 6.09158
H 31.08071 7.50495 6.73718
H 30.65930 5.88129 7.37147
H 29.40876 6.82212 6.46414
H 29.84192 8.03895 1.50065
H 31.85815 11.41629 -0.26322
H 32.35853 10.01574 -1.40866
H 33.22599 10.49334 0.07176
