158

Mg 0.00000 0.00000 0.00000
C -0.21700 -2.21800 2.80100
C -1.25500 2.44200 2.02600
C -0.24500 1.85000 -2.56400
C 0.14600 -2.82400 -2.03700
N -0.61700 -0.00900 2.12600
C -0.59400 -0.90800 3.10500
C -0.93600 -0.30900 4.50200
C -1.77300 0.96400 4.03200
C -1.15500 1.16800 2.66000
C -3.26300 0.68500 3.86300
C 0.34500 0.11000 5.29900
C 0.12400 0.39700 6.78700
H 1.16800 0.03300 7.73300
N -0.18500 1.96100 -0.15200
C -0.70300 2.80000 0.77700
C -0.62000 4.15600 0.19300
C -0.18700 4.01500 -1.22500
C -0.21400 2.58300 -1.38000
C -0.88700 5.40600 0.97400
C 0.18100 5.01300 -2.27700
O 0.30300 4.69000 -3.50800
C 0.31000 6.41400 -1.83700
N -0.26500 -0.41300 -2.02900
C -0.27900 0.56900 -2.93700
C -0.19600 0.02400 -4.33200
C 0.12400 -1.53300 -4.18000
C 0.08600 -1.63200 -2.63500
C -1.45100 0.20500 -5.19700
C 1.37300 -2.07000 -4.92300
C 2.62600 -1.49000 -4.30600
N 0.15000 -2.14400 0.30300
C 0.17300 -3.13600 -0.68800
C 0.17300 -4.43800 0.00400
C 0.13300 -4.11100 1.35800
C 0.08300 -2.69500 1.50200
C 0.14900 -5.71500 -0.62300
C 0.09600 -4.62900 2.71600
O 0.20800 -5.74700 3.22100
C -0.25500 -3.42800 3.70100
C 0.71700 -3.48200 4.84800
O 1.93100 -3.25500 4.66900
O 0.03800 -3.55600 6.00300
C 0.94300 -3.58300 7.18300
H -1.85900 3.22000 2.49700
H -0.21800 2.45300 -3.47400
H 0.27600 -3.74700 -2.60500
H -1.55400 -0.94900 5.13200
H -1.58500 1.83100 4.66500
H -3.48400 -0.37700 3.96900
H -3.51100 1.02700 2.85800
H -3.85200 1.30100 4.54300
H 0.66900 1.09600 4.96600
H 1.13000 -0.63900 5.18900
H -0.84400 0.02600 7.12500
H 0.06200 1.47700 6.92100
H -1.34400 5.18600 1.93800
H -1.65100 5.96300 0.43200
H 0.00700 6.02000 1.08400
H -0.63500 6.74400 -1.40500
H 0.66500 6.97000 -2.70400
H 1.04800 6.46600 -1.03600
H 0.60800 0.50100 -4.89100
H -0.69200 -2.15600 -4.54700
H -1.26700 0.74000 -6.12900
H -2.20400 0.71400 -4.59600
H -1.96700 -0.72000 -5.45300
H 1.35600 -1.75900 -5.96700
H 1.45200 -3.15700 -4.90200
H 2.71400 -0.52200 -4.79800
H 3.48700 -2.12100 -4.52900
H 2.49500 -1.30300 -3.24000
H 0.86700 -6.33300 -0.08400
H 0.40400 -5.64200 -1.68000
H -0.89100 -5.99900 -0.46300
H -1.28300 -3.58100 4.02800
H 0.69800 -4.47800 7.75500
H 0.83300 -2.61900 7.68000
H 2.00000 -3.75400 6.97600
Mg 15.76628 1.41940 1.19766
C 15.70568 -1.68098 2.98545
C 14.53777 2.89786 4.01688
C 15.38245 4.07467 -0.49314
C 15.89473 -0.44801 -1.74205
N 15.23214 0.60611 3.18611
C 15.31239 -0.58910 3.76247
C 15.01166 -0.55940 5.29089
C 14.12974 0.76760 5.34818
C 14.68976 1.48412 4.13207
C 12.64073 0.51947 5.12961
C 16.31308 -0.41990 6.15029
C 16.14351 -0.70942 7.64454
H 17.23089 -1.36036 8.35954
N 15.53308 3.29072 1.78642
C 15.03326 3.70983 2.97377
C 15.06424 5.18760 2.93022
C 15.44514 5.59423 1.54904
C 15.44323 4.32020 0.87658
C 14.80055 6.05170 4.12503
C 15.75054 6.92177 0.93057
O 15.83191 7.07970 -0.33553
C 15.86603 8.06546 1.85344
N 15.43218 1.77458 -0.83208
C 15.36186 3.02103 -1.31208
C 15.40275 3.03185 -2.81146
C 15.76205 1.54046 -3.25466
C 15.78587 0.87766 -1.85523
C 14.11167 3.47568 -3.51299
C 16.99279 1.35848 -4.17801
C 18.25581 1.71292 -3.42551
N 15.97430 -0.67878 0.68249
C 15.98054 -1.23419 -0.60520
C 16.03547 -2.69876 -0.44370
C 16.04068 -2.89549 0.93584
C 15.96559 -1.63492 1.59432
C 16.01498 -3.65471 -1.49734
C 16.06736 -3.87855 2.00669
O 16.22298 -5.09941 2.05940
C 15.72869 -3.13807 3.37520
C 16.74518 -3.57761 4.39346
O 17.94616 -3.25900 4.27729
O 16.11303 -4.09547 5.45777
C 17.06327 -4.52440 6.51853
H 13.93567 3.42618 4.75871
H 15.36123 4.97120 -1.11622
H 16.02269 -1.09157 -2.61435
H 14.43246 -1.40742 5.65670
H 14.32319 1.34612 6.25129
H 12.44706 -0.51374 4.84171
H 12.34677 1.19911 4.32950
H 12.06520 0.82077 6.00526
H 16.60254 0.62993 6.19640
H 17.10930 -1.04813 5.74942
H 15.19755 -1.21195 7.84832
H 16.06333 0.24231 8.16988
H 14.38597 5.47625 4.95179
H 14.00430 6.74263 3.84878
H 15.68461 6.61227 4.42922
H 14.93147 8.18025 2.40297
H 16.17516 8.91376 1.24379
H 16.63309 7.84388 2.59604
H 16.17404 3.70867 -3.17675
H 14.94619 1.06895 -3.80304
H 14.24792 4.32255 -4.18600
H 13.37157 3.70106 -2.74569
H 13.60635 2.69302 -4.07825
H 16.92877 2.03164 -5.03224
H 17.09609 0.34369 -4.56246
H 18.30375 2.79653 -3.52715
H 19.12103 1.23858 -3.88983
H 18.16202 1.48917 -2.36267
H 16.76648 -4.40279 -1.24515
H 16.22735 -3.18849 -2.45918
H 14.98833 -4.01329 -1.42473
H 14.71764 -3.43610 3.65101
H 16.85999 -5.57509 6.72583
H 16.95166 -3.81590 7.33948
H 18.11495 -4.57059 6.23362
