79

Mg 8.94122 0.80786 0.68581
C 8.25198 -1.37339 3.45097
C 8.12503 3.41310 2.73059
C 9.10292 2.71513 -1.84473
C 8.59022 -1.95864 -1.40440
N 8.28902 0.88299 2.79797
C 8.12202 -0.00484 3.76658
C 7.87642 0.61241 5.16953
C 7.29667 2.03690 4.70736
C 7.96919 2.14258 3.34016
C 5.79120 2.03547 4.50029
C 9.20255 0.77172 5.99294
C 9.00392 1.07761 7.47912
H 9.94804 0.51136 8.43853
N 9.13419 2.77988 0.57418
C 8.77135 3.68699 1.50520
C 9.10369 5.00233 0.93634
C 9.54006 4.80719 -0.47299
C 9.24978 3.39798 -0.64610
C 9.06874 6.26918 1.74088
C 10.11071 5.73809 -1.49963
O 10.19512 5.40779 -2.73519
C 10.48136 7.08183 -1.03222
N 8.65089 0.48129 -1.34678
C 8.83514 1.47011 -2.23909
C 8.83978 0.93627 -3.65167
C 8.86206 -0.65644 -3.50897
C 8.77243 -0.77404 -1.97159
C 7.65554 1.35231 -4.52395
C 10.00304 -1.41289 -4.24288
C 11.33383 -1.08347 -3.60580
N 8.68589 -1.32088 0.95286
C 8.53419 -2.29522 -0.05794
C 8.27582 -3.58452 0.61540
C 8.27225 -3.26409 1.98134
C 8.49141 -1.86978 2.14674
C 8.03503 -4.82834 -0.03349
C 8.12233 -3.78652 3.32048
O 8.00549 -4.91083 3.80629
C 7.97666 -2.56444 4.32631
C 8.89919 -2.80748 5.48923
O 10.13200 -2.82032 5.32607
O 8.18864 -2.76791 6.63112
C 9.06189 -2.99263 7.81380
H 7.67344 4.27960 3.21446
H 9.26023 3.30904 -2.74806
H 8.56718 -2.88513 -1.98212
H 7.14348 0.09084 5.77330
H 7.63813 2.83382 5.36287
H 5.37394 1.04299 4.58409
H 5.63068 2.43064 3.50575
H 5.31571 2.74265 5.18595
H 9.71118 1.69199 5.67804
H 9.82600 -0.09414 5.88240
H 7.97180 0.89639 7.80289
H 9.14958 2.14924 7.63533
H 8.55173 6.12406 2.69746
H 8.43609 6.97736 1.19490
H 10.05869 6.71038 1.87507
H 9.60735 7.57058 -0.60833
H 10.95238 7.56932 -1.88801
H 11.21034 6.98115 -0.22040
H 9.72895 1.25403 -4.18225
H 7.94736 -1.11456 -3.91304
H 7.95893 1.86608 -5.45565
H 7.00396 1.98480 -3.93579
H 6.98947 0.54199 -4.81540
H 10.06719 -1.08449 -5.28316
H 9.87088 -2.48966 -4.25265
H 11.60685 -0.13618 -4.08034
H 12.06522 -1.85919 -3.82348
H 11.21995 -0.89356 -2.53220
H 8.60702 -5.57458 0.50171
H 8.31527 -4.78950 -1.08407
H 6.95312 -4.91169 0.09993
H 6.93178 -2.51740 4.63552
H 8.63807 -3.83558 8.36833
H 9.11201 -2.01944 8.33738
H 10.07066 -3.34463 7.63233
