79

Mg 15.77257 1.42579 1.20332
C 15.44706 -0.02150 4.47111
C 14.52907 4.31508 2.52252
C 15.62268 2.59034 -1.74436
C 15.89200 -1.81659 -0.06886
N 15.11077 1.95489 3.24643
C 15.09070 1.34228 4.42059
C 14.74189 2.26308 5.62060
C 13.93499 3.40050 4.82434
C 14.58461 3.24493 3.45085
C 12.45127 3.10184 4.68753
C 16.02074 2.84711 6.31736
C 15.76972 3.50173 7.67759
H 16.79196 3.37100 8.71220
N 15.63568 3.30122 0.56882
C 15.12451 4.35292 1.24254
C 15.23546 5.50489 0.33434
C 15.70230 5.01423 -0.99081
C 15.65059 3.58218 -0.77481
C 14.98825 6.91753 0.77791
C 16.11343 5.71724 -2.24896
O 16.25514 5.08780 -3.35646
C 16.25440 7.17839 -2.16739
N 15.54646 0.52732 -0.65786
C 15.56654 1.25900 -1.78576
C 15.66391 0.37615 -3.00702
C 15.94997 -1.09590 -2.45130
C 15.87662 -0.81258 -0.93481
C 14.42958 0.34871 -3.90816
C 17.20287 -1.82677 -3.00694
C 18.45861 -1.12996 -2.53473
N 15.87353 -0.56721 2.03145
C 15.88871 -1.78683 1.31985
C 15.84608 -2.87433 2.31883
C 15.78534 -2.20654 3.55125
C 15.76942 -0.80214 3.33470
C 15.81709 -4.26797 2.03066
C 15.72035 -2.37044 4.98569
O 15.79043 -3.32833 5.75464
C 15.37080 -0.96454 5.63964
C 16.31748 -0.73738 6.78625
O 17.53578 -0.59475 6.58126
O 15.60688 -0.50990 7.90592
C 16.50186 -0.26798 9.06881
H 13.93843 5.19481 2.77962
H 15.68181 2.93944 -2.77785
H 16.02484 -2.85468 -0.38095
H 14.10399 1.81034 6.37019
H 14.13744 4.38739 5.23230
H 12.20438 2.11384 5.04675
H 12.23026 3.18666 3.63159
H 11.86293 3.88007 5.18204
H 16.37039 3.71962 5.75061
H 16.77965 2.09506 6.41281
H 14.78108 3.24974 8.08014
H 15.73493 4.58520 7.54013
H 14.49973 6.95126 1.75955
H 14.24837 7.34337 0.09154
H 15.89078 7.53180 0.75012
H 15.31012 7.61521 -1.85119
H 16.64043 7.48949 -3.14006
H 16.98761 7.41620 -1.38863
H 16.48951 0.67983 -3.63890
H 15.12524 -1.78603 -2.68231
H 14.64616 0.63760 -4.95397
H 13.68028 1.00167 -3.48068
H 13.90819 -0.60615 -3.94825
H 17.21464 -1.78145 -4.09871
H 17.25140 -2.87394 -2.72755
H 18.57190 -0.31218 -3.25271
H 19.30930 -1.80751 -2.57075
H 18.31162 -0.68182 -1.54518
H 16.50351 -4.74260 2.71918
H 16.09007 -4.46582 0.99620
H 14.76367 -4.48566 2.22605
H 14.33173 -1.00554 5.96861
H 16.22230 -0.98955 9.84267
H 16.38813 0.80442 9.31531
H 17.55561 -0.48859 8.94470
