158

Mg 0.00000 0.00000 0.00000
C -0.21700 -2.21800 2.80100
C -1.25500 2.44200 2.02600
C -0.24500 1.85000 -2.56400
C 0.14600 -2.82400 -2.03700
N -0.61700 -0.00900 2.12600
C -0.59400 -0.90800 3.10500
C -0.93600 -0.30900 4.50200
C -1.77300 0.96400 4.03200
C -1.15500 1.16800 2.66000
C -3.26300 0.68500 3.86300
C 0.34500 0.11000 5.29900
C 0.12400 0.39700 6.78700
H 1.16800 0.03300 7.73300
N -0.18500 1.96100 -0.15200
C -0.70300 2.80000 0.77700
C -0.62000 4.15600 0.19300
C -0.18700 4.01500 -1.22500
C -0.21400 2.58300 -1.38000
C -0.88700 5.40600 0.97400
C 0.18100 5.01300 -2.27700
O 0.30300 4.69000 -3.50800
C 0.31000 6.41400 -1.83700
N -0.26500 -0.41300 -2.02900
C -0.27900 0.56900 -2.93700
C -0.19600 0.02400 -4.33200
C 0.12400 -1.53300 -4.18000
C 0.08600 -1.63200 -2.63500
C -1.45100 0.20500 -5.19700
C 1.37300 -2.07000 -4.92300
C 2.62600 -1.49000 -4.30600
N 0.15000 -2.14400 0.30300
C 0.17300 -3.13600 -0.68800
C 0.17300 -4.43800 0.00400
C 0.13300 -4.11100 1.35800
C 0.08300 -2.69500 1.50200
C 0.14900 -5.71500 -0.62300
C 0.09600 -4.62900 2.71600
O 0.20800 -5.74700 3.22100
C -0.25500 -3.42800 3.70100
C 0.71700 -3.48200 4.84800
O 1.93100 -3.25500 4.66900
O 0.03800 -3.55600 6.00300
C 0.94300 -3.58300 7.18300
H -1.85900 3.22000 2.49700
H -0.21800 2.45300 -3.47400
H 0.27600 -3.74700 -2.60500
H -1.55400 -0.94900 5.13200
H -1.58500 1.83100 4.66500
H -3.48400 -0.37700 3.96900
H -3.51100 1.02700 2.85800
H -3.85200 1.30100 4.54300
H 0.66900 1.09600 4.96600
H 1.13000 -0.63900 5.18900
H -0.84400 0.02600 7.12500
H 0.06200 1.47700 6.92100
H -1.34400 5.18600 1.93800
H -1.65100 5.96300 0.43200
H 0.00700 6.02000 1.08400
H -0.63500 6.74400 -1.40500
H 0.66500 6.97000 -2.70400
H 1.04800 6.46600 -1.03600
H 0.60800 0.50100 -4.89100
H -0.69200 -2.15600 -4.54700
H -1.26700 0.74000 -6.12900
H -2.20400 0.71400 -4.59600
H -1.96700 -0.72000 -5.45300
H 1.35600 -1.75900 -5.96700
H 1.45200 -3.15700 -4.90200
H 2.71400 -0.52200 -4.79800
H 3.48700 -2.12100 -4.52900
H 2.49500 -1.30300 -3.24000
H 0.86700 -6.33300 -0.08400
H 0.40400 -5.64200 -1.68000
H -0.89100 -5.99900 -0.46300
H -1.28300 -3.58100 4.02800
H 0.69800 -4.47800 7.75500
H 0.83300 -2.61900 7.68000
H 2.00000 -3.75400 6.97600
Mg 31.53256 2.83880 2.39533
C 31.17850 5.95790 0.67541
C 31.01805 1.29639 -0.60456
C 31.38852 0.08400 3.95959
C 30.88941 4.56564 5.35337
N 31.15894 3.63460 0.36364
C 31.10664 4.85009 -0.17209
C 31.04412 4.83699 -1.72878
C 30.43353 3.37997 -1.94393
C 30.92842 2.71863 -0.66971
C 28.90849 3.35337 -1.95078
C 32.46134 4.96641 -2.38182
C 32.46393 5.28869 -3.87898
H 33.50951 6.15153 -4.40777
N 31.72900 0.98398 1.74425
C 31.49278 0.53767 0.48715
C 31.78242 -0.91228 0.50828
C 32.02307 -1.30763 1.92386
C 31.69313 -0.08520 2.61101
C 31.85703 -1.75455 -0.72815
C 32.46809 -2.58762 2.55767
O 32.38957 -2.78567 3.81830
C 32.92185 -3.65070 1.64279
N 30.97319 2.33963 4.34355
C 31.05853 1.07981 4.78464
C 30.87988 1.00887 6.27226
C 30.89586 2.51865 6.79192
C 31.00544 3.23767 5.42470
C 29.60089 0.31465 6.76037
C 31.92446 2.87166 7.89544
C 33.32729 2.77814 7.33829
N 31.28163 4.91565 2.97394
C 30.99849 5.40505 4.25730
C 30.81213 6.86236 4.13250
C 30.98455 7.11884 2.77370
C 31.23512 5.89552 2.08886
C 30.46532 7.75155 5.18772
C 30.99099 8.13855 1.73736
O 30.93042 9.36891 1.73103
C 30.99597 7.41253 0.32007
C 32.05521 8.06868 -0.52301
O 33.26358 7.96045 -0.23063
O 31.50359 8.51518 -1.66183
C 32.50656 9.15120 -2.55720
H 30.63652 0.70471 -1.43900
H 31.43762 -0.82950 4.55587
H 30.76986 5.18176 6.24644
H 30.38193 5.58603 -2.16337
H 30.85853 2.88551 -2.81721
H 28.49189 4.32267 -1.67725
H 28.62728 2.59745 -1.21730
H 28.53163 2.99563 -2.90931
H 32.93856 3.98666 -2.40212
H 33.06381 5.70570 -1.85286
H 31.48337 5.62641 -4.21568
H 32.63440 4.36225 -4.42748
H 31.47177 -1.22400 -1.59800
H 31.16630 -2.58599 -0.58919
H 32.86248 -2.13735 -0.90388
H 32.11429 -3.90256 0.95507
H 33.28557 -4.45830 2.27709
H 33.73720 -3.26500 1.03009
H 31.69817 0.46186 6.73874
H 29.93688 2.81482 7.21774
H 29.78688 -0.52468 7.43092
H 29.03437 -0.00212 5.88515
H 28.88548 0.97046 7.25588
H 31.85778 2.15994 8.71761
H 31.78583 3.87050 8.30938
H 33.55397 1.71622 7.42651
H 34.01525 3.37531 7.93771
H 33.35203 3.02960 6.27780
H 31.09871 8.63027 5.06672
H 30.61441 7.28693 6.16215
H 29.41292 7.92766 4.96572
H 29.99949 7.54097 -0.10142
H 32.15025 10.15829 -2.77413
H 32.64615 8.47177 -3.39821
H 33.47927 9.36801 -2.11431
