79

Mg 15.77353 1.42472 1.19205
C 15.17827 4.77915 2.32010
C 15.03166 2.51065 -1.95517
C 15.84939 -1.60030 0.23762
C 15.34714 0.38744 4.49174
N 15.19510 3.41128 0.41021
C 15.06085 4.62510 0.92299
C 14.86476 5.74964 -0.12893
C 14.27090 4.85856 -1.32566
C 14.89567 3.51318 -0.96193
C 12.75914 4.71261 -1.27437
C 16.21885 6.42965 -0.53642
C 16.07226 7.73478 -1.32185
H 17.04848 8.79690 -1.09524
N 15.96467 0.65667 -0.62788
C 15.63536 1.24375 -1.79757
C 15.94920 0.25894 -2.84439
C 16.33618 -1.01833 -2.18597
C 16.03852 -0.70286 -0.80323
C 15.94359 0.59645 -4.30709
C 16.87189 -2.31424 -2.71497
O 16.91300 -3.37136 -1.99135
C 17.26001 -2.33318 -4.13289
N 15.41247 -0.37263 2.17263
C 15.56671 -1.54873 1.53945
C 15.52175 -2.70232 2.51289
C 15.54721 -2.03825 3.96751
C 15.51086 -0.54739 3.56575
C 14.30840 -3.62455 2.39591
C 16.66120 -2.51492 4.93937
C 18.01366 -2.06730 4.43353
N 15.52527 2.39344 3.10725
C 15.33751 1.77021 4.36040
C 15.10125 2.84241 5.34884
C 15.14543 4.02308 4.59216
C 15.37174 3.70760 3.22514
C 14.83670 2.65285 6.73455
C 15.04151 5.46386 4.63732
O 14.94036 6.29982 5.53436
C 14.93218 6.00954 3.14847
C 15.89425 7.15653 3.00233
O 17.12064 6.96715 3.08425
O 15.22380 8.24244 2.57613
C 16.13733 9.40355 2.40551
H 14.59809 2.69274 -2.93891
H 15.97591 -2.65443 -0.01985
H 15.30305 0.15225 5.55729
H 14.15265 6.51601 0.15276
H 14.63578 5.19990 -2.29092
H 12.34395 5.13554 -0.37166
H 12.56464 3.64898 -1.31811
H 12.30851 5.13869 -2.17533
H 16.71725 5.81002 -1.29299
H 16.83714 6.59360 0.32467
H 15.05180 8.13364 -1.27170
H 16.22443 7.52046 -2.38247
H 15.45994 1.56296 -4.49505
H 15.29315 -0.13341 -4.80116
H 16.93809 0.54397 -4.75529
H 16.40178 -2.06816 -4.74580
H 17.70159 -3.31722 -4.30188
H 18.01662 -1.55819 -4.29888
H 16.39231 -3.33691 2.40100
H 14.61853 -2.23690 4.52242
H 14.57984 -4.68345 2.22528
H 13.67832 -3.25979 1.59560
H 13.63173 -3.60784 3.24858
H 16.68956 -3.60669 4.97665
H 16.52759 -2.16133 5.95628
H 18.27108 -2.83875 3.70163
H 18.73619 -2.03782 5.24662
H 17.93731 -1.11511 3.89581
H 15.42611 3.38717 7.26734
H 15.08036 1.64079 7.05102
H 13.75999 2.84135 6.75513
H 13.89872 6.31908 2.98808
H 15.73208 10.22052 3.01052
H 16.20666 9.57130 1.31427
H 17.13880 9.31709 2.81051
