79

Mg 13.14661 1.17985 0.99183
C 12.91810 3.62248 -1.62741
C 12.65968 -1.20713 -1.39561
C 12.89307 -0.95817 3.32249
C 12.47477 3.74514 3.25316
N 12.84160 1.31467 -1.19474
C 12.83548 2.29209 -2.08858
C 12.81599 1.81333 -3.56505
C 12.16438 0.36309 -3.33901
C 12.60834 0.11750 -1.89844
C 10.64520 0.37359 -3.37543
C 14.25650 1.70663 -4.17788
C 14.29787 1.54471 -5.69901
H 15.38580 2.18018 -6.43728
N 13.31195 -0.79727 0.94448
C 13.09994 -1.60643 -0.11457
C 13.33185 -2.97519 0.37213
C 13.53707 -2.92082 1.84510
C 13.22792 -1.52872 2.10311
C 13.42186 -4.16047 -0.54463
C 13.93214 -3.95415 2.85621
O 13.81835 -3.74236 4.11519
C 14.36810 -5.25511 2.32807
N 12.53499 1.32055 2.97386
C 12.57001 0.24940 3.78586
C 12.34982 0.64877 5.22545
C 12.40054 2.24714 5.24046
C 12.55925 2.50951 3.72673
C 11.03942 0.17551 5.85413
C 13.41168 2.91007 6.21554
C 14.82626 2.61654 5.77035
N 12.94522 3.32867 0.89142
C 12.63681 4.20702 1.95324
C 12.49458 5.55822 1.37320
C 12.70912 5.36691 -0.00007
C 12.94690 3.99026 -0.26043
C 12.15730 6.74031 2.09085
C 12.77800 6.01488 -1.29007
O 12.74475 7.18165 -1.67899
C 12.79119 4.89506 -2.41800
C 13.88930 5.22822 -3.39046
O 15.07998 5.20249 -3.03237
O 13.37109 5.30890 -4.62954
C 14.42367 5.62659 -5.63103
H 12.28845 -2.01596 -2.02558
H 12.90118 -1.63672 4.17864
H 12.36269 4.61388 3.90538
H 12.19137 2.40276 -4.22551
H 12.60371 -0.37542 -4.00456
H 10.25043 1.37725 -3.42978
H 10.32570 -0.10966 -2.46141
H 10.28335 -0.25735 -4.19231
H 14.70462 0.75154 -3.87501
H 14.85728 2.54646 -3.88741
H 13.33176 1.77482 -6.16445
H 14.46279 0.48979 -5.93133
H 13.06563 -3.91690 -1.55318
H 12.70720 -4.90448 -0.17645
H 14.41890 -4.60581 -0.56067
H 13.57167 -5.68555 1.72566
H 14.69387 -5.82921 3.19765
H 15.21829 -5.09281 1.65618
H 13.14114 0.26612 5.85830
H 11.43452 2.68270 5.53529
H 11.18745 -0.42868 6.76907
H 10.48838 -0.38688 5.11209
H 10.33817 0.96748 6.11148
H 13.30682 2.48478 7.21669
H 13.28360 3.98352 6.30661
H 15.01611 1.62408 6.18995
H 15.51605 3.35459 6.17472
H 14.88547 2.52993 4.67918
H 12.81050 7.52235 1.72722
H 12.26514 6.59823 3.16414
H 11.11115 6.85616 1.79519
H 11.80933 4.89684 -2.89290
H 14.09743 6.52550 -6.16321
H 14.55362 4.70579 -6.23019
H 15.39151 5.94100 -5.25836
