79

Mg 10.51781 0.94371 0.80602
C 10.66047 -2.62142 0.42063
C 9.44062 0.40582 3.99741
C 9.95122 4.05731 1.03382
C 10.49161 1.17924 -2.67098
N 10.13935 -0.91310 1.94676
C 10.28746 -2.20907 1.71688
C 10.09883 -3.10973 2.96700
C 9.17882 -2.12276 3.83784
C 9.63407 -0.78645 3.25500
C 7.69336 -2.28355 3.56053
C 11.45595 -3.41854 3.69148
C 11.38884 -4.53776 4.73292
H 12.54533 -5.41611 4.88623
N 10.27661 2.09141 2.40702
C 9.85327 1.70513 3.62884
C 9.82669 2.92555 4.44984
C 10.11082 4.09029 3.56816
C 10.10318 3.44628 2.26998
C 9.62952 2.90113 5.93778
C 10.33754 5.54546 3.84615
O 10.33104 6.41913 2.90833
C 10.47438 5.92951 5.25869
N 10.04556 2.39769 -0.60297
C 9.90270 3.68605 -0.24568
C 9.83902 4.58443 -1.45780
C 10.21319 3.65316 -2.70292
C 10.34718 2.29805 -1.97415
C 8.49242 5.26047 -1.71477
C 11.38435 4.12483 -3.60768
C 12.68650 4.05892 -2.84252
N 10.75127 -0.42711 -0.84758
C 10.67978 -0.12258 -2.22462
C 10.78593 -1.39996 -2.95908
C 10.88950 -2.36902 -1.94978
C 10.83034 -1.74193 -0.67590
C 10.73083 -1.55358 -4.37311
C 11.02474 -3.78088 -1.67221
O 11.20950 -4.78684 -2.35606
C 10.75532 -4.01962 -0.12405
C 11.84901 -4.90553 0.40654
O 13.02591 -4.50513 0.44096
O 11.29764 -5.98879 0.98352
C 12.34222 -6.89256 1.53476
H 8.88271 0.34995 4.93256
H 9.86375 5.14609 1.05362
H 10.59007 1.17754 -3.75863
H 9.57490 -4.03980 2.78192
H 9.42616 -2.18192 4.89457
H 7.50794 -2.95462 2.73505
H 7.32789 -1.29121 3.33085
H 7.17148 -2.59384 4.47030
H 11.71560 -2.57276 4.34108
H 12.22796 -3.63408 2.97862
H 10.46771 -5.12678 4.64622
H 11.32499 -4.08494 5.72534
H 9.28090 1.91937 6.28129
H 8.79792 3.57814 6.16128
H 10.51364 3.23456 6.48535
H 9.57864 5.63632 5.80105
H 10.71942 6.99335 5.24987
H 11.30575 5.36521 5.69571
H 10.56652 5.38357 -1.38551
H 9.37113 3.55145 -3.40323
H 8.55976 6.36382 -1.76121
H 7.80308 4.95388 -0.93929
H 7.97969 4.93929 -2.61984
H 11.24484 5.17032 -3.89341
H 11.48105 3.55090 -4.52324
H 12.69172 4.99905 -2.28287
H 13.53054 4.00231 -3.52694
H 12.67323 3.24098 -2.11282
H 11.51025 -2.25456 -4.64074
H 10.86027 -0.60061 -4.88191
H 9.71661 -1.94546 -4.48735
H 9.77206 -4.48216 -0.03015
H 12.17912 -7.87868 1.08906
H 12.25331 -6.81600 2.63476
H 13.37082 -6.70049 1.25270
