158

Mg 0.00000 0.00000 0.00000
C -0.21700 -2.21800 2.80100
C -1.25500 2.44200 2.02600
C -0.24500 1.85000 -2.56400
C 0.14600 -2.82400 -2.03700
N -0.61700 -0.00900 2.12600
C -0.59400 -0.90800 3.10500
C -0.93600 -0.30900 4.50200
C -1.77300 0.96400 4.03200
C -1.15500 1.16800 2.66000
C -3.26300 0.68500 3.86300
C 0.34500 0.11000 5.29900
C 0.12400 0.39700 6.78700
H 1.16800 0.03300 7.73300
N -0.18500 1.96100 -0.15200
C -0.70300 2.80000 0.77700
C -0.62000 4.15600 0.19300
C -0.18700 4.01500 -1.22500
C -0.21400 2.58300 -1.38000
C -0.88700 5.40600 0.97400
C 0.18100 5.01300 -2.27700
O 0.30300 4.69000 -3.50800
C 0.31000 6.41400 -1.83700
N -0.26500 -0.41300 -2.02900
C -0.27900 0.56900 -2.93700
C -0.19600 0.02400 -4.33200
C 0.12400 -1.53300 -4.18000
C 0.08600 -1.63200 -2.63500
C -1.45100 0.20500 -5.19700
C 1.37300 -2.07000 -4.92300
C 2.62600 -1.49000 -4.30600
N 0.15000 -2.14400 0.30300
C 0.17300 -3.13600 -0.68800
C 0.17300 -4.43800 0.00400
C 0.13300 -4.11100 1.35800
C 0.08300 -2.69500 1.50200
C 0.14900 -5.71500 -0.62300
C 0.09600 -4.62900 2.71600
O 0.20800 -5.74700 3.22100
C -0.25500 -3.42800 3.70100
C 0.71700 -3.48200 4.84800
O 1.93100 -3.25500 4.66900
O 0.03800 -3.55600 6.00300
C 0.94300 -3.58300 7.18300
H -1.85900 3.22000 2.49700
H -0.21800 2.45300 -3.47400
H 0.27600 -3.74700 -2.60500
H -1.55400 -0.94900 5.13200
H -1.58500 1.83100 4.66500
H -3.48400 -0.37700 3.96900
H -3.51100 1.02700 2.85800
H -3.85200 1.30100 4.54300
H 0.66900 1.09600 4.96600
H 1.13000 -0.63900 5.18900
H -0.84400 0.02600 7.12500
H 0.06200 1.47700 6.92100
H -1.34400 5.18600 1.93800
H -1.65100 5.96300 0.43200
H 0.00700 6.02000 1.08400
H -0.63500 6.74400 -1.40500
H 0.66500 6.97000 -2.70400
H 1.04800 6.46600 -1.03600
H 0.60800 0.50100 -4.89100
H -0.69200 -2.15600 -4.54700
H -1.26700 0.74000 -6.12900
H -2.20400 0.71400 -4.59600
H -1.96700 -0.72000 -5.45300
H 1.35600 -1.75900 -5.96700
H 1.45200 -3.15700 -4.90200
H 2.71400 -0.52200 -4.79800
H 3.48700 -2.12100 -4.52900
H 2.49500 -1.30300 -3.24000
H 0.86700 -6.33300 -0.08400
H 0.40400 -5.64200 -1.68000
H -0.89100 -5.99900 -0.46300
H -1.28300 -3.58100 4.02800
H 0.69800 -4.47800 7.75500
H 0.83300 -2.61900 7.68000
H 2.00000 -3.75400 6.97600
Mg 8.94097 0.80363 0.68682
C 9.01360 -2.74665 1.20572
C 7.78854 1.09689 3.88378
C 8.43792 3.88423 0.11735
C 8.98965 0.16410 -2.73872
N 8.49933 -0.70327 2.24454
C 8.62374 -2.01781 2.34862
C 8.39050 -2.57472 3.77866
C 7.47495 -1.38692 4.35292
C 7.97080 -0.24593 3.46696
C 5.99220 -1.58790 4.08760
C 9.72576 -2.71470 4.59075
C 9.61341 -3.53727 5.87625
H 10.74717 -4.36804 6.27231
N 8.69279 2.31840 1.94478
C 8.23671 2.25623 3.21341
C 8.22028 3.64322 3.70345
C 8.54734 4.54626 2.56667
C 8.55171 3.59877 1.47017
C 7.99282 3.99421 5.14515
C 8.80010 6.02091 2.47879
O 8.83145 6.63279 1.35298
C 8.91692 6.74317 3.75401
N 8.52887 1.86725 -1.05135
C 8.40698 3.20613 -1.03006
C 8.38722 3.77438 -2.42902
C 8.76590 2.55587 -3.39308
C 8.85568 1.42362 -2.34650
C 7.06109 4.38646 -2.87974
C 9.96497 2.76782 -4.35743
C 11.24976 2.87405 -3.56787
N 9.17762 -0.94017 -0.56666
C 9.14041 -0.98793 -1.97748
C 9.23340 -2.40976 -2.36757
C 9.29557 -3.09771 -1.14635
C 9.22455 -2.17159 -0.07082
C 9.20333 -2.91061 -3.69962
C 9.39441 -4.39757 -0.52243
O 9.57088 -5.54523 -0.92920
C 9.08887 -4.23789 1.02920
C 10.15212 -4.98079 1.79084
O 11.33655 -4.60348 1.75363
O 9.56581 -5.87670 2.60568
C 10.57919 -6.63093 3.39054
H 7.21090 1.28523 4.78918
H 8.37382 4.94474 -0.13699
H 9.10983 -0.11066 -3.78883
H 7.85024 -3.51298 3.81824
H 7.69970 -1.18438 5.39687
H 5.80878 -2.44073 3.45105
H 5.65312 -0.67857 3.60886
H 5.44553 -1.65281 5.03273
H 9.99071 -1.73783 5.01533
H 10.50704 -3.11378 3.97352
H 8.68159 -4.11438 5.91621
H 9.53956 -2.85007 6.72261
H 7.61607 3.13503 5.71372
H 7.17185 4.71888 5.17215
H 8.87283 4.43950 5.61416
H 8.00431 6.60912 4.32988
H 9.18521 7.76704 3.48645
H 9.72687 6.29252 4.33840
H 9.13036 4.55444 -2.54010
H 7.93604 2.29612 -4.06665
H 7.15338 5.44205 -3.19800
H 6.34982 4.29431 -2.06971
H 6.55974 3.85781 -3.68868
H 9.85404 3.71098 -4.89807
H 10.06747 1.98202 -5.09839
H 11.26425 3.92392 -3.26021
H 12.10593 2.63479 -4.19539
H 11.20405 2.26450 -2.65792
H 9.97251 -3.66866 -3.76466
H 9.36369 -2.11704 -4.42647
H 8.18331 -3.30222 -3.73777
H 8.09407 -4.64646 1.21093
H 10.40361 -7.69434 3.20074
H 10.46993 -6.28078 4.43419
H 11.61718 -6.53195 3.09517
