79

Mg 7.87357 0.71212 0.59497
C 7.28723 -2.09143 -1.56729
C 7.59826 2.70412 -2.16015
C 8.83000 3.15093 2.38519
C 9.21267 -1.52708 2.90550
N 7.49032 0.24879 -1.53357
C 7.22205 -0.84687 -2.22777
C 6.78513 -0.58803 -3.69463
C 7.47281 0.84849 -3.90045
C 7.49391 1.31976 -2.44782
C 8.90690 0.76375 -4.39597
C 5.22576 -0.50567 -3.84815
C 4.71759 -0.56370 -5.29042
H 3.45596 -1.24910 -5.55682
N 7.69913 2.66706 0.30113
C 7.57354 3.30408 -0.88196
C 7.50106 4.73795 -0.56114
C 7.75966 4.90655 0.89468
C 8.13505 3.55378 1.25412
C 7.13149 5.78105 -1.57542
C 7.69395 6.09212 1.80918
O 8.19033 6.05965 2.99045
C 7.11482 7.32150 1.24818
N 9.06620 0.83184 2.29369
C 9.28165 2.00962 2.90552
C 9.93512 1.81302 4.25263
C 9.89356 0.23760 4.52448
C 9.27658 -0.23341 3.18924
C 11.37486 2.31213 4.37278
C 9.23283 -0.23067 5.84994
C 7.74953 0.05943 5.81783
N 8.03700 -1.43555 0.76493
C 8.65865 -2.16423 1.80255
C 8.61702 -3.59016 1.41862
C 7.98962 -3.58989 0.16368
C 7.68142 -2.25598 -0.21737
C 9.16050 -4.67016 2.16986
C 7.52753 -4.41378 -0.93011
O 7.44085 -5.62482 -1.12909
C 7.16606 -3.46941 -2.15645
C 5.82221 -3.88940 -2.68578
O 4.79972 -3.75803 -1.99018
O 5.93361 -4.17189 -3.99657
C 4.62412 -4.58286 -4.56942
H 7.75633 3.39563 -2.98823
H 9.08515 3.94581 3.08984
H 9.52134 -2.29657 3.61633
H 7.17667 -1.29457 -4.41663
H 6.84887 1.50220 -4.50436
H 9.26703 -0.25413 -4.41522
H 9.49182 1.35905 -3.70711
H 8.99870 1.25282 -5.36999
H 4.89150 0.50256 -3.57159
H 4.74475 -1.26646 -3.26466
H 5.49362 -0.90240 -5.98756
H 4.48776 0.45293 -5.61853
H 7.16001 5.37825 -2.59539
H 7.92386 6.53721 -1.55975
H 6.17742 6.26428 -1.35423
H 7.68638 7.62362 0.37382
H 7.07203 8.02952 2.07809
H 6.09920 7.10259 0.90004
H 9.37676 2.31876 5.03081
H 10.90399 -0.19423 4.57341
H 11.51510 3.04837 5.18663
H 11.66978 2.73564 3.42189
H 12.12230 1.53462 4.52117
H 9.64045 0.32971 6.69491
H 9.38413 -1.28437 6.05927
H 7.69689 1.10973 6.11979
H 7.21880 -0.58024 6.52011
H 7.35693 -0.01006 4.79670
H 8.42805 -5.46604 2.14550
H 9.38836 -4.36960 3.19041
H 10.06484 -4.87501 1.59066
H 7.95388 -3.58450 -2.90189
H 4.77171 -5.56318 -5.03297
H 4.31472 -3.75343 -5.23280
H 3.81855 -4.79572 -3.87645
