79

Mg 13.13326 1.18999 1.00379
C 15.38345 1.65263 3.76090
C 10.80056 0.16787 3.27279
C 11.28069 0.34568 -1.42984
C 15.92293 1.14022 -1.08451
N 13.20204 0.98098 3.20466
C 14.09066 1.24495 4.15071
C 13.53987 1.13903 5.59811
C 12.31867 0.13457 5.31778
C 12.06058 0.46730 3.84967
C 12.71037 -1.33059 5.41375
C 13.03406 2.51896 6.14764
C 12.77096 2.55358 7.65474
H 13.06284 3.78453 8.38415
N 11.17962 0.84765 0.93534
C 10.38491 0.46166 1.95550
C 9.03562 0.32595 1.38527
C 9.12953 0.50347 -0.08931
C 10.56802 0.55290 -0.25779
C 7.81048 0.13284 2.23093
C 8.09607 0.59853 -1.17057
O 8.40902 0.51276 -2.41055
C 6.69642 0.70126 -0.73248
N 13.54915 0.58781 -0.94217
C 12.55755 0.32984 -1.81287
C 13.08992 0.18471 -3.21853
C 14.62124 0.64028 -3.14715
C 14.73860 0.89619 -1.62856
C 13.00392 -1.21745 -3.82098
C 15.06752 1.76359 -4.12269
C 14.39850 3.06693 -3.74972
N 15.25242 1.54469 1.23053
C 16.24561 1.44510 0.23167
C 17.54937 1.66524 0.89058
C 17.22350 1.85632 2.24180
C 15.81781 1.74188 2.41624
C 18.82131 1.62318 0.25300
C 17.75001 2.11826 3.56198
O 18.86028 2.39231 4.01578
C 16.59411 1.87253 4.62494
C 16.57671 3.04189 5.57090
O 16.27368 4.17801 5.16591
O 16.70709 2.59065 6.83175
C 16.68443 3.71272 7.80759
H 10.07357 -0.38208 3.87106
H 10.67773 0.16060 -2.32184
H 16.83130 1.23765 -1.68288
H 14.22496 0.70080 6.31392
H 11.45250 0.38699 5.92392
H 13.77569 -1.45546 5.53879
H 12.38242 -1.78404 4.48754
H 12.14092 -1.82178 6.20798
H 12.01789 2.70191 5.77526
H 13.71148 3.30672 5.88089
H 13.20778 1.68914 8.16939
H 11.69608 2.44996 7.82182
H 8.07179 -0.12577 3.26449
H 7.29605 -0.75615 1.85026
H 7.12756 0.98376 2.18357
H 6.44395 -0.16407 -0.12427
H 6.11489 0.84956 -1.64446
H 6.59574 1.58035 -0.08620
H 12.56060 0.83739 -3.90185
H 15.30453 -0.18971 -3.37969
H 12.44112 -1.24970 -4.77297
H 12.55321 -1.87585 -3.09030
H 13.96204 -1.69984 -4.00672
H 14.74680 1.53036 -5.14097
H 16.14204 1.91089 -4.14925
H 13.41890 2.98793 -4.23059
H 14.96237 3.91216 -4.13920
H 14.23082 3.12785 -2.66814
H 19.38828 2.46233 0.63362
H 18.72484 1.66597 -0.82988
H 19.17879 0.64825 0.59505
H 16.81386 0.93495 5.13702
H 17.60105 3.63870 8.40091
H 15.72464 3.61807 8.34944
H 16.76702 4.71965 7.41552
