158

Mg 0.00000 0.00000 0.00000
C -0.21700 -2.21800 2.80100
C -1.25500 2.44200 2.02600
C -0.24500 1.85000 -2.56400
C 0.14600 -2.82400 -2.03700
N -0.61700 -0.00900 2.12600
C -0.59400 -0.90800 3.10500
C -0.93600 -0.30900 4.50200
C -1.77300 0.96400 4.03200
C -1.15500 1.16800 2.66000
C -3.26300 0.68500 3.86300
C 0.34500 0.11000 5.29900
C 0.12400 0.39700 6.78700
H 1.16800 0.03300 7.73300
N -0.18500 1.96100 -0.15200
C -0.70300 2.80000 0.77700
C -0.62000 4.15600 0.19300
C -0.18700 4.01500 -1.22500
C -0.21400 2.58300 -1.38000
C -0.88700 5.40600 0.97400
C 0.18100 5.01300 -2.27700
O 0.30300 4.69000 -3.50800
C 0.31000 6.41400 -1.83700
N -0.26500 -0.41300 -2.02900
C -0.27900 0.56900 -2.93700
C -0.19600 0.02400 -4.33200
C 0.12400 -1.53300 -4.18000
C 0.08600 -1.63200 -2.63500
C -1.45100 0.20500 -5.19700
C 1.37300 -2.07000 -4.92300
C 2.62600 -1.49000 -4.30600
N 0.15000 -2.14400 0.30300
C 0.17300 -3.13600 -0.68800
C 0.17300 -4.43800 0.00400
C 0.13300 -4.11100 1.35800
C 0.08300 -2.69500 1.50200
C 0.14900 -5.71500 -0.62300
C 0.09600 -4.62900 2.71600
O 0.20800 -5.74700 3.22100
C -0.25500 -3.42800 3.70100
C 0.71700 -3.48200 4.84800
O 1.93100 -3.25500 4.66900
O 0.03800 -3.55600 6.00300
C 0.94300 -3.58300 7.18300
H -1.85900 3.22000 2.49700
H -0.21800 2.45300 -3.47400
H 0.27600 -3.74700 -2.60500
H -1.55400 -0.94900 5.13200
H -1.58500 1.83100 4.66500
H -3.48400 -0.37700 3.96900
H -3.51100 1.02700 2.85800
H -3.85200 1.30100 4.54300
H 0.66900 1.09600 4.96600
H 1.13000 -0.63900 5.18900
H -0.84400 0.02600 7.12500
H 0.06200 1.47700 6.92100
H -1.34400 5.18600 1.93800
H -1.65100 5.96300 0.43200
H 0.00700 6.02000 1.08400
H -0.63500 6.74400 -1.40500
H 0.66500 6.97000 -2.70400
H 1.04800 6.46600 -1.03600
H 0.60800 0.50100 -4.89100
H -0.69200 -2.15600 -4.54700
H -1.26700 0.74000 -6.12900
H -2.20400 0.71400 -4.59600
H -1.96700 -0.72000 -5.45300
H 1.35600 -1.75900 -5.96700
H 1.45200 -3.15700 -4.90200
H 2.71400 -0.52200 -4.79800
H 3.48700 -2.12100 -4.52900
H 2.49500 -1.30300 -3.24000
H 0.86700 -6.33300 -0.08400
H 0.40400 -5.64200 -1.68000
H -0.89100 -5.99900 -0.46300
H -1.28300 -3.58100 4.02800
H 0.69800 -4.47800 7.75500
H 0.83300 -2.61900 7.68000
H 2.00000 -3.75400 6.97600
Mg 15.77444 1.42306 1.19198
C 18.40262 -0.75587 2.29832
C 17.64074 4.02540 2.36645
C 13.29277 3.32180 0.64102
C 13.67260 -1.35667 1.15921
N 17.75024 1.49807 2.18337
C 18.68388 0.61208 2.49591
C 20.02346 1.23176 2.97664
C 19.46328 2.64625 3.49074
C 18.22449 2.75541 2.60407
C 19.01170 2.62336 4.94156
C 21.05251 1.41263 1.80602
C 22.48389 1.72197 2.25011
H 23.58895 1.17269 1.46934
N 15.68349 3.39706 1.00857
C 16.53646 4.30299 1.53107
C 16.02157 5.62037 1.12664
C 14.70435 5.42534 0.46210
C 14.49487 4.01159 0.70191
C 16.80136 6.88997 1.30957
C 13.77951 6.35967 -0.25755
O 12.57673 6.02540 -0.54811
C 14.29290 7.71029 -0.52910
N 13.72389 1.08407 1.14008
C 12.86770 2.07159 0.82437
C 11.47850 1.53198 0.58078
C 11.63305 -0.05966 0.56186
C 13.13553 -0.17207 0.90144
C 10.42090 1.92814 1.61079
C 11.10139 -0.80349 -0.69382
C 11.94634 -0.45325 -1.89747
N 16.00945 -0.70784 1.46044
C 14.99368 -1.68838 1.43145
C 15.62361 -2.97827 1.78044
C 16.96835 -2.65223 2.01257
C 17.15863 -1.25437 1.84145
C 14.95191 -4.22796 1.89536
C 18.26796 -3.17106 2.37384
O 18.73511 -4.29483 2.55453
C 19.22839 -1.94691 2.69849
C 20.52859 -2.17246 1.97660
O 20.57027 -2.16911 0.73367
O 21.53795 -2.13785 2.86562
C 22.84944 -2.34567 2.19581
H 18.03832 4.88765 2.90248
H 12.42380 3.91403 0.34500
H 13.10486 -2.28579 1.07511
H 20.50192 0.70274 3.79210
H 20.16089 3.45049 3.27189
H 19.03212 1.62562 5.35417
H 18.00181 3.01215 4.94148
H 19.60542 3.32682 5.53230
H 20.81961 2.33844 1.26439
H 21.05141 0.55492 1.16184
H 22.63485 1.52800 3.31901
H 22.65509 2.79613 2.14585
H 17.66092 6.74178 1.97486
H 16.15437 7.58714 1.85290
H 17.09356 7.34522 0.36087
H 14.56433 8.18880 0.40889
H 13.52304 8.20060 -1.12808
H 15.21408 7.62297 -1.11597
H 11.09920 1.85966 -0.37935
H 11.08712 -0.53194 1.39177
H 9.54845 2.44212 1.16500
H 10.88998 2.55411 2.35822
H 10.02914 1.10757 2.20946
H 10.08371 -0.47859 -0.92386
H 11.07689 -1.88200 -0.57886
H 11.51708 0.49570 -2.23261
H 11.85671 -1.21978 -2.66456
H 12.98541 -0.26044 -1.60626
H 15.57855 -4.96407 1.40960
H 13.96141 -4.18967 1.44678
H 14.90631 -4.32554 2.98333
H 19.36143 -1.91288 3.78049
H 23.33215 -3.19202 2.69418
H 23.36794 -1.36971 2.24490
H 22.83840 -2.68459 1.16651
