79

Mg 31.53256 2.83880 2.39533
C 31.67805 -0.71679 2.00960
C 30.45734 2.29912 5.58840
C 30.96259 5.95073 2.61365
C 31.51318 3.06724 -1.08219
N 31.15658 0.98124 3.53933
C 31.30837 -0.31675 3.29566
C 31.11095 -1.20941 4.55722
C 30.19885 -0.22711 5.42043
C 30.65550 1.10022 4.84113
C 28.70584 -0.39125 5.15496
C 32.46318 -1.52107 5.28254
C 32.40301 -2.64308 6.32313
H 33.55369 -3.52092 6.47376
N 31.28844 3.98826 3.98341
C 30.85871 3.59781 5.20740
C 30.84612 4.81763 6.04321
C 31.12148 5.98081 5.15479
C 31.10907 5.34785 3.86073
C 30.64019 4.79647 7.52675
C 31.34783 7.43421 5.42778
O 31.33906 8.31054 4.49690
C 31.49401 7.82192 6.84247
N 31.05239 4.29717 0.98103
C 30.91560 5.58049 1.33227
C 30.85473 6.47267 0.12801
C 31.22404 5.55206 -1.12332
C 31.36058 4.19657 -0.38692
C 29.50749 7.16286 -0.12616
C 32.39407 6.02405 -2.02258
C 33.69486 5.94625 -1.25513
N 31.76277 1.46151 0.73367
C 31.69718 1.77033 -0.63271
C 31.80307 0.49719 -1.36891
C 31.90693 -0.47172 -0.37279
C 31.84196 0.15381 0.90502
C 31.73764 0.34367 -2.78191
C 32.03290 -1.89238 -0.09045
O 32.22517 -2.89872 -0.77442
C 31.76733 -2.11997 1.46310
C 32.86200 -3.00982 1.98575
O 34.04319 -2.61001 2.03396
O 32.31769 -4.09215 2.56266
C 33.34888 -5.00251 3.12839
H 29.89250 2.25219 6.52151
H 30.87471 7.03883 2.64113
H 31.59949 3.06843 -2.17031
H 30.58129 -2.14446 4.37400
H 30.43696 -0.27895 6.48266
H 28.52157 -1.06773 4.32050
H 28.33992 0.60895 4.92215
H 28.18277 -0.69831 6.06099
H 32.72617 -0.68317 5.92816
H 33.24742 -1.74304 4.55796
H 31.48714 -3.22693 6.22723
H 32.33245 -2.18883 7.31150
H 30.29840 3.82073 7.86976
H 29.80843 5.46685 7.74234
H 31.52707 5.12487 8.06889
H 30.59595 7.53372 7.38925
H 31.73783 8.88371 6.83961
H 32.31531 7.25442 7.28105
H 31.58070 7.28121 0.20324
H 30.38622 5.44322 -1.81244
H 29.57464 8.25000 -0.17431
H 28.81505 6.84799 0.65402
H 28.98677 6.83216 -1.02444
H 32.25400 7.06508 -2.31168
H 32.49895 5.43758 -2.93543
H 33.70607 6.88322 -0.69944
H 34.53941 5.89000 -1.94272
H 33.67932 5.13546 -0.52652
H 32.52471 -0.36146 -3.04890
H 31.87163 1.29811 -3.29054
H 30.72847 -0.05197 -2.89553
H 30.78579 -2.58518 1.54846
H 33.18899 -5.98463 2.68330
H 33.27363 -4.92012 4.21280
H 34.37977 -4.80716 2.83098
