79

Mg 31.53256 2.83880 2.39533
C 31.25490 5.58300 0.11399
C 31.04038 0.76637 -0.27035
C 31.32045 0.42941 4.44629
C 30.87095 5.09917 4.96412
N 31.20329 3.24296 0.24384
C 31.17865 4.33657 -0.51152
C 31.14017 4.03172 -2.03892
C 30.50995 2.56810 -1.98769
C 30.97438 2.15199 -0.60310
C 28.98497 2.56001 -2.01730
C 32.56926 4.01804 -2.67864
C 32.60028 4.05293 -4.20938
H 33.66753 4.78760 -4.87163
N 31.70963 0.89229 2.10793
C 31.48594 0.22055 0.95293
C 31.75216 -1.20310 1.25132
C 31.96443 -1.32819 2.72012
C 31.64329 0.00575 3.15928
C 31.83262 -2.26376 0.19667
C 32.37915 -2.47167 3.59110
O 32.27788 -2.42807 4.86484
C 32.83015 -3.69350 2.90062
N 30.93507 2.72208 4.39208
C 30.99352 1.56672 5.06344
C 30.79063 1.77909 6.53438
C 30.82249 3.35934 6.76141
C 30.96474 3.80694 5.28571
C 29.49333 1.20533 7.12074
C 31.83927 3.90053 7.79761
C 33.24894 3.68612 7.29366
N 31.30567 4.99042 2.56887
C 31.01040 5.71600 3.73206
C 30.84916 7.12607 3.33237
C 31.04677 7.12022 1.95297
C 31.28851 5.78685 1.51479
C 30.50014 8.20218 4.19528
C 31.08554 7.92665 0.74383
O 31.04462 9.13454 0.50542
C 31.10104 6.94704 -0.51153
C 32.18357 7.41944 -1.44335
O 33.38537 7.35282 -1.11381
O 31.65691 7.65074 -2.65565
C 32.68367 8.09426 -3.63607
H 30.66254 0.03319 -0.98563
H 31.34575 -0.35620 5.20433
H 30.74731 5.87371 5.72323
H 30.49682 4.69399 -2.61850
H 30.94058 1.91288 -2.74464
H 28.57961 3.56866 -1.93835
H 28.68040 1.95915 -1.16015
H 28.61744 2.03319 -2.89829
H 33.03112 3.04599 -2.50583
H 33.17510 4.83593 -2.28703
H 31.63057 4.33371 -4.62139
H 32.76454 3.03778 -4.57089
H 31.46942 -1.90144 -0.76425
H 31.12670 -3.04540 0.47668
H 32.83448 -2.68549 0.11437
H 32.02950 -4.05996 2.25781
H 33.17108 -4.37194 3.68186
H 33.66096 -3.44029 2.24139
H 31.59277 1.31926 7.11019
H 29.86183 3.74244 7.10643
H 29.65550 0.50481 7.94029
H 28.93554 0.73681 6.31040
H 28.78080 1.95164 7.47110
H 31.74850 3.35705 8.73746
H 31.71009 4.96108 8.01396
H 33.45732 2.65696 7.58390
H 33.93688 4.37661 7.78272
H 33.29417 3.73331 6.20545
H 31.14921 9.03436 3.92298
H 30.62664 7.92726 5.24219
H 29.45425 8.34672 3.92495
H 30.11341 7.00653 -0.96778
H 32.34681 9.04701 -4.04477
H 32.82553 7.26707 -4.33179
H 33.65269 8.37815 -3.22408
