79

Mg 31.53319 2.83149 2.40297
C 29.03368 4.02082 4.68705
C 33.79875 3.19486 4.92682
C 33.82726 2.22021 0.29797
C 29.35063 3.64231 -0.19023
N 31.32200 3.52613 4.49226
C 30.31290 3.89371 5.26747
C 30.68101 4.06131 6.76612
C 32.25378 4.33873 6.59785
C 32.48963 3.61376 5.27442
C 32.58826 5.80834 6.40362
C 30.41340 2.75733 7.59679
C 30.45686 2.94190 9.11528
H 29.54048 2.15744 9.93829
N 33.41217 2.25681 2.68181
C 34.17378 2.46768 3.77578
C 35.48339 1.86839 3.47587
C 35.48472 1.43181 2.05316
C 34.22117 1.98355 1.60693
C 36.55098 1.68394 4.51493
C 36.46727 0.65817 1.22716
O 36.37395 0.59860 -0.04978
C 37.59480 0.05001 1.94847
N 31.67227 3.11234 0.34771
C 32.76017 2.71081 -0.33286
C 32.52139 2.76300 -1.82305
C 30.95863 3.05422 -1.99781
C 30.56374 3.21559 -0.51342
C 33.32358 3.81486 -2.58886
C 30.15066 2.05770 -2.87348
C 30.08189 0.71007 -2.19191
N 29.48557 3.50279 2.24594
C 28.77590 3.80682 1.06356
C 27.45644 4.33198 1.47059
C 27.49900 4.31852 2.87291
C 28.76370 3.83913 3.30906
C 26.43480 4.78749 0.59032
C 26.76553 4.61083 4.08339
O 25.61338 4.95910 4.33831
C 27.77263 4.55026 5.31159
C 27.13144 3.73110 6.39805
O 26.90888 2.51940 6.22817
O 27.08653 4.45783 7.52952
C 26.46878 3.68411 8.63927
H 34.62586 3.48587 5.57497
H 34.54308 1.92118 -0.47122
H 28.57733 3.82521 -0.93938
H 30.20605 4.90087 7.25941
H 32.82491 3.87127 7.39575
H 31.70008 6.41238 6.29229
H 33.19326 5.85641 5.50768
H 33.22765 6.16028 7.21827
H 31.25927 2.07005 7.46678
H 29.48045 2.31000 7.31371
H 30.42225 3.99968 9.40309
H 31.42768 2.59676 9.47915
H 36.32668 2.25053 5.42711
H 37.46208 2.14915 4.12336
H 36.75450 0.63227 4.72765
H 38.15349 0.82637 2.46578
H 38.13751 -0.53445 1.20298
H 37.19681 -0.61850 2.72003
H 32.75557 1.81213 -2.28576
H 30.77664 4.02647 -2.47889
H 33.93924 3.38718 -3.40257
H 33.94475 4.35070 -1.88348
H 32.73238 4.61522 -3.03058
H 30.65629 1.89691 -3.82880
H 29.14373 2.39543 -3.09490
H 31.03108 0.24331 -2.47167
H 29.23526 0.13592 -2.56287
H 30.07763 0.82039 -1.10128
H 25.50112 4.38877 0.96417
H 26.62175 4.47053 -0.43357
H 26.54108 5.86887 0.71115
H 27.96271 5.57587 5.63027
H 25.63388 4.28117 9.01896
H 27.29219 3.46382 9.34441
H 25.96783 2.75714 8.38581
