79

Mg 8.94093 0.81237 0.67701
C 8.33147 2.81913 3.58914
C 7.95848 3.49158 -1.19148
C 9.03507 -1.06285 -1.88075
C 8.76720 -1.98963 2.74204
N 8.25668 2.83865 1.24114
C 8.12414 3.50840 2.37614
C 7.82661 5.02157 2.19907
C 7.17788 4.96890 0.73099
C 7.86249 3.70846 0.20632
C 5.67763 4.72725 0.74431
C 9.13089 5.89361 2.21976
C 8.89578 7.39899 2.36226
H 9.85558 8.18335 3.13430
N 9.02961 1.27379 -1.25115
C 8.60600 2.41425 -1.83525
C 8.87526 2.25419 -3.27262
C 9.34076 0.86081 -3.51034
C 9.12871 0.28449 -2.19771
C 8.76152 3.38551 -4.25272
C 9.87483 0.15926 -4.72228
O 9.99376 -1.11625 -4.76420
C 10.16659 1.00111 -5.89174
N 8.69644 -1.23629 0.42089
C 8.83974 -1.80362 -0.78969
C 8.89235 -3.30908 -0.68380
C 8.99786 -3.62634 0.88011
C 8.89354 -2.18968 1.43736
C 7.69963 -4.05968 -1.27576
C 10.18766 -4.51282 1.33968
C 11.49004 -3.77060 1.14399
N 8.79622 0.45334 2.80261
C 8.71078 -0.79741 3.45255
C 8.51255 -0.52771 4.89143
C 8.47307 0.87219 4.97634
C 8.61502 1.43485 3.67913
C 8.34758 -1.51120 5.90714
C 8.33294 2.00168 5.86702
O 8.26976 2.14284 7.08761
C 8.10827 3.30990 4.99269
C 9.02643 4.38085 5.51477
O 10.26029 4.25599 5.42195
O 8.29916 5.46582 5.83770
C 9.16686 6.55953 6.35025
H 7.45457 4.18957 -1.86063
H 9.17277 -1.75423 -2.71533
H 8.80171 -2.80816 3.46418
H 7.11441 5.43024 2.90585
H 7.46717 5.83404 0.14006
H 5.31296 4.51237 1.73778
H 5.50987 3.88272 0.08882
H 5.15560 5.57240 0.28656
H 9.59382 5.86910 1.22485
H 9.80124 5.55834 2.98712
H 7.87048 7.62805 2.67729
H 8.98172 7.85865 1.37467
H 8.23993 4.24576 -3.81531
H 8.09944 3.04659 -5.05686
H 9.72451 3.66818 -4.68332
H 9.26194 1.52180 -6.19660
H 10.62256 0.33383 -6.62571
H 10.88870 1.77084 -5.59731
H 9.77045 -3.70135 -1.18197
H 8.11462 -4.17024 1.24602
H 7.98787 -4.79695 -2.04869
H 7.00713 -3.33427 -1.68164
H 7.08195 -4.58913 -0.55233
H 10.24842 -5.41384 0.72434
H 10.11345 -4.83328 2.37350
H 11.71847 -3.94705 0.08863
H 12.26480 -4.17971 1.78928
H 11.35141 -2.69115 1.27525
H 8.95129 -1.19519 6.74749
H 8.63975 -2.49857 5.55571
H 7.26996 -1.43798 6.07634
H 7.05824 3.58978 5.08573
H 8.78117 6.83809 7.33582
H 9.15763 7.34030 5.56663
H 10.19542 6.31394 6.58733
