79

Mg 8.93112 0.80871 0.68781
C 6.75287 -1.74413 1.95953
C 6.24966 2.91609 0.74515
C 10.70329 2.94532 -0.84898
C 11.08678 -1.73292 -0.33148
N 6.82570 0.50811 1.29534
C 6.12764 -0.48745 1.82061
C 4.70251 -0.09423 2.29381
C 4.48070 1.18633 1.35050
C 5.93848 1.59054 1.14034
C 3.88112 0.84060 -0.00239
C 4.66390 0.29761 3.81269
C 3.26113 0.39338 4.41667
H 3.07080 -0.02131 5.80386
N 8.69573 2.76941 0.49081
C 7.53977 3.46181 0.56587
C 7.89791 4.86929 0.33160
C 9.33476 4.93026 -0.05110
C 9.63492 3.51787 -0.17420
C 6.93724 6.00120 0.55370
C 10.27867 6.07125 -0.28215
O 11.41995 5.89871 -0.83940
C 9.78940 7.41006 0.07797
N 10.54161 0.62987 -0.61476
C 11.16324 1.71929 -1.09918
C 12.45478 1.34904 -1.78855
C 12.69258 -0.19663 -1.45400
C 11.39487 -0.48818 -0.66891
C 12.48213 1.55166 -3.30334
C 14.05114 -0.57486 -0.80291
C 14.13289 0.00117 0.59240
N 9.03935 -1.33413 0.94195
C 10.01233 -2.20816 0.40954
C 9.59968 -3.58319 0.75801
C 8.39365 -3.41383 1.45465
C 8.06666 -2.03229 1.51719
C 10.28466 -4.77563 0.39057
C 7.31740 -4.09040 2.14213
O 7.09737 -5.25284 2.47985
C 6.14242 -3.04903 2.38988
C 5.70196 -3.17785 3.82233
O 6.47241 -2.87441 4.75021
O 4.38040 -3.42825 3.85615
C 3.89428 -3.55336 5.25609
H 5.42846 3.59323 0.50850
H 11.40580 3.64833 -1.30257
H 11.75556 -2.57361 -0.52808
H 3.93805 -0.83671 2.09862
H 3.93862 1.97138 1.87127
H 3.81249 -0.22670 -0.15177
H 4.53948 1.28401 -0.73791
H 2.91453 1.33772 -0.12447
H 4.98701 1.34091 3.92164
H 5.26293 -0.37517 4.39507
H 2.50217 -0.06489 3.77098
H 2.97396 1.44671 4.46189
H 5.90887 5.63843 0.67311
H 6.91307 6.58637 -0.37196
H 7.23781 6.65348 1.37641
H 8.88324 7.62634 -0.48289
H 10.63631 8.08171 -0.07534
H 9.51054 7.40731 1.13761
H 13.28267 1.92537 -1.39417
H 12.65847 -0.81954 -2.35990
H 13.30046 2.21571 -3.64017
H 11.52243 1.94391 -3.61263
H 12.55822 0.63788 -3.89020
H 14.87716 -0.13669 -1.36846
H 14.22469 -1.64476 -0.75611
H 14.46197 1.02959 0.41592
H 14.85674 -0.54754 1.19156
H 13.14145 0.04758 1.05774
H 10.29492 -5.41116 1.26607
H 11.29274 -4.56331 0.04063
H 9.63712 -5.13221 -0.41492
H 5.33960 -3.28871 1.69159
H 3.39883 -4.52585 5.33655
H 3.27424 -2.65554 5.43839
H 4.63851 -3.62965 6.04015
