158

Mg 0.00000 0.00000 0.00000
C -0.21700 -2.21800 2.80100
C -1.25500 2.44200 2.02600
C -0.24500 1.85000 -2.56400
C 0.14600 -2.82400 -2.03700
N -0.61700 -0.00900 2.12600
C -0.59400 -0.90800 3.10500
C -0.93600 -0.30900 4.50200
C -1.77300 0.96400 4.03200
C -1.15500 1.16800 2.66000
C -3.26300 0.68500 3.86300
C 0.34500 0.11000 5.29900
C 0.12400 0.39700 6.78700
H 1.16800 0.03300 7.73300
N -0.18500 1.96100 -0.15200
C -0.70300 2.80000 0.77700
C -0.62000 4.15600 0.19300
C -0.18700 4.01500 -1.22500
C -0.21400 2.58300 -1.38000
C -0.88700 5.40600 0.97400
C 0.18100 5.01300 -2.27700
O 0.30300 4.69000 -3.50800
C 0.31000 6.41400 -1.83700
N -0.26500 -0.41300 -2.02900
C -0.27900 0.56900 -2.93700
C -0.19600 0.02400 -4.33200
C 0.12400 -1.53300 -4.18000
C 0.08600 -1.63200 -2.63500
C -1.45100 0.20500 -5.19700
C 1.37300 -2.07000 -4.92300
C 2.62600 -1.49000 -4.30600
N 0.15000 -2.14400 0.30300
C 0.17300 -3.13600 -0.68800
C 0.17300 -4.43800 0.00400
C 0.13300 -4.11100 1.35800
C 0.08300 -2.69500 1.50200
C 0.14900 -5.71500 -0.62300
C 0.09600 -4.62900 2.71600
O 0.20800 -5.74700 3.22100
C -0.25500 -3.42800 3.70100
C 0.71700 -3.48200 4.84800
O 1.93100 -3.25500 4.66900
O 0.03800 -3.55600 6.00300
C 0.94300 -3.58300 7.18300
H -1.85900 3.22000 2.49700
H -0.21800 2.45300 -3.47400
H 0.27600 -3.74700 -2.60500
H -1.55400 -0.94900 5.13200
H -1.58500 1.83100 4.66500
H -3.48400 -0.37700 3.96900
H -3.51100 1.02700 2.85800
H -3.85200 1.30100 4.54300
H 0.66900 1.09600 4.96600
H 1.13000 -0.63900 5.18900
H -0.84400 0.02600 7.12500
H 0.06200 1.47700 6.92100
H -1.34400 5.18600 1.93800
H -1.65100 5.96300 0.43200
H 0.00700 6.02000 1.08400
H -0.63500 6.74400 -1.40500
H 0.66500 6.97000 -2.70400
H 1.04800 6.46600 -1.03600
H 0.60800 0.50100 -4.89100
H -0.69200 -2.15600 -4.54700
H -1.26700 0.74000 -6.12900
H -2.20400 0.71400 -4.59600
H -1.96700 -0.72000 -5.45300
H 1.35600 -1.75900 -5.96700
H 1.45200 -3.15700 -4.90200
H 2.71400 -0.52200 -4.79800
H 3.48700 -2.12100 -4.52900
H 2.49500 -1.30300 -3.24000
H 0.86700 -6.33300 -0.08400
H 0.40400 -5.64200 -1.68000
H -0.89100 -5.99900 -0.46300
H -1.28300 -3.58100 4.02800
H 0.69800 -4.47800 7.75500
H 0.83300 -2.61900 7.68000
H 2.00000 -3.75400 6.97600
Mg 31.53256 2.83880 2.39533
C 31.23678 1.19011 5.55864
C 30.28511 5.63397 3.90331
C 31.35691 4.17652 -0.47456
C 31.66538 -0.31953 0.92803
N 30.88247 3.23763 4.47354
C 30.87595 2.53858 5.60423
C 30.52180 3.39391 6.85737
C 29.71254 4.56630 6.14141
C 30.35499 4.50078 4.76704
C 28.22111 4.27940 6.00062
C 31.79673 3.93906 7.58476
C 31.55718 4.50357 8.98807
H 32.58041 4.31078 10.00452
N 31.38111 4.73840 1.87434
C 30.86211 5.74365 2.61959
C 30.97571 6.96445 1.79291
C 31.42844 6.55380 0.43478
C 31.38112 5.11867 0.55105
C 30.71647 8.34231 2.32021
C 31.82858 7.33140 -0.77904
O 31.96458 6.78112 -1.92502
C 31.97294 8.78840 -0.60774
N 31.29265 2.05496 0.47552
C 31.30838 2.84876 -0.60087
C 31.40442 2.05012 -1.86692
C 31.69725 0.54556 -1.41936
C 31.63363 0.73939 0.11578
C 30.16607 2.08110 -2.77331
C 32.94898 -0.13738 -2.02531
C 34.20127 0.53239 -1.50544
N 31.64375 0.78832 3.09833
C 31.66642 -0.37257 2.31189
C 31.63497 -1.52108 3.23601
C 31.57909 -0.94478 4.50353
C 31.54935 0.47355 4.37806
C 31.60045 -2.89280 2.85969
C 31.51274 -1.19762 5.93374
O 31.59909 -2.20202 6.64171
C 31.16556 0.17155 6.66905
C 32.11861 0.32192 7.82334
O 33.33870 0.49580 7.62711
O 31.42062 0.47507 8.95908
C 32.30660 0.65902 10.13949
H 29.68629 6.49426 4.20867
H 31.40765 4.59722 -1.48098
H 31.78953 -1.33446 0.54598
H 29.88398 2.89170 7.58496
H 29.90441 5.53443 6.60362
H 27.98165 3.25918 6.30015
H 27.99425 4.42940 4.94491
H 27.63145 5.01971 6.54194
H 32.14149 4.84065 7.07846
H 32.57135 3.17285 7.63176
H 30.57826 4.21506 9.37199
H 31.51026 5.59020 8.91568
H 30.24109 8.31335 3.29986
H 29.96995 8.79707 1.66936
H 31.61829 8.95467 2.32924
H 31.02669 9.20571 -0.26276
H 32.35018 9.16687 -1.55711
H 32.69912 8.98076 0.18259
H 32.22450 2.40325 -2.49078
H 30.87727 -0.12495 -1.67766
H 30.37303 2.42889 -3.78569
H 29.41199 2.70355 -2.29248
H 29.63949 1.13107 -2.86040
H 32.95317 -0.02809 -3.10928
H 33.01037 -1.20194 -1.79908
H 34.31229 1.38939 -2.16882
H 35.05551 -0.14015 -1.59018
H 34.05668 0.91818 -0.49612
H 32.30007 -3.40745 3.51821
H 31.87300 -3.02314 1.81263
H 30.55371 -3.12844 3.05116
H 30.13030 0.09582 7.00012
H 32.03854 -0.10926 10.86484
H 32.20420 1.70060 10.44448
H 33.36385 0.43876 9.98764
