158

Mg 0.00000 0.00000 0.00000
C -0.21700 -2.21800 2.80100
C -1.25500 2.44200 2.02600
C -0.24500 1.85000 -2.56400
C 0.14600 -2.82400 -2.03700
N -0.61700 -0.00900 2.12600
C -0.59400 -0.90800 3.10500
C -0.93600 -0.30900 4.50200
C -1.77300 0.96400 4.03200
C -1.15500 1.16800 2.66000
C -3.26300 0.68500 3.86300
C 0.34500 0.11000 5.29900
C 0.12400 0.39700 6.78700
H 1.16800 0.03300 7.73300
N -0.18500 1.96100 -0.15200
C -0.70300 2.80000 0.77700
C -0.62000 4.15600 0.19300
C -0.18700 4.01500 -1.22500
C -0.21400 2.58300 -1.38000
C -0.88700 5.40600 0.97400
C 0.18100 5.01300 -2.27700
O 0.30300 4.69000 -3.50800
C 0.31000 6.41400 -1.83700
N -0.26500 -0.41300 -2.02900
C -0.27900 0.56900 -2.93700
C -0.19600 0.02400 -4.33200
C 0.12400 -1.53300 -4.18000
C 0.08600 -1.63200 -2.63500
C -1.45100 0.20500 -5.19700
C 1.37300 -2.07000 -4.92300
C 2.62600 -1.49000 -4.30600
N 0.15000 -2.14400 0.30300
C 0.17300 -3.13600 -0.68800
C 0.17300 -4.43800 0.00400
C 0.13300 -4.11100 1.35800
C 0.08300 -2.69500 1.50200
C 0.14900 -5.71500 -0.62300
C 0.09600 -4.62900 2.71600
O 0.20800 -5.74700 3.22100
C -0.25500 -3.42800 3.70100
C 0.71700 -3.48200 4.84800
O 1.93100 -3.25500 4.66900
O 0.03800 -3.55600 6.00300
C 0.94300 -3.58300 7.18300
H -1.85900 3.22000 2.49700
H -0.21800 2.45300 -3.47400
H 0.27600 -3.74700 -2.60500
H -1.55400 -0.94900 5.13200
H -1.58500 1.83100 4.66500
H -3.48400 -0.37700 3.96900
H -3.51100 1.02700 2.85800
H -3.85200 1.30100 4.54300
H 0.66900 1.09600 4.96600
H 1.13000 -0.63900 5.18900
H -0.84400 0.02600 7.12500
H 0.06200 1.47700 6.92100
H -1.34400 5.18600 1.93800
H -1.65100 5.96300 0.43200
H 0.00700 6.02000 1.08400
H -0.63500 6.74400 -1.40500
H 0.66500 6.97000 -2.70400
H 1.04800 6.46600 -1.03600
H 0.60800 0.50100 -4.89100
H -0.69200 -2.15600 -4.54700
H -1.26700 0.74000 -6.12900
H -2.20400 0.71400 -4.59600
H -1.96700 -0.72000 -5.45300
H 1.35600 -1.75900 -5.96700
H 1.45200 -3.15700 -4.90200
H 2.71400 -0.52200 -4.79800
H 3.48700 -2.12100 -4.52900
H 2.49500 -1.30300 -3.24000
H 0.86700 -6.33300 -0.08400
H 0.40400 -5.64200 -1.68000
H -0.89100 -5.99900 -0.46300
H -1.28300 -3.58100 4.02800
H 0.69800 -4.47800 7.75500
H 0.83300 -2.61900 7.68000
H 2.00000 -3.75400 6.97600
Mg 31.53256 2.83880 2.39533
C 31.38696 4.74465 -0.63102
C 31.04714 0.05145 0.48795
C 31.20365 1.18906 5.08360
C 30.87258 5.79676 4.11595
N 31.26680 2.56178 0.21513
C 31.29102 3.36737 -0.84205
C 31.28093 2.60450 -2.20047
C 30.60896 1.24131 -1.71865
C 31.02798 1.26648 -0.25930
C 29.08551 1.25358 -1.79254
C 32.72412 2.36574 -2.75898
C 32.79307 1.92343 -4.22355
H 33.89614 2.39587 -5.04657
N 31.66200 0.89616 2.73035
C 31.44758 -0.09635 1.83356
C 31.66658 -1.36201 2.56625
C 31.83973 -1.02929 4.00757
C 31.54551 0.38095 4.00184
C 31.74280 -2.69885 1.89483
C 32.20113 -1.85385 5.20240
O 32.07038 -1.41534 6.39621
C 32.63433 -3.23800 4.93869
N 30.88398 3.35872 4.31018
C 30.89385 2.46775 5.30770
C 30.66150 3.12981 6.63346
C 30.73206 4.70161 6.36106
C 30.92239 4.66652 4.82456
C 29.33487 2.79116 7.32728
C 31.73825 5.51802 7.21045
C 33.15314 5.13096 6.84250
N 31.36182 4.94202 1.88703
C 31.05895 5.99816 2.75853
C 30.94693 7.21748 1.93709
C 31.17756 6.78021 0.63423
C 31.39242 5.37233 0.63820
C 30.60740 8.51466 2.41300
C 31.26807 7.17086 -0.76329
O 31.26673 8.24573 -1.36507
C 31.28649 5.85001 -1.65259
C 32.40400 5.98926 -2.65014
O 33.59515 6.00521 -2.27831
O 31.91346 5.84308 -3.89052
C 32.97560 5.94086 -4.92707
H 30.66633 -0.86009 0.02318
H 31.18865 0.67705 6.04799
H 30.75235 6.77080 4.59370
H 30.67054 3.06647 -2.97664
H 31.03925 0.37549 -2.22157
H 28.70674 2.24450 -2.04257
H 28.74363 0.95421 -0.80158
H 28.72477 0.48656 -2.47835
H 33.15429 1.48662 -2.27923
H 33.34296 3.25303 -2.62083
H 31.84183 2.08101 -4.73270
H 32.93755 0.84327 -4.24767
H 31.41319 -2.64564 0.85797
H 31.00872 -3.34142 2.38057
H 32.73415 -3.14436 1.97887
H 31.83950 -3.77042 4.41590
H 32.93717 -3.64698 5.90195
H 33.48758 -3.21771 4.26009
H 31.43632 2.85605 7.34841
H 29.77444 5.19112 6.53996
H 29.45754 2.37647 8.32813
H 28.78394 2.10511 6.68455
H 28.63525 3.62280 7.40668
H 31.60963 5.29476 8.26902
H 31.63360 6.59562 7.08368
H 33.32557 4.23883 7.44351
H 33.84811 5.92582 7.11531
H 33.22594 4.83735 5.79513
H 31.28588 9.20874 1.91715
H 30.70083 8.57572 3.49704
H 29.57279 8.58815 2.07826
H 30.31222 5.78389 -2.13586
H 32.67550 6.72606 -5.62107
H 33.11103 4.93609 -5.32771
H 33.94195 6.31998 -4.59276
