79

Mg 15.76755 1.42417 1.20704
C 14.24130 -0.97357 3.39804
C 13.45221 3.67653 2.30280
C 16.79737 3.42234 -1.03220
C 17.18025 -1.25603 -0.51532
N 14.11251 1.25454 2.66456
C 13.66664 0.31185 3.48118
C 12.59633 0.79414 4.49675
C 12.04394 2.06177 3.68014
C 13.28740 2.38003 2.85238
C 10.91135 1.71689 2.72743
C 13.22491 1.22413 5.86861
C 12.21888 1.41145 7.00640
H 12.62239 1.04152 8.36021
N 15.54809 3.38950 1.04012
C 14.56293 4.14601 1.56781
C 14.84207 5.52560 1.14006
C 15.97948 5.49821 0.18075
C 16.14250 4.06890 0.00590
C 14.11342 6.71364 1.69777
C 16.77875 6.57967 -0.48092
O 17.56543 6.33124 -1.46187
C 16.54308 7.95167 -0.00810
N 16.65994 1.12562 -0.64683
C 17.05789 2.16718 -1.39829
C 17.91616 1.70993 -2.55358
C 18.21283 0.16207 -2.28212
C 17.36373 -0.03863 -1.00770
C 17.30259 1.87405 -3.94390
C 19.70325 -0.27440 -2.25362
C 20.39512 0.32984 -1.05296
N 15.88930 -0.71460 1.48790
C 16.50684 -1.65342 0.63271
C 16.22845 -2.99486 1.18541
C 15.44263 -2.74266 2.32003
C 15.22831 -1.34412 2.45293
C 16.64360 -4.23169 0.61617
C 14.73680 -3.34222 3.42955
O 14.63626 -4.48230 3.88104
C 13.82189 -2.23215 4.10563
C 14.02998 -2.30188 5.59370
O 15.13395 -2.01890 6.09147
O 12.84042 -2.47836 6.19718
C 12.99352 -2.54267 7.67509
H 12.63594 4.39186 2.40712
H 17.26632 4.07449 -1.77264
H 17.66752 -2.13671 -0.93916
H 11.79305 0.09030 4.67875
H 11.80726 2.88780 4.34573
H 10.74353 0.65168 2.66989
H 11.20989 2.10553 1.76261
H 10.00548 2.26330 3.00526
H 13.60446 2.25043 5.78255
H 13.98811 0.53373 6.17109
H 11.23957 0.98011 6.76589
H 12.02022 2.47976 7.12159
H 13.22087 6.41095 2.25914
H 13.71972 7.27670 0.84464
H 14.76171 7.36812 2.28432
H 15.49355 8.20380 -0.13993
H 17.26939 8.57185 -0.53700
H 16.74310 7.98989 1.06854
H 18.85519 2.24925 -2.57492
H 17.77097 -0.47975 -3.05843
H 17.92447 2.48377 -4.62623
H 16.31895 2.31086 -3.83350
H 17.08495 0.94354 -4.46541
H 20.22559 0.10390 -3.13578
H 19.83786 -1.35078 -2.23658
H 20.65771 1.33405 -1.39894
H 21.28316 -0.24317 -0.79398
H 19.69965 0.44192 -0.21307
H 17.00135 -4.84546 1.43214
H 17.41354 -4.08363 -0.13818
H 15.70080 -4.57151 0.17924
H 12.78913 -2.44416 3.82630
H 12.54185 -3.48423 8.00242
H 12.54645 -1.60798 8.06270
H 13.99749 -2.64076 8.07117
