158

Mg 0.00000 0.00000 0.00000
C -0.21700 -2.21800 2.80100
C -1.25500 2.44200 2.02600
C -0.24500 1.85000 -2.56400
C 0.14600 -2.82400 -2.03700
N -0.61700 -0.00900 2.12600
C -0.59400 -0.90800 3.10500
C -0.93600 -0.30900 4.50200
C -1.77300 0.96400 4.03200
C -1.15500 1.16800 2.66000
C -3.26300 0.68500 3.86300
C 0.34500 0.11000 5.29900
C 0.12400 0.39700 6.78700
H 1.16800 0.03300 7.73300
N -0.18500 1.96100 -0.15200
C -0.70300 2.80000 0.77700
C -0.62000 4.15600 0.19300
C -0.18700 4.01500 -1.22500
C -0.21400 2.58300 -1.38000
C -0.88700 5.40600 0.97400
C 0.18100 5.01300 -2.27700
O 0.30300 4.69000 -3.50800
C 0.31000 6.41400 -1.83700
N -0.26500 -0.41300 -2.02900
C -0.27900 0.56900 -2.93700
C -0.19600 0.02400 -4.33200
C 0.12400 -1.53300 -4.18000
C 0.08600 -1.63200 -2.63500
C -1.45100 0.20500 -5.19700
C 1.37300 -2.07000 -4.92300
C 2.62600 -1.49000 -4.30600
N 0.15000 -2.14400 0.30300
C 0.17300 -3.13600 -0.68800
C 0.17300 -4.43800 0.00400
C 0.13300 -4.11100 1.35800
C 0.08300 -2.69500 1.50200
C 0.14900 -5.71500 -0.62300
C 0.09600 -4.62900 2.71600
O 0.20800 -5.74700 3.22100
C -0.25500 -3.42800 3.70100
C 0.71700 -3.48200 4.84800
O 1.93100 -3.25500 4.66900
O 0.03800 -3.55600 6.00300
C 0.94300 -3.58300 7.18300
H -1.85900 3.22000 2.49700
H -0.21800 2.45300 -3.47400
H 0.27600 -3.74700 -2.60500
H -1.55400 -0.94900 5.13200
H -1.58500 1.83100 4.66500
H -3.48400 -0.37700 3.96900
H -3.51100 1.02700 2.85800
H -3.85200 1.30100 4.54300
H 0.66900 1.09600 4.96600
H 1.13000 -0.63900 5.18900
H -0.84400 0.02600 7.12500
H 0.06200 1.47700 6.92100
H -1.34400 5.18600 1.93800
H -1.65100 5.96300 0.43200
H 0.00700 6.02000 1.08400
H -0.63500 6.74400 -1.40500
H 0.66500 6.97000 -2.70400
H 1.04800 6.46600 -1.03600
H 0.60800 0.50100 -4.89100
H -0.69200 -2.15600 -4.54700
H -1.26700 0.74000 -6.12900
H -2.20400 0.71400 -4.59600
H -1.96700 -0.72000 -5.45300
H 1.35600 -1.75900 -5.96700
H 1.45200 -3.15700 -4.90200
H 2.71400 -0.52200 -4.79800
H 3.48700 -2.12100 -4.52900
H 2.49500 -1.30300 -3.24000
H 0.86700 -6.33300 -0.08400
H 0.40400 -5.64200 -1.68000
H -0.89100 -5.99900 -0.46300
H -1.28300 -3.58100 4.02800
H 0.69800 -4.47800 7.75500
H 0.83300 -2.61900 7.68000
H 2.00000 -3.75400 6.97600
Mg 8.94190 0.80608 0.67158
C 8.46992 4.30155 0.00978
C 8.36038 0.25267 -2.64356
C 8.90527 -2.30398 1.29897
C 8.35434 1.50556 4.03479
N 8.48620 2.18059 -1.00033
C 8.39285 3.49397 -1.14405
C 8.28673 3.97395 -2.61643
C 7.69194 2.63064 -3.26498
C 8.23884 1.61365 -2.26533
C 6.17406 2.56629 -3.22978
C 9.68490 4.33726 -3.22892
C 9.62778 5.10288 -4.55267
H 10.64546 6.11682 -4.81477
N 9.15786 -0.75104 -0.53974
C 8.89702 -0.79483 -1.86312
C 9.19878 -2.17075 -2.28734
C 9.50153 -2.97956 -1.07537
C 9.17245 -2.02713 -0.03389
C 9.25910 -2.58286 -3.72955
C 9.99226 -4.38282 -0.88503
O 9.95806 -4.95868 0.25954
C 10.42704 -5.09514 -2.09543
N 8.46205 -0.28283 2.37639
C 8.58126 -1.62196 2.39769
C 8.44802 -2.15918 3.80269
C 8.45575 -0.87524 4.75612
C 8.50452 0.23564 3.68422
C 7.19659 -2.99166 4.08069
C 9.51193 -0.85055 5.89478
C 10.90070 -0.73808 5.30821
N 8.67531 2.58630 1.86648
C 8.41540 2.65201 3.25292
C 8.19726 4.07416 3.58806
C 8.32364 4.73994 2.35955
C 8.58096 3.79693 1.32803
C 7.87695 4.58534 4.87733
C 8.28735 6.02491 1.69907
O 8.19588 7.19274 2.07530
C 8.25498 5.78492 0.12816
C 9.27529 6.69317 -0.50159
O 10.48770 6.53587 -0.27376
O 8.67248 7.45412 -1.43323
C 9.64583 8.36412 -2.09376
H 7.96974 -0.05282 -3.61462
H 8.98985 -3.35396 1.58859
H 8.26281 1.81634 5.07773
H 7.60296 4.79881 -2.77717
H 8.10537 2.45307 -4.25438
H 5.74912 3.38352 -2.66613
H 5.93045 1.61957 -2.76565
H 5.77526 2.51472 -4.24695
H 10.17851 3.41652 -3.56555
H 10.28068 4.88146 -2.52215
H 8.62647 5.50208 -4.75507
H 9.80550 4.39847 -5.36890
H 8.82895 -1.81589 -4.38539
H 8.59164 -3.44379 -3.84428
H 10.26461 -2.87091 -4.04360
H 9.60383 -5.13789 -2.80462
H 10.82648 -6.04903 -1.74554
H 11.22510 -4.51671 -2.57411
H 9.29050 -2.79065 4.05678
H 7.50029 -0.75696 5.28803
H 7.42266 -4.00750 4.45623
H 6.61229 -3.04362 3.17161
H 6.49288 -2.54736 4.78254
H 9.48670 -1.78838 6.45513
H 9.36089 -0.04591 6.60664
H 11.14564 -1.77358 5.05358
H 11.59574 -0.33740 6.04334
H 10.88837 -0.16320 4.37493
H 8.48238 5.47047 5.02053
H 8.06097 3.84681 5.65482
H 6.81043 4.78764 4.74749
H 7.24359 6.00447 -0.21601
H 9.25982 9.38182 -1.97987
H 9.76020 7.98127 -3.12531
H 10.62766 8.45887 -1.64489
