158

Mg 0.00000 0.00000 0.00000
C -0.21700 -2.21800 2.80100
C -1.25500 2.44200 2.02600
C -0.24500 1.85000 -2.56400
C 0.14600 -2.82400 -2.03700
N -0.61700 -0.00900 2.12600
C -0.59400 -0.90800 3.10500
C -0.93600 -0.30900 4.50200
C -1.77300 0.96400 4.03200
C -1.15500 1.16800 2.66000
C -3.26300 0.68500 3.86300
C 0.34500 0.11000 5.29900
C 0.12400 0.39700 6.78700
H 1.16800 0.03300 7.73300
N -0.18500 1.96100 -0.15200
C -0.70300 2.80000 0.77700
C -0.62000 4.15600 0.19300
C -0.18700 4.01500 -1.22500
C -0.21400 2.58300 -1.38000
C -0.88700 5.40600 0.97400
C 0.18100 5.01300 -2.27700
O 0.30300 4.69000 -3.50800
C 0.31000 6.41400 -1.83700
N -0.26500 -0.41300 -2.02900
C -0.27900 0.56900 -2.93700
C -0.19600 0.02400 -4.33200
C 0.12400 -1.53300 -4.18000
C 0.08600 -1.63200 -2.63500
C -1.45100 0.20500 -5.19700
C 1.37300 -2.07000 -4.92300
C 2.62600 -1.49000 -4.30600
N 0.15000 -2.14400 0.30300
C 0.17300 -3.13600 -0.68800
C 0.17300 -4.43800 0.00400
C 0.13300 -4.11100 1.35800
C 0.08300 -2.69500 1.50200
C 0.14900 -5.71500 -0.62300
C 0.09600 -4.62900 2.71600
O 0.20800 -5.74700 3.22100
C -0.25500 -3.42800 3.70100
C 0.71700 -3.48200 4.84800
O 1.93100 -3.25500 4.66900
O 0.03800 -3.55600 6.00300
C 0.94300 -3.58300 7.18300
H -1.85900 3.22000 2.49700
H -0.21800 2.45300 -3.47400
H 0.27600 -3.74700 -2.60500
H -1.55400 -0.94900 5.13200
H -1.58500 1.83100 4.66500
H -3.48400 -0.37700 3.96900
H -3.51100 1.02700 2.85800
H -3.85200 1.30100 4.54300
H 0.66900 1.09600 4.96600
H 1.13000 -0.63900 5.18900
H -0.84400 0.02600 7.12500
H 0.06200 1.47700 6.92100
H -1.34400 5.18600 1.93800
H -1.65100 5.96300 0.43200
H 0.00700 6.02000 1.08400
H -0.63500 6.74400 -1.40500
H 0.66500 6.97000 -2.70400
H 1.04800 6.46600 -1.03600
H 0.60800 0.50100 -4.89100
H -0.69200 -2.15600 -4.54700
H -1.26700 0.74000 -6.12900
H -2.20400 0.71400 -4.59600
H -1.96700 -0.72000 -5.45300
H 1.35600 -1.75900 -5.96700
H 1.45200 -3.15700 -4.90200
H 2.71400 -0.52200 -4.79800
H 3.48700 -2.12100 -4.52900
H 2.49500 -1.30300 -3.24000
H 0.86700 -6.33300 -0.08400
H 0.40400 -5.64200 -1.68000
H -0.89100 -5.99900 -0.46300
H -1.28300 -3.58100 4.02800
H 0.69800 -4.47800 7.75500
H 0.83300 -2.61900 7.68000
H 2.00000 -3.75400 6.97600
Mg 7.88314 0.70970 0.59883
C 7.83983 1.80180 -2.80964
C 7.37544 -2.45737 -0.56520
C 7.46451 -0.21119 3.60438
C 7.25341 4.01378 1.51107
N 7.65518 -0.09850 -1.44946
C 7.71814 0.41717 -2.67310
C 7.71868 -0.66039 -3.79837
C 7.00763 -1.84914 -3.00889
C 7.39775 -1.46721 -1.59190
C 5.48660 -1.83118 -3.12135
C 9.16723 -1.05423 -4.24371
C 9.25588 -1.84920 -5.54966
H 10.38527 -1.61499 -6.43677
N 7.96347 -1.08963 1.41051
C 7.74550 -2.27100 0.78431
C 7.92213 -3.31703 1.81451
C 8.07354 -2.63787 3.13129
C 7.81030 -1.26916 2.76698
C 7.98264 -4.78021 1.49954
C 8.39286 -3.14376 4.50251
O 8.24778 -2.41906 5.54574
C 8.80099 -4.55670 4.60291
N 7.20778 1.70156 2.30697
C 7.17822 1.08777 3.49499
C 6.93382 2.06348 4.60773
C 7.04406 3.51617 3.95406
C 7.26436 3.09556 2.48000
C 5.58647 1.93017 5.33085
C 8.05057 4.50247 4.59794
C 9.46378 4.01308 4.37334
N 7.76850 2.62191 -0.42165
C 7.47131 3.86690 0.15136
C 7.40238 4.84419 -0.95056
C 7.64951 4.09186 -2.09719
C 7.83351 2.72629 -1.73716
C 7.08173 6.22440 -0.82152
C 7.77652 4.11976 -3.54528
O 7.81067 5.01025 -4.39578
C 7.78398 2.61861 -4.07662
C 8.92403 2.48641 -5.04930
O 10.10756 2.57550 -4.66369
O 8.45540 2.04313 -6.22591
C 9.53999 1.86193 -7.22740
H 6.98425 -3.44982 -0.79746
H 7.41902 -0.46593 4.66527
H 7.14488 5.07805 1.72787
H 7.13419 -0.39705 -4.68010
H 7.42895 -2.81991 -3.26932
H 5.13460 -0.92808 -3.61977
H 5.11848 -1.86814 -2.09586
H 5.12306 -2.73920 -3.60312
H 9.56844 -1.79256 -3.54947
H 9.80237 -0.17063 -4.31569
H 8.31871 -1.80841 -6.10550
H 9.37724 -2.90336 -5.30024
H 7.67513 -4.98222 0.47427
H 7.22514 -5.26927 2.11168
H 8.96217 -5.20654 1.71656
H 8.00539 -5.18991 4.20971
H 9.07547 -4.71709 5.64492
H 9.66792 -4.72020 3.96209
H 7.68799 1.96443 5.38737
H 6.09394 4.05020 3.98147
H 5.67998 1.77655 6.40620
H 5.03372 1.11435 4.86588
H 4.90369 2.76646 5.18308
H 7.89592 4.55264 5.67521
H 7.97200 5.51584 4.20406
H 9.60464 3.29657 5.18180
H 10.17030 4.83958 4.45664
H 9.55116 3.46617 3.43433
H 7.78498 6.76171 -1.45767
H 7.15471 6.55264 0.21508
H 6.05589 6.22865 -1.18962
H 6.81838 2.44963 -4.55222
H 9.27106 2.45375 -8.10241
H 9.66150 0.78692 -7.36150
H 10.50748 2.29690 -6.97419
