158

Mg 0.00000 0.00000 0.00000
C -0.21700 -2.21800 2.80100
C -1.25500 2.44200 2.02600
C -0.24500 1.85000 -2.56400
C 0.14600 -2.82400 -2.03700
N -0.61700 -0.00900 2.12600
C -0.59400 -0.90800 3.10500
C -0.93600 -0.30900 4.50200
C -1.77300 0.96400 4.03200
C -1.15500 1.16800 2.66000
C -3.26300 0.68500 3.86300
C 0.34500 0.11000 5.29900
C 0.12400 0.39700 6.78700
H 1.16800 0.03300 7.73300
N -0.18500 1.96100 -0.15200
C -0.70300 2.80000 0.77700
C -0.62000 4.15600 0.19300
C -0.18700 4.01500 -1.22500
C -0.21400 2.58300 -1.38000
C -0.88700 5.40600 0.97400
C 0.18100 5.01300 -2.27700
O 0.30300 4.69000 -3.50800
C 0.31000 6.41400 -1.83700
N -0.26500 -0.41300 -2.02900
C -0.27900 0.56900 -2.93700
C -0.19600 0.02400 -4.33200
C 0.12400 -1.53300 -4.18000
C 0.08600 -1.63200 -2.63500
C -1.45100 0.20500 -5.19700
C 1.37300 -2.07000 -4.92300
C 2.62600 -1.49000 -4.30600
N 0.15000 -2.14400 0.30300
C 0.17300 -3.13600 -0.68800
C 0.17300 -4.43800 0.00400
C 0.13300 -4.11100 1.35800
C 0.08300 -2.69500 1.50200
C 0.14900 -5.71500 -0.62300
C 0.09600 -4.62900 2.71600
O 0.20800 -5.74700 3.22100
C -0.25500 -3.42800 3.70100
C 0.71700 -3.48200 4.84800
O 1.93100 -3.25500 4.66900
O 0.03800 -3.55600 6.00300
C 0.94300 -3.58300 7.18300
H -1.85900 3.22000 2.49700
H -0.21800 2.45300 -3.47400
H 0.27600 -3.74700 -2.60500
H -1.55400 -0.94900 5.13200
H -1.58500 1.83100 4.66500
H -3.48400 -0.37700 3.96900
H -3.51100 1.02700 2.85800
H -3.85200 1.30100 4.54300
H 0.66900 1.09600 4.96600
H 1.13000 -0.63900 5.18900
H -0.84400 0.02600 7.12500
H 0.06200 1.47700 6.92100
H -1.34400 5.18600 1.93800
H -1.65100 5.96300 0.43200
H 0.00700 6.02000 1.08400
H -0.63500 6.74400 -1.40500
H 0.66500 6.97000 -2.70400
H 1.04800 6.46600 -1.03600
H 0.60800 0.50100 -4.89100
H -0.69200 -2.15600 -4.54700
H -1.26700 0.74000 -6.12900
H -2.20400 0.71400 -4.59600
H -1.96700 -0.72000 -5.45300
H 1.35600 -1.75900 -5.96700
H 1.45200 -3.15700 -4.90200
H 2.71400 -0.52200 -4.79800
H 3.48700 -2.12100 -4.52900
H 2.49500 -1.30300 -3.24000
H 0.86700 -6.33300 -0.08400
H 0.40400 -5.64200 -1.68000
H -0.89100 -5.99900 -0.46300
H -1.28300 -3.58100 4.02800
H 0.69800 -4.47800 7.75500
H 0.83300 -2.61900 7.68000
H 2.00000 -3.75400 6.97600
Mg 10.50944 0.93889 0.80592
C 8.32400 2.67250 3.06368
C 12.72545 0.68030 3.38604
C 12.63500 -0.18702 -1.26331
C 8.66783 2.31494 -1.81336
N 10.42163 1.62645 2.90635
C 9.51527 2.22000 3.66829
C 9.87307 2.26346 5.17814
C 11.46934 2.14294 5.05055
C 11.55288 1.40605 3.71538
C 12.16408 3.48598 4.89915
C 9.26717 1.05262 5.97110
C 9.31434 1.19310 7.49418
H 8.20980 0.64721 8.27806
N 12.17813 -0.09108 1.11121
C 12.93855 -0.09655 2.22611
C 14.06543 -0.99794 1.94010
C 13.99634 -1.39533 0.50761
C 12.92229 -0.53800 0.04773
C 15.02521 -1.46147 2.99716
C 14.77733 -2.37449 -0.31548
O 14.70650 -2.38588 -1.59520
C 15.69826 -3.25750 0.41505
N 10.76924 1.21321 -1.23848
C 11.74091 0.56545 -1.90496
C 11.56279 0.70240 -3.39824
C 10.12692 1.37718 -3.59955
C 9.74484 1.60512 -2.12055
C 12.62177 1.53465 -4.12095
C 9.12025 0.62957 -4.51626
C 8.70002 -0.67042 -3.86909
N 8.69825 2.10227 0.62107
C 8.11860 2.59493 -0.56863
C 6.96087 3.42507 -0.17756
C 6.96102 3.37613 1.22461
C 8.05445 2.58876 1.67621
C 6.10875 4.13674 -1.06837
C 6.29108 3.82022 2.42572
O 5.25539 4.44011 2.66410
C 7.21802 3.48830 3.67352
C 6.36420 2.83544 4.72580
O 5.85179 1.72077 4.52192
O 6.47112 3.52988 5.87327
C 5.65066 2.91474 6.95043
H 13.58121 0.74414 4.05871
H 13.27432 -0.64117 -2.02391
H 7.98479 2.69837 -2.57436
H 9.60886 3.18589 5.68122
H 11.88452 1.53352 5.84904
H 11.45745 4.29432 4.78333
H 12.78587 3.39783 4.01787
H 12.84878 3.65262 5.73565
H 9.91860 0.17860 5.84277
H 8.26022 0.85723 5.65725
H 9.53630 2.22074 7.80666
H 10.15860 0.61029 7.87045
H 14.92450 -0.87340 3.91772
H 16.03360 -1.23115 2.63667
H 14.95485 -2.53433 3.18874
H 16.41844 -2.65444 0.96289
H 16.09832 -3.94528 -0.33247
H 15.12585 -3.81946 1.16148
H 11.56535 -0.26833 -3.87865
H 10.20558 2.37262 -4.06080
H 13.13330 0.98171 -4.93130
H 13.33754 1.88587 -3.38961
H 12.26041 2.46497 -4.55583
H 9.59547 0.36503 -5.46407
H 8.23536 1.21164 -4.75109
H 9.51039 -1.35398 -4.13954
H 7.74745 -1.00854 -4.27198
H 8.69402 -0.58221 -2.77646
H 5.09552 3.97674 -0.72447
H 6.23841 3.80169 -2.09536
H 6.47748 5.15509 -0.91918
H 7.64868 4.42821 4.02091
H 4.98069 3.69417 7.32635
H 6.37410 2.48342 7.66761
H 4.94182 2.14669 6.66390
