158

Mg 0.00000 0.00000 0.00000
C -0.21700 -2.21800 2.80100
C -1.25500 2.44200 2.02600
C -0.24500 1.85000 -2.56400
C 0.14600 -2.82400 -2.03700
N -0.61700 -0.00900 2.12600
C -0.59400 -0.90800 3.10500
C -0.93600 -0.30900 4.50200
C -1.77300 0.96400 4.03200
C -1.15500 1.16800 2.66000
C -3.26300 0.68500 3.86300
C 0.34500 0.11000 5.29900
C 0.12400 0.39700 6.78700
H 1.16800 0.03300 7.73300
N -0.18500 1.96100 -0.15200
C -0.70300 2.80000 0.77700
C -0.62000 4.15600 0.19300
C -0.18700 4.01500 -1.22500
C -0.21400 2.58300 -1.38000
C -0.88700 5.40600 0.97400
C 0.18100 5.01300 -2.27700
O 0.30300 4.69000 -3.50800
C 0.31000 6.41400 -1.83700
N -0.26500 -0.41300 -2.02900
C -0.27900 0.56900 -2.93700
C -0.19600 0.02400 -4.33200
C 0.12400 -1.53300 -4.18000
C 0.08600 -1.63200 -2.63500
C -1.45100 0.20500 -5.19700
C 1.37300 -2.07000 -4.92300
C 2.62600 -1.49000 -4.30600
N 0.15000 -2.14400 0.30300
C 0.17300 -3.13600 -0.68800
C 0.17300 -4.43800 0.00400
C 0.13300 -4.11100 1.35800
C 0.08300 -2.69500 1.50200
C 0.14900 -5.71500 -0.62300
C 0.09600 -4.62900 2.71600
O 0.20800 -5.74700 3.22100
C -0.25500 -3.42800 3.70100
C 0.71700 -3.48200 4.84800
O 1.93100 -3.25500 4.66900
O 0.03800 -3.55600 6.00300
C 0.94300 -3.58300 7.18300
H -1.85900 3.22000 2.49700
H -0.21800 2.45300 -3.47400
H 0.27600 -3.74700 -2.60500
H -1.55400 -0.94900 5.13200
H -1.58500 1.83100 4.66500
H -3.48400 -0.37700 3.96900
H -3.51100 1.02700 2.85800
H -3.85200 1.30100 4.54300
H 0.66900 1.09600 4.96600
H 1.13000 -0.63900 5.18900
H -0.84400 0.02600 7.12500
H 0.06200 1.47700 6.92100
H -1.34400 5.18600 1.93800
H -1.65100 5.96300 0.43200
H 0.00700 6.02000 1.08400
H -0.63500 6.74400 -1.40500
H 0.66500 6.97000 -2.70400
H 1.04800 6.46600 -1.03600
H 0.60800 0.50100 -4.89100
H -0.69200 -2.15600 -4.54700
H -1.26700 0.74000 -6.12900
H -2.20400 0.71400 -4.59600
H -1.96700 -0.72000 -5.45300
H 1.35600 -1.75900 -5.96700
H 1.45200 -3.15700 -4.90200
H 2.71400 -0.52200 -4.79800
H 3.48700 -2.12100 -4.52900
H 2.49500 -1.30300 -3.24000
H 0.86700 -6.33300 -0.08400
H 0.40400 -5.64200 -1.68000
H -0.89100 -5.99900 -0.46300
H -1.28300 -3.58100 4.02800
H 0.69800 -4.47800 7.75500
H 0.83300 -2.61900 7.68000
H 2.00000 -3.75400 6.97600
Mg 8.92664 0.80655 0.67161
C 9.30728 -1.93201 -1.61628
C 9.59086 2.89050 -1.94574
C 9.04348 3.20792 2.74217
C 9.42543 -1.47012 3.26269
N 9.37459 0.41094 -1.45796
C 9.43157 -0.66640 -2.22636
C 9.55285 -0.36773 -3.74480
C 10.20037 1.09879 -3.65045
C 9.66411 1.51521 -2.28235
C 11.71848 1.08321 -3.58386
C 8.15703 -0.33436 -4.46076
C 8.21785 -0.35556 -5.98968
H 7.17582 -1.07422 -6.71781
N 8.78162 2.76389 0.37774
C 9.07016 3.44043 -0.75378
C 8.81819 4.85771 -0.45048
C 8.51544 4.98006 1.00145
C 8.79497 3.62866 1.44380
C 8.79916 5.92484 -1.50608
C 8.06309 6.12714 1.85338
O 8.09147 6.06743 3.13340
C 7.67415 7.35580 1.14585
N 9.40446 0.90366 2.69265
C 9.32487 2.06428 3.36686
C 9.44585 1.83989 4.85529
C 9.38066 0.25482 5.05751
C 9.32029 -0.18668 3.57872
C 10.71574 2.38428 5.50906
C 8.30157 -0.28615 6.03505
C 6.92212 -0.04725 5.46458
N 9.11594 -1.33895 0.84203
C 9.34589 -2.08412 2.01928
C 9.51471 -3.49509 1.61543
C 9.39320 -3.46934 0.21791
C 9.18490 -2.13360 -0.22016
C 9.79367 -4.58301 2.48992
C 9.40438 -4.26695 -0.98725
O 9.45337 -5.47189 -1.23106
C 9.47543 -3.29011 -2.23910
C 8.44132 -3.73664 -3.23597
O 7.22980 -3.66763 -2.96380
O 9.03972 -3.96525 -4.41920
C 8.05310 -4.39993 -5.44363
H 10.00986 3.61796 -2.64154
H 8.98448 3.98402 3.50876
H 9.48668 -2.25466 4.01994
H 10.21478 -1.03227 -4.28702
H 9.81237 1.75260 -4.42720
H 12.10743 0.08005 -3.49157
H 11.98087 1.67217 -2.71476
H 12.13899 1.61170 -4.44421
H 7.69798 0.65034 -4.30462
H 7.53121 -1.13309 -4.11290
H 9.21066 -0.64021 -6.35880
H 8.07765 0.66407 -6.35672
H 9.21930 5.56217 -2.45231
H 9.49419 6.70718 -1.18243
H 7.80920 6.36558 -1.64166
H 8.51234 7.71065 0.55089
H 7.29641 8.02998 1.91700
H 6.86895 7.11473 0.44288
H 8.61766 2.29593 5.38371
H 10.32130 -0.14284 5.46604
H 10.51259 3.09367 6.33342
H 11.31946 2.85356 4.74366
H 11.39164 1.62841 5.90531
H 8.34352 0.25580 6.98304
H 8.41420 -1.34106 6.26192
H 6.71335 0.98838 5.74914
H 6.20081 -0.73125 5.90718
H 6.93602 -0.09177 4.36938
H 9.15934 -5.40260 2.17942
H 9.61621 -4.31348 3.52897
H 10.85607 -4.73396 2.28070
H 10.48652 -3.34921 -2.64378
H 8.40620 -5.35622 -5.84176
H 7.97094 -3.55735 -6.15571
H 7.06007 -4.66698 -5.10155
