158

Mg 0.00000 0.00000 0.00000
C -0.21700 -2.21800 2.80100
C -1.25500 2.44200 2.02600
C -0.24500 1.85000 -2.56400
C 0.14600 -2.82400 -2.03700
N -0.61700 -0.00900 2.12600
C -0.59400 -0.90800 3.10500
C -0.93600 -0.30900 4.50200
C -1.77300 0.96400 4.03200
C -1.15500 1.16800 2.66000
C -3.26300 0.68500 3.86300
C 0.34500 0.11000 5.29900
C 0.12400 0.39700 6.78700
H 1.16800 0.03300 7.73300
N -0.18500 1.96100 -0.15200
C -0.70300 2.80000 0.77700
C -0.62000 4.15600 0.19300
C -0.18700 4.01500 -1.22500
C -0.21400 2.58300 -1.38000
C -0.88700 5.40600 0.97400
C 0.18100 5.01300 -2.27700
O 0.30300 4.69000 -3.50800
C 0.31000 6.41400 -1.83700
N -0.26500 -0.41300 -2.02900
C -0.27900 0.56900 -2.93700
C -0.19600 0.02400 -4.33200
C 0.12400 -1.53300 -4.18000
C 0.08600 -1.63200 -2.63500
C -1.45100 0.20500 -5.19700
C 1.37300 -2.07000 -4.92300
C 2.62600 -1.49000 -4.30600
N 0.15000 -2.14400 0.30300
C 0.17300 -3.13600 -0.68800
C 0.17300 -4.43800 0.00400
C 0.13300 -4.11100 1.35800
C 0.08300 -2.69500 1.50200
C 0.14900 -5.71500 -0.62300
C 0.09600 -4.62900 2.71600
O 0.20800 -5.74700 3.22100
C -0.25500 -3.42800 3.70100
C 0.71700 -3.48200 4.84800
O 1.93100 -3.25500 4.66900
O 0.03800 -3.55600 6.00300
C 0.94300 -3.58300 7.18300
H -1.85900 3.22000 2.49700
H -0.21800 2.45300 -3.47400
H 0.27600 -3.74700 -2.60500
H -1.55400 -0.94900 5.13200
H -1.58500 1.83100 4.66500
H -3.48400 -0.37700 3.96900
H -3.51100 1.02700 2.85800
H -3.85200 1.30100 4.54300
H 0.66900 1.09600 4.96600
H 1.13000 -0.63900 5.18900
H -0.84400 0.02600 7.12500
H 0.06200 1.47700 6.92100
H -1.34400 5.18600 1.93800
H -1.65100 5.96300 0.43200
H 0.00700 6.02000 1.08400
H -0.63500 6.74400 -1.40500
H 0.66500 6.97000 -2.70400
H 1.04800 6.46600 -1.03600
H 0.60800 0.50100 -4.89100
H -0.69200 -2.15600 -4.54700
H -1.26700 0.74000 -6.12900
H -2.20400 0.71400 -4.59600
H -1.96700 -0.72000 -5.45300
H 1.35600 -1.75900 -5.96700
H 1.45200 -3.15700 -4.90200
H 2.71400 -0.52200 -4.79800
H 3.48700 -2.12100 -4.52900
H 2.49500 -1.30300 -3.24000
H 0.86700 -6.33300 -0.08400
H 0.40400 -5.64200 -1.68000
H -0.89100 -5.99900 -0.46300
H -1.28300 -3.58100 4.02800
H 0.69800 -4.47800 7.75500
H 0.83300 -2.61900 7.68000
H 2.00000 -3.75400 6.97600
Mg 15.77268 1.42756 1.19986
C 15.26726 1.75035 4.73814
C 14.62478 4.62507 0.89513
C 15.77908 1.02438 -1.94733
C 15.77993 -2.02746 1.65643
N 15.06784 2.89559 2.69665
C 14.97853 2.92810 4.01775
C 14.63360 4.32301 4.60495
C 13.90963 4.95350 3.31761
C 14.59740 4.13647 2.22577
C 12.41883 4.66384 3.26340
C 15.91449 5.13840 5.00049
C 15.64898 6.37545 5.86128
H 16.62799 6.73549 6.88323
N 15.74740 2.76487 -0.26626
C 15.26456 4.02387 -0.21103
C 15.46136 4.58955 -1.55470
C 15.94898 3.50741 -2.45242
C 15.82145 2.36037 -1.57600
C 15.26713 6.04627 -1.86075
C 16.43587 3.50339 -3.86986
O 16.58487 2.41341 -4.52755
C 16.64378 4.81756 -4.49535
N 15.56725 -0.25298 -0.00676
C 15.66069 -0.15894 -1.34480
C 15.75717 -1.52453 -1.98218
C 15.95335 -2.55085 -0.77149
C 15.84210 -1.56757 0.41434
C 14.55431 -1.95298 -2.82239
C 17.18800 -3.49094 -0.83884
C 18.45886 -2.68492 -0.69527
N 15.74986 0.08197 2.89011
C 15.73082 -1.32962 2.85643
C 15.60221 -1.79671 4.25203
C 15.53163 -0.61482 5.00477
C 15.59035 0.50949 4.13761
C 15.51635 -3.15460 4.67022
C 15.41010 -0.06270 6.33485
O 15.40803 -0.53055 7.47276
C 15.10622 1.49249 6.21062
C 16.02314 2.22173 7.15401
O 17.25314 2.21632 6.97046
O 15.28657 2.98044 7.98599
C 16.15203 3.73178 8.93377
H 14.06854 5.53413 0.66468
H 15.88998 0.82838 -3.01633
H 15.87345 -3.08999 1.89088
H 13.94962 4.30576 5.44498
H 14.14510 6.00906 3.20943
H 12.11284 3.97952 4.04072
H 12.23819 4.23291 2.28733
H 11.85194 5.59887 3.28964
H 16.32460 5.61867 4.10277
H 16.63284 4.50731 5.48662
H 14.63629 6.37491 6.28248
H 15.67080 7.25774 5.21698
H 14.74767 6.56305 -1.04436
H 14.57227 6.10566 -2.70545
H 16.19846 6.54723 -2.13338
H 15.71129 5.37672 -4.47933
H 17.07713 4.60939 -5.47553
H 17.36061 5.38362 -3.89009
H 16.61738 -1.58554 -2.63748
H 15.10486 -3.24534 -0.68452
H 14.81993 -2.21162 -3.86480
H 13.82304 -1.15586 -2.80291
H 13.98947 -2.79445 -2.42479
H 17.23905 -3.97970 -1.81489
H 17.17680 -4.27316 -0.08718
H 18.63554 -2.31966 -1.71137
H 19.27687 -3.31677 -0.35517
H 18.29992 -1.81046 -0.05362
H 16.15543 -3.25429 5.53748
H 15.81457 -3.83503 3.87533
H 14.44767 -3.22370 4.89028
H 14.05579 1.64222 6.46310
H 15.81207 3.48196 9.94357
H 16.08146 4.79212 8.62642
H 17.19762 3.45190 8.98733
