158

Mg 0.00000 0.00000 0.00000
C -0.21700 -2.21800 2.80100
C -1.25500 2.44200 2.02600
C -0.24500 1.85000 -2.56400
C 0.14600 -2.82400 -2.03700
N -0.61700 -0.00900 2.12600
C -0.59400 -0.90800 3.10500
C -0.93600 -0.30900 4.50200
C -1.77300 0.96400 4.03200
C -1.15500 1.16800 2.66000
C -3.26300 0.68500 3.86300
C 0.34500 0.11000 5.29900
C 0.12400 0.39700 6.78700
H 1.16800 0.03300 7.73300
N -0.18500 1.96100 -0.15200
C -0.70300 2.80000 0.77700
C -0.62000 4.15600 0.19300
C -0.18700 4.01500 -1.22500
C -0.21400 2.58300 -1.38000
C -0.88700 5.40600 0.97400
C 0.18100 5.01300 -2.27700
O 0.30300 4.69000 -3.50800
C 0.31000 6.41400 -1.83700
N -0.26500 -0.41300 -2.02900
C -0.27900 0.56900 -2.93700
C -0.19600 0.02400 -4.33200
C 0.12400 -1.53300 -4.18000
C 0.08600 -1.63200 -2.63500
C -1.45100 0.20500 -5.19700
C 1.37300 -2.07000 -4.92300
C 2.62600 -1.49000 -4.30600
N 0.15000 -2.14400 0.30300
C 0.17300 -3.13600 -0.68800
C 0.17300 -4.43800 0.00400
C 0.13300 -4.11100 1.35800
C 0.08300 -2.69500 1.50200
C 0.14900 -5.71500 -0.62300
C 0.09600 -4.62900 2.71600
O 0.20800 -5.74700 3.22100
C -0.25500 -3.42800 3.70100
C 0.71700 -3.48200 4.84800
O 1.93100 -3.25500 4.66900
O 0.03800 -3.55600 6.00300
C 0.94300 -3.58300 7.18300
H -1.85900 3.22000 2.49700
H -0.21800 2.45300 -3.47400
H 0.27600 -3.74700 -2.60500
H -1.55400 -0.94900 5.13200
H -1.58500 1.83100 4.66500
H -3.48400 -0.37700 3.96900
H -3.51100 1.02700 2.85800
H -3.85200 1.30100 4.54300
H 0.66900 1.09600 4.96600
H 1.13000 -0.63900 5.18900
H -0.84400 0.02600 7.12500
H 0.06200 1.47700 6.92100
H -1.34400 5.18600 1.93800
H -1.65100 5.96300 0.43200
H 0.00700 6.02000 1.08400
H -0.63500 6.74400 -1.40500
H 0.66500 6.97000 -2.70400
H 1.04800 6.46600 -1.03600
H 0.60800 0.50100 -4.89100
H -0.69200 -2.15600 -4.54700
H -1.26700 0.74000 -6.12900
H -2.20400 0.71400 -4.59600
H -1.96700 -0.72000 -5.45300
H 1.35600 -1.75900 -5.96700
H 1.45200 -3.15700 -4.90200
H 2.71400 -0.52200 -4.79800
H 3.48700 -2.12100 -4.52900
H 2.49500 -1.30300 -3.24000
H 0.86700 -6.33300 -0.08400
H 0.40400 -5.64200 -1.68000
H -0.89100 -5.99900 -0.46300
H -1.28300 -3.58100 4.02800
H 0.69800 -4.47800 7.75500
H 0.83300 -2.61900 7.68000
H 2.00000 -3.75400 6.97600
Mg 15.77346 1.41519 1.20422
C 15.96388 -1.93744 -0.06175
C 14.78474 0.07561 4.18123
C 15.16265 4.36068 2.21341
C 15.65706 2.50916 -2.10265
N 15.45342 -0.67511 1.85267
C 15.61661 -1.86937 1.30361
C 15.47364 -3.05704 2.29283
C 14.55980 -2.33852 3.40075
C 14.97884 -0.88952 3.16096
C 13.07069 -2.45745 3.12194
C 16.85315 -3.50700 2.88992
C 16.82997 -4.85163 3.62012
H 18.00391 -5.71505 3.52608
N 15.55369 2.12216 3.04554
C 15.16712 1.43445 4.14049
C 15.14131 2.41088 5.24052
C 15.38464 3.76451 4.67201
C 15.35511 3.46432 3.25459
C 14.98161 2.01215 6.67890
C 15.59475 5.10908 5.29986
O 15.55087 6.18853 4.61016
C 15.76045 5.13188 6.76051
N 15.24298 3.16378 0.21258
C 15.08832 4.31902 0.88297
C 14.98008 5.48952 -0.06497
C 15.33813 4.90631 -1.51039
C 15.51199 3.41559 -1.14583
C 13.61679 6.17875 -0.11798
C 16.47870 5.61397 -2.29206
C 17.80035 5.38785 -1.59385
N 15.98779 0.50513 -0.74357
C 15.87720 1.14159 -1.99927
C 15.98561 0.09017 -3.03134
C 16.12983 -1.09735 -2.29819
C 16.09226 -0.80894 -0.90718
C 15.89786 0.29262 -4.43755
C 16.29464 -2.53055 -2.38464
O 16.47852 -3.33007 -3.30153
C 16.06767 -3.15337 -0.94001
C 17.18833 -4.11951 -0.66942
O 18.35912 -3.71477 -0.55975
O 16.66898 -5.32414 -0.37020
C 17.74136 -6.31377 -0.08309
H 14.25121 -0.22369 5.08381
H 15.05818 5.40800 2.50613
H 15.72846 2.78070 -3.15803
H 14.96032 -3.92283 1.89198
H 14.83425 -2.65375 4.40408
H 12.87563 -2.90552 2.15896
H 12.68369 -1.44740 3.15463
H 12.57664 -2.99598 3.93572
H 17.11522 -2.84434 3.72475
H 17.61057 -3.52121 2.13049
H 15.91658 -5.42039 3.40761
H 16.78353 -4.66191 4.69523
H 14.65748 0.96839 6.77337
H 14.14502 2.59381 7.08097
H 15.87357 2.21778 7.27453
H 14.88330 4.69333 7.23036
H 15.98803 6.16944 7.01264
H 16.61141 4.49473 7.02606
H 15.69619 6.26109 0.18992
H 14.48068 4.96400 -2.19689
H 13.66519 7.26006 0.11114
H 12.95197 5.67364 0.57007
H 13.08697 6.08217 -1.06410
H 16.31531 6.69438 -2.30489
H 16.56183 5.28857 -3.32366
H 17.80435 6.15874 -0.81745
H 18.62792 5.52200 -2.28752
H 17.81840 4.41379 -1.09133
H 16.68158 -0.30239 -4.88727
H 15.99925 1.34490 -4.69483
H 14.88756 -0.08044 -4.62564
H 15.09462 -3.64604 -0.94486
H 17.58313 -7.16102 -0.75749
H 17.67860 -6.51572 1.00274
H 18.75940 -6.03510 -0.32884
