79

Mg 13.12993 1.18286 1.00420
C 14.04944 3.63804 3.45485
C 12.85413 -1.05287 3.56546
C 12.75827 -1.10394 -1.16372
C 14.56332 3.25317 -1.40514
N 13.43701 1.38609 3.18518
C 13.72526 2.38223 4.00918
C 13.58427 2.03263 5.51499
C 13.77478 0.44146 5.41130
C 13.29371 0.23064 3.97715
C 15.22705 0.00234 5.49736
C 12.17108 2.40598 6.08552
C 12.06629 2.37941 7.61197
H 11.21009 3.36373 8.26810
N 12.38032 -0.64606 1.18230
C 12.32885 -1.39900 2.30110
C 11.70359 -2.66958 1.90255
C 11.54039 -2.66838 0.42333
C 12.25459 -1.45497 0.08032
C 11.25303 -3.70141 2.89539
C 10.86560 -3.61092 -0.52665
O 11.05150 -3.53857 -1.79276
C 10.05467 -4.67940 0.07520
N 13.77759 0.98470 -0.96141
C 13.43283 -0.08585 -1.69830
C 13.77835 0.11970 -3.15389
C 14.20818 1.65486 -3.28080
C 14.11840 2.06645 -1.79489
C 14.89413 -0.76812 -3.70454
C 13.45248 2.51267 -4.33234
C 12.01001 2.68779 -3.91520
N 13.96365 3.17566 0.96277
C 14.53241 3.83944 -0.14628
C 15.06581 5.12705 0.34358
C 14.78864 5.11283 1.71889
C 14.14713 3.89307 2.06554
C 15.74914 6.09739 -0.44230
C 14.90240 5.84773 2.95811
O 15.27877 6.97776 3.26651
C 14.54237 4.87134 4.15954
C 13.58344 5.58871 5.06968
O 12.44362 5.89125 4.67486
O 14.08827 5.60523 6.31678
C 13.16784 6.29653 7.25844
H 12.95944 -1.88536 4.26171
H 12.55709 -1.81218 -1.97081
H 14.93733 3.99724 -2.11165
H 14.34921 2.45786 6.15360
H 13.12732 -0.08030 6.11124
H 15.90331 0.84426 5.49543
H 15.39753 -0.62185 4.62997
H 15.37455 -0.64389 6.36739
H 11.46121 1.60734 5.83453
H 11.85224 3.36196 5.71801
H 13.05177 2.34632 8.09227
H 11.59084 1.44207 7.91090
H 11.65458 -3.49915 3.89601
H 11.71650 -4.64998 2.60336
H 10.16832 -3.82748 2.90898
H 10.67916 -5.28031 0.73199
H 9.58178 -5.19476 -0.76305
H 9.28453 -4.22115 0.70567
H 12.91589 -0.05706 -3.78478
H 15.26346 1.75972 -3.57272
H 14.58233 -1.36843 -4.58003
H 15.24347 -1.41105 -2.90758
H 15.80295 -0.24245 -3.99247
H 13.43644 2.00088 -5.29773
H 13.89675 3.48931 -4.49294
H 11.53669 1.76792 -4.27142
H 11.57706 3.56475 -4.39222
H 11.91549 2.70564 -2.82323
H 15.35574 7.06353 -0.15539
H 15.61566 5.91294 -1.50623
H 16.77871 5.91889 -0.12075
H 15.47448 4.61697 4.66554
H 13.74207 7.09533 7.73789
H 12.76179 5.50422 7.91504
H 12.34253 6.85541 6.83303
