158

Mg 0.00000 0.00000 0.00000
C -0.21700 -2.21800 2.80100
C -1.25500 2.44200 2.02600
C -0.24500 1.85000 -2.56400
C 0.14600 -2.82400 -2.03700
N -0.61700 -0.00900 2.12600
C -0.59400 -0.90800 3.10500
C -0.93600 -0.30900 4.50200
C -1.77300 0.96400 4.03200
C -1.15500 1.16800 2.66000
C -3.26300 0.68500 3.86300
C 0.34500 0.11000 5.29900
C 0.12400 0.39700 6.78700
H 1.16800 0.03300 7.73300
N -0.18500 1.96100 -0.15200
C -0.70300 2.80000 0.77700
C -0.62000 4.15600 0.19300
C -0.18700 4.01500 -1.22500
C -0.21400 2.58300 -1.38000
C -0.88700 5.40600 0.97400
C 0.18100 5.01300 -2.27700
O 0.30300 4.69000 -3.50800
C 0.31000 6.41400 -1.83700
N -0.26500 -0.41300 -2.02900
C -0.27900 0.56900 -2.93700
C -0.19600 0.02400 -4.33200
C 0.12400 -1.53300 -4.18000
C 0.08600 -1.63200 -2.63500
C -1.45100 0.20500 -5.19700
C 1.37300 -2.07000 -4.92300
C 2.62600 -1.49000 -4.30600
N 0.15000 -2.14400 0.30300
C 0.17300 -3.13600 -0.68800
C 0.17300 -4.43800 0.00400
C 0.13300 -4.11100 1.35800
C 0.08300 -2.69500 1.50200
C 0.14900 -5.71500 -0.62300
C 0.09600 -4.62900 2.71600
O 0.20800 -5.74700 3.22100
C -0.25500 -3.42800 3.70100
C 0.71700 -3.48200 4.84800
O 1.93100 -3.25500 4.66900
O 0.03800 -3.55600 6.00300
C 0.94300 -3.58300 7.18300
H -1.85900 3.22000 2.49700
H -0.21800 2.45300 -3.47400
H 0.27600 -3.74700 -2.60500
H -1.55400 -0.94900 5.13200
H -1.58500 1.83100 4.66500
H -3.48400 -0.37700 3.96900
H -3.51100 1.02700 2.85800
H -3.85200 1.30100 4.54300
H 0.66900 1.09600 4.96600
H 1.13000 -0.63900 5.18900
H -0.84400 0.02600 7.12500
H 0.06200 1.47700 6.92100
H -1.34400 5.18600 1.93800
H -1.65100 5.96300 0.43200
H 0.00700 6.02000 1.08400
H -0.63500 6.74400 -1.40500
H 0.66500 6.97000 -2.70400
H 1.04800 6.46600 -1.03600
H 0.60800 0.50100 -4.89100
H -0.69200 -2.15600 -4.54700
H -1.26700 0.74000 -6.12900
H -2.20400 0.71400 -4.59600
H -1.96700 -0.72000 -5.45300
H 1.35600 -1.75900 -5.96700
H 1.45200 -3.15700 -4.90200
H 2.71400 -0.52200 -4.79800
H 3.48700 -2.12100 -4.52900
H 2.49500 -1.30300 -3.24000
H 0.86700 -6.33300 -0.08400
H 0.40400 -5.64200 -1.68000
H -0.89100 -5.99900 -0.46300
H -1.28300 -3.58100 4.02800
H 0.69800 -4.47800 7.75500
H 0.83300 -2.61900 7.68000
H 2.00000 -3.75400 6.97600
Mg 15.77137 1.42247 1.18889
C 18.53221 -0.87023 1.17109
C 18.06134 3.94593 1.33980
C 13.36882 3.44087 1.65925
C 13.74868 -1.23751 2.17831
N 17.98255 1.41271 1.24225
C 18.92457 0.48457 1.16823
C 20.36449 1.04112 1.00558
C 20.13343 2.49628 1.64431
C 18.64012 2.65189 1.36412
C 20.34348 2.53335 3.14892
C 20.80200 1.13678 -0.49824
C 22.29700 1.37762 -0.71897
H 22.94073 0.74971 -1.86954
N 15.68876 3.39346 0.97228
C 16.71810 4.26351 1.04119
C 16.13225 5.59703 0.83464
C 14.65085 5.45869 0.80239
C 14.50816 4.06480 1.17226
C 16.96493 6.82590 0.61116
C 13.54500 6.42476 0.50240
O 12.32107 6.15019 0.76593
C 13.94626 7.73816 -0.02245
N 13.88307 1.19555 2.02865
C 13.01369 2.22072 2.06228
C 11.63326 1.75255 2.45680
C 11.70209 0.15483 2.44613
C 13.20012 -0.03176 2.11980
C 11.13271 2.23104 3.81948
C 10.65666 -0.58881 1.57049
C 10.92039 -0.31476 0.10737
N 16.01426 -0.71101 1.42829
C 15.04543 -1.63464 1.87813
C 15.71266 -2.94839 1.98441
C 17.03959 -2.69124 1.60811
C 17.19362 -1.31051 1.30921
C 15.10550 -4.15612 2.43036
C 18.34755 -3.27184 1.40601
O 18.80245 -4.41489 1.42178
C 19.40213 -2.09484 1.23596
C 20.26005 -2.40891 0.04103
O 19.76756 -2.43793 -1.10055
O 21.55274 -2.40835 0.41433
C 22.44378 -2.70408 -0.73910
H 18.68327 4.79773 1.61642
H 12.48070 4.07263 1.73403
H 13.16318 -2.13578 2.38562
H 21.12387 0.50647 1.56349
H 20.70210 3.25543 1.11359
H 20.49864 1.54627 3.55849
H 19.44627 2.97694 3.56036
H 21.15970 3.21719 3.39885
H 20.39697 2.06063 -0.93091
H 20.49236 0.26510 -1.04131
H 22.88179 1.20156 0.19206
H 22.44955 2.43792 -0.93464
H 18.01959 6.64683 0.85412
H 16.63962 7.57052 1.34571
H 16.84213 7.24133 -0.39135
H 14.61056 8.22358 0.68857
H 13.01442 8.25542 -0.25907
H 14.52478 7.58617 -0.94051
H 10.89382 2.07727 1.73507
H 11.54427 -0.26652 3.44982
H 10.17447 2.78127 3.76387
H 11.90012 2.84817 4.26754
H 11.00181 1.44797 4.56437
H 9.65179 -0.21411 1.78022
H 10.64105 -1.66124 1.73370
H 10.42695 0.64797 -0.05622
H 10.48192 -1.09353 -0.51334
H 11.99110 -0.17236 -0.07960
H 15.43544 -4.93710 1.75826
H 14.02065 -4.07431 2.44394
H 15.52462 -4.22471 3.43778
H 19.98531 -2.04201 2.15611
H 23.05921 -3.56338 -0.45530
H 22.97169 -1.75720 -0.95926
H 21.98131 -3.06668 -1.64964
