79

Mg 31.53256 2.83880 2.39533
C 31.31556 0.62080 5.19633
C 30.27756 5.28080 4.42133
C 31.28756 4.68880 -0.16867
C 31.67856 0.01480 0.35833
N 30.91556 2.82980 4.52133
C 30.93856 1.93080 5.50033
C 30.59656 2.52980 6.89733
C 29.75956 3.80280 6.42733
C 30.37756 4.00680 5.05533
C 28.26956 3.52380 6.25833
C 31.87756 2.94880 7.69433
C 31.65656 3.23580 9.18233
H 32.70056 2.87180 10.12833
N 31.34756 4.79980 2.24333
C 30.82956 5.63880 3.17233
C 30.91256 6.99480 2.58833
C 31.34556 6.85380 1.17033
C 31.31856 5.42180 1.01533
C 30.64556 8.24480 3.36933
C 31.71356 7.85180 0.11833
O 31.83556 7.52880 -1.11267
C 31.84256 9.25280 0.55833
N 31.26756 2.42580 0.36633
C 31.25356 3.40780 -0.54167
C 31.33656 2.86280 -1.93667
C 31.65656 1.30580 -1.78467
C 31.61856 1.20680 -0.23967
C 30.08156 3.04380 -2.80167
C 32.90556 0.76880 -2.52767
C 34.15856 1.34880 -1.91067
N 31.68256 0.69480 2.69833
C 31.70556 -0.29720 1.70733
C 31.70556 -1.59920 2.39933
C 31.66556 -1.27220 3.75333
C 31.61556 0.14380 3.89733
C 31.68156 -2.87620 1.77233
C 31.62856 -1.79020 5.11133
O 31.74056 -2.90820 5.61633
C 31.27756 -0.58920 6.09633
C 32.24956 -0.64320 7.24333
O 33.46356 -0.41620 7.06433
O 31.57056 -0.71720 8.39833
C 32.47556 -0.74420 9.57833
H 29.67356 6.05880 4.89233
H 31.31456 5.29180 -1.07867
H 31.80856 -0.90820 -0.20967
H 29.97856 1.88980 7.52733
H 29.94756 4.66980 7.06033
H 28.04856 2.46180 6.36433
H 28.02156 3.86580 5.25333
H 27.68056 4.13980 6.93833
H 32.20156 3.93480 7.36133
H 32.66256 2.19980 7.58433
H 30.68856 2.86480 9.52033
H 31.59456 4.31580 9.31633
H 30.18856 8.02480 4.33333
H 29.88156 8.80180 2.82733
H 31.53956 8.85880 3.47933
H 30.89756 9.58280 0.99033
H 32.19756 9.80880 -0.30867
H 32.58056 9.30480 1.35933
H 32.14056 3.33980 -2.49567
H 30.84056 0.68280 -2.15167
H 30.26556 3.57880 -3.73367
H 29.32856 3.55280 -2.20067
H 29.56556 2.11880 -3.05767
H 32.88856 1.07980 -3.57167
H 32.98456 -0.31820 -2.50667
H 34.24656 2.31680 -2.40267
H 35.01956 0.71780 -2.13367
H 34.02756 1.53580 -0.84467
H 32.39956 -3.49420 2.31133
H 31.93656 -2.80320 0.71533
H 30.64156 -3.16020 1.93233
H 30.24956 -0.74220 6.42333
H 32.23056 -1.63920 10.15033
H 32.36556 0.21980 10.07533
H 33.53256 -0.91520 9.37133
