79

Mg 13.13263 1.18684 1.00587
C 10.76755 -1.46854 1.49001
C 10.48584 3.20935 0.27201
C 15.20951 3.42222 0.13577
C 15.59323 -1.25595 0.65385
N 10.95561 0.80418 0.92571
C 10.16814 -0.22770 1.18928
C 8.65258 0.10752 1.20575
C 8.68396 1.40910 0.26566
C 10.11883 1.86350 0.52514
C 8.54494 1.08702 -1.21295
C 8.13206 0.45127 2.64551
C 6.60876 0.48598 2.78736
H 6.01555 0.02338 4.03898
N 12.89470 3.14464 0.78452
C 11.74642 3.79910 0.51175
C 12.10526 5.22330 0.42777
C 13.58663 5.33943 0.50994
C 13.96394 3.94121 0.45787
C 11.08037 6.31827 0.36392
C 14.51138 6.51501 0.60507
O 15.77467 6.39426 0.42519
C 13.88400 7.82673 0.82247
N 15.07215 1.09684 0.26255
C 15.77079 2.21891 0.01603
C 17.22522 1.90922 -0.24686
C 17.40710 0.36193 0.11421
C 15.94258 0.00731 0.45307
C 17.71104 2.15893 -1.67445
C 18.51177 0.00521 1.14625
C 18.13673 0.54040 2.50945
N 13.23904 -0.95852 1.23855
C 14.36154 -1.78598 1.01630
C 13.91440 -3.18291 1.19262
C 12.54668 -3.07155 1.48491
C 12.16374 -1.70311 1.47049
C 14.72444 -4.34224 1.03174
C 11.33749 -3.80115 1.79192
O 11.06860 -4.97952 2.02186
C 10.10447 -2.80390 1.68433
C 9.24863 -2.98984 2.90723
O 9.68283 -2.69182 4.03384
O 7.99176 -3.28104 2.52531
C 7.10241 -3.46367 3.70324
H 9.75252 3.86827 -0.19377
H 15.99029 4.15974 -0.06406
H 16.32170 -2.06958 0.65733
H 8.01470 -0.65142 0.76884
H 7.97798 2.16106 0.60847
H 8.56667 0.02322 -1.39733
H 9.38072 1.57250 -1.69961
H 7.64496 1.55817 -1.61839
H 8.36558 1.50004 2.86977
H 8.54734 -0.22061 3.37129
H 6.10430 0.02496 1.92950
H 6.28158 1.52826 2.76230
H 10.08003 5.92106 0.15192
H 11.32074 6.93056 -0.51198
H 11.08712 6.95382 1.25201
H 13.18764 8.03258 0.01304
H 14.71052 8.52809 0.95219
H 13.29199 7.78306 1.74347
H 17.86826 2.49798 0.39576
H 17.67815 -0.23366 -0.76990
H 18.56735 2.85745 -1.72819
H 16.87941 2.53125 -2.25781
H 17.99948 1.26629 -2.22690
H 19.45462 0.48531 0.87297
H 18.70320 -1.05988 1.22329
H 18.46460 1.58324 2.46390
H 18.66072 -0.00427 3.29227
H 17.04905 0.54249 2.64583
H 14.48827 -5.00371 1.85465
H 15.78242 -4.08889 1.01533
H 14.37130 -4.69340 0.05847
H 9.56619 -3.04624 0.76722
H 6.64391 -4.45272 3.60711
H 6.42250 -2.59104 3.70238
H 7.57063 -3.54140 4.67750
