158

Mg 0.00000 0.00000 0.00000
C -0.21700 -2.21800 2.80100
C -1.25500 2.44200 2.02600
C -0.24500 1.85000 -2.56400
C 0.14600 -2.82400 -2.03700
N -0.61700 -0.00900 2.12600
C -0.59400 -0.90800 3.10500
C -0.93600 -0.30900 4.50200
C -1.77300 0.96400 4.03200
C -1.15500 1.16800 2.66000
C -3.26300 0.68500 3.86300
C 0.34500 0.11000 5.29900
C 0.12400 0.39700 6.78700
H 1.16800 0.03300 7.73300
N -0.18500 1.96100 -0.15200
C -0.70300 2.80000 0.77700
C -0.62000 4.15600 0.19300
C -0.18700 4.01500 -1.22500
C -0.21400 2.58300 -1.38000
C -0.88700 5.40600 0.97400
C 0.18100 5.01300 -2.27700
O 0.30300 4.69000 -3.50800
C 0.31000 6.41400 -1.83700
N -0.26500 -0.41300 -2.02900
C -0.27900 0.56900 -2.93700
C -0.19600 0.02400 -4.33200
C 0.12400 -1.53300 -4.18000
C 0.08600 -1.63200 -2.63500
C -1.45100 0.20500 -5.19700
C 1.37300 -2.07000 -4.92300
C 2.62600 -1.49000 -4.30600
N 0.15000 -2.14400 0.30300
C 0.17300 -3.13600 -0.68800
C 0.17300 -4.43800 0.00400
C 0.13300 -4.11100 1.35800
C 0.08300 -2.69500 1.50200
C 0.14900 -5.71500 -0.62300
C 0.09600 -4.62900 2.71600
O 0.20800 -5.74700 3.22100
C -0.25500 -3.42800 3.70100
C 0.71700 -3.48200 4.84800
O 1.93100 -3.25500 4.66900
O 0.03800 -3.55600 6.00300
C 0.94300 -3.58300 7.18300
H -1.85900 3.22000 2.49700
H -0.21800 2.45300 -3.47400
H 0.27600 -3.74700 -2.60500
H -1.55400 -0.94900 5.13200
H -1.58500 1.83100 4.66500
H -3.48400 -0.37700 3.96900
H -3.51100 1.02700 2.85800
H -3.85200 1.30100 4.54300
H 0.66900 1.09600 4.96600
H 1.13000 -0.63900 5.18900
H -0.84400 0.02600 7.12500
H 0.06200 1.47700 6.92100
H -1.34400 5.18600 1.93800
H -1.65100 5.96300 0.43200
H 0.00700 6.02000 1.08400
H -0.63500 6.74400 -1.40500
H 0.66500 6.97000 -2.70400
H 1.04800 6.46600 -1.03600
H 0.60800 0.50100 -4.89100
H -0.69200 -2.15600 -4.54700
H -1.26700 0.74000 -6.12900
H -2.20400 0.71400 -4.59600
H -1.96700 -0.72000 -5.45300
H 1.35600 -1.75900 -5.96700
H 1.45200 -3.15700 -4.90200
H 2.71400 -0.52200 -4.79800
H 3.48700 -2.12100 -4.52900
H 2.49500 -1.30300 -3.24000
H 0.86700 -6.33300 -0.08400
H 0.40400 -5.64200 -1.68000
H -0.89100 -5.99900 -0.46300
H -1.28300 -3.58100 4.02800
H 0.69800 -4.47800 7.75500
H 0.83300 -2.61900 7.68000
H 2.00000 -3.75400 6.97600
Mg 15.75738 1.42281 1.20229
C 13.56062 -1.34294 0.56674
C 13.56650 3.37059 -0.54150
C 17.88081 3.77544 1.35579
C 18.26454 -0.90262 1.87475
N 13.84540 0.95865 0.19176
C 13.07860 -0.11434 0.06912
C 11.68377 0.15979 -0.55448
C 12.04004 1.50285 -1.35954
C 13.20130 2.00123 -0.50178
C 12.56042 1.24286 -2.76345
C 10.58277 0.41716 0.53345
C 9.14420 0.38534 0.01262
H 8.10178 -0.15652 0.87994
N 15.52883 3.37772 0.94802
C 14.57122 3.99810 0.22733
C 14.85285 5.43768 0.33894
C 16.15006 5.60827 1.04806
C 16.58997 4.22981 1.12815
C 13.89375 6.49317 -0.12955
C 16.88059 6.81387 1.55704
O 18.10512 6.75129 1.93047
C 16.14923 8.08865 1.51765
N 17.83064 1.44310 1.35556
C 18.50498 2.60186 1.45790
C 19.94788 2.36198 1.83325
C 20.04384 0.80828 2.19986
C 18.59607 0.38122 1.87283
C 20.97973 2.69506 0.75588
C 20.62306 0.44899 3.59560
C 19.67552 0.90667 4.68100
N 15.87257 -0.72503 1.40617
C 17.02674 -1.49667 1.66412
C 16.62459 -2.91669 1.59897
C 15.25845 -2.87270 1.28241
C 14.84335 -1.52116 1.13909
C 17.48861 -4.03472 1.77109
C 14.07553 -3.66255 1.02643
O 13.79964 -4.85981 1.09110
C 12.95232 -2.71083 0.42723
C 11.66960 -2.98558 1.16320
O 11.56683 -2.72202 2.37423
O 10.71224 -3.30850 0.27464
C 9.41816 -3.57922 0.95575
H 13.06559 4.02051 -1.25954
H 18.63066 4.55147 1.52608
H 18.96599 -1.68623 2.16901
H 11.33478 -0.60313 -1.23999
H 11.21514 2.21008 -1.33262
H 12.71688 0.19019 -2.94661
H 13.49570 1.78245 -2.83511
H 11.89362 1.69605 -3.50258
H 10.64084 1.46309 0.86119
H 10.68654 -0.27002 1.35054
H 9.07824 -0.05587 -0.98934
H 8.80192 1.41397 -0.12441
H 13.10179 6.06685 -0.75762
H 14.44946 7.15351 -0.80409
H 13.48754 7.08760 0.69162
H 15.85265 8.30334 0.49373
H 16.80237 8.81544 2.00452
H 15.22536 7.97999 2.09669
H 20.22348 2.94590 2.70283
H 20.69717 0.26451 1.50178
H 21.73790 3.42851 1.08952
H 20.45572 3.06036 -0.11733
H 21.52416 1.84043 0.35788
H 21.56471 0.97778 3.76240
H 20.82184 -0.61012 3.72116
H 19.93380 1.96262 4.80493
H 19.84628 0.34818 5.59913
H 18.63466 0.85971 4.34030
H 16.96190 -4.74158 2.39832
H 18.43760 -3.73937 2.21376
H 17.60238 -4.35506 0.73200
H 12.86897 -2.93240 -0.63745
H 9.09910 -4.58020 0.64930
H 8.75623 -2.73493 0.68600
H 9.43152 -3.68249 2.03446
