158

Mg 0.00000 0.00000 0.00000
C -0.21700 -2.21800 2.80100
C -1.25500 2.44200 2.02600
C -0.24500 1.85000 -2.56400
C 0.14600 -2.82400 -2.03700
N -0.61700 -0.00900 2.12600
C -0.59400 -0.90800 3.10500
C -0.93600 -0.30900 4.50200
C -1.77300 0.96400 4.03200
C -1.15500 1.16800 2.66000
C -3.26300 0.68500 3.86300
C 0.34500 0.11000 5.29900
C 0.12400 0.39700 6.78700
H 1.16800 0.03300 7.73300
N -0.18500 1.96100 -0.15200
C -0.70300 2.80000 0.77700
C -0.62000 4.15600 0.19300
C -0.18700 4.01500 -1.22500
C -0.21400 2.58300 -1.38000
C -0.88700 5.40600 0.97400
C 0.18100 5.01300 -2.27700
O 0.30300 4.69000 -3.50800
C 0.31000 6.41400 -1.83700
N -0.26500 -0.41300 -2.02900
C -0.27900 0.56900 -2.93700
C -0.19600 0.02400 -4.33200
C 0.12400 -1.53300 -4.18000
C 0.08600 -1.63200 -2.63500
C -1.45100 0.20500 -5.19700
C 1.37300 -2.07000 -4.92300
C 2.62600 -1.49000 -4.30600
N 0.15000 -2.14400 0.30300
C 0.17300 -3.13600 -0.68800
C 0.17300 -4.43800 0.00400
C 0.13300 -4.11100 1.35800
C 0.08300 -2.69500 1.50200
C 0.14900 -5.71500 -0.62300
C 0.09600 -4.62900 2.71600
O 0.20800 -5.74700 3.22100
C -0.25500 -3.42800 3.70100
C 0.71700 -3.48200 4.84800
O 1.93100 -3.25500 4.66900
O 0.03800 -3.55600 6.00300
C 0.94300 -3.58300 7.18300
H -1.85900 3.22000 2.49700
H -0.21800 2.45300 -3.47400
H 0.27600 -3.74700 -2.60500
H -1.55400 -0.94900 5.13200
H -1.58500 1.83100 4.66500
H -3.48400 -0.37700 3.96900
H -3.51100 1.02700 2.85800
H -3.85200 1.30100 4.54300
H 0.66900 1.09600 4.96600
H 1.13000 -0.63900 5.18900
H -0.84400 0.02600 7.12500
H 0.06200 1.47700 6.92100
H -1.34400 5.18600 1.93800
H -1.65100 5.96300 0.43200
H 0.00700 6.02000 1.08400
H -0.63500 6.74400 -1.40500
H 0.66500 6.97000 -2.70400
H 1.04800 6.46600 -1.03600
H 0.60800 0.50100 -4.89100
H -0.69200 -2.15600 -4.54700
H -1.26700 0.74000 -6.12900
H -2.20400 0.71400 -4.59600
H -1.96700 -0.72000 -5.45300
H 1.35600 -1.75900 -5.96700
H 1.45200 -3.15700 -4.90200
H 2.71400 -0.52200 -4.79800
H 3.48700 -2.12100 -4.52900
H 2.49500 -1.30300 -3.24000
H 0.86700 -6.33300 -0.08400
H 0.40400 -5.64200 -1.68000
H -0.89100 -5.99900 -0.46300
H -1.28300 -3.58100 4.02800
H 0.69800 -4.47800 7.75500
H 0.83300 -2.61900 7.68000
H 2.00000 -3.75400 6.97600
Mg 7.88314 0.70970 0.59883
C 7.57956 3.59070 -1.50352
C 7.38500 -1.19317 -2.18936
C 7.69408 -1.82510 2.49506
C 7.22609 2.80050 3.30854
N 7.53950 1.24690 -1.52107
C 7.50542 2.38578 -2.20588
C 7.45946 2.17753 -3.74922
C 6.83629 0.71048 -3.78682
C 7.31068 0.21031 -2.43378
C 5.31122 0.69671 -3.80846
C 8.88485 2.21126 -4.39641
C 8.90679 2.34264 -5.92206
H 9.96678 3.12284 -6.54258
N 8.06750 -1.21394 0.18839
C 7.84019 -1.81272 -1.00537
C 8.11469 -3.25100 -0.79875
C 8.33609 -3.46728 0.65806
C 8.01137 -2.16526 1.18215
C 8.19390 -4.24272 -1.91855
C 8.76113 -4.66126 1.45297
O 8.66708 -4.69847 2.72746
C 9.21373 -5.83494 0.68440
N 7.29783 0.46450 2.58753
C 7.36551 -0.73054 3.18443
C 7.17021 -0.61223 4.66693
C 7.19611 0.95073 4.99289
C 7.32771 1.49107 3.54756
C 5.87900 -1.22821 5.22313
C 8.21640 1.43062 6.05549
C 9.62409 1.25538 5.53127
N 7.64736 2.84496 0.90883
C 7.35552 3.49438 2.11704
C 7.18547 4.92601 1.80788
C 7.37507 5.00801 0.42978
C 7.62040 3.70611 -0.09286
C 6.83653 5.94389 2.73879
C 7.40309 5.88918 -0.72635
O 7.35522 7.10946 -0.88796
C 7.41579 4.99065 -2.04100
C 8.49069 5.52616 -2.94716
O 9.69468 5.44489 -2.62911
O 7.95592 5.83073 -4.13956
C 8.97490 6.34020 -5.09574
H 7.00639 -1.88171 -2.94732
H 7.72741 -2.65674 3.20195
H 7.10331 3.52508 4.11561
H 6.80969 2.87179 -4.28236
H 7.26552 0.10637 -4.58591
H 4.90168 1.69636 -3.66389
H 5.01441 0.04156 -2.98921
H 4.94099 0.22459 -4.71886
H 9.35217 1.23256 -4.28773
H 9.48918 3.00586 -3.95740
H 7.93342 2.64398 -6.31020
H 9.07362 1.35309 -6.34771
H 7.82345 -3.82241 -2.85271
H 7.49322 -5.04394 -1.68445
H 9.19719 -4.65345 -2.03278
H 8.41104 -6.16416 0.02421
H 9.56232 -6.55953 1.41946
H 10.03951 -5.53659 0.03786
H 7.97779 -1.10343 5.20819
H 6.23572 1.30656 5.36666
H 6.04917 -1.97815 5.99601
H 5.31867 -1.64753 4.38797
H 5.16510 -0.50899 5.62374
H 8.13361 0.82859 6.95973
H 8.08360 2.47478 6.33894
H 9.83889 0.21103 5.75494
H 10.31167 1.91710 6.05906
H 9.66276 1.37123 4.44796
H 7.48016 6.79478 2.51588
H 6.97038 5.60422 3.76558
H 5.78842 6.09997 2.48388
H 6.42526 5.07385 -2.48714
H 8.63129 7.31511 -5.44174
H 9.11651 5.55918 -5.84297
H 9.94499 6.60239 -4.67204
