79

Mg 31.53506 2.84364 2.40442
C 30.26415 0.48896 4.79594
C 29.40558 5.13959 3.75665
C 32.30215 4.80557 0.03170
C 32.68481 0.12718 0.54846
N 30.07389 2.71175 4.05967
C 29.72155 1.78332 4.93616
C 28.79363 2.29062 6.07246
C 28.15999 3.55845 5.31749
C 29.29386 3.85083 4.33692
C 26.91233 3.22118 4.51814
C 29.59503 2.72425 7.34985
C 28.74229 2.93681 8.60261
H 29.30755 2.57374 9.89919
N 31.32246 4.81031 2.24450
C 30.42142 5.58597 2.88306
C 30.66294 6.95729 2.40840
C 31.67051 6.90439 1.31446
C 31.79135 5.47128 1.13645
C 30.02584 8.16097 3.03981
C 32.39471 7.96786 0.54585
O 33.04872 7.69884 -0.52314
C 32.23845 9.34751 1.02922
N 32.18373 2.51480 0.45675
C 32.49802 3.54339 -0.35019
C 33.19839 3.06291 -1.59879
C 33.50624 1.51351 -1.34948
C 32.82118 1.33711 0.02346
C 32.41744 3.22292 -2.90298
C 34.98254 1.05569 -1.50316
C 35.82755 1.66102 -0.40548
N 31.66272 0.70604 2.69155
C 32.15557 -0.24962 1.77619
C 31.93098 -1.58164 2.37428
C 31.29716 -1.30742 3.59558
C 31.11977 0.09527 3.73874
C 32.25499 -2.82964 1.77128
C 30.72825 -1.88624 4.79141
O 30.67005 -3.02046 5.26458
C 29.92020 -0.75671 5.56446
C 30.31242 -0.81552 7.01539
O 31.47379 -0.54398 7.36769
O 29.20576 -0.96903 7.76513
C 29.54224 -1.02172 9.21282
H 28.61841 5.86767 3.95450
H 32.68309 5.44388 -0.76888
H 33.10333 -0.76443 0.07670
H 28.01027 1.60027 6.36151
H 28.01967 4.39402 5.99828
H 26.72452 2.15803 4.49393
H 27.09257 3.59639 3.51926
H 26.05581 3.78328 4.90123
H 29.97436 3.74406 7.20550
H 30.38094 2.02567 7.56193
H 27.73491 2.51753 8.49155
H 28.57383 4.00893 8.72991
H 29.20686 7.87656 3.71196
H 29.53570 8.72169 2.23655
H 30.75123 8.81141 3.53317
H 31.18411 9.61364 1.02718
H 32.90080 9.95208 0.40659
H 32.57247 9.39289 2.07180
H 34.13439 3.58829 -1.74365
H 32.96199 0.87095 -2.05711
H 32.95682 3.81711 -3.66461
H 31.46131 3.67500 -2.67502
H 32.12377 2.29083 -3.38273
H 35.39502 1.41808 -2.44798
H 35.10394 -0.02233 -1.49117
H 36.05793 2.65802 -0.79277
H 36.73339 1.07759 -0.25349
H 35.24451 1.79105 0.51366
H 32.70413 -3.44089 2.54274
H 32.92608 -2.69987 0.92477
H 31.26039 -3.15980 1.45976
H 28.85783 -0.95627 5.41915
H 29.12277 -1.95350 9.60462
H 29.15976 -0.07704 9.64300
H 30.58658 -1.13070 9.48101
