79

Mg 8.94097 0.80363 0.68682
C 9.01360 -2.74665 1.20572
C 7.78854 1.09689 3.88378
C 8.43792 3.88423 0.11735
C 8.98965 0.16410 -2.73872
N 8.49933 -0.70327 2.24454
C 8.62374 -2.01781 2.34862
C 8.39050 -2.57472 3.77866
C 7.47495 -1.38692 4.35292
C 7.97080 -0.24593 3.46696
C 5.99220 -1.58790 4.08760
C 9.72576 -2.71470 4.59075
C 9.61341 -3.53727 5.87625
H 10.74717 -4.36804 6.27231
N 8.69279 2.31840 1.94478
C 8.23671 2.25623 3.21341
C 8.22028 3.64322 3.70345
C 8.54734 4.54626 2.56667
C 8.55171 3.59877 1.47017
C 7.99282 3.99421 5.14515
C 8.80010 6.02091 2.47879
O 8.83145 6.63279 1.35298
C 8.91692 6.74317 3.75401
N 8.52887 1.86725 -1.05135
C 8.40698 3.20613 -1.03006
C 8.38722 3.77438 -2.42902
C 8.76590 2.55587 -3.39308
C 8.85568 1.42362 -2.34650
C 7.06109 4.38646 -2.87974
C 9.96497 2.76782 -4.35743
C 11.24976 2.87405 -3.56787
N 9.17762 -0.94017 -0.56666
C 9.14041 -0.98793 -1.97748
C 9.23340 -2.40976 -2.36757
C 9.29557 -3.09771 -1.14635
C 9.22455 -2.17159 -0.07082
C 9.20333 -2.91061 -3.69962
C 9.39441 -4.39757 -0.52243
O 9.57088 -5.54523 -0.92920
C 9.08887 -4.23789 1.02920
C 10.15212 -4.98079 1.79084
O 11.33655 -4.60348 1.75363
O 9.56581 -5.87670 2.60568
C 10.57919 -6.63093 3.39054
H 7.21090 1.28523 4.78918
H 8.37382 4.94474 -0.13699
H 9.10983 -0.11066 -3.78883
H 7.85024 -3.51298 3.81824
H 7.69970 -1.18438 5.39687
H 5.80878 -2.44073 3.45105
H 5.65312 -0.67857 3.60886
H 5.44553 -1.65281 5.03273
H 9.99071 -1.73783 5.01533
H 10.50704 -3.11378 3.97352
H 8.68159 -4.11438 5.91621
H 9.53956 -2.85007 6.72261
H 7.61607 3.13503 5.71372
H 7.17185 4.71888 5.17215
H 8.87283 4.43950 5.61416
H 8.00431 6.60912 4.32988
H 9.18521 7.76704 3.48645
H 9.72687 6.29252 4.33840
H 9.13036 4.55444 -2.54010
H 7.93604 2.29612 -4.06665
H 7.15338 5.44205 -3.19800
H 6.34982 4.29431 -2.06971
H 6.55974 3.85781 -3.68868
H 9.85404 3.71098 -4.89807
H 10.06747 1.98202 -5.09839
H 11.26425 3.92392 -3.26021
H 12.10593 2.63479 -4.19539
H 11.20405 2.26450 -2.65792
H 9.97251 -3.66866 -3.76466
H 9.36369 -2.11704 -4.42647
H 8.18331 -3.30222 -3.73777
H 8.09407 -4.64646 1.21093
H 10.40361 -7.69434 3.20074
H 10.46993 -6.28078 4.43419
H 11.61718 -6.53195 3.09517
