158

Mg 0.00000 0.00000 0.00000
C -0.21700 -2.21800 2.80100
C -1.25500 2.44200 2.02600
C -0.24500 1.85000 -2.56400
C 0.14600 -2.82400 -2.03700
N -0.61700 -0.00900 2.12600
C -0.59400 -0.90800 3.10500
C -0.93600 -0.30900 4.50200
C -1.77300 0.96400 4.03200
C -1.15500 1.16800 2.66000
C -3.26300 0.68500 3.86300
C 0.34500 0.11000 5.29900
C 0.12400 0.39700 6.78700
H 1.16800 0.03300 7.73300
N -0.18500 1.96100 -0.15200
C -0.70300 2.80000 0.77700
C -0.62000 4.15600 0.19300
C -0.18700 4.01500 -1.22500
C -0.21400 2.58300 -1.38000
C -0.88700 5.40600 0.97400
C 0.18100 5.01300 -2.27700
O 0.30300 4.69000 -3.50800
C 0.31000 6.41400 -1.83700
N -0.26500 -0.41300 -2.02900
C -0.27900 0.56900 -2.93700
C -0.19600 0.02400 -4.33200
C 0.12400 -1.53300 -4.18000
C 0.08600 -1.63200 -2.63500
C -1.45100 0.20500 -5.19700
C 1.37300 -2.07000 -4.92300
C 2.62600 -1.49000 -4.30600
N 0.15000 -2.14400 0.30300
C 0.17300 -3.13600 -0.68800
C 0.17300 -4.43800 0.00400
C 0.13300 -4.11100 1.35800
C 0.08300 -2.69500 1.50200
C 0.14900 -5.71500 -0.62300
C 0.09600 -4.62900 2.71600
O 0.20800 -5.74700 3.22100
C -0.25500 -3.42800 3.70100
C 0.71700 -3.48200 4.84800
O 1.93100 -3.25500 4.66900
O 0.03800 -3.55600 6.00300
C 0.94300 -3.58300 7.18300
H -1.85900 3.22000 2.49700
H -0.21800 2.45300 -3.47400
H 0.27600 -3.74700 -2.60500
H -1.55400 -0.94900 5.13200
H -1.58500 1.83100 4.66500
H -3.48400 -0.37700 3.96900
H -3.51100 1.02700 2.85800
H -3.85200 1.30100 4.54300
H 0.66900 1.09600 4.96600
H 1.13000 -0.63900 5.18900
H -0.84400 0.02600 7.12500
H 0.06200 1.47700 6.92100
H -1.34400 5.18600 1.93800
H -1.65100 5.96300 0.43200
H 0.00700 6.02000 1.08400
H -0.63500 6.74400 -1.40500
H 0.66500 6.97000 -2.70400
H 1.04800 6.46600 -1.03600
H 0.60800 0.50100 -4.89100
H -0.69200 -2.15600 -4.54700
H -1.26700 0.74000 -6.12900
H -2.20400 0.71400 -4.59600
H -1.96700 -0.72000 -5.45300
H 1.35600 -1.75900 -5.96700
H 1.45200 -3.15700 -4.90200
H 2.71400 -0.52200 -4.79800
H 3.48700 -2.12100 -4.52900
H 2.49500 -1.30300 -3.24000
H 0.86700 -6.33300 -0.08400
H 0.40400 -5.64200 -1.68000
H -0.89100 -5.99900 -0.46300
H -1.28300 -3.58100 4.02800
H 0.69800 -4.47800 7.75500
H 0.83300 -2.61900 7.68000
H 2.00000 -3.75400 6.97600
Mg 8.94027 0.80966 0.68555
C 8.87644 -1.40700 3.50714
C 7.54451 3.17851 2.70422
C 8.56672 2.63545 -1.88240
C 9.24521 -2.00684 -1.34423
N 8.33560 0.77117 2.81279
C 8.41617 -0.10662 3.80140
C 8.05471 0.46383 5.19908
C 7.12826 1.68766 4.72705
C 7.72356 1.92428 3.34058
C 5.66660 1.30667 4.56060
C 9.31665 0.96795 5.98352
C 9.08010 1.25062 7.46875
H 10.15604 0.96046 8.41248
N 8.63298 2.76439 0.53323
C 8.07557 3.57491 1.45715
C 8.05710 4.91742 0.85593
C 8.49787 4.80300 -0.56088
C 8.56448 3.36213 -0.70067
C 7.72471 6.15480 1.63814
C 8.79612 5.82152 -1.61911
O 8.93358 5.49285 -2.85033
C 8.82999 7.22612 -1.18615
N 8.69681 0.37210 -1.33227
C 8.60941 1.35380 -2.24690
C 8.71658 0.80393 -3.64924
C 9.13836 -0.72921 -3.47849
C 9.11403 -0.82823 -1.93739
C 7.44749 0.89100 -4.49672
C 10.41583 -1.19548 -4.22905
C 11.63586 -0.52999 -3.63403
N 9.22961 -1.30856 0.99773
C 9.30391 -2.31414 0.00910
C 9.38975 -3.61051 0.71229
C 9.33583 -3.26814 2.07184
C 9.20392 -1.85957 2.20611
C 9.45277 -4.89043 0.09266
C 9.34980 -3.77892 3.42373
O 9.52748 -4.88486 3.93271
C 8.92571 -2.60758 4.41091
C 9.90455 -2.58526 5.55279
O 11.09782 -2.29487 5.35680
O 9.23135 -2.69615 6.71248
C 10.15833 -2.66786 7.87511
H 6.90166 3.91682 3.18435
H 8.55147 3.22781 -2.80020
H 9.44147 -2.92361 -1.90431
H 7.48816 -0.20896 5.83165
H 7.27427 2.56008 5.35866
H 5.51189 0.24391 4.67347
H 5.39122 1.62532 3.56376
H 5.04468 1.88965 5.24593
H 9.57284 1.97795 5.63852
H 10.13378 0.28205 5.87190
H 8.13299 0.82617 7.82338
H 8.95728 2.32825 7.60163
H 7.28096 5.90876 2.61074
H 6.92385 6.66987 1.09668
H 8.57604 6.83155 1.73768
H 7.87106 7.49212 -0.74779
H 9.14603 7.79464 -2.06295
H 9.57838 7.32964 -0.39254
H 9.48678 1.32003 -4.20918
H 8.35829 -1.41016 -3.84949
H 7.59304 1.44144 -5.44536
H 6.67161 1.35550 -3.90276
H 6.99839 -0.06636 -4.75549
H 10.37363 -0.88669 -5.27644
H 10.55615 -2.27118 -4.21584
H 11.65376 0.44369 -4.13275
H 12.53269 -1.10435 -3.85727
H 11.50137 -0.34850 -2.56136
H 10.20417 -5.45772 0.62566
H 9.69178 -4.80849 -0.96561
H 8.42896 -5.23712 0.25661
H 7.90903 -2.81456 4.74720
H 9.97013 -3.57610 8.45595
H 9.97548 -1.70045 8.37952
H 11.21885 -2.76206 7.67296
