158

Mg 0.00000 0.00000 0.00000
C -0.21700 -2.21800 2.80100
C -1.25500 2.44200 2.02600
C -0.24500 1.85000 -2.56400
C 0.14600 -2.82400 -2.03700
N -0.61700 -0.00900 2.12600
C -0.59400 -0.90800 3.10500
C -0.93600 -0.30900 4.50200
C -1.77300 0.96400 4.03200
C -1.15500 1.16800 2.66000
C -3.26300 0.68500 3.86300
C 0.34500 0.11000 5.29900
C 0.12400 0.39700 6.78700
H 1.16800 0.03300 7.73300
N -0.18500 1.96100 -0.15200
C -0.70300 2.80000 0.77700
C -0.62000 4.15600 0.19300
C -0.18700 4.01500 -1.22500
C -0.21400 2.58300 -1.38000
C -0.88700 5.40600 0.97400
C 0.18100 5.01300 -2.27700
O 0.30300 4.69000 -3.50800
C 0.31000 6.41400 -1.83700
N -0.26500 -0.41300 -2.02900
C -0.27900 0.56900 -2.93700
C -0.19600 0.02400 -4.33200
C 0.12400 -1.53300 -4.18000
C 0.08600 -1.63200 -2.63500
C -1.45100 0.20500 -5.19700
C 1.37300 -2.07000 -4.92300
C 2.62600 -1.49000 -4.30600
N 0.15000 -2.14400 0.30300
C 0.17300 -3.13600 -0.68800
C 0.17300 -4.43800 0.00400
C 0.13300 -4.11100 1.35800
C 0.08300 -2.69500 1.50200
C 0.14900 -5.71500 -0.62300
C 0.09600 -4.62900 2.71600
O 0.20800 -5.74700 3.22100
C -0.25500 -3.42800 3.70100
C 0.71700 -3.48200 4.84800
O 1.93100 -3.25500 4.66900
O 0.03800 -3.55600 6.00300
C 0.94300 -3.58300 7.18300
H -1.85900 3.22000 2.49700
H -0.21800 2.45300 -3.47400
H 0.27600 -3.74700 -2.60500
H -1.55400 -0.94900 5.13200
H -1.58500 1.83100 4.66500
H -3.48400 -0.37700 3.96900
H -3.51100 1.02700 2.85800
H -3.85200 1.30100 4.54300
H 0.66900 1.09600 4.96600
H 1.13000 -0.63900 5.18900
H -0.84400 0.02600 7.12500
H 0.06200 1.47700 6.92100
H -1.34400 5.18600 1.93800
H -1.65100 5.96300 0.43200
H 0.00700 6.02000 1.08400
H -0.63500 6.74400 -1.40500
H 0.66500 6.97000 -2.70400
H 1.04800 6.46600 -1.03600
H 0.60800 0.50100 -4.89100
H -0.69200 -2.15600 -4.54700
H -1.26700 0.74000 -6.12900
H -2.20400 0.71400 -4.59600
H -1.96700 -0.72000 -5.45300
H 1.35600 -1.75900 -5.96700
H 1.45200 -3.15700 -4.90200
H 2.71400 -0.52200 -4.79800
H 3.48700 -2.12100 -4.52900
H 2.49500 -1.30300 -3.24000
H 0.86700 -6.33300 -0.08400
H 0.40400 -5.64200 -1.68000
H -0.89100 -5.99900 -0.46300
H -1.28300 -3.58100 4.02800
H 0.69800 -4.47800 7.75500
H 0.83300 -2.61900 7.68000
H 2.00000 -3.75400 6.97600
Mg 15.75776 1.42146 1.20362
C 17.19302 3.52521 3.73213
C 14.86555 -0.72069 3.70357
C 14.88721 -0.66094 -1.02643
C 17.72546 3.11209 -1.12353
N 16.04699 1.50234 3.39498
C 16.55177 2.38011 4.24884
C 16.28779 2.04961 5.74237
C 16.07910 0.46333 5.60439
C 15.59944 0.40502 4.15552
C 17.37358 -0.32551 5.71108
C 14.99713 2.75318 6.29117
C 14.84802 2.72606 7.81393
H 14.24635 3.88078 8.47505
N 14.57213 -0.16568 1.32128
C 14.30486 -0.90205 2.42018
C 13.39407 -1.96919 1.97766
C 13.27614 -1.90066 0.49574
C 14.27876 -0.89768 0.19762
C 12.67440 -2.87383 2.93534
C 12.41384 -2.62788 -0.49107
O 12.64587 -2.58135 -1.75077
C 11.34667 -3.47109 0.06717
N 16.38836 1.10356 -0.75179
C 15.80800 0.16626 -1.52159
C 16.23281 0.30538 -2.96401
C 17.03436 1.68691 -3.04449
C 17.00990 2.08101 -1.55134
C 17.10697 -0.82253 -3.51178
C 16.54443 2.72488 -4.09103
C 15.18023 3.24659 -3.70097
N 17.06192 3.14385 1.22834
C 17.80757 3.66474 0.14817
C 18.63121 4.76963 0.68038
C 18.32234 4.80017 2.04865
C 17.38842 3.77285 2.35183
C 19.55537 5.55295 -0.06691
C 18.58201 5.46101 3.30744
O 19.21929 6.45575 3.65110
C 17.95819 4.58373 4.47689
C 17.18380 5.50101 5.38322
O 16.16615 6.08527 4.97136
O 17.64314 5.36864 6.64094
C 16.89870 6.25051 7.57898
H 14.74165 -1.56556 4.38160
H 14.53791 -1.28198 -1.85455
H 18.29171 3.75201 -1.80363
H 17.11702 2.25908 6.40741
H 15.30360 0.10695 6.27741
H 18.23785 0.32108 5.74407
H 17.40664 -0.95675 4.83274
H 17.33219 -1.00369 6.56822
H 14.11787 2.16143 6.00572
H 14.93619 3.76494 5.94009
H 15.78098 2.43963 8.31441
H 14.14643 1.93164 8.07980
H 13.08660 -2.79616 3.94898
H 12.89495 -3.90257 2.63052
H 11.59248 -2.72567 2.92250
H 11.78411 -4.22048 0.72255
H 10.78313 -3.83705 -0.79328
H 10.69811 -2.84673 0.69179
H 15.37078 0.36066 -3.61742
H 18.09000 1.53058 -3.31098
H 16.67927 -1.31024 -4.40804
H 17.26379 -1.54652 -2.72325
H 18.12542 -0.53496 -3.76728
H 16.42752 2.25075 -5.06863
H 17.22190 3.56262 -4.21837
H 14.50267 2.48037 -4.08943
H 14.99210 4.21226 -4.16586
H 15.06379 3.26774 -2.61117
H 19.40717 6.58133 0.23473
H 19.40885 5.42682 -1.13761
H 20.49911 5.11760 0.27234
H 18.78374 4.09589 4.99656
H 17.64052 6.87212 8.08986
H 16.29077 5.57276 8.20734
H 16.25016 7.00510 7.14951
