79

Mg 15.76788 1.42203 1.18752
C 18.24527 -0.99652 0.24297
C 18.03905 3.83890 0.39057
C 13.78058 3.56004 2.43129
C 14.16076 -1.11823 2.95103
N 17.84104 1.31055 0.42475
C 18.65617 0.33815 0.04484
C 19.95315 0.82331 -0.65661
C 20.02515 2.30151 -0.03321
C 18.54023 2.52019 0.24941
C 20.77650 2.36223 1.28631
C 19.80823 0.86501 -2.21843
C 21.12388 1.03103 -2.98215
H 21.27541 0.34838 -4.26414
N 15.68038 3.38943 0.94202
C 16.69240 4.21194 0.59480
C 16.11883 5.56636 0.56774
C 14.72611 5.49643 1.08750
C 14.68110 4.11928 1.53638
C 16.85293 6.74985 0.00751
C 13.62219 6.50602 1.17864
O 12.57294 6.29464 1.88378
C 13.84739 7.78731 0.49376
N 14.31573 1.30200 2.67049
C 13.55657 2.36702 2.98250
C 12.40347 1.97251 3.87420
C 12.40743 0.37347 3.89944
C 13.67195 0.11015 3.05266
C 12.45791 2.50399 5.30631
C 11.08735 -0.34000 3.49816
C 10.80229 -0.11115 2.03128
N 16.00695 -0.71459 1.40143
C 15.24058 -1.58188 2.21049
C 15.85346 -2.92257 2.11372
C 16.95619 -2.73590 1.26659
C 17.03744 -1.37083 0.87999
C 15.41162 -4.09051 2.79697
C 18.07617 -3.38111 0.62002
O 18.46442 -4.54346 0.51073
C 19.03426 -2.25855 0.02985
C 19.37939 -2.63873 -1.38396
O 18.49988 -2.67018 -2.26265
O 20.71778 -2.69003 -1.51224
C 21.10963 -3.05252 -2.90036
H 18.74862 4.66677 0.38679
H 13.00540 4.23397 2.80331
H 13.66189 -1.98344 3.39286
H 20.84551 0.26645 -0.39706
H 20.38423 3.02137 -0.76412
H 21.03705 1.37836 1.64721
H 20.11044 2.85616 1.98162
H 21.65080 3.01274 1.19267
H 19.30485 1.79685 -2.50657
H 19.28975 -0.00318 -2.57628
H 21.99689 0.84826 -2.34388
H 21.22321 2.07802 -3.27875
H 17.91587 6.52733 -0.14759
H 16.84781 7.52497 0.78148
H 16.38369 7.14813 -0.89463
H 14.74368 8.25698 0.89192
H 12.91273 8.34198 0.59681
H 14.04080 7.58816 -0.56622
H 11.46185 2.31515 3.46304
H 12.61625 -0.01762 4.90606
H 11.56665 3.09685 5.58603
H 13.35761 3.09455 5.41726
H 12.58360 1.74463 6.07624
H 10.24449 0.08564 4.04822
H 11.09544 -1.40664 3.69614
H 10.31740 0.86963 2.02420
H 10.13877 -0.88229 1.64512
H 11.73284 -0.02294 1.45861
H 15.44280 -4.90076 2.08071
H 14.41186 -3.95800 3.20523
H 16.17007 -4.15609 3.58164
H 19.91716 -2.21246 0.66854
H 21.75579 -3.93300 -2.83033
H 21.55198 -2.13636 -3.33480
H 20.33152 -3.41337 -3.56276
