158

Mg 0.00000 0.00000 0.00000
C -0.21700 -2.21800 2.80100
C -1.25500 2.44200 2.02600
C -0.24500 1.85000 -2.56400
C 0.14600 -2.82400 -2.03700
N -0.61700 -0.00900 2.12600
C -0.59400 -0.90800 3.10500
C -0.93600 -0.30900 4.50200
C -1.77300 0.96400 4.03200
C -1.15500 1.16800 2.66000
C -3.26300 0.68500 3.86300
C 0.34500 0.11000 5.29900
C 0.12400 0.39700 6.78700
H 1.16800 0.03300 7.73300
N -0.18500 1.96100 -0.15200
C -0.70300 2.80000 0.77700
C -0.62000 4.15600 0.19300
C -0.18700 4.01500 -1.22500
C -0.21400 2.58300 -1.38000
C -0.88700 5.40600 0.97400
C 0.18100 5.01300 -2.27700
O 0.30300 4.69000 -3.50800
C 0.31000 6.41400 -1.83700
N -0.26500 -0.41300 -2.02900
C -0.27900 0.56900 -2.93700
C -0.19600 0.02400 -4.33200
C 0.12400 -1.53300 -4.18000
C 0.08600 -1.63200 -2.63500
C -1.45100 0.20500 -5.19700
C 1.37300 -2.07000 -4.92300
C 2.62600 -1.49000 -4.30600
N 0.15000 -2.14400 0.30300
C 0.17300 -3.13600 -0.68800
C 0.17300 -4.43800 0.00400
C 0.13300 -4.11100 1.35800
C 0.08300 -2.69500 1.50200
C 0.14900 -5.71500 -0.62300
C 0.09600 -4.62900 2.71600
O 0.20800 -5.74700 3.22100
C -0.25500 -3.42800 3.70100
C 0.71700 -3.48200 4.84800
O 1.93100 -3.25500 4.66900
O 0.03800 -3.55600 6.00300
C 0.94300 -3.58300 7.18300
H -1.85900 3.22000 2.49700
H -0.21800 2.45300 -3.47400
H 0.27600 -3.74700 -2.60500
H -1.55400 -0.94900 5.13200
H -1.58500 1.83100 4.66500
H -3.48400 -0.37700 3.96900
H -3.51100 1.02700 2.85800
H -3.85200 1.30100 4.54300
H 0.66900 1.09600 4.96600
H 1.13000 -0.63900 5.18900
H -0.84400 0.02600 7.12500
H 0.06200 1.47700 6.92100
H -1.34400 5.18600 1.93800
H -1.65100 5.96300 0.43200
H 0.00700 6.02000 1.08400
H -0.63500 6.74400 -1.40500
H 0.66500 6.97000 -2.70400
H 1.04800 6.46600 -1.03600
H 0.60800 0.50100 -4.89100
H -0.69200 -2.15600 -4.54700
H -1.26700 0.74000 -6.12900
H -2.20400 0.71400 -4.59600
H -1.96700 -0.72000 -5.45300
H 1.35600 -1.75900 -5.96700
H 1.45200 -3.15700 -4.90200
H 2.71400 -0.52200 -4.79800
H 3.48700 -2.12100 -4.52900
H 2.49500 -1.30300 -3.24000
H 0.86700 -6.33300 -0.08400
H 0.40400 -5.64200 -1.68000
H -0.89100 -5.99900 -0.46300
H -1.28300 -3.58100 4.02800
H 0.69800 -4.47800 7.75500
H 0.83300 -2.61900 7.68000
H 2.00000 -3.75400 6.97600
Mg 7.88314 0.70970 0.59883
C 7.30283 4.12239 1.50934
C 7.16585 1.60095 -2.61586
C 7.94438 -2.37030 -0.15380
C 7.43863 -0.10773 3.95739
N 7.32161 2.64740 -0.31257
C 7.19191 3.89193 0.13630
C 7.00172 4.94159 -0.99922
C 6.41583 3.98416 -2.13150
C 7.03204 2.67107 -1.68207
C 4.89672 3.85273 -2.09223
C 8.35621 5.59043 -1.44205
C 8.22655 6.84786 -2.30658
H 9.20085 7.91573 -2.14004
N 8.07625 -0.17675 -1.15610
C 7.74963 0.34036 -2.36490
C 8.07983 -0.70447 -3.35786
C 8.44710 -1.94057 -2.61269
C 8.14137 -1.54807 -1.26071
C 8.07547 -0.46513 -4.83652
C 8.97790 -3.26888 -3.05084
O 9.00900 -4.28027 -2.26937
C 9.38382 -3.38055 -4.46356
N 7.50016 -1.02708 1.69179
C 7.65621 -2.23657 1.14247
C 7.60276 -3.31851 2.18002
C 7.61993 -2.57644 3.59380
C 7.59665 -1.11162 3.09177
C 6.38794 -4.25404 2.10942
C 8.72586 -2.99564 4.59461
C 10.08005 -2.57528 4.06872
N 7.62366 1.80268 2.45601
C 7.43387 1.25913 3.73476
C 7.19780 2.38808 4.65336
C 7.25055 3.51618 3.83699
C 7.47742 3.11538 2.48933
C 6.91478 2.28579 6.04399
C 7.14351 4.96524 3.78581
O 7.04877 5.85809 4.62922
C 7.05166 5.40726 2.25872
C 8.01937 6.54094 2.05471
O 9.25024 6.35508 2.14286
O 7.36371 7.60118 1.55817
C 8.27160 8.75168 1.30471
H 6.73330 1.71252 -3.61205
H 8.06758 -3.43723 -0.35110
H 7.37615 -0.28001 5.03343
H 6.28561 5.73167 -0.77254
H 6.78087 4.25463 -3.12212
H 4.47755 4.33752 -1.21064
H 4.69781 2.78112 -2.06817
H 4.45214 4.21930 -3.01784
H 8.85692 4.92961 -2.14962
H 8.97964 5.81172 -0.57505
H 7.21266 7.24805 -2.27850
H 8.37669 6.56326 -3.34805
H 7.60539 0.48503 -5.08704
H 7.42169 -1.21659 -5.27878
H 9.07317 -0.54590 -5.26826
H 8.52959 -3.15520 -5.10235
H 9.82067 -4.37250 -4.57340
H 10.13499 -2.61935 -4.67633
H 8.47146 -3.97176 2.10891
H 6.69152 -2.72594 4.14550
H 6.65158 -5.30741 2.01136
H 5.76016 -3.92920 1.28016
H 5.69801 -4.17143 2.94882
H 8.74676 -4.07934 4.70458
H 8.59436 -2.56406 5.58694
H 10.34237 -3.38910 3.39366
H 10.79836 -2.49876 4.88566
H 10.01039 -1.66601 3.47133
H 7.51161 3.05491 6.53412
H 7.15638 1.29393 6.42535
H 5.84321 2.48477 6.04714
H 6.02069 5.71225 2.08213
H 7.87103 9.60374 1.85405
H 8.36007 8.84395 0.22209
H 9.27116 8.68087 1.73505
