158

Mg 0.00000 0.00000 0.00000
C -0.21700 -2.21800 2.80100
C -1.25500 2.44200 2.02600
C -0.24500 1.85000 -2.56400
C 0.14600 -2.82400 -2.03700
N -0.61700 -0.00900 2.12600
C -0.59400 -0.90800 3.10500
C -0.93600 -0.30900 4.50200
C -1.77300 0.96400 4.03200
C -1.15500 1.16800 2.66000
C -3.26300 0.68500 3.86300
C 0.34500 0.11000 5.29900
C 0.12400 0.39700 6.78700
H 1.16800 0.03300 7.73300
N -0.18500 1.96100 -0.15200
C -0.70300 2.80000 0.77700
C -0.62000 4.15600 0.19300
C -0.18700 4.01500 -1.22500
C -0.21400 2.58300 -1.38000
C -0.88700 5.40600 0.97400
C 0.18100 5.01300 -2.27700
O 0.30300 4.69000 -3.50800
C 0.31000 6.41400 -1.83700
N -0.26500 -0.41300 -2.02900
C -0.27900 0.56900 -2.93700
C -0.19600 0.02400 -4.33200
C 0.12400 -1.53300 -4.18000
C 0.08600 -1.63200 -2.63500
C -1.45100 0.20500 -5.19700
C 1.37300 -2.07000 -4.92300
C 2.62600 -1.49000 -4.30600
N 0.15000 -2.14400 0.30300
C 0.17300 -3.13600 -0.68800
C 0.17300 -4.43800 0.00400
C 0.13300 -4.11100 1.35800
C 0.08300 -2.69500 1.50200
C 0.14900 -5.71500 -0.62300
C 0.09600 -4.62900 2.71600
O 0.20800 -5.74700 3.22100
C -0.25500 -3.42800 3.70100
C 0.71700 -3.48200 4.84800
O 1.93100 -3.25500 4.66900
O 0.03800 -3.55600 6.00300
C 0.94300 -3.58300 7.18300
H -1.85900 3.22000 2.49700
H -0.21800 2.45300 -3.47400
H 0.27600 -3.74700 -2.60500
H -1.55400 -0.94900 5.13200
H -1.58500 1.83100 4.66500
H -3.48400 -0.37700 3.96900
H -3.51100 1.02700 2.85800
H -3.85200 1.30100 4.54300
H 0.66900 1.09600 4.96600
H 1.13000 -0.63900 5.18900
H -0.84400 0.02600 7.12500
H 0.06200 1.47700 6.92100
H -1.34400 5.18600 1.93800
H -1.65100 5.96300 0.43200
H 0.00700 6.02000 1.08400
H -0.63500 6.74400 -1.40500
H 0.66500 6.97000 -2.70400
H 1.04800 6.46600 -1.03600
H 0.60800 0.50100 -4.89100
H -0.69200 -2.15600 -4.54700
H -1.26700 0.74000 -6.12900
H -2.20400 0.71400 -4.59600
H -1.96700 -0.72000 -5.45300
H 1.35600 -1.75900 -5.96700
H 1.45200 -3.15700 -4.90200
H 2.71400 -0.52200 -4.79800
H 3.48700 -2.12100 -4.52900
H 2.49500 -1.30300 -3.24000
H 0.86700 -6.33300 -0.08400
H 0.40400 -5.64200 -1.68000
H -0.89100 -5.99900 -0.46300
H -1.28300 -3.58100 4.02800
H 0.69800 -4.47800 7.75500
H 0.83300 -2.61900 7.68000
H 2.00000 -3.75400 6.97600
Mg 31.53217 2.83139 2.40290
C 29.17246 4.30269 4.67140
C 33.79273 2.88237 4.95669
C 33.75831 1.95758 0.31767
C 29.50219 3.93550 -0.20590
N 31.38292 3.52641 4.49740
C 30.41803 4.01018 5.26505
C 30.78494 4.11541 6.76967
C 32.38212 4.19471 6.62272
C 32.54216 3.45895 5.29392
C 32.90085 5.61250 6.44914
C 30.34513 2.84724 7.58227
C 30.39185 3.00990 9.10316
H 29.37375 2.33869 9.90654
N 33.32043 2.02251 2.69682
C 34.08833 2.12523 3.80184
C 35.31614 1.36917 3.51024
C 35.28099 0.94993 2.08276
C 34.10252 1.66041 1.62830
C 36.33867 1.04183 4.55938
C 36.16925 0.06719 1.25937
O 36.08565 0.03241 -0.01916
C 37.20217 -0.68488 1.98666
N 31.73185 3.11281 0.35271
C 32.76944 2.58454 -0.31980
C 32.55831 2.68101 -1.81195
C 31.04682 3.16794 -2.00139
C 30.65622 3.36299 -0.51991
C 33.49594 3.63128 -2.55641
C 30.13153 2.28950 -2.89764
C 29.88543 0.95453 -2.23232
N 29.58717 3.75611 2.22991
C 28.93654 4.15854 1.04297
C 27.68829 4.84124 1.44071
C 27.71076 4.80870 2.84318
C 28.89958 4.16996 3.28841
C 26.74330 5.43014 0.55397
C 27.00424 5.17888 4.04838
O 25.90171 5.66658 4.29395
C 27.97987 4.98016 5.28735
C 27.22703 4.23736 6.35692
O 26.85638 3.06495 6.17068
O 27.25910 4.95277 7.49601
C 26.53489 4.25186 8.58967
H 34.64140 3.06076 5.61762
H 34.44080 1.57861 -0.44658
H 28.76766 4.22148 -0.96178
H 30.41277 5.00307 7.26698
H 32.87975 3.65135 7.42178
H 32.09699 6.32440 6.33446
H 33.51859 5.59304 5.56084
H 33.56880 5.87328 7.27508
H 31.09967 2.06047 7.45419
H 29.36715 2.52347 7.28335
H 30.48655 4.06076 9.40260
H 31.30692 2.54197 9.47425
H 36.17552 1.62307 5.47531
H 37.30592 1.39275 4.18367
H 36.40586 -0.02912 4.76243
H 37.84716 0.01000 2.51920
H 37.67680 -1.32550 1.24087
H 36.71353 -1.30568 2.74591
H 32.67725 1.71287 -2.28274
H 30.99448 4.16005 -2.47342
H 34.06350 3.13769 -3.36778
H 34.17031 4.07786 -1.83785
H 33.01559 4.50388 -2.99576
H 30.62525 2.07590 -3.84883
H 29.17788 2.75322 -3.12679
H 30.77207 0.37502 -2.50642
H 28.97829 0.49497 -2.61955
H 29.88100 1.05374 -1.14063
H 25.76223 5.14819 0.91246
H 26.90217 5.10232 -0.47125
H 26.98288 6.48835 0.68835
H 28.29303 5.97058 5.61988
H 25.77670 4.94529 8.96648
H 27.31501 3.92294 9.30170
H 25.92489 3.39772 8.31988
