158

Mg 0.00000 0.00000 0.00000
C -0.21700 -2.21800 2.80100
C -1.25500 2.44200 2.02600
C -0.24500 1.85000 -2.56400
C 0.14600 -2.82400 -2.03700
N -0.61700 -0.00900 2.12600
C -0.59400 -0.90800 3.10500
C -0.93600 -0.30900 4.50200
C -1.77300 0.96400 4.03200
C -1.15500 1.16800 2.66000
C -3.26300 0.68500 3.86300
C 0.34500 0.11000 5.29900
C 0.12400 0.39700 6.78700
H 1.16800 0.03300 7.73300
N -0.18500 1.96100 -0.15200
C -0.70300 2.80000 0.77700
C -0.62000 4.15600 0.19300
C -0.18700 4.01500 -1.22500
C -0.21400 2.58300 -1.38000
C -0.88700 5.40600 0.97400
C 0.18100 5.01300 -2.27700
O 0.30300 4.69000 -3.50800
C 0.31000 6.41400 -1.83700
N -0.26500 -0.41300 -2.02900
C -0.27900 0.56900 -2.93700
C -0.19600 0.02400 -4.33200
C 0.12400 -1.53300 -4.18000
C 0.08600 -1.63200 -2.63500
C -1.45100 0.20500 -5.19700
C 1.37300 -2.07000 -4.92300
C 2.62600 -1.49000 -4.30600
N 0.15000 -2.14400 0.30300
C 0.17300 -3.13600 -0.68800
C 0.17300 -4.43800 0.00400
C 0.13300 -4.11100 1.35800
C 0.08300 -2.69500 1.50200
C 0.14900 -5.71500 -0.62300
C 0.09600 -4.62900 2.71600
O 0.20800 -5.74700 3.22100
C -0.25500 -3.42800 3.70100
C 0.71700 -3.48200 4.84800
O 1.93100 -3.25500 4.66900
O 0.03800 -3.55600 6.00300
C 0.94300 -3.58300 7.18300
H -1.85900 3.22000 2.49700
H -0.21800 2.45300 -3.47400
H 0.27600 -3.74700 -2.60500
H -1.55400 -0.94900 5.13200
H -1.58500 1.83100 4.66500
H -3.48400 -0.37700 3.96900
H -3.51100 1.02700 2.85800
H -3.85200 1.30100 4.54300
H 0.66900 1.09600 4.96600
H 1.13000 -0.63900 5.18900
H -0.84400 0.02600 7.12500
H 0.06200 1.47700 6.92100
H -1.34400 5.18600 1.93800
H -1.65100 5.96300 0.43200
H 0.00700 6.02000 1.08400
H -0.63500 6.74400 -1.40500
H 0.66500 6.97000 -2.70400
H 1.04800 6.46600 -1.03600
H 0.60800 0.50100 -4.89100
H -0.69200 -2.15600 -4.54700
H -1.26700 0.74000 -6.12900
H -2.20400 0.71400 -4.59600
H -1.96700 -0.72000 -5.45300
H 1.35600 -1.75900 -5.96700
H 1.45200 -3.15700 -4.90200
H 2.71400 -0.52200 -4.79800
H 3.48700 -2.12100 -4.52900
H 2.49500 -1.30300 -3.24000
H 0.86700 -6.33300 -0.08400
H 0.40400 -5.64200 -1.68000
H -0.89100 -5.99900 -0.46300
H -1.28300 -3.58100 4.02800
H 0.69800 -4.47800 7.75500
H 0.83300 -2.61900 7.68000
H 2.00000 -3.75400 6.97600
Mg 7.88314 0.70970 0.59883
C 7.34300 4.23981 0.84137
C 7.23023 0.98946 -2.73861
C 7.90716 -2.45741 0.43936
C 7.37347 0.54421 4.04245
N 7.36672 2.44837 -0.67042
C 7.24982 3.75665 -0.46574
C 7.09402 4.57634 -1.78149
C 6.51070 3.43055 -2.72430
C 7.09891 2.21772 -2.02504
C 4.98927 3.32812 -2.68881
C 8.46537 5.11311 -2.31348
C 8.36918 6.18704 -3.40103
H 9.35761 7.25474 -3.42025
N 8.08944 -0.49336 -0.95453
C 7.78993 -0.20873 -2.24471
C 8.11892 -1.42577 -3.01754
C 8.45486 -2.50421 -2.04687
C 8.13439 -1.86060 -0.79850
C 8.14138 -1.46875 -4.51467
C 8.97126 -3.89783 -2.21795
O 8.97412 -4.74452 -1.25999
C 9.39730 -4.27835 -3.57690
N 7.45566 -0.78553 1.99137
C 7.60101 -2.07864 1.68195
C 7.51424 -2.94536 2.90310
C 7.52119 -1.95092 4.15241
C 7.52898 -0.60649 3.38384
C 6.28596 -3.86201 2.98729
C 8.60460 -2.18839 5.23419
C 9.97332 -1.89163 4.66354
N 7.61217 2.13566 2.21260
C 7.39389 1.84476 3.56701
C 7.16151 3.12922 4.25273
C 7.24487 4.08290 3.24011
C 7.48630 3.43295 1.99609
C 6.85529 3.29390 5.63242
C 7.16167 5.49771 2.91571
O 7.06800 6.53438 3.57453
C 7.10064 5.64576 1.33136
C 8.08928 6.70849 0.93576
O 9.31553 6.52695 1.07972
O 7.45836 7.66464 0.23701
C 8.38824 8.73535 -0.21140
H 6.81506 0.91716 -3.74576
H 8.01646 -3.54388 0.44826
H 7.29153 0.57818 5.13038
H 6.38711 5.40397 -1.72037
H 6.89536 3.50524 -3.74125
H 4.56418 3.97533 -1.92178
H 4.77302 2.28276 -2.46754
H 4.56503 3.51967 -3.67476
H 8.96648 4.32471 -2.87507
H 9.07867 5.48559 -1.49223
H 7.36146 6.59819 -3.46715
H 8.53098 5.70976 -4.36759
H 7.69040 -0.57678 -4.94775
H 7.48271 -2.28163 -4.81978
H 9.14427 -1.64192 -4.90525
H 8.55679 -4.16635 -4.26215
H 9.81999 -5.27870 -3.49047
H 10.16368 -3.58033 -3.91510
H 8.37345 -3.61129 2.97184
H 6.58204 -1.98221 4.70531
H 6.53434 -4.91827 3.09366
H 5.67641 -3.69100 2.10044
H 5.58445 -3.61427 3.78349
H 8.60658 -3.23225 5.54611
H 8.46454 -1.57626 6.12522
H 10.23316 -2.82116 4.15826
H 10.67995 -1.67195 5.46455
H 9.92741 -1.11014 3.90482
H 7.45656 4.13384 5.98018
H 7.07514 2.38848 6.19764
H 5.78710 3.50348 5.57855
H 6.07751 5.92514 1.08181
H 7.99275 9.68053 0.16070
H 8.49501 8.62123 -1.29028
H 9.37973 8.73407 0.24277
