79

Mg 8.93298 0.80890 0.68816
C 6.98310 -1.67771 2.38928
C 6.35115 2.97594 1.21038
C 10.42627 2.88491 -1.19006
C 10.80953 -1.79339 -0.67286
N 6.97354 0.56330 1.68442
C 6.36733 -0.40941 2.34826
C 5.06418 0.02167 3.07319
C 4.69411 1.29415 2.16616
C 6.09409 1.66302 1.67970
C 3.84474 0.94382 0.95571
C 5.31885 0.43449 4.56541
C 4.05645 0.56947 5.41974
H 4.12181 0.17764 6.82497
N 8.70275 2.77155 0.50491
C 7.59502 3.49041 0.78322
C 7.92998 4.88633 0.46174
C 9.27040 4.91024 -0.18434
C 9.51477 3.49001 -0.33708
C 7.05011 6.04217 0.84028
C 10.17606 6.02678 -0.60778
O 11.18896 5.82151 -1.36589
C 9.78904 7.38082 -0.18555
N 10.26667 0.57695 -0.88976
C 10.80731 1.64573 -1.50078
C 11.93914 1.23770 -2.41339
C 12.20557 -0.30828 -2.10266
C 11.07284 -0.56041 -1.08347
C 11.68568 1.41945 -3.90976
C 13.65460 -0.70789 -1.71116
C 14.00784 -0.11527 -0.36602
N 9.04552 -1.33224 0.95448
C 9.88423 -2.23470 0.26440
C 9.51779 -3.59545 0.70769
C 8.46742 -3.39005 1.61489
C 8.18474 -2.00087 1.71371
C 10.09847 -4.80762 0.23909
C 7.52640 -4.03330 2.50338
O 7.35122 -5.18596 2.89636
C 6.43914 -2.96286 2.94883
C 6.27289 -3.06274 4.44044
O 7.20948 -2.76416 5.20219
O 4.97656 -3.28323 4.72554
C 4.75944 -3.37883 6.19371
H 5.51339 3.66795 1.12010
H 11.04464 3.56602 -1.77928
H 11.41316 -2.65127 -0.97672
H 4.26246 -0.70617 3.03750
H 4.27465 2.09794 2.76562
H 3.72868 -0.12358 0.84028
H 4.36184 1.36265 0.10234
H 2.88220 1.46063 1.00829
H 5.67677 1.47171 4.59388
H 6.00339 -0.24361 5.03681
H 3.18109 0.11961 4.93565
H 3.80328 1.62943 5.49976
H 6.05560 5.70398 1.15646
H 6.86400 6.61535 -0.07443
H 7.51227 6.69852 1.58074
H 8.79809 7.60969 -0.57039
H 10.60496 8.03138 -0.50637
H 9.71397 7.39840 0.90746
H 12.83732 1.80069 -2.19108
H 11.99005 -0.94229 -2.97525
H 12.43896 2.06059 -4.40533
H 10.69276 1.82877 -4.04052
H 11.63262 0.49646 -4.48462
H 14.36814 -0.29577 -2.42892
H 13.81313 -1.78067 -1.67924
H 14.31778 0.90314 -0.61875
H 14.82052 -0.67190 0.09632
H 13.12241 -0.04063 0.27592
H 10.26055 -5.43149 1.10801
H 11.02690 -4.62244 -0.29711
H 9.30452 -5.16043 -0.42457
H 5.51507 -3.19392 2.41753
H 4.26918 -4.33891 6.38233
H 4.20209 -2.46510 6.47340
H 5.63596 -3.46118 6.82567
