158

Mg 0.00000 0.00000 0.00000
C -0.21700 -2.21800 2.80100
C -1.25500 2.44200 2.02600
C -0.24500 1.85000 -2.56400
C 0.14600 -2.82400 -2.03700
N -0.61700 -0.00900 2.12600
C -0.59400 -0.90800 3.10500
C -0.93600 -0.30900 4.50200
C -1.77300 0.96400 4.03200
C -1.15500 1.16800 2.66000
C -3.26300 0.68500 3.86300
C 0.34500 0.11000 5.29900
C 0.12400 0.39700 6.78700
H 1.16800 0.03300 7.73300
N -0.18500 1.96100 -0.15200
C -0.70300 2.80000 0.77700
C -0.62000 4.15600 0.19300
C -0.18700 4.01500 -1.22500
C -0.21400 2.58300 -1.38000
C -0.88700 5.40600 0.97400
C 0.18100 5.01300 -2.27700
O 0.30300 4.69000 -3.50800
C 0.31000 6.41400 -1.83700
N -0.26500 -0.41300 -2.02900
C -0.27900 0.56900 -2.93700
C -0.19600 0.02400 -4.33200
C 0.12400 -1.53300 -4.18000
C 0.08600 -1.63200 -2.63500
C -1.45100 0.20500 -5.19700
C 1.37300 -2.07000 -4.92300
C 2.62600 -1.49000 -4.30600
N 0.15000 -2.14400 0.30300
C 0.17300 -3.13600 -0.68800
C 0.17300 -4.43800 0.00400
C 0.13300 -4.11100 1.35800
C 0.08300 -2.69500 1.50200
C 0.14900 -5.71500 -0.62300
C 0.09600 -4.62900 2.71600
O 0.20800 -5.74700 3.22100
C -0.25500 -3.42800 3.70100
C 0.71700 -3.48200 4.84800
O 1.93100 -3.25500 4.66900
O 0.03800 -3.55600 6.00300
C 0.94300 -3.58300 7.18300
H -1.85900 3.22000 2.49700
H -0.21800 2.45300 -3.47400
H 0.27600 -3.74700 -2.60500
H -1.55400 -0.94900 5.13200
H -1.58500 1.83100 4.66500
H -3.48400 -0.37700 3.96900
H -3.51100 1.02700 2.85800
H -3.85200 1.30100 4.54300
H 0.66900 1.09600 4.96600
H 1.13000 -0.63900 5.18900
H -0.84400 0.02600 7.12500
H 0.06200 1.47700 6.92100
H -1.34400 5.18600 1.93800
H -1.65100 5.96300 0.43200
H 0.00700 6.02000 1.08400
H -0.63500 6.74400 -1.40500
H 0.66500 6.97000 -2.70400
H 1.04800 6.46600 -1.03600
H 0.60800 0.50100 -4.89100
H -0.69200 -2.15600 -4.54700
H -1.26700 0.74000 -6.12900
H -2.20400 0.71400 -4.59600
H -1.96700 -0.72000 -5.45300
H 1.35600 -1.75900 -5.96700
H 1.45200 -3.15700 -4.90200
H 2.71400 -0.52200 -4.79800
H 3.48700 -2.12100 -4.52900
H 2.49500 -1.30300 -3.24000
H 0.86700 -6.33300 -0.08400
H 0.40400 -5.64200 -1.68000
H -0.89100 -5.99900 -0.46300
H -1.28300 -3.58100 4.02800
H 0.69800 -4.47800 7.75500
H 0.83300 -2.61900 7.68000
H 2.00000 -3.75400 6.97600
Mg 31.53256 2.83880 2.39533
C 31.11444 2.25877 5.90260
C 30.32773 5.98717 2.92372
C 31.46378 3.22330 -0.75174
C 31.61238 -0.62083 1.98275
N 30.84387 3.87501 4.22634
C 30.79048 3.56148 5.51709
C 30.43022 4.76998 6.43203
C 29.67161 5.67765 5.36310
C 30.34499 5.17673 4.09757
C 28.17657 5.38978 5.27092
C 31.70196 5.48942 6.99490
C 31.44447 6.46590 8.14622
H 32.43705 6.57844 9.20426
N 31.44694 4.48559 1.30739
C 30.93841 5.68216 1.68804
C 31.10606 6.58386 0.52808
C 31.57980 5.76358 -0.62117
C 31.48955 4.43649 -0.06793
C 30.87280 8.06201 0.59448
C 32.03073 6.11845 -2.00279
O 32.17894 5.23731 -2.91723
C 32.21163 7.55367 -2.28644
N 31.31726 1.50279 0.80587
C 31.38120 1.92305 -0.46230
C 31.48541 0.76936 -1.41524
C 31.72514 -0.52742 -0.51488
C 31.62991 0.13427 0.88203
C 30.27067 0.54128 -2.32540
C 32.97155 -1.38844 -0.83975
C 34.22917 -0.61449 -0.51339
N 31.56933 1.10585 3.70168
C 31.57851 -0.24195 3.31436
C 31.49263 -1.04629 4.54713
C 31.42229 -0.10425 5.57156
C 31.43528 1.20548 5.01233
C 31.42885 -2.46616 4.61303
C 31.31435 0.10039 7.00694
O 31.35545 -0.63628 7.99341
C 30.98796 1.63649 7.27093
C 31.91667 2.11930 8.35152
O 33.14554 2.20038 8.14981
O 31.19601 2.63055 9.36138
C 32.05801 3.15464 10.45428
H 29.74600 6.91103 2.92868
H 31.55057 3.30998 -1.83682
H 31.71729 -1.70639 1.93777
H 29.76122 4.53055 7.25879
H 29.87927 6.73755 5.50875
H 27.90150 4.51759 5.86382
H 27.97957 5.20918 4.21401
H 27.59495 6.27262 5.53754
H 32.08394 6.18270 6.24555
H 32.45349 4.76094 7.30126
H 30.44887 6.32948 8.56942
H 31.42973 7.47714 7.73956
H 30.37326 8.34749 1.51942
H 30.15523 8.30661 -0.18844
H 31.79091 8.62961 0.44204
H 31.26936 8.07541 -2.11770
H 32.62213 7.61167 -3.29390
H 32.92359 7.96781 -1.57192
H 32.32988 0.89579 -2.09149
H 30.89320 -1.22919 -0.57874
H 30.51168 0.55382 -3.38863
H 29.52290 1.29648 -2.08498
H 29.71998 -0.37865 -2.13074
H 33.00498 -1.62091 -1.90360
H 32.99765 -2.33126 -0.29326
H 34.38010 -0.00786 -1.40561
H 35.06605 -1.29633 -0.35871
H 34.07108 0.06808 0.32183
H 32.09769 -2.76439 5.42030
H 31.72287 -2.92007 3.66692
H 30.37161 -2.61073 4.83481
H 29.94328 1.68700 7.57625
H 31.75112 2.65457 11.37297
H 31.97745 4.24121 10.41847
H 33.11204 2.87798 10.41161
