79

Mg 8.92581 0.80689 0.68460
C 10.47462 2.80315 3.23317
C 7.88497 -1.28770 3.16732
C 7.94006 -1.20513 -1.56206
C 11.01052 2.38229 -1.62144
N 9.20578 0.85815 2.87805
C 9.75939 1.69803 3.73972
C 9.46577 1.37712 5.22982
C 9.15860 -0.19215 5.08184
C 8.68535 -0.21272 3.62985
C 10.40022 -1.06142 5.19187
C 8.21848 2.15768 5.77481
C 8.05840 2.13217 7.29648
H 7.52639 3.31905 7.96037
N 7.64201 -0.70309 0.78643
C 7.32206 -1.42682 1.87965
C 6.34876 -2.43225 1.42583
C 6.24469 -2.34883 -0.05637
C 7.31025 -1.40940 -0.34298
C 5.56762 -3.29472 2.37420
C 5.34458 -3.01527 -1.05229
O 5.58699 -2.97696 -2.31031
C 4.22301 -3.79252 -0.50508
N 9.54745 0.45999 -1.26875
C 8.91415 -0.43497 -2.04716
C 9.35592 -0.31545 -3.48624
C 10.24325 1.01330 -3.55431
C 10.23424 1.40049 -2.05919
C 10.16085 -1.49330 -4.03502
C 9.82615 2.08540 -4.59801
C 8.49504 2.68991 -4.21319
N 10.33552 2.44366 0.72658
C 11.11923 2.92214 -0.34624
C 12.00736 3.97028 0.19695
C 11.69243 4.01315 1.56351
C 10.69387 3.04509 1.85544
C 12.98363 4.69772 -0.54050
C 11.98524 4.64988 2.82745
O 12.68164 5.60077 3.18038
C 11.30014 3.80759 3.98830
C 10.57929 4.76711 4.89507
O 9.60301 5.41635 4.48039
O 11.02148 4.59964 6.15474
C 10.32809 5.52177 7.09320
H 7.70392 -2.12657 3.83993
H 7.55761 -1.79870 -2.39566
H 11.62016 2.98880 -2.29462
H 10.30234 1.53059 5.90092
H 8.35801 -0.50248 5.74825
H 11.30322 -0.47066 5.23357
H 10.39903 -1.68897 4.31027
H 10.31087 -1.74004 6.04499
H 7.30557 1.62390 5.48087
H 8.22350 3.17306 5.42896
H 8.96834 1.78504 7.80091
H 7.30658 1.38212 7.55378
H 5.97751 -3.24836 3.39068
H 5.72495 -4.33373 2.06502
H 4.49726 -3.07872 2.35574
H 4.60832 -4.57130 0.14875
H 3.64299 -4.11788 -1.37087
H 3.61108 -3.13181 0.11912
H 8.50320 -0.20268 -4.14445
H 11.28863 0.79224 -3.81538
H 9.70896 -1.94852 -4.93649
H 10.26686 -2.22976 -3.24958
H 11.19694 -1.26907 -4.28286
H 9.68580 1.62460 -5.57888
H 10.55575 2.87951 -4.71669
H 7.77308 1.96984 -4.60990
H 8.37093 3.66788 -4.67386
H 8.37332 2.71274 -3.12401
H 12.89851 5.73182 -0.23407
H 12.83620 4.58657 -1.61273
H 13.89597 4.20211 -0.19804
H 12.09009 3.26611 4.51017
H 11.10431 6.09284 7.61190
H 9.67481 4.88040 7.71417
H 9.73100 6.31786 6.66405
