158

Mg 0.00000 0.00000 0.00000
C -0.21700 -2.21800 2.80100
C -1.25500 2.44200 2.02600
C -0.24500 1.85000 -2.56400
C 0.14600 -2.82400 -2.03700
N -0.61700 -0.00900 2.12600
C -0.59400 -0.90800 3.10500
C -0.93600 -0.30900 4.50200
C -1.77300 0.96400 4.03200
C -1.15500 1.16800 2.66000
C -3.26300 0.68500 3.86300
C 0.34500 0.11000 5.29900
C 0.12400 0.39700 6.78700
H 1.16800 0.03300 7.73300
N -0.18500 1.96100 -0.15200
C -0.70300 2.80000 0.77700
C -0.62000 4.15600 0.19300
C -0.18700 4.01500 -1.22500
C -0.21400 2.58300 -1.38000
C -0.88700 5.40600 0.97400
C 0.18100 5.01300 -2.27700
O 0.30300 4.69000 -3.50800
C 0.31000 6.41400 -1.83700
N -0.26500 -0.41300 -2.02900
C -0.27900 0.56900 -2.93700
C -0.19600 0.02400 -4.33200
C 0.12400 -1.53300 -4.18000
C 0.08600 -1.63200 -2.63500
C -1.45100 0.20500 -5.19700
C 1.37300 -2.07000 -4.92300
C 2.62600 -1.49000 -4.30600
N 0.15000 -2.14400 0.30300
C 0.17300 -3.13600 -0.68800
C 0.17300 -4.43800 0.00400
C 0.13300 -4.11100 1.35800
C 0.08300 -2.69500 1.50200
C 0.14900 -5.71500 -0.62300
C 0.09600 -4.62900 2.71600
O 0.20800 -5.74700 3.22100
C -0.25500 -3.42800 3.70100
C 0.71700 -3.48200 4.84800
O 1.93100 -3.25500 4.66900
O 0.03800 -3.55600 6.00300
C 0.94300 -3.58300 7.18300
H -1.85900 3.22000 2.49700
H -0.21800 2.45300 -3.47400
H 0.27600 -3.74700 -2.60500
H -1.55400 -0.94900 5.13200
H -1.58500 1.83100 4.66500
H -3.48400 -0.37700 3.96900
H -3.51100 1.02700 2.85800
H -3.85200 1.30100 4.54300
H 0.66900 1.09600 4.96600
H 1.13000 -0.63900 5.18900
H -0.84400 0.02600 7.12500
H 0.06200 1.47700 6.92100
H -1.34400 5.18600 1.93800
H -1.65100 5.96300 0.43200
H 0.00700 6.02000 1.08400
H -0.63500 6.74400 -1.40500
H 0.66500 6.97000 -2.70400
H 1.04800 6.46600 -1.03600
H 0.60800 0.50100 -4.89100
H -0.69200 -2.15600 -4.54700
H -1.26700 0.74000 -6.12900
H -2.20400 0.71400 -4.59600
H -1.96700 -0.72000 -5.45300
H 1.35600 -1.75900 -5.96700
H 1.45200 -3.15700 -4.90200
H 2.71400 -0.52200 -4.79800
H 3.48700 -2.12100 -4.52900
H 2.49500 -1.30300 -3.24000
H 0.86700 -6.33300 -0.08400
H 0.40400 -5.64200 -1.68000
H -0.89100 -5.99900 -0.46300
H -1.28300 -3.58100 4.02800
H 0.69800 -4.47800 7.75500
H 0.83300 -2.61900 7.68000
H 2.00000 -3.75400 6.97600
Mg 15.76628 1.41940 1.19766
C 15.32594 1.06341 4.73201
C 14.57419 4.60032 1.51972
C 15.71679 1.60518 -1.96772
C 15.83121 -2.05968 1.00425
N 15.07264 2.57207 2.95575
C 15.01058 2.34073 4.26334
C 14.65128 3.60612 5.09826
C 13.90309 4.44813 3.96988
C 14.58095 3.86537 2.74235
C 12.40718 4.16191 3.88732
C 15.92345 4.35373 5.62209
C 15.66445 5.40197 6.70812
H 16.65173 5.57638 7.76273
N 15.69485 2.99475 0.00770
C 15.19016 4.21525 0.30927
C 15.36869 5.04131 -0.90417
C 15.84468 4.14807 -1.99671
C 15.74480 2.85891 -1.36152
C 15.14241 6.52176 -0.93235
C 16.30500 4.41311 -3.39528
O 16.45387 3.47544 -4.25155
C 16.49457 5.82676 -3.76770
N 15.55313 -0.01309 -0.30573
C 15.62615 0.32614 -1.59746
C 15.72990 -0.88576 -2.47523
C 15.95821 -2.12433 -1.49361
C 15.85855 -1.37552 -0.14172
C 14.51908 -1.16514 -3.37627
C 17.20210 -3.00984 -1.75635
C 18.46173 -2.22267 -1.47207
N 15.78724 -0.22796 2.61075
C 15.79186 -1.59751 2.30913
C 15.69519 -2.32218 3.58959
C 15.62387 -1.31716 4.55224
C 15.64645 -0.04534 3.91172
C 15.62400 -3.73477 3.74440
C 15.50903 -1.02199 5.97123
O 15.54103 -1.69523 7.00235
C 15.18881 0.52918 6.13605
C 16.11394 1.07482 7.18948
O 17.34428 1.13737 6.99022
O 15.39026 1.65199 8.16093
C 16.24880 2.23992 9.22366
H 13.99704 5.52533 1.46310
H 15.80999 1.62292 -3.05558
H 15.93097 -3.14639 1.02833
H 13.97654 3.42234 5.93454
H 14.11520 5.51413 4.04970
H 12.12451 3.33008 4.53235
H 12.21511 3.91599 2.84275
H 11.82848 5.06247 4.09442
H 16.31299 4.99665 4.83281
H 16.66964 3.64255 5.97809
H 14.66587 5.29708 7.13326
H 15.65697 6.38565 6.23850
H 14.63919 6.86724 -0.03015
H 14.43039 6.71985 -1.73329
H 16.06415 7.07439 -1.11488
H 15.55399 6.36243 -3.63764
H 16.91091 5.81928 -4.77440
H 17.20463 6.28181 -3.07654
H 16.57870 -0.80608 -3.15317
H 15.12317 -2.82489 -1.51800
H 14.76601 -1.22071 -4.43677
H 13.77375 -0.39286 -3.18824
H 13.96277 -2.06842 -3.12728
H 17.24026 -3.30903 -2.80324
H 17.22051 -3.91647 -1.15143
H 18.62059 -1.67416 -2.39982
H 19.29435 -2.89726 -1.26988
H 18.30243 -1.48812 -0.68242
H 16.28688 -3.98463 4.57273
H 15.92098 -4.24873 2.83048
H 14.56484 -3.86020 3.96869
H 14.14273 0.60363 6.43150
H 15.93437 1.80014 10.17020
H 16.17384 3.32244 9.11901
H 17.30167 1.95627 9.20463
