158

Mg 0.00000 0.00000 0.00000
C -0.21700 -2.21800 2.80100
C -1.25500 2.44200 2.02600
C -0.24500 1.85000 -2.56400
C 0.14600 -2.82400 -2.03700
N -0.61700 -0.00900 2.12600
C -0.59400 -0.90800 3.10500
C -0.93600 -0.30900 4.50200
C -1.77300 0.96400 4.03200
C -1.15500 1.16800 2.66000
C -3.26300 0.68500 3.86300
C 0.34500 0.11000 5.29900
C 0.12400 0.39700 6.78700
H 1.16800 0.03300 7.73300
N -0.18500 1.96100 -0.15200
C -0.70300 2.80000 0.77700
C -0.62000 4.15600 0.19300
C -0.18700 4.01500 -1.22500
C -0.21400 2.58300 -1.38000
C -0.88700 5.40600 0.97400
C 0.18100 5.01300 -2.27700
O 0.30300 4.69000 -3.50800
C 0.31000 6.41400 -1.83700
N -0.26500 -0.41300 -2.02900
C -0.27900 0.56900 -2.93700
C -0.19600 0.02400 -4.33200
C 0.12400 -1.53300 -4.18000
C 0.08600 -1.63200 -2.63500
C -1.45100 0.20500 -5.19700
C 1.37300 -2.07000 -4.92300
C 2.62600 -1.49000 -4.30600
N 0.15000 -2.14400 0.30300
C 0.17300 -3.13600 -0.68800
C 0.17300 -4.43800 0.00400
C 0.13300 -4.11100 1.35800
C 0.08300 -2.69500 1.50200
C 0.14900 -5.71500 -0.62300
C 0.09600 -4.62900 2.71600
O 0.20800 -5.74700 3.22100
C -0.25500 -3.42800 3.70100
C 0.71700 -3.48200 4.84800
O 1.93100 -3.25500 4.66900
O 0.03800 -3.55600 6.00300
C 0.94300 -3.58300 7.18300
H -1.85900 3.22000 2.49700
H -0.21800 2.45300 -3.47400
H 0.27600 -3.74700 -2.60500
H -1.55400 -0.94900 5.13200
H -1.58500 1.83100 4.66500
H -3.48400 -0.37700 3.96900
H -3.51100 1.02700 2.85800
H -3.85200 1.30100 4.54300
H 0.66900 1.09600 4.96600
H 1.13000 -0.63900 5.18900
H -0.84400 0.02600 7.12500
H 0.06200 1.47700 6.92100
H -1.34400 5.18600 1.93800
H -1.65100 5.96300 0.43200
H 0.00700 6.02000 1.08400
H -0.63500 6.74400 -1.40500
H 0.66500 6.97000 -2.70400
H 1.04800 6.46600 -1.03600
H 0.60800 0.50100 -4.89100
H -0.69200 -2.15600 -4.54700
H -1.26700 0.74000 -6.12900
H -2.20400 0.71400 -4.59600
H -1.96700 -0.72000 -5.45300
H 1.35600 -1.75900 -5.96700
H 1.45200 -3.15700 -4.90200
H 2.71400 -0.52200 -4.79800
H 3.48700 -2.12100 -4.52900
H 2.49500 -1.30300 -3.24000
H 0.86700 -6.33300 -0.08400
H 0.40400 -5.64200 -1.68000
H -0.89100 -5.99900 -0.46300
H -1.28300 -3.58100 4.02800
H 0.69800 -4.47800 7.75500
H 0.83300 -2.61900 7.68000
H 2.00000 -3.75400 6.97600
Mg 10.50393 0.95011 0.80549
C 8.13569 -1.74161 0.96416
C 7.94086 2.94538 -0.23573
C 12.64075 3.22235 0.22383
C 13.02452 -1.45579 0.74216
N 8.35992 0.53953 0.44921
C 7.56071 -0.50555 0.60221
C 6.05033 -0.19066 0.43152
C 6.18035 1.12159 -0.48498
C 7.56463 1.59205 -0.04326
C 6.23246 0.81414 -1.97230
C 5.34851 0.13014 1.79774
C 3.81911 0.14308 1.74763
H 3.08049 -0.34122 2.91055
N 10.26717 2.90691 0.57437
C 9.15273 3.54909 0.16580
C 9.49851 4.97877 0.14084
C 10.95606 5.11360 0.40934
C 11.35722 3.72117 0.39194
C 8.47390 6.06070 -0.04085
C 11.84440 6.30021 0.63075
O 13.12189 6.19822 0.60969
C 11.17570 7.60100 0.77997
N 12.52242 0.89409 0.31061
C 13.23005 2.02799 0.16422
C 14.71032 1.74055 0.08302
C 14.86799 0.19189 0.44956
C 13.37786 -0.18586 0.59864
C 15.36756 2.01252 -1.26993
C 15.83967 -0.16160 1.60868
C 15.28897 0.35340 2.91899
N 10.61152 -1.19611 1.02959
C 11.76494 -2.00609 0.94222
C 11.31959 -3.41070 1.04795
C 9.92455 -3.32074 1.16734
C 9.52658 -1.95741 1.11779
C 12.16019 -4.55734 0.97915
C 8.69716 -4.06966 1.31335
O 8.41874 -5.25398 1.49669
C 7.47298 -3.08772 1.06123
C 6.47340 -3.29856 2.16527
O 6.75859 -3.00734 3.34021
O 5.27868 -3.60214 1.62596
C 4.25146 -3.80961 2.68122
H 7.26219 3.59966 -0.78366
H 13.42961 3.97233 0.13047
H 13.75856 -2.25968 0.82942
H 5.48335 -0.95309 -0.08907
H 5.42611 1.86026 -0.22645
H 6.29260 -0.24717 -2.16245
H 7.11549 1.31603 -2.34567
H 5.38364 1.27779 -2.48304
H 5.53681 1.17936 2.05933
H 5.67928 -0.54420 2.56356
H 3.43290 -0.31503 0.82898
H 3.48252 1.18114 1.69147
H 7.51390 5.65264 -0.38041
H 8.81323 6.68581 -0.87389
H 8.36004 6.68638 0.84697
H 10.58336 7.80658 -0.10847
H 11.96916 8.31177 1.01894
H 10.47362 7.53926 1.61896
H 15.25911 2.33061 0.80673
H 15.25635 -0.39020 -0.39908
H 16.21359 2.72289 -1.20925
H 14.61027 2.38024 -1.94951
H 15.73591 1.12997 -1.79014
H 16.80225 0.33397 1.46038
H 16.03540 -1.22485 1.69915
H 15.60477 1.40093 2.92470
H 15.71858 -0.19294 3.75624
H 14.19286 0.33955 2.91782
H 11.83239 -5.23098 1.75970
H 13.20809 -4.28981 1.09800
H 11.93697 -4.90231 -0.03398
H 7.05747 -3.32697 0.08160
H 3.82306 -4.80352 2.51906
H 3.56440 -2.94612 2.60321
H 4.59495 -3.89195 3.70576
