158

Mg 0.00000 0.00000 0.00000
C -0.21700 -2.21800 2.80100
C -1.25500 2.44200 2.02600
C -0.24500 1.85000 -2.56400
C 0.14600 -2.82400 -2.03700
N -0.61700 -0.00900 2.12600
C -0.59400 -0.90800 3.10500
C -0.93600 -0.30900 4.50200
C -1.77300 0.96400 4.03200
C -1.15500 1.16800 2.66000
C -3.26300 0.68500 3.86300
C 0.34500 0.11000 5.29900
C 0.12400 0.39700 6.78700
H 1.16800 0.03300 7.73300
N -0.18500 1.96100 -0.15200
C -0.70300 2.80000 0.77700
C -0.62000 4.15600 0.19300
C -0.18700 4.01500 -1.22500
C -0.21400 2.58300 -1.38000
C -0.88700 5.40600 0.97400
C 0.18100 5.01300 -2.27700
O 0.30300 4.69000 -3.50800
C 0.31000 6.41400 -1.83700
N -0.26500 -0.41300 -2.02900
C -0.27900 0.56900 -2.93700
C -0.19600 0.02400 -4.33200
C 0.12400 -1.53300 -4.18000
C 0.08600 -1.63200 -2.63500
C -1.45100 0.20500 -5.19700
C 1.37300 -2.07000 -4.92300
C 2.62600 -1.49000 -4.30600
N 0.15000 -2.14400 0.30300
C 0.17300 -3.13600 -0.68800
C 0.17300 -4.43800 0.00400
C 0.13300 -4.11100 1.35800
C 0.08300 -2.69500 1.50200
C 0.14900 -5.71500 -0.62300
C 0.09600 -4.62900 2.71600
O 0.20800 -5.74700 3.22100
C -0.25500 -3.42800 3.70100
C 0.71700 -3.48200 4.84800
O 1.93100 -3.25500 4.66900
O 0.03800 -3.55600 6.00300
C 0.94300 -3.58300 7.18300
H -1.85900 3.22000 2.49700
H -0.21800 2.45300 -3.47400
H 0.27600 -3.74700 -2.60500
H -1.55400 -0.94900 5.13200
H -1.58500 1.83100 4.66500
H -3.48400 -0.37700 3.96900
H -3.51100 1.02700 2.85800
H -3.85200 1.30100 4.54300
H 0.66900 1.09600 4.96600
H 1.13000 -0.63900 5.18900
H -0.84400 0.02600 7.12500
H 0.06200 1.47700 6.92100
H -1.34400 5.18600 1.93800
H -1.65100 5.96300 0.43200
H 0.00700 6.02000 1.08400
H -0.63500 6.74400 -1.40500
H 0.66500 6.97000 -2.70400
H 1.04800 6.46600 -1.03600
H 0.60800 0.50100 -4.89100
H -0.69200 -2.15600 -4.54700
H -1.26700 0.74000 -6.12900
H -2.20400 0.71400 -4.59600
H -1.96700 -0.72000 -5.45300
H 1.35600 -1.75900 -5.96700
H 1.45200 -3.15700 -4.90200
H 2.71400 -0.52200 -4.79800
H 3.48700 -2.12100 -4.52900
H 2.49500 -1.30300 -3.24000
H 0.86700 -6.33300 -0.08400
H 0.40400 -5.64200 -1.68000
H -0.89100 -5.99900 -0.46300
H -1.28300 -3.58100 4.02800
H 0.69800 -4.47800 7.75500
H 0.83300 -2.61900 7.68000
H 2.00000 -3.75400 6.97600
Mg 10.51746 0.94703 0.80670
C 10.52561 -2.44294 1.98444
C 9.32020 1.85090 3.87006
C 10.07232 3.87168 -0.34036
C 10.60929 -0.32591 -2.43628
N 10.02775 -0.23429 2.61139
C 10.12963 -1.50727 2.96279
C 9.86534 -1.78229 4.46748
C 8.95994 -0.49618 4.79158
C 9.48759 0.45145 3.71629
C 7.47849 -0.72466 4.54168
C 11.18541 -1.78395 5.31567
C 11.04000 -2.34858 6.73052
H 12.15413 -3.10433 7.29623
N 10.27381 2.67438 1.75300
C 9.79711 2.85770 3.00217
C 9.79508 4.31220 3.22259
C 10.15410 4.98111 1.94260
C 10.16049 3.84432 1.04384
C 9.55082 4.93092 4.56830
C 10.43159 6.40959 1.58393
O 10.49017 6.79836 0.36399
C 10.54000 7.35726 2.70271
N 10.14941 1.66990 -1.10755
C 10.04849 2.99033 -1.34035
C 10.05953 3.28554 -2.82127
C 10.43377 1.90276 -3.53222
C 10.48926 0.98650 -2.29013
C 8.75047 3.81868 -3.40310
C 11.65092 1.91434 -4.49714
C 12.92480 2.15088 -3.71824
N 10.74587 -1.00425 -0.09240
C 10.72987 -1.31602 -1.46958
C 10.80633 -2.78691 -1.58389
C 10.83854 -3.23364 -0.25427
C 10.76551 -2.12095 0.62668
C 10.78905 -3.52892 -2.79849
C 10.90701 -4.39410 0.60440
O 11.07154 -5.59993 0.42373
C 10.57992 -3.94160 2.09257
C 11.61926 -4.54141 2.99950
O 12.80996 -4.19287 2.91373
O 11.00618 -5.26057 3.95726
C 11.99511 -5.86652 4.88821
H 8.73160 2.21346 4.71326
H 10.02904 4.86615 -0.79050
H 10.74143 -0.79476 -3.41372
H 9.30970 -2.68944 4.67271
H 9.17160 -0.10378 5.78284
H 7.29149 -1.67959 4.07340
H 7.16139 0.08262 3.89454
H 6.91622 -0.60373 5.47203
H 11.45920 -0.74810 5.55397
H 11.96976 -2.30186 4.79876
H 10.09862 -2.89602 6.86112
H 10.96391 -1.51358 7.43124
H 9.15166 4.19886 5.28115
H 8.74114 5.65808 4.44370
H 10.43038 5.44529 4.96132
H 9.61652 7.34548 3.27674
H 10.82866 8.30905 2.25254
H 11.33350 7.01433 3.37605
H 10.81661 4.02130 -3.06330
H 9.61048 1.53150 -4.16006
H 8.86446 4.79432 -3.91222
H 8.02530 3.88954 -2.60332
H 8.25344 3.15372 -4.10736
H 11.56341 2.74032 -5.20724
H 11.75246 1.00198 -5.07531
H 12.95116 3.23961 -3.61304
H 13.78672 1.78704 -4.27390
H 12.85524 1.72397 -2.71098
H 11.54701 -4.29536 -2.70591
H 10.97328 -2.88831 -3.65840
H 9.76365 -3.90776 -2.78104
H 9.57605 -4.29605 2.32960
H 11.80563 -6.94433 4.89835
H 11.87519 -5.32497 5.84534
H 13.03901 -5.83801 4.59852
