79

Mg 7.88979 0.70998 0.60708
C 7.92041 -2.74735 1.56885
C 6.70624 1.41318 3.72787
C 7.42452 3.69880 -0.35097
C 7.96860 -0.35574 -2.71011
N 7.41604 -0.58507 2.33644
C 7.52583 -1.87713 2.60638
C 7.27157 -2.24766 4.09218
C 6.36216 -0.98903 4.50166
C 6.87917 0.02705 3.48531
C 4.88035 -1.20867 4.24604
C 8.59655 -2.29619 4.93128
C 8.46199 -2.94951 6.30853
H 9.58286 -3.73385 6.81934
N 7.64370 2.37307 1.66166
C 7.17344 2.47499 2.92251
C 7.16600 3.91270 3.23414
C 7.51447 4.66266 1.99687
C 7.52087 3.58477 1.02826
C 6.92672 4.44423 4.61749
C 7.78329 6.11225 1.72739
O 7.83298 6.57736 0.53406
C 7.89384 6.98811 2.90303
N 7.50728 1.55012 -1.25576
C 7.39892 2.88208 -1.40435
C 7.39998 3.27001 -2.86377
C 7.77644 1.93662 -3.66247
C 7.84338 0.94424 -2.48090
C 6.08511 3.83223 -3.40361
C 8.98789 2.01498 -4.63145
C 10.26517 2.20833 -3.84624
N 8.12195 -1.17966 -0.41441
C 8.09937 -1.40416 -1.80839
C 8.18193 -2.86453 -2.01556
C 8.22395 -3.39393 -0.71693
C 8.15092 -2.33931 0.23277
C 8.16100 -3.52865 -3.27438
C 8.30275 -4.60582 0.06654
O 8.47178 -5.79705 -0.19065
C 7.98225 -4.24956 1.58204
C 9.02960 -4.90013 2.44363
O 10.21817 -4.54097 2.37342
O 8.42543 -5.68121 3.35755
C 9.42255 -6.33966 4.24300
H 6.12089 1.71900 4.59547
H 7.37404 4.71943 -0.73731
H 8.09720 -0.76145 -3.71586
H 6.72132 -3.16868 4.24291
H 6.57777 -0.65879 5.51448
H 4.69502 -2.13313 3.71957
H 4.55577 -0.36382 3.65281
H 4.32295 -1.14936 5.18526
H 8.86695 -1.27605 5.23286
H 9.38025 -2.77661 4.37845
H 7.52391 -3.50875 6.40958
H 8.38613 -2.16069 7.06088
H 6.53510 3.66675 5.28499
H 6.11299 5.17376 4.54341
H 7.80618 4.93718 5.03727
H 6.97379 6.93562 3.48027
H 8.17549 7.96778 2.51214
H 8.69282 6.60740 3.54904
H 8.15224 4.02330 -3.06314
H 6.95123 1.60155 -4.30790
H 6.19164 4.83855 -3.85088
H 5.36430 3.84898 -2.59697
H 5.58706 3.21048 -4.14562
H 8.89244 2.88360 -5.28761
H 9.09026 1.14136 -5.26651
H 10.28714 3.28838 -3.67281
H 11.12551 1.88449 -4.42847
H 10.20345 1.71849 -2.86751
H 8.92301 -4.29563 -3.23446
H 8.33727 -2.83425 -4.09323
H 7.13748 -3.91292 -3.27517
H 6.98142 -4.62322 1.80181
H 9.23810 -7.41690 4.18626
H 9.30571 -5.86007 5.23299
H 10.46460 -6.28779 3.94992
