158

Mg 0.00000 0.00000 0.00000
C -0.21700 -2.21800 2.80100
C -1.25500 2.44200 2.02600
C -0.24500 1.85000 -2.56400
C 0.14600 -2.82400 -2.03700
N -0.61700 -0.00900 2.12600
C -0.59400 -0.90800 3.10500
C -0.93600 -0.30900 4.50200
C -1.77300 0.96400 4.03200
C -1.15500 1.16800 2.66000
C -3.26300 0.68500 3.86300
C 0.34500 0.11000 5.29900
C 0.12400 0.39700 6.78700
H 1.16800 0.03300 7.73300
N -0.18500 1.96100 -0.15200
C -0.70300 2.80000 0.77700
C -0.62000 4.15600 0.19300
C -0.18700 4.01500 -1.22500
C -0.21400 2.58300 -1.38000
C -0.88700 5.40600 0.97400
C 0.18100 5.01300 -2.27700
O 0.30300 4.69000 -3.50800
C 0.31000 6.41400 -1.83700
N -0.26500 -0.41300 -2.02900
C -0.27900 0.56900 -2.93700
C -0.19600 0.02400 -4.33200
C 0.12400 -1.53300 -4.18000
C 0.08600 -1.63200 -2.63500
C -1.45100 0.20500 -5.19700
C 1.37300 -2.07000 -4.92300
C 2.62600 -1.49000 -4.30600
N 0.15000 -2.14400 0.30300
C 0.17300 -3.13600 -0.68800
C 0.17300 -4.43800 0.00400
C 0.13300 -4.11100 1.35800
C 0.08300 -2.69500 1.50200
C 0.14900 -5.71500 -0.62300
C 0.09600 -4.62900 2.71600
O 0.20800 -5.74700 3.22100
C -0.25500 -3.42800 3.70100
C 0.71700 -3.48200 4.84800
O 1.93100 -3.25500 4.66900
O 0.03800 -3.55600 6.00300
C 0.94300 -3.58300 7.18300
H -1.85900 3.22000 2.49700
H -0.21800 2.45300 -3.47400
H 0.27600 -3.74700 -2.60500
H -1.55400 -0.94900 5.13200
H -1.58500 1.83100 4.66500
H -3.48400 -0.37700 3.96900
H -3.51100 1.02700 2.85800
H -3.85200 1.30100 4.54300
H 0.66900 1.09600 4.96600
H 1.13000 -0.63900 5.18900
H -0.84400 0.02600 7.12500
H 0.06200 1.47700 6.92100
H -1.34400 5.18600 1.93800
H -1.65100 5.96300 0.43200
H 0.00700 6.02000 1.08400
H -0.63500 6.74400 -1.40500
H 0.66500 6.97000 -2.70400
H 1.04800 6.46600 -1.03600
H 0.60800 0.50100 -4.89100
H -0.69200 -2.15600 -4.54700
H -1.26700 0.74000 -6.12900
H -2.20400 0.71400 -4.59600
H -1.96700 -0.72000 -5.45300
H 1.35600 -1.75900 -5.96700
H 1.45200 -3.15700 -4.90200
H 2.71400 -0.52200 -4.79800
H 3.48700 -2.12100 -4.52900
H 2.49500 -1.30300 -3.24000
H 0.86700 -6.33300 -0.08400
H 0.40400 -5.64200 -1.68000
H -0.89100 -5.99900 -0.46300
H -1.28300 -3.58100 4.02800
H 0.69800 -4.47800 7.75500
H 0.83300 -2.61900 7.68000
H 2.00000 -3.75400 6.97600
Mg 15.76628 1.41940 1.19766
C 15.17855 3.03270 4.33837
C 14.73962 4.30448 -0.30744
C 15.84245 -0.12573 -1.57062
C 15.64717 -1.61760 2.90298
N 15.07334 3.35492 2.01880
C 14.95106 3.86515 3.24023
C 14.63156 5.39004 3.24365
C 13.97233 5.51235 1.79711
C 14.66147 4.34287 1.11644
C 12.46697 5.26672 1.79085
C 15.92290 6.26778 3.36081
C 15.68242 7.74215 3.69810
H 16.63869 8.43012 4.55227
N 15.82483 2.10837 -0.65294
C 15.37723 3.31239 -1.08338
C 15.64493 3.35077 -2.53718
C 16.11069 1.99770 -2.94996
C 15.91712 1.25595 -1.73024
C 15.50142 4.58896 -3.36786
C 16.63552 1.45629 -4.24207
O 16.76381 0.20164 -4.45176
C 16.91584 2.44190 -5.30180
N 15.52977 -0.59064 0.68635
C 15.66832 -1.00173 -0.57888
C 15.73732 -2.49779 -0.66244
C 15.86139 -3.01930 0.84168
C 15.75377 -1.65843 1.57293
C 14.54664 -3.18562 -1.34449
C 17.06355 -3.93991 1.16985
C 18.35328 -3.15739 1.06332
N 15.64528 0.79115 3.27172
C 15.58572 -0.52513 3.75187
C 15.40282 -0.44421 5.21271
C 15.35174 0.92235 5.48057
C 15.46741 1.64868 4.26100
C 15.24862 -1.54916 6.09575
C 15.20163 1.93751 6.51050
O 15.15903 1.92418 7.74156
C 14.96123 3.34163 5.79881
C 15.87590 4.34340 6.44930
O 17.11427 4.25606 6.32208
O 15.15006 5.37163 6.91455
C 16.00028 6.41581 7.54619
H 14.21655 5.06876 -0.88556
H 15.97607 -0.69854 -2.49066
H 15.68620 -2.52288 3.51159
H 13.91772 5.70313 4.00577
H 14.23958 6.44777 1.30589
H 12.11575 4.92046 2.76279
H 12.29989 4.50267 1.03137
H 11.93141 6.15232 1.44784
H 16.37566 6.37443 2.37506
H 16.61547 5.84021 4.08666
H 14.66476 7.90915 4.05221
H 15.74606 8.31846 2.77506
H 14.98538 5.37885 -2.82350
H 14.83101 4.34395 -4.19141
H 16.45815 4.93176 -3.76219
H 16.00196 2.98829 -5.53597
H 17.36756 1.88288 -6.12052
H 17.62414 3.17818 -4.92082
H 16.61336 -2.81805 -1.22495
H 14.99060 -3.60037 1.14625
H 14.82863 -3.80958 -2.19293
H 13.83846 -2.41390 -1.64486
H 13.93288 -3.79785 -0.68427
H 17.12336 -4.75624 0.45082
H 17.01011 -4.37882 2.16622
H 18.57572 -3.19862 -0.00235
H 19.13971 -3.63919 1.64522
H 18.20586 -2.10943 1.32511
H 15.86616 -1.33173 6.96715
H 15.55005 -2.48180 5.61939
H 14.17671 -1.50591 6.28805
H 13.91074 3.59123 5.94472
H 15.62790 6.56292 8.56005
H 15.98871 7.27355 6.87348
H 17.03599 6.13849 7.74558
