158

Mg 0.00000 0.00000 0.00000
C -0.21700 -2.21800 2.80100
C -1.25500 2.44200 2.02600
C -0.24500 1.85000 -2.56400
C 0.14600 -2.82400 -2.03700
N -0.61700 -0.00900 2.12600
C -0.59400 -0.90800 3.10500
C -0.93600 -0.30900 4.50200
C -1.77300 0.96400 4.03200
C -1.15500 1.16800 2.66000
C -3.26300 0.68500 3.86300
C 0.34500 0.11000 5.29900
C 0.12400 0.39700 6.78700
H 1.16800 0.03300 7.73300
N -0.18500 1.96100 -0.15200
C -0.70300 2.80000 0.77700
C -0.62000 4.15600 0.19300
C -0.18700 4.01500 -1.22500
C -0.21400 2.58300 -1.38000
C -0.88700 5.40600 0.97400
C 0.18100 5.01300 -2.27700
O 0.30300 4.69000 -3.50800
C 0.31000 6.41400 -1.83700
N -0.26500 -0.41300 -2.02900
C -0.27900 0.56900 -2.93700
C -0.19600 0.02400 -4.33200
C 0.12400 -1.53300 -4.18000
C 0.08600 -1.63200 -2.63500
C -1.45100 0.20500 -5.19700
C 1.37300 -2.07000 -4.92300
C 2.62600 -1.49000 -4.30600
N 0.15000 -2.14400 0.30300
C 0.17300 -3.13600 -0.68800
C 0.17300 -4.43800 0.00400
C 0.13300 -4.11100 1.35800
C 0.08300 -2.69500 1.50200
C 0.14900 -5.71500 -0.62300
C 0.09600 -4.62900 2.71600
O 0.20800 -5.74700 3.22100
C -0.25500 -3.42800 3.70100
C 0.71700 -3.48200 4.84800
O 1.93100 -3.25500 4.66900
O 0.03800 -3.55600 6.00300
C 0.94300 -3.58300 7.18300
H -1.85900 3.22000 2.49700
H -0.21800 2.45300 -3.47400
H 0.27600 -3.74700 -2.60500
H -1.55400 -0.94900 5.13200
H -1.58500 1.83100 4.66500
H -3.48400 -0.37700 3.96900
H -3.51100 1.02700 2.85800
H -3.85200 1.30100 4.54300
H 0.66900 1.09600 4.96600
H 1.13000 -0.63900 5.18900
H -0.84400 0.02600 7.12500
H 0.06200 1.47700 6.92100
H -1.34400 5.18600 1.93800
H -1.65100 5.96300 0.43200
H 0.00700 6.02000 1.08400
H -0.63500 6.74400 -1.40500
H 0.66500 6.97000 -2.70400
H 1.04800 6.46600 -1.03600
H 0.60800 0.50100 -4.89100
H -0.69200 -2.15600 -4.54700
H -1.26700 0.74000 -6.12900
H -2.20400 0.71400 -4.59600
H -1.96700 -0.72000 -5.45300
H 1.35600 -1.75900 -5.96700
H 1.45200 -3.15700 -4.90200
H 2.71400 -0.52200 -4.79800
H 3.48700 -2.12100 -4.52900
H 2.49500 -1.30300 -3.24000
H 0.86700 -6.33300 -0.08400
H 0.40400 -5.64200 -1.68000
H -0.89100 -5.99900 -0.46300
H -1.28300 -3.58100 4.02800
H 0.69800 -4.47800 7.75500
H 0.83300 -2.61900 7.68000
H 2.00000 -3.75400 6.97600
Mg 31.54217 2.84325 2.39564
C 33.18984 0.72586 4.77911
C 32.14959 5.44738 4.51321
C 29.71004 4.65033 0.53952
C 30.09047 -0.02822 1.05662
N 32.54909 2.94728 4.36225
C 33.19057 2.08912 5.14097
C 33.93946 2.73965 6.33494
C 33.07242 4.08575 6.45797
C 32.58375 4.19447 5.01504
C 31.86039 3.94031 7.36305
C 35.44040 3.05172 6.00058
C 36.30983 3.40011 7.21074
H 37.70268 2.96149 7.21647
N 31.41693 4.81827 2.24675
C 31.72577 5.72704 3.19545
C 31.44104 7.04211 2.60074
C 30.78356 6.82850 1.28286
C 30.58825 5.39292 1.31531
C 31.86039 8.33307 3.24181
C 30.38370 7.76340 0.18183
O 29.61074 7.39088 -0.77033
C 30.84780 9.15332 0.30109
N 29.94607 2.40755 1.13669
C 29.36071 3.37093 0.40375
C 28.42647 2.78133 -0.62579
C 28.69065 1.20441 -0.59260
C 29.71266 1.14332 0.56375
C 26.93828 3.05250 -0.40637
C 29.05724 0.52374 -1.93981
C 30.41537 0.99774 -2.40478
N 31.74646 0.71314 2.69390
C 31.02330 -0.31213 2.04587
C 31.43109 -1.59029 2.66430
C 32.35341 -1.21489 3.65268
C 32.49430 0.19915 3.66397
C 30.92288 -2.87665 2.32798
C 33.23190 -1.69248 4.69616
O 33.59355 -2.80154 5.08723
C 33.71762 -0.44765 5.55690
C 35.20725 -0.55812 5.73379
O 35.96851 -0.46681 4.75463
O 35.49791 -0.53511 7.04732
C 36.96472 -0.63095 7.27341
H 32.08676 6.28914 5.20341
H 29.13474 5.21785 -0.19561
H 29.75679 -0.97627 0.62939
H 33.89049 2.17987 7.26123
H 33.69834 4.93675 6.71371
H 31.71573 2.91868 7.68162
H 31.01454 4.27770 6.77846
H 31.93652 4.62979 8.20872
H 35.49504 4.00009 5.45071
H 35.88599 2.24159 5.45674
H 35.82125 3.14044 8.15774
H 36.42228 4.48607 7.25612
H 32.17599 8.18199 4.28151
H 30.96410 8.95814 3.31813
H 32.61491 8.86671 2.65993
H 30.47878 9.57870 1.23132
H 30.53809 9.64514 -0.62307
H 31.94151 9.15249 0.36745
H 28.65640 3.15541 -1.61589
H 27.80241 0.64945 -0.25660
H 26.45421 3.55224 -1.26661
H 26.82837 3.64777 0.49035
H 26.33792 2.17414 -0.17561
H 28.34494 0.81298 -2.71642
H 29.05719 -0.56002 -1.89026
H 30.18885 1.94517 -2.90293
H 30.85418 0.28256 -3.09760
H 31.06732 1.22117 -1.55232
H 31.77217 -3.54550 2.28513
H 30.38362 -2.85654 1.38323
H 30.25681 -3.05134 3.17717
H 33.18851 -0.48194 6.51002
H 37.13048 -1.48478 7.93763
H 37.27540 0.36375 7.64461
H 37.58597 -0.89805 6.42656
