158

Mg 0.00000 0.00000 0.00000
C -0.21700 -2.21800 2.80100
C -1.25500 2.44200 2.02600
C -0.24500 1.85000 -2.56400
C 0.14600 -2.82400 -2.03700
N -0.61700 -0.00900 2.12600
C -0.59400 -0.90800 3.10500
C -0.93600 -0.30900 4.50200
C -1.77300 0.96400 4.03200
C -1.15500 1.16800 2.66000
C -3.26300 0.68500 3.86300
C 0.34500 0.11000 5.29900
C 0.12400 0.39700 6.78700
H 1.16800 0.03300 7.73300
N -0.18500 1.96100 -0.15200
C -0.70300 2.80000 0.77700
C -0.62000 4.15600 0.19300
C -0.18700 4.01500 -1.22500
C -0.21400 2.58300 -1.38000
C -0.88700 5.40600 0.97400
C 0.18100 5.01300 -2.27700
O 0.30300 4.69000 -3.50800
C 0.31000 6.41400 -1.83700
N -0.26500 -0.41300 -2.02900
C -0.27900 0.56900 -2.93700
C -0.19600 0.02400 -4.33200
C 0.12400 -1.53300 -4.18000
C 0.08600 -1.63200 -2.63500
C -1.45100 0.20500 -5.19700
C 1.37300 -2.07000 -4.92300
C 2.62600 -1.49000 -4.30600
N 0.15000 -2.14400 0.30300
C 0.17300 -3.13600 -0.68800
C 0.17300 -4.43800 0.00400
C 0.13300 -4.11100 1.35800
C 0.08300 -2.69500 1.50200
C 0.14900 -5.71500 -0.62300
C 0.09600 -4.62900 2.71600
O 0.20800 -5.74700 3.22100
C -0.25500 -3.42800 3.70100
C 0.71700 -3.48200 4.84800
O 1.93100 -3.25500 4.66900
O 0.03800 -3.55600 6.00300
C 0.94300 -3.58300 7.18300
H -1.85900 3.22000 2.49700
H -0.21800 2.45300 -3.47400
H 0.27600 -3.74700 -2.60500
H -1.55400 -0.94900 5.13200
H -1.58500 1.83100 4.66500
H -3.48400 -0.37700 3.96900
H -3.51100 1.02700 2.85800
H -3.85200 1.30100 4.54300
H 0.66900 1.09600 4.96600
H 1.13000 -0.63900 5.18900
H -0.84400 0.02600 7.12500
H 0.06200 1.47700 6.92100
H -1.34400 5.18600 1.93800
H -1.65100 5.96300 0.43200
H 0.00700 6.02000 1.08400
H -0.63500 6.74400 -1.40500
H 0.66500 6.97000 -2.70400
H 1.04800 6.46600 -1.03600
H 0.60800 0.50100 -4.89100
H -0.69200 -2.15600 -4.54700
H -1.26700 0.74000 -6.12900
H -2.20400 0.71400 -4.59600
H -1.96700 -0.72000 -5.45300
H 1.35600 -1.75900 -5.96700
H 1.45200 -3.15700 -4.90200
H 2.71400 -0.52200 -4.79800
H 3.48700 -2.12100 -4.52900
H 2.49500 -1.30300 -3.24000
H 0.86700 -6.33300 -0.08400
H 0.40400 -5.64200 -1.68000
H -0.89100 -5.99900 -0.46300
H -1.28300 -3.58100 4.02800
H 0.69800 -4.47800 7.75500
H 0.83300 -2.61900 7.68000
H 2.00000 -3.75400 6.97600
Mg 31.53256 2.83880 2.39533
C 31.06472 6.32591 1.73698
C 30.95296 2.28702 -0.92170
C 31.49075 -0.26781 3.03080
C 30.95045 3.54645 5.75777
N 31.07970 4.21365 0.72040
C 30.98727 5.53331 0.58962
C 30.87579 6.00099 -0.89235
C 30.28665 4.66566 -1.53407
C 30.83415 3.65648 -0.54023
C 28.76295 4.59984 -1.51200
C 32.26890 6.36580 -1.50706
C 32.21796 7.13564 -2.82998
H 33.22961 8.14868 -3.09009
N 31.74370 1.28289 1.19641
C 31.47640 1.24121 -0.13103
C 31.79422 -0.13535 -0.56777
C 32.08704 -0.94260 0.64908
C 31.75571 -0.00265 1.68931
C 31.84575 -0.55108 -2.00591
C 32.57627 -2.34294 0.84359
O 32.54147 -2.92360 1.98209
C 33.02108 -3.05746 -0.36664
N 31.04475 1.74563 4.10549
C 31.16806 0.41405 4.13179
C 31.03796 -0.11887 5.52786
C 31.04152 1.15572 6.48971
C 31.09402 2.26541 5.41078
C 29.78855 -0.96558 5.80727
C 32.09759 1.17841 7.62312
C 33.48362 1.30123 7.03072
N 31.26042 4.62665 3.59558
C 31.00874 4.68662 4.97388
C 30.79070 6.10517 5.31188
C 30.91512 6.77439 4.09594
C 31.16722 5.83067 3.05954
C 30.46053 6.61397 6.59895
C 30.86928 8.06458 3.42723
O 30.78504 9.23426 3.80438
C 30.84328 7.81339 1.85495
C 31.86259 8.72765 1.23170
O 33.08145 8.56807 1.44680
O 31.26679 9.48913 0.30126
C 32.22858 10.39887 -0.37658
H 30.55660 1.97228 -1.88905
H 31.57614 -1.31927 3.31289
H 30.84747 3.85225 6.80053
H 30.18599 6.82894 -1.05699
H 30.69317 4.47790 -2.52766
H 28.33677 5.42480 -0.94127
H 28.51957 3.64644 -1.04265
H 28.36284 4.54599 -2.52481
H 32.76387 5.45421 -1.84182
H 32.87358 6.92158 -0.78956
H 31.22097 7.53343 -3.02150
H 32.38867 6.42964 -3.64277
H 31.42309 0.21168 -2.65868
H 31.17578 -1.40367 -2.11510
H 32.85226 -0.83239 -2.31596
H 32.19713 -3.10655 -1.07884
H 33.42005 -4.01124 -0.02315
H 33.80912 -2.47840 -0.84896
H 31.88090 -0.76030 5.78172
H 30.09101 1.27857 7.00944
H 30.01166 -1.96570 6.17965
H 29.20077 -1.01158 4.89092
H 29.07678 -0.51566 6.49892
H 32.07056 0.24558 8.18529
H 31.95306 1.99577 8.32972
H 33.73322 0.27095 6.77965
H 34.17866 1.70252 7.76903
H 33.46998 1.86921 6.10029
H 31.07287 7.50434 6.74125
H 30.64922 5.87490 7.37726
H 29.39846 6.82064 6.46802
H 29.83169 8.03806 1.51831
H 31.84641 11.41326 -0.26171
H 32.35445 10.01733 -1.38999
H 33.21051 10.49505 0.08808
