158

Mg 0.00000 0.00000 0.00000
C -0.21700 -2.21800 2.80100
C -1.25500 2.44200 2.02600
C -0.24500 1.85000 -2.56400
C 0.14600 -2.82400 -2.03700
N -0.61700 -0.00900 2.12600
C -0.59400 -0.90800 3.10500
C -0.93600 -0.30900 4.50200
C -1.77300 0.96400 4.03200
C -1.15500 1.16800 2.66000
C -3.26300 0.68500 3.86300
C 0.34500 0.11000 5.29900
C 0.12400 0.39700 6.78700
H 1.16800 0.03300 7.73300
N -0.18500 1.96100 -0.15200
C -0.70300 2.80000 0.77700
C -0.62000 4.15600 0.19300
C -0.18700 4.01500 -1.22500
C -0.21400 2.58300 -1.38000
C -0.88700 5.40600 0.97400
C 0.18100 5.01300 -2.27700
O 0.30300 4.69000 -3.50800
C 0.31000 6.41400 -1.83700
N -0.26500 -0.41300 -2.02900
C -0.27900 0.56900 -2.93700
C -0.19600 0.02400 -4.33200
C 0.12400 -1.53300 -4.18000
C 0.08600 -1.63200 -2.63500
C -1.45100 0.20500 -5.19700
C 1.37300 -2.07000 -4.92300
C 2.62600 -1.49000 -4.30600
N 0.15000 -2.14400 0.30300
C 0.17300 -3.13600 -0.68800
C 0.17300 -4.43800 0.00400
C 0.13300 -4.11100 1.35800
C 0.08300 -2.69500 1.50200
C 0.14900 -5.71500 -0.62300
C 0.09600 -4.62900 2.71600
O 0.20800 -5.74700 3.22100
C -0.25500 -3.42800 3.70100
C 0.71700 -3.48200 4.84800
O 1.93100 -3.25500 4.66900
O 0.03800 -3.55600 6.00300
C 0.94300 -3.58300 7.18300
H -1.85900 3.22000 2.49700
H -0.21800 2.45300 -3.47400
H 0.27600 -3.74700 -2.60500
H -1.55400 -0.94900 5.13200
H -1.58500 1.83100 4.66500
H -3.48400 -0.37700 3.96900
H -3.51100 1.02700 2.85800
H -3.85200 1.30100 4.54300
H 0.66900 1.09600 4.96600
H 1.13000 -0.63900 5.18900
H -0.84400 0.02600 7.12500
H 0.06200 1.47700 6.92100
H -1.34400 5.18600 1.93800
H -1.65100 5.96300 0.43200
H 0.00700 6.02000 1.08400
H -0.63500 6.74400 -1.40500
H 0.66500 6.97000 -2.70400
H 1.04800 6.46600 -1.03600
H 0.60800 0.50100 -4.89100
H -0.69200 -2.15600 -4.54700
H -1.26700 0.74000 -6.12900
H -2.20400 0.71400 -4.59600
H -1.96700 -0.72000 -5.45300
H 1.35600 -1.75900 -5.96700
H 1.45200 -3.15700 -4.90200
H 2.71400 -0.52200 -4.79800
H 3.48700 -2.12100 -4.52900
H 2.49500 -1.30300 -3.24000
H 0.86700 -6.33300 -0.08400
H 0.40400 -5.64200 -1.68000
H -0.89100 -5.99900 -0.46300
H -1.28300 -3.58100 4.02800
H 0.69800 -4.47800 7.75500
H 0.83300 -2.61900 7.68000
H 2.00000 -3.75400 6.97600
Mg 8.94233 0.79878 0.67469
C 8.89598 1.89190 -2.74320
C 8.43246 -2.36737 -0.48726
C 8.52876 -0.13097 3.68001
C 8.30622 4.09974 1.59376
N 8.71138 -0.00688 -1.37222
C 8.77323 0.49445 -2.59663
C 8.78011 -0.56894 -3.72745
C 8.06281 -1.76737 -2.93493
C 8.45122 -1.38405 -1.50844
C 6.54721 -1.73729 -3.04173
C 10.23342 -0.96163 -4.16982
C 10.31548 -1.75923 -5.47322
H 11.45105 -1.52646 -6.36135
N 9.02777 -1.01213 1.48210
C 8.81583 -2.19106 0.86044
C 8.97609 -3.22548 1.89410
C 9.13738 -2.55153 3.21111
C 8.87774 -1.17583 2.83679
C 9.04590 -4.69067 1.57510
C 9.45801 -3.06251 4.58308
O 9.31384 -2.33019 5.62507
C 9.85644 -4.47435 4.68029
N 8.27555 1.78781 2.37750
C 8.24126 1.16610 3.56924
C 7.99291 2.14768 4.68961
C 8.10869 3.59734 4.02427
C 8.32512 3.18355 2.55209
C 6.64523 2.01994 5.39942
C 9.11532 4.58920 4.66892
C 10.52984 4.09995 4.45644
N 8.83254 2.70254 -0.34103
C 8.52750 3.95758 0.22986
C 8.45899 4.93408 -0.87656
C 8.70818 4.16902 -2.02594
C 8.89725 2.80797 -1.66359
C 8.14832 6.31716 -0.74738
C 8.84375 4.20147 -3.46444
O 8.87055 5.09042 -4.31461
C 8.84610 2.70699 -4.00565
C 9.98672 2.56620 -4.97604
O 11.16361 2.66769 -4.58714
O 9.51112 2.12174 -6.15360
C 10.60654 1.95565 -7.14571
H 8.04814 -3.35879 -0.72867
H 8.48234 -0.37837 4.74308
H 8.20962 5.16632 1.80766
H 8.20110 -0.30374 -4.60391
H 8.49198 -2.72975 -3.20142
H 6.19585 -0.84412 -3.53663
H 6.17982 -1.77565 -2.02458
H 6.18539 -2.64808 -3.52741
H 10.63232 -1.70594 -3.46865
H 10.85883 -0.09280 -4.23786
H 9.37461 -1.72725 -6.03596
H 10.44413 -2.81580 -5.22599
H 8.73156 -4.89323 0.54381
H 8.29017 -5.18863 2.19217
H 10.02383 -5.12371 1.79597
H 9.06218 -5.10191 4.28307
H 10.13113 -4.62918 5.72550
H 10.73311 -4.63515 4.04294
H 8.74775 2.05358 5.46062
H 7.15264 4.13999 4.06087
H 6.73977 1.86154 6.49031
H 6.09496 1.20761 4.94350
H 5.96941 2.86236 5.26235
H 8.96196 4.63535 5.74990
H 9.02863 5.60126 4.28786
H 10.66563 3.37792 5.26720
H 11.23641 4.92337 4.53876
H 10.61942 3.55379 3.51022
H 8.84408 6.85289 -1.37937
H 8.21675 6.64502 0.28780
H 7.11752 6.32037 -1.11169
H 7.88041 2.52896 -4.48033
H 10.33420 2.54826 -8.02454
H 10.71719 0.86429 -7.28866
H 11.57439 2.37605 -6.89878
