158

Mg 0.00000 0.00000 0.00000
C -0.21700 -2.21800 2.80100
C -1.25500 2.44200 2.02600
C -0.24500 1.85000 -2.56400
C 0.14600 -2.82400 -2.03700
N -0.61700 -0.00900 2.12600
C -0.59400 -0.90800 3.10500
C -0.93600 -0.30900 4.50200
C -1.77300 0.96400 4.03200
C -1.15500 1.16800 2.66000
C -3.26300 0.68500 3.86300
C 0.34500 0.11000 5.29900
C 0.12400 0.39700 6.78700
H 1.16800 0.03300 7.73300
N -0.18500 1.96100 -0.15200
C -0.70300 2.80000 0.77700
C -0.62000 4.15600 0.19300
C -0.18700 4.01500 -1.22500
C -0.21400 2.58300 -1.38000
C -0.88700 5.40600 0.97400
C 0.18100 5.01300 -2.27700
O 0.30300 4.69000 -3.50800
C 0.31000 6.41400 -1.83700
N -0.26500 -0.41300 -2.02900
C -0.27900 0.56900 -2.93700
C -0.19600 0.02400 -4.33200
C 0.12400 -1.53300 -4.18000
C 0.08600 -1.63200 -2.63500
C -1.45100 0.20500 -5.19700
C 1.37300 -2.07000 -4.92300
C 2.62600 -1.49000 -4.30600
N 0.15000 -2.14400 0.30300
C 0.17300 -3.13600 -0.68800
C 0.17300 -4.43800 0.00400
C 0.13300 -4.11100 1.35800
C 0.08300 -2.69500 1.50200
C 0.14900 -5.71500 -0.62300
C 0.09600 -4.62900 2.71600
O 0.20800 -5.74700 3.22100
C -0.25500 -3.42800 3.70100
C 0.71700 -3.48200 4.84800
O 1.93100 -3.25500 4.66900
O 0.03800 -3.55600 6.00300
C 0.94300 -3.58300 7.18300
H -1.85900 3.22000 2.49700
H -0.21800 2.45300 -3.47400
H 0.27600 -3.74700 -2.60500
H -1.55400 -0.94900 5.13200
H -1.58500 1.83100 4.66500
H -3.48400 -0.37700 3.96900
H -3.51100 1.02700 2.85800
H -3.85200 1.30100 4.54300
H 0.66900 1.09600 4.96600
H 1.13000 -0.63900 5.18900
H -0.84400 0.02600 7.12500
H 0.06200 1.47700 6.92100
H -1.34400 5.18600 1.93800
H -1.65100 5.96300 0.43200
H 0.00700 6.02000 1.08400
H -0.63500 6.74400 -1.40500
H 0.66500 6.97000 -2.70400
H 1.04800 6.46600 -1.03600
H 0.60800 0.50100 -4.89100
H -0.69200 -2.15600 -4.54700
H -1.26700 0.74000 -6.12900
H -2.20400 0.71400 -4.59600
H -1.96700 -0.72000 -5.45300
H 1.35600 -1.75900 -5.96700
H 1.45200 -3.15700 -4.90200
H 2.71400 -0.52200 -4.79800
H 3.48700 -2.12100 -4.52900
H 2.49500 -1.30300 -3.24000
H 0.86700 -6.33300 -0.08400
H 0.40400 -5.64200 -1.68000
H -0.89100 -5.99900 -0.46300
H -1.28300 -3.58100 4.02800
H 0.69800 -4.47800 7.75500
H 0.83300 -2.61900 7.68000
H 2.00000 -3.75400 6.97600
Mg 15.76566 1.42403 1.20718
C 13.90968 -1.04024 3.04069
C 13.23657 3.61195 1.87895
C 17.15204 3.48010 -0.77220
C 17.53521 -1.19821 -0.25509
N 13.87109 1.19729 2.32585
C 13.30120 0.23220 3.03166
C 12.04914 0.67610 3.83469
C 11.63146 1.94672 2.94591
C 13.00058 2.30321 2.37050
C 10.70533 1.59652 1.79309
C 12.39990 1.09442 5.30574
C 11.19463 1.24258 6.23694
H 11.34552 0.85719 7.63736
N 15.53773 3.38734 1.02826
C 14.45459 4.11543 1.37176
C 14.77818 5.50734 1.02242
C 16.07548 5.51852 0.29330
C 16.30009 4.09586 0.13310
C 13.93173 6.67127 1.44929
C 16.96031 6.62650 -0.19216
O 17.92214 6.41029 -1.01129
C 16.60980 7.98532 0.24630
N 16.99594 1.17484 -0.45013
C 17.50436 2.23673 -1.09961
C 18.57380 1.81617 -2.07932
C 18.84870 0.26988 -1.77768
C 17.78058 0.03082 -0.68802
C 18.22803 1.99237 -3.55776
C 20.31673 -0.13813 -1.47584
C 20.75783 0.45856 -0.15873
N 15.88015 -0.71652 1.47735
C 16.66768 -1.62832 0.74079
C 16.32057 -2.98423 1.21349
C 15.33071 -2.76690 2.18376
C 15.06426 -1.37527 2.29272
C 16.86239 -4.20279 0.71582
C 14.44304 -3.39906 3.13303
O 14.28507 -4.54849 3.54240
C 13.39324 -2.31873 3.64017
C 13.32038 -2.41010 5.13979
O 14.30501 -2.11446 5.83960
O 12.04306 -2.61994 5.50692
C 11.91800 -2.70678 6.98633
H 12.39951 4.30946 1.83777
H 17.73678 4.15389 -1.40273
H 18.11271 -2.06186 -0.59167
H 11.24183 -0.04617 3.85332
H 11.25599 2.75641 3.56622
H 10.57499 0.52941 1.69089
H 11.17061 2.00745 0.90670
H 9.75154 2.12043 1.90326
H 12.76595 2.12919 5.30613
H 13.10809 0.41378 5.73682
H 10.28755 0.79660 5.81121
H 10.95421 2.30470 6.32704
H 12.95677 6.34173 1.82912
H 13.69240 7.24126 0.54503
H 14.44396 7.32794 2.15574
H 15.59821 8.21935 -0.07676
H 17.40836 8.62846 -0.12861
H 16.60370 8.00879 1.34175
H 19.48798 2.37383 -1.91688
H 18.57446 -0.36687 -2.63160
H 18.95302 2.62569 -4.10309
H 17.23167 2.40812 -3.62809
H 18.13267 1.06697 -4.12321
H 20.98653 0.26538 -2.23919
H 20.46965 -1.21183 -1.44820
H 21.05819 1.47348 -0.43587
H 21.59415 -0.10157 0.25462
H 19.91503 0.54265 0.53715
H 17.07451 -4.82352 1.57617
H 17.75652 -4.02687 0.12139
H 16.02592 -4.55318 0.10525
H 12.43605 -2.54580 3.16921
H 11.43405 -3.66241 7.21050
H 11.38557 -1.78774 7.29558
H 12.83193 -2.79227 7.56241
