158

Mg 0.00000 0.00000 0.00000
C -0.21700 -2.21800 2.80100
C -1.25500 2.44200 2.02600
C -0.24500 1.85000 -2.56400
C 0.14600 -2.82400 -2.03700
N -0.61700 -0.00900 2.12600
C -0.59400 -0.90800 3.10500
C -0.93600 -0.30900 4.50200
C -1.77300 0.96400 4.03200
C -1.15500 1.16800 2.66000
C -3.26300 0.68500 3.86300
C 0.34500 0.11000 5.29900
C 0.12400 0.39700 6.78700
H 1.16800 0.03300 7.73300
N -0.18500 1.96100 -0.15200
C -0.70300 2.80000 0.77700
C -0.62000 4.15600 0.19300
C -0.18700 4.01500 -1.22500
C -0.21400 2.58300 -1.38000
C -0.88700 5.40600 0.97400
C 0.18100 5.01300 -2.27700
O 0.30300 4.69000 -3.50800
C 0.31000 6.41400 -1.83700
N -0.26500 -0.41300 -2.02900
C -0.27900 0.56900 -2.93700
C -0.19600 0.02400 -4.33200
C 0.12400 -1.53300 -4.18000
C 0.08600 -1.63200 -2.63500
C -1.45100 0.20500 -5.19700
C 1.37300 -2.07000 -4.92300
C 2.62600 -1.49000 -4.30600
N 0.15000 -2.14400 0.30300
C 0.17300 -3.13600 -0.68800
C 0.17300 -4.43800 0.00400
C 0.13300 -4.11100 1.35800
C 0.08300 -2.69500 1.50200
C 0.14900 -5.71500 -0.62300
C 0.09600 -4.62900 2.71600
O 0.20800 -5.74700 3.22100
C -0.25500 -3.42800 3.70100
C 0.71700 -3.48200 4.84800
O 1.93100 -3.25500 4.66900
O 0.03800 -3.55600 6.00300
C 0.94300 -3.58300 7.18300
H -1.85900 3.22000 2.49700
H -0.21800 2.45300 -3.47400
H 0.27600 -3.74700 -2.60500
H -1.55400 -0.94900 5.13200
H -1.58500 1.83100 4.66500
H -3.48400 -0.37700 3.96900
H -3.51100 1.02700 2.85800
H -3.85200 1.30100 4.54300
H 0.66900 1.09600 4.96600
H 1.13000 -0.63900 5.18900
H -0.84400 0.02600 7.12500
H 0.06200 1.47700 6.92100
H -1.34400 5.18600 1.93800
H -1.65100 5.96300 0.43200
H 0.00700 6.02000 1.08400
H -0.63500 6.74400 -1.40500
H 0.66500 6.97000 -2.70400
H 1.04800 6.46600 -1.03600
H 0.60800 0.50100 -4.89100
H -0.69200 -2.15600 -4.54700
H -1.26700 0.74000 -6.12900
H -2.20400 0.71400 -4.59600
H -1.96700 -0.72000 -5.45300
H 1.35600 -1.75900 -5.96700
H 1.45200 -3.15700 -4.90200
H 2.71400 -0.52200 -4.79800
H 3.48700 -2.12100 -4.52900
H 2.49500 -1.30300 -3.24000
H 0.86700 -6.33300 -0.08400
H 0.40400 -5.64200 -1.68000
H -0.89100 -5.99900 -0.46300
H -1.28300 -3.58100 4.02800
H 0.69800 -4.47800 7.75500
H 0.83300 -2.61900 7.68000
H 2.00000 -3.75400 6.97600
Mg 15.77328 1.42294 1.20479
C 15.08404 -0.75832 3.96996
C 14.95708 4.02818 3.24958
C 15.93497 3.33021 -1.32574
C 15.42227 -1.34356 -0.88542
N 15.12107 1.49807 3.31696
C 14.95407 0.61024 4.28557
C 14.70847 1.22749 5.68851
C 14.12873 2.65198 5.22635
C 14.80124 2.75765 3.85915
C 12.62325 2.65054 5.01928
C 16.03460 1.38679 6.51192
C 15.83597 1.69268 7.99810
H 16.78009 1.12643 8.95751
N 15.96624 3.39496 1.09317
C 15.60341 4.30207 2.02419
C 15.93574 5.61740 1.45533
C 16.37211 5.42226 0.04599
C 16.08183 4.01306 -0.12711
C 15.90079 6.88426 2.25987
C 16.94277 6.35316 -0.98064
O 17.02718 6.02286 -2.21620
C 17.31341 7.69690 -0.51324
N 15.48295 1.09636 -0.82779
C 15.66719 2.08518 -1.72010
C 15.67184 1.55135 -3.13268
C 15.69412 -0.04136 -2.98998
C 15.60449 -0.15897 -1.45261
C 14.48759 1.96738 -4.00496
C 16.83510 -0.79782 -3.72389
C 18.16589 -0.46840 -3.08681
N 15.51795 -0.70581 1.47185
C 15.36625 -1.68015 0.46104
C 15.10788 -2.96945 1.13439
C 15.10430 -2.64902 2.50033
C 15.32347 -1.25471 2.66573
C 14.86708 -4.21326 0.48550
C 14.95439 -3.17144 3.83947
O 14.83754 -4.29575 4.32528
C 14.80871 -1.94936 4.84530
C 15.73125 -2.19241 6.00821
O 16.96406 -2.20525 5.84506
O 15.02069 -2.15284 7.15010
C 15.89394 -2.37756 8.33279
H 14.50549 4.89468 3.73345
H 16.09228 3.92411 -2.22907
H 15.39924 -2.27005 -1.46313
H 13.97554 0.70592 6.29229
H 14.47019 3.44890 5.88186
H 12.20599 1.65807 5.10307
H 12.46274 3.04572 4.02473
H 12.14776 3.35773 5.70494
H 16.54323 2.30706 6.19703
H 16.65806 0.52093 6.40139
H 14.80385 1.51147 8.32188
H 15.98163 2.76432 8.15432
H 15.38379 6.73914 3.21645
H 15.26814 7.59243 1.71388
H 16.89075 7.32545 2.39406
H 16.43940 8.18565 -0.08934
H 17.78444 8.18439 -1.36903
H 18.04240 7.59622 0.29859
H 16.56101 1.86911 -3.66326
H 14.77942 -0.49949 -3.39406
H 14.79099 2.48115 -4.93666
H 13.83601 2.59988 -3.41680
H 13.82153 1.15706 -4.29641
H 16.89924 -0.46942 -4.76418
H 16.70293 -1.87459 -3.73366
H 18.43890 0.47889 -3.56135
H 18.89727 -1.24411 -3.30449
H 18.05200 -0.27849 -2.01321
H 15.43908 -4.95951 1.02070
H 15.14733 -4.17443 -0.56509
H 13.78518 -4.29661 0.61892
H 13.76384 -1.90233 5.15450
H 15.47012 -3.22051 8.88732
H 15.94406 -1.40437 8.85637
H 16.90271 -2.72956 8.15132
