79

Mg 15.76628 1.41940 1.19766
C 15.98094 -1.05528 -1.37956
C 14.94894 -1.10284 3.34552
C 15.12825 3.63059 3.37945
C 15.47982 3.80795 -1.32393
N 15.52879 -0.76159 0.90180
C 15.69781 -1.59264 -0.12189
C 15.62038 -3.09517 0.28282
C 14.74871 -2.95371 1.61029
C 15.12366 -1.53391 1.99694
C 13.24511 -3.01413 1.36117
C 17.03131 -3.70271 0.58596
C 17.08049 -5.23113 0.66886
H 18.26311 -5.92145 0.17671
N 15.61018 1.27390 3.16167
C 15.28446 0.16486 3.86823
C 15.30078 0.56847 5.29073
C 15.47638 2.04651 5.34236
C 15.38450 2.38364 3.94477
C 15.20736 -0.40676 6.42385
C 15.68219 3.00443 6.47291
O 15.57934 4.26955 6.31974
C 15.92326 2.41142 7.80079
N 15.14115 3.40666 1.06483
C 14.99557 4.15900 2.16109
C 14.81984 5.60677 1.81036
C 15.11964 5.72224 0.24621
C 15.34855 4.22187 -0.06159
C 13.43872 6.20530 2.11081
C 16.20540 6.73838 -0.18854
C 17.56174 6.28003 0.29864
N 15.90931 1.43584 -0.96805
C 15.73289 2.53855 -1.81633
C 15.81852 2.03703 -3.20024
C 16.02360 0.66585 -3.06005
C 16.03734 0.32802 -1.67659
C 15.65157 2.81441 -4.38018
C 16.20973 -0.59616 -3.75758
O 16.37798 -0.92007 -4.93412
C 16.06783 -1.77861 -2.70046
C 17.22287 -2.71894 -2.91257
O 18.39280 -2.36079 -2.66690
O 16.75357 -3.95515 -3.14077
C 17.84912 -4.94306 -3.33042
H 14.45720 -1.77220 4.05410
H 15.01255 4.44257 4.10038
H 15.48421 4.50775 -2.16161
H 15.10459 -3.73322 -0.43501
H 15.06716 -3.65345 2.38274
H 13.01760 -3.01499 0.29526
H 12.83519 -2.12315 1.83722
H 12.80018 -3.86311 1.88082
H 17.31866 -3.45219 1.60711
H 17.76485 -3.35743 -0.14344
H 16.17653 -5.68185 0.25821
H 17.07168 -5.51658 1.72083
H 14.91944 -1.39814 6.07630
H 14.37585 -0.08686 7.05152
H 16.12296 -0.43838 7.01462
H 15.07707 1.77971 8.07182
H 16.13666 3.24549 8.46836
H 16.79056 1.75323 7.74138
H 15.52672 6.23004 2.35651
H 14.23584 6.01946 -0.31879
H 13.47191 7.07545 2.76689
H 12.81574 5.41874 2.53566
H 12.86147 6.48731 1.23066
H 16.01524 7.71220 0.26142
H 16.25773 6.87658 -1.26854
H 17.58862 6.64646 1.32423
H 18.35357 6.73319 -0.29873
H 17.62337 5.19236 0.33951
H 16.43564 2.49746 -5.06775
H 15.72053 3.88050 -4.16505
H 14.64808 2.51303 -4.68025
H 15.10873 -2.25820 -2.89346
H 17.68358 -5.42489 -4.29409
H 17.85316 -5.57555 -2.44253
H 18.84899 -4.53225 -3.47480
