79

Mg 31.53256 2.83880 2.39533
C 30.94483 4.45210 5.53604
C 30.50590 5.72388 0.89022
C 31.60873 1.29367 -0.37295
C 31.41345 -0.19820 4.10065
N 30.83962 4.77432 3.21646
C 30.71733 5.28455 4.43789
C 30.39784 6.80944 4.44131
C 29.73861 6.93176 2.99478
C 30.42775 5.76227 2.31411
C 28.23325 6.68612 2.98851
C 31.68918 7.68718 4.55847
C 31.44870 9.16155 4.89577
H 32.40497 9.84952 5.74993
N 31.59111 3.52777 0.54472
C 31.14351 4.73179 0.11428
C 31.41121 4.77017 -1.33952
C 31.87697 3.41710 -1.75229
C 31.68340 2.67535 -0.53258
C 31.26770 6.00836 -2.17020
C 32.40180 2.87569 -3.04441
O 32.53009 1.62104 -3.25409
C 32.68212 3.86130 -4.10414
N 31.29605 0.82876 1.88401
C 31.43460 0.41767 0.61879
C 31.50360 -1.07839 0.53522
C 31.62766 -1.59990 2.03935
C 31.52005 -0.23903 2.77059
C 30.31292 -1.76622 -0.14682
C 32.82983 -2.52051 2.36751
C 34.11956 -1.73799 2.26098
N 31.41156 2.21055 4.46938
C 31.35200 0.89427 4.94953
C 31.16910 0.97519 6.41038
C 31.11802 2.34175 6.67823
C 31.23369 3.06809 5.45866
C 31.01490 -0.12976 7.29341
C 30.96791 3.35691 7.70816
O 30.92530 3.34359 8.93922
C 30.72751 4.76103 6.99647
C 31.64218 5.76280 7.64697
O 32.88054 5.67546 7.51975
O 30.91634 6.79103 8.11221
C 31.76656 7.83521 8.74385
H 29.98283 6.48816 0.31210
H 31.74235 0.72086 -1.29299
H 31.45248 -1.10348 4.70925
H 29.68400 7.12253 5.20343
H 30.00585 7.86717 2.50355
H 27.88203 6.33986 3.96045
H 28.06617 5.92207 2.22904
H 27.69769 7.57172 2.64550
H 32.14193 7.79383 3.57272
H 32.38175 7.25961 5.28432
H 30.43104 9.32855 5.24987
H 31.51234 9.73786 3.97272
H 30.75166 6.79825 -1.62584
H 30.59729 5.76335 -2.99374
H 32.22443 6.35116 -2.56453
H 31.76824 4.40769 -4.33831
H 33.13383 3.30228 -4.92286
H 33.39042 4.59758 -3.72315
H 32.37964 -1.39865 -0.02728
H 30.75687 -2.18097 2.34392
H 30.59491 -2.39018 -0.99527
H 29.60474 -0.99450 -0.44720
H 29.69916 -2.37845 0.51340
H 32.88963 -3.33683 1.64849
H 32.77639 -2.95942 3.36388
H 34.34200 -1.77922 1.19531
H 34.90598 -2.21979 2.84289
H 33.97214 -0.69003 2.52277
H 31.63244 0.08767 8.16481
H 31.31633 -1.06240 6.81705
H 29.94298 -0.08651 7.48572
H 29.67702 5.01063 7.14239
H 31.39418 7.98232 9.75772
H 31.75498 8.69296 8.07114
H 32.80226 7.55789 8.94324
