158

Mg 0.00000 0.00000 0.00000
C -0.21700 -2.21800 2.80100
C -1.25500 2.44200 2.02600
C -0.24500 1.85000 -2.56400
C 0.14600 -2.82400 -2.03700
N -0.61700 -0.00900 2.12600
C -0.59400 -0.90800 3.10500
C -0.93600 -0.30900 4.50200
C -1.77300 0.96400 4.03200
C -1.15500 1.16800 2.66000
C -3.26300 0.68500 3.86300
C 0.34500 0.11000 5.29900
C 0.12400 0.39700 6.78700
H 1.16800 0.03300 7.73300
N -0.18500 1.96100 -0.15200
C -0.70300 2.80000 0.77700
C -0.62000 4.15600 0.19300
C -0.18700 4.01500 -1.22500
C -0.21400 2.58300 -1.38000
C -0.88700 5.40600 0.97400
C 0.18100 5.01300 -2.27700
O 0.30300 4.69000 -3.50800
C 0.31000 6.41400 -1.83700
N -0.26500 -0.41300 -2.02900
C -0.27900 0.56900 -2.93700
C -0.19600 0.02400 -4.33200
C 0.12400 -1.53300 -4.18000
C 0.08600 -1.63200 -2.63500
C -1.45100 0.20500 -5.19700
C 1.37300 -2.07000 -4.92300
C 2.62600 -1.49000 -4.30600
N 0.15000 -2.14400 0.30300
C 0.17300 -3.13600 -0.68800
C 0.17300 -4.43800 0.00400
C 0.13300 -4.11100 1.35800
C 0.08300 -2.69500 1.50200
C 0.14900 -5.71500 -0.62300
C 0.09600 -4.62900 2.71600
O 0.20800 -5.74700 3.22100
C -0.25500 -3.42800 3.70100
C 0.71700 -3.48200 4.84800
O 1.93100 -3.25500 4.66900
O 0.03800 -3.55600 6.00300
C 0.94300 -3.58300 7.18300
H -1.85900 3.22000 2.49700
H -0.21800 2.45300 -3.47400
H 0.27600 -3.74700 -2.60500
H -1.55400 -0.94900 5.13200
H -1.58500 1.83100 4.66500
H -3.48400 -0.37700 3.96900
H -3.51100 1.02700 2.85800
H -3.85200 1.30100 4.54300
H 0.66900 1.09600 4.96600
H 1.13000 -0.63900 5.18900
H -0.84400 0.02600 7.12500
H 0.06200 1.47700 6.92100
H -1.34400 5.18600 1.93800
H -1.65100 5.96300 0.43200
H 0.00700 6.02000 1.08400
H -0.63500 6.74400 -1.40500
H 0.66500 6.97000 -2.70400
H 1.04800 6.46600 -1.03600
H 0.60800 0.50100 -4.89100
H -0.69200 -2.15600 -4.54700
H -1.26700 0.74000 -6.12900
H -2.20400 0.71400 -4.59600
H -1.96700 -0.72000 -5.45300
H 1.35600 -1.75900 -5.96700
H 1.45200 -3.15700 -4.90200
H 2.71400 -0.52200 -4.79800
H 3.48700 -2.12100 -4.52900
H 2.49500 -1.30300 -3.24000
H 0.86700 -6.33300 -0.08400
H 0.40400 -5.64200 -1.68000
H -0.89100 -5.99900 -0.46300
H -1.28300 -3.58100 4.02800
H 0.69800 -4.47800 7.75500
H 0.83300 -2.61900 7.68000
H 2.00000 -3.75400 6.97600
Mg 7.89056 0.71377 0.59245
C 7.33116 4.22777 1.05930
C 7.21511 1.19773 -2.71575
C 7.93322 -2.43748 0.22475
C 7.39643 0.32108 4.01989
N 7.35600 2.52501 -0.55904
C 7.23307 3.81522 -0.28592
C 7.07127 4.72424 -1.53375
C 6.48203 3.63158 -2.55246
C 7.07962 2.37082 -1.93114
C 4.96753 3.51706 -2.50230
C 8.44217 5.29826 -2.03689
C 8.32857 6.43413 -3.05603
H 9.31789 7.50746 -3.01516
N 8.09779 -0.38521 -1.04702
C 7.79609 -0.02447 -2.31198
C 8.11051 -1.19247 -3.14928
C 8.46686 -2.32793 -2.25571
C 8.15276 -1.75428 -0.96251
C 8.13303 -1.13605 -4.64919
C 8.99008 -3.70688 -2.52200
O 9.00313 -4.60948 -1.61207
C 9.39988 -3.99707 -3.90379
N 7.48578 -0.86235 1.88641
C 7.63116 -2.13841 1.48833
C 7.55273 -3.08768 2.66014
C 7.56609 -2.16225 3.96436
C 7.55969 -0.77322 3.28913
C 6.32686 -3.99999 2.69631
C 8.65710 -2.46172 5.02864
C 10.02421 -2.13439 4.47253
N 7.62794 2.02848 2.28674
C 7.41081 1.65448 3.63102
C 7.17625 2.89635 4.39598
C 7.25096 3.91298 3.43194
C 7.49348 3.34319 2.15287
C 6.88719 2.97416 5.78757
C 7.16924 5.33775 3.20377
O 7.06743 6.32871 3.92582
C 7.09178 5.59502 1.63718
C 8.07411 6.68177 1.29581
O 9.29591 6.49565 1.43423
O 7.42770 7.67655 0.66104
C 8.36210 8.77318 0.29209
H 6.79986 1.19703 -3.72394
H 8.04697 -3.52274 0.17221
H 7.33203 0.29106 5.10967
H 6.36712 5.53887 -1.41408
H 6.86727 3.78064 -3.55781
H 4.54511 4.10744 -1.70284
H 4.75686 2.46674 -2.34902
H 4.53780 3.77176 -3.47534
H 8.94238 4.54113 -2.65438
H 9.04950 5.61339 -1.21078
H 7.31391 6.84820 -3.10035
H 8.49381 6.02225 -4.05457
H 7.66778 -0.21608 -5.02415
H 7.47885 -1.93749 -5.00919
H 9.13343 -1.28449 -5.06131
H 8.55561 -3.84120 -4.57115
H 9.82835 -5.00085 -3.87684
H 10.17120 -3.27679 -4.19854
H 8.41475 -3.74296 2.68536
H 6.62585 -2.24121 4.52964
H 6.58407 -5.07544 2.73260
H 5.71519 -3.78431 1.83035
H 5.63735 -3.81465 3.51815
H 8.66754 -3.52726 5.27084
H 8.51332 -1.92152 5.95842
H 10.28072 -3.03293 3.90339
H 10.73438 -1.96168 5.27868
H 9.97138 -1.29943 3.76422
H 7.47982 3.78806 6.18362
H 7.10979 2.03668 6.29289
H 5.81342 3.17679 5.75269
H 6.06599 5.88194 1.40264
H 7.96051 9.69442 0.72537
H 8.45107 8.73181 -0.80978
H 9.35565 8.75175 0.72436
