158

Mg 0.00000 0.00000 0.00000
C -0.21700 -2.21800 2.80100
C -1.25500 2.44200 2.02600
C -0.24500 1.85000 -2.56400
C 0.14600 -2.82400 -2.03700
N -0.61700 -0.00900 2.12600
C -0.59400 -0.90800 3.10500
C -0.93600 -0.30900 4.50200
C -1.77300 0.96400 4.03200
C -1.15500 1.16800 2.66000
C -3.26300 0.68500 3.86300
C 0.34500 0.11000 5.29900
C 0.12400 0.39700 6.78700
H 1.16800 0.03300 7.73300
N -0.18500 1.96100 -0.15200
C -0.70300 2.80000 0.77700
C -0.62000 4.15600 0.19300
C -0.18700 4.01500 -1.22500
C -0.21400 2.58300 -1.38000
C -0.88700 5.40600 0.97400
C 0.18100 5.01300 -2.27700
O 0.30300 4.69000 -3.50800
C 0.31000 6.41400 -1.83700
N -0.26500 -0.41300 -2.02900
C -0.27900 0.56900 -2.93700
C -0.19600 0.02400 -4.33200
C 0.12400 -1.53300 -4.18000
C 0.08600 -1.63200 -2.63500
C -1.45100 0.20500 -5.19700
C 1.37300 -2.07000 -4.92300
C 2.62600 -1.49000 -4.30600
N 0.15000 -2.14400 0.30300
C 0.17300 -3.13600 -0.68800
C 0.17300 -4.43800 0.00400
C 0.13300 -4.11100 1.35800
C 0.08300 -2.69500 1.50200
C 0.14900 -5.71500 -0.62300
C 0.09600 -4.62900 2.71600
O 0.20800 -5.74700 3.22100
C -0.25500 -3.42800 3.70100
C 0.71700 -3.48200 4.84800
O 1.93100 -3.25500 4.66900
O 0.03800 -3.55600 6.00300
C 0.94300 -3.58300 7.18300
H -1.85900 3.22000 2.49700
H -0.21800 2.45300 -3.47400
H 0.27600 -3.74700 -2.60500
H -1.55400 -0.94900 5.13200
H -1.58500 1.83100 4.66500
H -3.48400 -0.37700 3.96900
H -3.51100 1.02700 2.85800
H -3.85200 1.30100 4.54300
H 0.66900 1.09600 4.96600
H 1.13000 -0.63900 5.18900
H -0.84400 0.02600 7.12500
H 0.06200 1.47700 6.92100
H -1.34400 5.18600 1.93800
H -1.65100 5.96300 0.43200
H 0.00700 6.02000 1.08400
H -0.63500 6.74400 -1.40500
H 0.66500 6.97000 -2.70400
H 1.04800 6.46600 -1.03600
H 0.60800 0.50100 -4.89100
H -0.69200 -2.15600 -4.54700
H -1.26700 0.74000 -6.12900
H -2.20400 0.71400 -4.59600
H -1.96700 -0.72000 -5.45300
H 1.35600 -1.75900 -5.96700
H 1.45200 -3.15700 -4.90200
H 2.71400 -0.52200 -4.79800
H 3.48700 -2.12100 -4.52900
H 2.49500 -1.30300 -3.24000
H 0.86700 -6.33300 -0.08400
H 0.40400 -5.64200 -1.68000
H -0.89100 -5.99900 -0.46300
H -1.28300 -3.58100 4.02800
H 0.69800 -4.47800 7.75500
H 0.83300 -2.61900 7.68000
H 2.00000 -3.75400 6.97600
Mg 10.51553 0.95311 0.80505
C 11.06724 -1.14087 3.66686
C 8.61702 2.94821 2.81747
C 9.64328 2.56591 -1.78444
C 11.46930 -1.74715 -1.18106
N 9.98554 0.81678 2.94813
C 10.30371 0.01081 3.94989
C 9.84163 0.50698 5.34626
C 8.62935 1.45002 4.87733
C 9.11682 1.79374 3.47131
C 7.30561 0.71341 4.75713
C 10.95462 1.32806 6.08727
C 10.68712 1.57879 7.57298
H 11.82150 1.58836 8.49252
N 9.72733 2.76561 0.62582
C 9.00547 3.43403 1.54963
C 8.63988 4.71479 0.92500
C 9.06463 4.67944 -0.50085
C 9.48537 3.29751 -0.61637
C 8.02640 5.84907 1.69342
C 9.07662 5.71426 -1.58492
O 9.26513 5.40047 -2.81326
C 8.76851 7.09314 -1.17843
N 10.34544 0.42009 -1.19727
C 9.99632 1.32677 -2.12678
C 10.20697 0.78713 -3.52134
C 11.00129 -0.58825 -3.33437
C 11.03564 -0.65294 -1.79164
C 8.93830 0.53518 -4.33582
C 12.33819 -0.73998 -4.11048
C 13.36628 0.22233 -3.56058
N 11.33055 -1.01832 1.14749
C 11.63192 -1.99738 0.17553
C 12.05342 -3.21423 0.89942
C 11.94514 -2.86329 2.25353
C 11.46910 -1.52902 2.36587
C 12.42023 -4.45280 0.30150
C 12.11516 -3.32170 3.61355
O 12.57392 -4.33601 4.13743
C 11.43378 -2.26922 4.59049
C 12.40050 -1.97645 5.70504
O 13.47916 -1.40311 5.47184
O 11.80136 -2.22330 6.88422
C 12.71684 -1.93717 8.02082
H 7.82089 3.51473 3.30132
H 9.46104 3.11348 -2.71203
H 11.87584 -2.59950 -1.72959
H 9.47450 -0.27013 6.00588
H 8.56678 2.34634 5.48894
H 7.42325 -0.35138 4.89328
H 6.93806 0.92933 3.76248
H 6.57289 1.13969 5.44832
H 10.94339 2.36139 5.71735
H 11.91437 0.86456 5.96610
H 9.88362 0.94071 7.96055
H 10.30237 2.59484 7.68966
H 7.67907 5.52394 2.68188
H 7.11092 6.13543 1.16449
H 8.68403 6.71858 1.75782
H 7.78322 7.12268 -0.71931
H 8.91384 7.70106 -2.07352
H 9.48437 7.39877 -0.40723
H 10.81191 1.46496 -4.11101
H 10.40784 -1.45064 -3.67192
H 8.92153 1.08143 -5.29781
H 8.08409 0.80622 -3.72969
H 8.73663 -0.50979 -4.56512
H 12.19777 -0.47681 -5.16175
H 12.74255 -1.74629 -4.08165
H 13.13008 1.15749 -4.07708
H 14.37298 -0.11603 -3.79746
H 13.21394 0.39051 -2.48813
H 13.30065 -4.80223 0.82425
H 12.60839 -4.33956 -0.76412
H 11.51898 -5.03927 0.49915
H 10.50831 -2.71448 4.95767
H 12.77361 -2.84936 8.62279
H 12.30946 -1.03378 8.51242
H 13.76275 -1.76937 7.79195
