79

Mg 31.53895 2.84696 2.39753
C 31.03354 3.16975 5.93581
C 30.39106 6.04447 2.09279
C 31.54535 2.44378 -0.74967
C 31.54621 -0.60806 2.85410
N 30.83412 4.31499 3.89431
C 30.74481 4.34750 5.21541
C 30.39988 5.74241 5.80261
C 29.67591 6.37290 4.51527
C 30.36368 5.55587 3.42344
C 28.18511 6.08324 4.46107
C 31.68077 6.55780 6.19815
C 31.41526 7.79485 7.05894
H 32.39427 8.15489 8.08089
N 31.51368 4.18427 0.93140
C 31.03084 5.44327 0.98663
C 31.22764 6.00895 -0.35703
C 31.71526 4.92681 -1.25476
C 31.58773 3.77977 -0.37834
C 31.03341 7.46567 -0.66309
C 32.20215 4.92280 -2.67219
O 32.35115 3.83281 -3.32988
C 32.41006 6.23696 -3.29769
N 31.33353 1.16642 1.19091
C 31.42697 1.26046 -0.14713
C 31.52345 -0.10513 -0.78452
C 31.71963 -1.13144 0.42617
C 31.60838 -0.14817 1.61200
C 30.32059 -0.53358 -1.62472
C 32.95428 -2.07154 0.35882
C 34.22514 -1.26552 0.50239
N 31.51614 1.50138 4.08777
C 31.49710 0.08979 4.05409
C 31.36849 -0.37731 5.44969
C 31.29791 0.80458 6.20244
C 31.35663 1.92889 5.33527
C 31.28263 -1.73520 5.86788
C 31.17638 1.35670 7.53251
O 31.17431 0.88885 8.67042
C 30.87250 2.91189 7.40829
C 31.78942 3.64113 8.35168
O 33.01942 3.63572 8.16813
O 31.05285 4.39984 9.18365
C 31.91831 5.15118 10.13143
H 29.83482 6.95353 1.86235
H 31.65626 2.24778 -1.81867
H 31.63973 -1.67059 3.08855
H 29.71590 5.72517 6.64264
H 29.91138 7.42846 4.40710
H 27.87912 5.39892 5.23839
H 28.00447 5.65231 3.48499
H 27.61822 7.01827 4.48730
H 32.09088 7.03808 5.30043
H 32.39912 5.92671 6.68428
H 30.40257 7.79431 7.48014
H 31.43708 8.67714 6.41465
H 30.51395 7.98245 0.15330
H 30.33854 7.52506 -1.50778
H 31.96474 7.96663 -0.93571
H 31.47757 6.79612 -3.28167
H 32.84340 6.02880 -4.27787
H 33.12689 6.80302 -2.69242
H 32.38366 -0.16614 -1.43982
H 30.87114 -1.82594 0.51315
H 30.58621 -0.79222 -2.66714
H 29.58931 0.26354 -1.60525
H 29.75575 -1.37505 -1.22712
H 33.00533 -2.56030 -0.61723
H 32.94307 -2.85376 1.11049
H 34.40182 -0.90026 -0.51371
H 35.04315 -1.89737 0.84250
H 34.06620 -0.39106 1.14404
H 31.92171 -1.83489 6.73514
H 31.58085 -2.41563 5.07299
H 30.21395 -1.80430 6.08794
H 29.82207 3.06162 7.66076
H 31.57835 4.90137 11.14124
H 31.84774 6.21152 9.82409
H 32.96390 4.87130 10.18499
