158

Mg 0.00000 0.00000 0.00000
C -0.21700 -2.21800 2.80100
C -1.25500 2.44200 2.02600
C -0.24500 1.85000 -2.56400
C 0.14600 -2.82400 -2.03700
N -0.61700 -0.00900 2.12600
C -0.59400 -0.90800 3.10500
C -0.93600 -0.30900 4.50200
C -1.77300 0.96400 4.03200
C -1.15500 1.16800 2.66000
C -3.26300 0.68500 3.86300
C 0.34500 0.11000 5.29900
C 0.12400 0.39700 6.78700
H 1.16800 0.03300 7.73300
N -0.18500 1.96100 -0.15200
C -0.70300 2.80000 0.77700
C -0.62000 4.15600 0.19300
C -0.18700 4.01500 -1.22500
C -0.21400 2.58300 -1.38000
C -0.88700 5.40600 0.97400
C 0.18100 5.01300 -2.27700
O 0.30300 4.69000 -3.50800
C 0.31000 6.41400 -1.83700
N -0.26500 -0.41300 -2.02900
C -0.27900 0.56900 -2.93700
C -0.19600 0.02400 -4.33200
C 0.12400 -1.53300 -4.18000
C 0.08600 -1.63200 -2.63500
C -1.45100 0.20500 -5.19700
C 1.37300 -2.07000 -4.92300
C 2.62600 -1.49000 -4.30600
N 0.15000 -2.14400 0.30300
C 0.17300 -3.13600 -0.68800
C 0.17300 -4.43800 0.00400
C 0.13300 -4.11100 1.35800
C 0.08300 -2.69500 1.50200
C 0.14900 -5.71500 -0.62300
C 0.09600 -4.62900 2.71600
O 0.20800 -5.74700 3.22100
C -0.25500 -3.42800 3.70100
C 0.71700 -3.48200 4.84800
O 1.93100 -3.25500 4.66900
O 0.03800 -3.55600 6.00300
C 0.94300 -3.58300 7.18300
H -1.85900 3.22000 2.49700
H -0.21800 2.45300 -3.47400
H 0.27600 -3.74700 -2.60500
H -1.55400 -0.94900 5.13200
H -1.58500 1.83100 4.66500
H -3.48400 -0.37700 3.96900
H -3.51100 1.02700 2.85800
H -3.85200 1.30100 4.54300
H 0.66900 1.09600 4.96600
H 1.13000 -0.63900 5.18900
H -0.84400 0.02600 7.12500
H 0.06200 1.47700 6.92100
H -1.34400 5.18600 1.93800
H -1.65100 5.96300 0.43200
H 0.00700 6.02000 1.08400
H -0.63500 6.74400 -1.40500
H 0.66500 6.97000 -2.70400
H 1.04800 6.46600 -1.03600
H 0.60800 0.50100 -4.89100
H -0.69200 -2.15600 -4.54700
H -1.26700 0.74000 -6.12900
H -2.20400 0.71400 -4.59600
H -1.96700 -0.72000 -5.45300
H 1.35600 -1.75900 -5.96700
H 1.45200 -3.15700 -4.90200
H 2.71400 -0.52200 -4.79800
H 3.48700 -2.12100 -4.52900
H 2.49500 -1.30300 -3.24000
H 0.86700 -6.33300 -0.08400
H 0.40400 -5.64200 -1.68000
H -0.89100 -5.99900 -0.46300
H -1.28300 -3.58100 4.02800
H 0.69800 -4.47800 7.75500
H 0.83300 -2.61900 7.68000
H 2.00000 -3.75400 6.97600
Mg 8.93120 0.81266 0.68449
C 11.11838 0.49601 3.51204
C 6.32053 0.51529 2.85948
C 6.99288 0.63635 -1.82136
C 11.63871 -0.05433 -1.33131
N 8.85659 0.54548 2.87887
C 9.75034 0.50074 3.85537
C 9.14454 0.53970 5.28403
C 7.68304 -0.03064 4.94113
C 7.59087 0.39708 3.47783
C 7.59920 -1.54677 5.00177
C 9.07147 1.99632 5.86276
C 8.78049 2.07845 7.36287
H 9.41337 3.14243 8.13741
N 6.97095 1.09409 0.55484
C 6.06140 0.95158 1.54159
C 4.75659 1.25293 0.93263
C 4.95121 1.42419 -0.53281
C 6.33944 1.02903 -0.66232
C 3.50354 1.43088 1.73985
C 4.03540 1.85797 -1.63704
O 4.34880 1.70605 -2.87054
C 2.72189 2.37994 -1.23241
N 9.20700 0.15311 -1.26776
C 8.21466 0.23385 -2.17145
C 8.72393 -0.03894 -3.56666
C 10.31769 -0.08196 -3.44151
C 10.45631 0.09237 -1.91318
C 8.22947 -1.33217 -4.21431
C 11.12243 0.86842 -4.36986
C 10.87662 2.30661 -3.97416
N 11.04715 0.48827 0.97699
C 11.99454 0.10726 0.00161
C 13.27913 -0.10162 0.70061
C 12.98220 0.15201 2.04820
C 11.60485 0.47508 2.18251
C 14.49686 -0.52208 0.09523
C 13.51834 0.20954 3.38907
O 14.64272 0.11626 3.87979
C 12.30739 0.31136 4.41358
C 12.61986 1.40797 5.39455
O 12.69686 2.59048 5.01725
O 12.56113 0.91162 6.64377
C 12.85297 1.96429 7.65300
H 5.43911 0.20499 3.42136
H 6.39316 0.66640 -2.73400
H 12.55265 -0.23037 -1.90261
H 9.63570 -0.10450 6.00343
H 6.91706 0.46469 5.53214
H 8.56883 -1.99826 5.15046
H 7.17908 -1.85631 4.05375
H 6.87897 -1.85424 5.76535
H 8.17498 2.49310 5.47001
H 9.96791 2.54093 5.63821
H 8.91086 1.11037 7.86164
H 7.72115 2.30945 7.49874
H 3.63657 1.08192 2.77132
H 2.75289 0.75343 1.31860
H 3.11909 2.45234 1.70119
H 2.19366 1.62260 -0.65806
H 2.24626 2.72066 -2.15413
H 2.87577 3.23289 -0.56203
H 8.44597 0.76014 -4.24291
H 10.71855 -1.07764 -3.68187
H 7.71720 -1.16802 -5.18111
H 7.57258 -1.83401 -3.51631
H 8.99736 -2.08362 -4.39000
H 10.78041 0.76794 -5.40286
H 12.19011 0.67603 -4.36398
H 9.93765 2.54538 -4.48248
H 11.68711 2.94365 -4.32250
H 10.69904 2.39328 -2.89592
H 15.28203 0.09171 0.51625
H 14.45549 -0.42829 -0.98794
H 14.52358 -1.56689 0.41606
H 12.20893 -0.65892 4.90188
H 13.68094 1.59717 8.26731
H 11.89295 2.16011 8.16659
H 13.25610 2.90423 7.29460
