79

Mg 8.92994 0.80857 0.68739
C 6.64683 -1.78689 1.65178
C 6.23207 2.87945 0.42752
C 10.84948 2.98543 -0.59482
C 11.23309 -1.69279 -0.07709
N 6.76957 0.47335 1.02308
C 6.02574 -0.53715 1.44727
C 4.54696 -0.16814 1.74156
C 4.42653 1.11977 0.78990
C 5.89313 1.54558 0.76812
C 4.00634 0.78117 -0.63071
C 4.31259 0.20626 3.24719
C 2.84393 0.27671 3.67125
H 2.48729 -0.15586 5.01964
N 8.69260 2.76804 0.48077
C 7.52640 3.44418 0.41666
C 7.89057 4.85880 0.24237
C 9.36302 4.94306 0.04358
C 9.69675 3.53623 -0.05410
C 6.89328 5.97533 0.35274
C 10.31174 6.09896 -0.05651
O 11.51626 5.94777 -0.46774
C 9.76177 7.42708 0.25188
N 10.69342 0.66557 -0.40442
C 11.35495 1.76845 -0.79678
C 12.72795 1.42303 -1.32208
C 12.94440 -0.12297 -0.97481
C 11.56291 -0.44040 -0.36154
C 12.94200 1.64282 -2.81950
C 14.21601 -0.49036 -0.16196
C 14.11384 0.07116 1.23791
N 9.03662 -1.33534 0.93303
C 10.08126 -2.19043 0.51877
C 9.64823 -3.57460 0.79981
C 8.36207 -3.42898 1.34117
C 8.00975 -2.05268 1.37512
C 10.39113 -4.75370 0.51009
C 7.21809 -4.12736 1.88180
O 6.97440 -5.29629 2.17835
C 6.00630 -3.10448 1.98990
C 5.39169 -3.25502 3.35449
O 6.03527 -2.95173 4.37450
O 4.08010 -3.52328 3.21986
C 3.42421 -3.67037 4.54651
H 5.43725 3.54823 0.09605
H 11.59300 3.70268 -0.95007
H 11.93340 -2.52229 -0.19608
H 3.82387 -0.91847 1.44504
H 3.81209 1.89174 1.24586
H 3.97251 -0.28521 -0.79750
H 4.74518 1.24142 -1.27362
H 3.05555 1.26676 -0.86846
H 4.60428 1.25248 3.40559
H 4.84362 -0.46495 3.89381
H 2.17864 -0.18438 2.93117
H 2.53807 1.32558 3.68993
H 5.86344 5.59767 0.33877
H 6.97681 6.57039 -0.56311
H 7.07884 6.62236 1.21274
H 8.93001 7.63754 -0.41621
H 10.61136 8.11156 0.21234
H 9.35237 7.40886 1.26808
H 13.49142 2.00587 -0.82155
H 13.03318 -0.73617 -1.88362
H 13.78635 2.32136 -3.04475
H 12.02304 2.02572 -3.24308
H 13.10434 0.73670 -3.40070
H 15.09993 -0.03502 -0.61527
H 14.39786 -1.55832 -0.10377
H 14.44744 1.10575 1.11375
H 14.76478 -0.47453 1.91800
H 13.07132 0.09925 1.57557
H 10.30083 -5.39872 1.37397
H 11.43193 -4.52416 0.29141
H 9.85492 -5.10986 -0.37359
H 5.30091 -3.34700 1.19417
H 2.93679 -4.65018 4.55506
H 2.77322 -2.78293 4.65796
H 4.06534 -3.74549 5.41700
