79

Mg 31.53256 2.83880 2.39533
C 31.62755 -0.72744 2.68704
C 30.39932 2.92295 5.61274
C 31.00876 5.94323 2.01480
C 31.57095 2.40936 -1.06296
N 31.10936 1.23446 3.86081
C 31.24430 -0.08801 3.86809
C 31.01311 -0.72491 5.27104
C 30.10339 0.41370 5.91757
C 30.59003 1.60249 5.10771
C 28.61228 0.22149 5.66042
C 32.34876 -0.91169 6.06658
C 32.25459 -1.81712 7.29812
H 33.38870 -2.66547 7.63196
N 31.28203 4.26943 3.73451
C 30.82716 4.12162 5.00200
C 30.82093 5.47692 5.59343
C 31.12852 6.44867 4.50753
C 31.12621 5.58384 3.35538
C 30.59162 5.73777 7.05053
C 31.37365 7.92449 4.50676
O 31.39329 8.61015 3.42784
C 31.50393 8.56947 5.82588
N 31.09768 4.01112 0.72374
C 30.97585 5.33922 0.82512
C 30.94790 5.98970 -0.52619
C 31.32198 4.84556 -1.57537
C 31.42550 3.65115 -0.59510
C 29.61591 6.63678 -0.93004
C 32.51322 5.12514 -2.52574
C 33.80051 5.17658 -1.73369
N 31.76671 1.17077 1.02643
C 31.72731 1.21790 -0.37460
C 31.82441 -0.17221 -0.85650
C 31.89735 -0.93773 0.30561
C 31.82244 -0.08226 1.44177
C 31.77855 -0.58790 -2.21648
C 31.99633 -2.28142 0.85202
O 32.18322 -3.40079 0.37288
C 31.70302 -2.20938 2.41555
C 32.77516 -2.99885 3.11595
O 33.96165 -2.61211 3.10978
O 32.20482 -3.94638 3.87584
C 33.21249 -4.74709 4.62124
H 29.81936 3.05952 6.52758
H 30.93775 7.01810 1.83580
H 31.67419 2.20479 -2.13018
H 30.47158 -1.67094 5.25706
H 30.32409 0.55955 6.97481
H 28.43030 -0.59747 4.96464
H 28.26596 1.16462 5.23724
H 28.07035 0.09697 6.59828
H 32.61494 0.02927 6.54803
H 33.14056 -1.27590 5.41104
H 31.33116 -2.39693 7.29687
H 32.17587 -1.18423 8.18212
H 30.22908 4.84837 7.56440
H 29.76736 6.44722 7.12113
H 31.47506 6.15101 7.53746
H 30.59300 8.40065 6.40056
H 31.76460 9.60860 5.62809
H 32.30919 8.08422 6.37818
H 31.68537 6.78869 -0.59091
H 30.49337 4.61968 -2.24697
H 29.70107 7.69452 -1.18030
H 28.90650 6.48307 -0.11740
H 29.10406 6.14966 -1.75959
H 32.39422 6.09491 -3.00774
H 32.62297 4.37617 -3.31012
H 33.81794 6.20113 -1.36378
H 34.65466 4.98132 -2.38293
H 33.76075 4.51756 -0.86617
H 32.55838 -1.34058 -2.33184
H 31.93558 0.25207 -2.89279
H 30.76512 -0.98503 -2.27218
H 30.71301 -2.63776 2.56882
H 33.04396 -5.79329 4.36570
H 33.12168 -4.46127 5.66932
H 34.25085 -4.62424 4.31133
