79

Mg 15.77267 1.41602 1.20541
C 13.37164 0.48313 3.70418
C 17.03753 3.63735 3.46383
C 17.60481 2.57587 -1.11093
C 13.64993 -0.00421 -1.16579
N 15.19421 1.90455 3.28363
C 14.30539 1.44178 4.14976
C 14.47498 1.98099 5.59547
C 15.24900 3.34591 5.25379
C 15.90025 2.93406 3.93510
C 14.31656 4.51457 4.98149
C 15.34981 1.03259 6.48835
C 15.30160 1.33561 7.98755
H 15.36385 0.21837 8.92583
N 17.41874 2.52048 1.30125
C 17.78621 3.34814 2.30186
C 19.06530 3.94223 1.88333
C 19.34083 3.52341 0.48213
C 18.09478 2.85948 0.15558
C 19.92958 4.74837 2.80885
C 20.52439 3.70328 -0.41956
O 20.45508 3.46556 -1.67715
C 21.74005 4.25481 0.19646
N 15.55314 1.49406 -0.86051
C 16.52226 2.00525 -1.63989
C 16.26508 1.70542 -3.09740
C 15.04286 0.67418 -3.11473
C 14.73353 0.62295 -1.60242
C 15.92641 2.91038 -3.97476
C 15.26278 -0.66519 -3.86999
C 16.29067 -1.50376 -3.14500
N 13.95052 0.25576 1.24557
C 13.21414 -0.21454 0.13622
C 11.99082 -0.85240 0.66447
C 12.08996 -0.68730 2.05422
C 13.28038 0.02237 2.36847
C 10.95317 -1.43549 -0.11617
C 11.45300 -0.94267 3.32613
O 10.46560 -1.57969 3.69081
C 12.19158 -0.08537 4.44234
C 12.46649 -0.98710 5.61444
O 13.25444 -1.94304 5.50530
O 11.92631 -0.44704 6.72210
C 12.18198 -1.29967 7.91352
H 17.36490 4.52121 4.01200
H 18.25523 2.85782 -1.94215
H 12.98596 -0.55653 -1.83419
H 13.54720 2.19866 6.11086
H 16.00701 3.56770 6.00050
H 13.28251 4.20529 4.94660
H 14.62300 4.91886 4.02562
H 14.48532 5.30987 5.71316
H 16.41075 1.23239 6.29030
H 15.09231 0.00517 6.31889
H 14.47495 2.00864 8.24568
H 16.19903 1.89779 8.25699
H 19.38991 5.02731 3.72228
H 20.12969 5.70255 2.30950
H 20.88050 4.25907 3.03021
H 21.51664 5.22741 0.62842
H 22.50247 4.22545 -0.58439
H 22.03865 3.60339 1.02537
H 17.12777 1.23561 -3.55365
H 14.15511 1.10265 -3.60273
H 16.61088 3.02949 -4.83580
H 15.93672 3.79732 -3.35527
H 14.91414 2.92007 -4.37527
H 15.66509 -0.47547 -4.86814
H 14.35449 -1.24542 -3.99379
H 17.24003 -1.09999 -3.50940
H 16.18195 -2.55424 -3.40714
H 16.25078 -1.32743 -2.06382
H 10.68659 -2.36661 0.36597
H 11.27136 -1.59605 -1.14415
H 10.19014 -0.65627 -0.03960
H 11.53341 0.74266 4.70837
H 11.20870 -1.52314 8.36126
H 12.90463 -0.73705 8.53399
H 12.56996 -2.29695 7.74220
