158

Mg 0.00000 0.00000 0.00000
C -0.21700 -2.21800 2.80100
C -1.25500 2.44200 2.02600
C -0.24500 1.85000 -2.56400
C 0.14600 -2.82400 -2.03700
N -0.61700 -0.00900 2.12600
C -0.59400 -0.90800 3.10500
C -0.93600 -0.30900 4.50200
C -1.77300 0.96400 4.03200
C -1.15500 1.16800 2.66000
C -3.26300 0.68500 3.86300
C 0.34500 0.11000 5.29900
C 0.12400 0.39700 6.78700
H 1.16800 0.03300 7.73300
N -0.18500 1.96100 -0.15200
C -0.70300 2.80000 0.77700
C -0.62000 4.15600 0.19300
C -0.18700 4.01500 -1.22500
C -0.21400 2.58300 -1.38000
C -0.88700 5.40600 0.97400
C 0.18100 5.01300 -2.27700
O 0.30300 4.69000 -3.50800
C 0.31000 6.41400 -1.83700
N -0.26500 -0.41300 -2.02900
C -0.27900 0.56900 -2.93700
C -0.19600 0.02400 -4.33200
C 0.12400 -1.53300 -4.18000
C 0.08600 -1.63200 -2.63500
C -1.45100 0.20500 -5.19700
C 1.37300 -2.07000 -4.92300
C 2.62600 -1.49000 -4.30600
N 0.15000 -2.14400 0.30300
C 0.17300 -3.13600 -0.68800
C 0.17300 -4.43800 0.00400
C 0.13300 -4.11100 1.35800
C 0.08300 -2.69500 1.50200
C 0.14900 -5.71500 -0.62300
C 0.09600 -4.62900 2.71600
O 0.20800 -5.74700 3.22100
C -0.25500 -3.42800 3.70100
C 0.71700 -3.48200 4.84800
O 1.93100 -3.25500 4.66900
O 0.03800 -3.55600 6.00300
C 0.94300 -3.58300 7.18300
H -1.85900 3.22000 2.49700
H -0.21800 2.45300 -3.47400
H 0.27600 -3.74700 -2.60500
H -1.55400 -0.94900 5.13200
H -1.58500 1.83100 4.66500
H -3.48400 -0.37700 3.96900
H -3.51100 1.02700 2.85800
H -3.85200 1.30100 4.54300
H 0.66900 1.09600 4.96600
H 1.13000 -0.63900 5.18900
H -0.84400 0.02600 7.12500
H 0.06200 1.47700 6.92100
H -1.34400 5.18600 1.93800
H -1.65100 5.96300 0.43200
H 0.00700 6.02000 1.08400
H -0.63500 6.74400 -1.40500
H 0.66500 6.97000 -2.70400
H 1.04800 6.46600 -1.03600
H 0.60800 0.50100 -4.89100
H -0.69200 -2.15600 -4.54700
H -1.26700 0.74000 -6.12900
H -2.20400 0.71400 -4.59600
H -1.96700 -0.72000 -5.45300
H 1.35600 -1.75900 -5.96700
H 1.45200 -3.15700 -4.90200
H 2.71400 -0.52200 -4.79800
H 3.48700 -2.12100 -4.52900
H 2.49500 -1.30300 -3.24000
H 0.86700 -6.33300 -0.08400
H 0.40400 -5.64200 -1.68000
H -0.89100 -5.99900 -0.46300
H -1.28300 -3.58100 4.02800
H 0.69800 -4.47800 7.75500
H 0.83300 -2.61900 7.68000
H 2.00000 -3.75400 6.97600
Mg 15.76691 1.41209 1.20531
C 13.26740 2.60142 3.48939
C 18.03248 1.77546 3.72915
C 18.06098 0.80081 -0.89969
C 13.58435 2.22291 -1.38790
N 15.55572 2.10673 3.29460
C 14.54662 2.47431 4.06981
C 14.91473 2.64191 5.56846
C 16.48750 2.91933 5.40018
C 16.72335 2.19436 4.07676
C 16.82199 4.38894 5.20596
C 14.64712 1.33793 6.39913
C 14.69058 1.52250 7.91762
H 13.77420 0.73804 8.74063
N 17.64589 0.83741 1.48414
C 18.40750 1.04828 2.57811
C 19.71711 0.44899 2.27821
C 19.71844 0.01241 0.85550
C 18.45489 0.56415 0.40927
C 20.78470 0.26454 3.31727
C 20.70099 -0.76123 0.02949
O 20.60767 -0.82080 -1.24745
C 21.82853 -1.36939 0.75081
N 15.90599 1.69294 -0.84996
C 16.99389 1.29141 -1.53053
C 16.75512 1.34360 -3.02071
C 15.19235 1.63482 -3.19547
C 14.79746 1.79619 -1.71108
C 17.55730 2.39546 -3.78653
C 14.38438 0.63830 -4.07114
C 14.31562 -0.70933 -3.38957
N 13.71929 2.08339 1.04827
C 13.00962 2.38742 -0.13410
C 11.69016 2.91258 0.27292
C 11.73273 2.89912 1.67524
C 12.99742 2.41973 2.11140
C 10.66852 3.36809 -0.60734
C 10.99926 3.19143 2.88573
O 9.84710 3.53970 3.14065
C 12.00635 3.13086 4.11393
C 11.36516 2.31170 5.20039
O 11.14261 1.10000 5.03051
O 11.32025 3.03843 6.33186
C 10.70250 2.26471 7.44161
H 18.85958 2.06646 4.37731
H 18.77680 0.50178 -1.66888
H 12.81105 2.40581 -2.13704
H 14.43977 3.48147 6.06175
H 17.05863 2.45186 6.19809
H 15.93380 4.99298 5.09462
H 17.42698 4.43701 4.31001
H 17.46137 4.74088 6.02061
H 15.49299 0.65065 6.26911
H 13.71417 0.89060 6.11604
H 14.65597 2.58028 8.20543
H 15.66140 1.17736 8.28149
H 20.56040 0.83112 4.22945
H 21.69580 0.72975 2.92569
H 20.98823 -0.78713 3.52999
H 22.38721 -0.59304 1.26811
H 22.37123 -1.95385 0.00532
H 21.43053 -2.03790 1.52237
H 16.98929 0.39273 -3.48342
H 15.01036 2.60707 -3.67655
H 18.17296 1.96778 -4.60023
H 18.17847 2.93130 -3.08115
H 16.96610 3.19582 -4.22824
H 14.89001 0.47750 -5.02646
H 13.37745 0.97603 -4.29256
H 15.26480 -1.17609 -3.66934
H 13.46898 -1.28348 -3.76053
H 14.31135 -0.59902 -2.29894
H 9.73484 2.96937 -0.23349
H 10.85547 3.05113 -1.63124
H 10.77480 4.44947 -0.48651
H 12.19643 4.15647 4.43261
H 9.86761 2.86177 7.82129
H 11.52591 2.04442 8.14674
H 10.20155 1.33774 7.18814
