79

Mg 31.53256 2.83880 2.39533
C 31.47196 -0.26158 4.18312
C 30.30405 4.31726 5.21454
C 31.14873 5.49407 0.70452
C 31.66101 0.97139 -0.54439
N 30.99841 2.02551 4.38377
C 31.07867 0.83030 4.96014
C 30.77794 0.86000 6.48855
C 29.89602 2.18700 6.54584
C 30.45604 2.90352 5.32974
C 28.40701 1.93887 6.32728
C 32.07936 0.99950 7.34795
C 31.90979 0.70998 8.84220
H 32.99717 0.05904 9.55720
N 31.29936 4.71012 2.98408
C 30.79954 5.12923 4.17144
C 30.83052 6.60701 4.12789
C 31.21142 7.01363 2.74671
C 31.20951 5.73960 2.07424
C 30.56683 7.47110 5.32269
C 31.51682 8.34117 2.12823
O 31.59819 8.49910 0.86213
C 31.63231 9.48486 3.05110
N 31.19846 3.19398 0.36558
C 31.12814 4.44043 -0.11441
C 31.16903 4.45125 -1.61380
C 31.52833 2.95986 -2.05700
C 31.55215 2.29706 -0.65757
C 29.87795 4.89508 -2.31532
C 32.75907 2.77788 -2.98035
C 34.02208 3.13232 -2.22784
N 31.74058 0.74062 1.88016
C 31.74682 0.18521 0.59246
C 31.80175 -1.27936 0.75397
C 31.80696 -1.47609 2.13350
C 31.73187 -0.21552 2.79198
C 31.78126 -2.23531 -0.29968
C 31.83364 -2.45915 3.20436
O 31.98926 -3.68001 3.25706
C 31.49497 -1.71867 4.57286
C 32.51146 -2.15821 5.59113
O 33.71244 -1.83960 5.47495
O 31.87931 -2.67607 6.65543
C 32.82955 -3.10500 7.71619
H 29.70195 4.84558 5.95637
H 31.12751 6.39060 0.08145
H 31.78897 0.32783 -1.41669
H 30.19873 0.01198 6.85436
H 30.08947 2.76552 7.44895
H 28.21334 0.90566 6.03938
H 28.11305 2.61851 5.52717
H 27.83148 2.24017 7.20293
H 32.36881 2.04933 7.39406
H 32.87558 0.37127 6.94709
H 30.96383 0.20745 9.04598
H 31.82961 1.66171 9.36755
H 30.15225 6.89565 6.14946
H 29.77058 8.16203 5.04645
H 31.45089 8.03167 5.62688
H 30.69775 9.59965 3.60063
H 31.94144 10.33316 2.44146
H 32.39937 9.26328 3.79371
H 31.94032 5.12807 -1.97909
H 30.71247 2.48835 -2.60538
H 30.01420 5.74195 -2.98834
H 29.13785 5.12046 -1.54803
H 29.37262 4.11243 -2.88059
H 32.69505 3.45104 -3.83457
H 32.86237 1.76310 -3.36480
H 34.07002 4.21593 -2.32949
H 34.88731 2.65798 -2.69216
H 33.92830 2.90857 -1.16501
H 32.53275 -2.98339 -0.04748
H 31.99363 -1.76909 -1.26152
H 30.75461 -2.59389 -0.22706
H 30.48391 -2.01670 4.84867
H 32.62627 -4.15569 7.92349
H 32.71794 -2.39650 8.53715
H 33.88123 -3.15119 7.43128
