158

Mg 0.00000 0.00000 0.00000
C -0.21700 -2.21800 2.80100
C -1.25500 2.44200 2.02600
C -0.24500 1.85000 -2.56400
C 0.14600 -2.82400 -2.03700
N -0.61700 -0.00900 2.12600
C -0.59400 -0.90800 3.10500
C -0.93600 -0.30900 4.50200
C -1.77300 0.96400 4.03200
C -1.15500 1.16800 2.66000
C -3.26300 0.68500 3.86300
C 0.34500 0.11000 5.29900
C 0.12400 0.39700 6.78700
H 1.16800 0.03300 7.73300
N -0.18500 1.96100 -0.15200
C -0.70300 2.80000 0.77700
C -0.62000 4.15600 0.19300
C -0.18700 4.01500 -1.22500
C -0.21400 2.58300 -1.38000
C -0.88700 5.40600 0.97400
C 0.18100 5.01300 -2.27700
O 0.30300 4.69000 -3.50800
C 0.31000 6.41400 -1.83700
N -0.26500 -0.41300 -2.02900
C -0.27900 0.56900 -2.93700
C -0.19600 0.02400 -4.33200
C 0.12400 -1.53300 -4.18000
C 0.08600 -1.63200 -2.63500
C -1.45100 0.20500 -5.19700
C 1.37300 -2.07000 -4.92300
C 2.62600 -1.49000 -4.30600
N 0.15000 -2.14400 0.30300
C 0.17300 -3.13600 -0.68800
C 0.17300 -4.43800 0.00400
C 0.13300 -4.11100 1.35800
C 0.08300 -2.69500 1.50200
C 0.14900 -5.71500 -0.62300
C 0.09600 -4.62900 2.71600
O 0.20800 -5.74700 3.22100
C -0.25500 -3.42800 3.70100
C 0.71700 -3.48200 4.84800
O 1.93100 -3.25500 4.66900
O 0.03800 -3.55600 6.00300
C 0.94300 -3.58300 7.18300
H -1.85900 3.22000 2.49700
H -0.21800 2.45300 -3.47400
H 0.27600 -3.74700 -2.60500
H -1.55400 -0.94900 5.13200
H -1.58500 1.83100 4.66500
H -3.48400 -0.37700 3.96900
H -3.51100 1.02700 2.85800
H -3.85200 1.30100 4.54300
H 0.66900 1.09600 4.96600
H 1.13000 -0.63900 5.18900
H -0.84400 0.02600 7.12500
H 0.06200 1.47700 6.92100
H -1.34400 5.18600 1.93800
H -1.65100 5.96300 0.43200
H 0.00700 6.02000 1.08400
H -0.63500 6.74400 -1.40500
H 0.66500 6.97000 -2.70400
H 1.04800 6.46600 -1.03600
H 0.60800 0.50100 -4.89100
H -0.69200 -2.15600 -4.54700
H -1.26700 0.74000 -6.12900
H -2.20400 0.71400 -4.59600
H -1.96700 -0.72000 -5.45300
H 1.35600 -1.75900 -5.96700
H 1.45200 -3.15700 -4.90200
H 2.71400 -0.52200 -4.79800
H 3.48700 -2.12100 -4.52900
H 2.49500 -1.30300 -3.24000
H 0.86700 -6.33300 -0.08400
H 0.40400 -5.64200 -1.68000
H -0.89100 -5.99900 -0.46300
H -1.28300 -3.58100 4.02800
H 0.69800 -4.47800 7.75500
H 0.83300 -2.61900 7.68000
H 2.00000 -3.75400 6.97600
Mg 13.14603 1.18438 1.00542
C 11.86162 -0.80562 3.70157
C 12.94908 3.87353 3.09450
C 13.84520 3.03642 -1.47421
C 12.17402 -1.36905 -1.15812
N 12.47648 1.38166 3.10423
C 12.06783 0.54619 4.04729
C 11.94591 1.17977 5.45912
C 11.75150 2.71192 5.01913
C 12.46566 2.67122 3.66969
C 10.29914 3.08965 4.77969
C 13.24734 0.98851 6.31452
C 13.09118 1.30741 7.80303
H 13.83856 0.50642 8.76860
N 13.82654 3.04769 0.94567
C 13.67593 3.99967 1.89030
C 14.34028 5.20063 1.36069
C 14.75210 4.92830 -0.04322
C 14.12507 3.63935 -0.25655
C 14.60003 6.42146 2.19467
C 15.56383 5.70587 -1.03452
O 15.59659 5.38729 -2.27560
C 16.24447 6.90609 -0.52690
N 12.83834 0.97723 -1.04025
C 13.28675 1.90481 -1.90423
C 13.19640 1.41224 -3.32887
C 12.81783 -0.13802 -3.22426
C 12.66045 -0.25727 -1.69246
C 12.17682 2.12608 -4.21615
C 13.75401 -1.14172 -3.95147
C 15.10728 -1.16608 -3.27809
N 12.36196 -0.81792 1.21538
C 11.99982 -1.70526 0.17829
C 11.41076 -2.90134 0.81455
C 11.45030 -2.61483 2.18745
C 12.00498 -1.32243 2.39118
C 10.88558 -4.03392 0.13076
C 11.13915 -3.10744 3.51003
O 10.73321 -4.17568 3.96590
C 11.27515 -1.90599 4.54173
C 12.07658 -2.39232 5.71804
O 13.27135 -2.70920 5.58122
O 11.36778 -2.19743 6.84498
C 12.12552 -2.65408 8.04043
H 12.71445 4.81639 3.58933
H 14.16957 3.58853 -2.35933
H 11.93672 -2.24996 -1.75842
H 11.09029 0.84663 6.03418
H 12.26275 3.38658 5.70091
H 9.64595 2.23122 4.83046
H 10.26881 3.53024 3.79176
H 9.99631 3.88058 5.47184
H 13.97723 1.75841 6.03299
H 13.63847 -0.00332 6.19655
H 12.03811 1.38346 8.10002
H 13.49465 2.30587 7.98820
H 14.03765 6.39261 3.13610
H 14.17841 7.27475 1.65245
H 15.66465 6.59939 2.36078
H 15.50849 7.58961 -0.11025
H 16.84482 7.27609 -1.36031
H 16.90337 6.61219 0.29777
H 14.15061 1.50777 -3.83233
H 11.82911 -0.34624 -3.65890
H 12.62345 2.56470 -5.12841
H 11.68755 2.89036 -3.62706
H 11.33817 1.51283 -4.54139
H 13.92580 -0.82098 -4.98189
H 13.35839 -2.15116 -3.99011
H 15.62008 -0.30838 -3.72361
H 15.62823 -2.09560 -3.49864
H 15.01541 -0.97316 -2.20292
H 11.23930 -4.90874 0.65997
H 11.19482 -4.04724 -0.91230
H 9.81378 -3.84726 0.23878
H 10.26692 -1.60549 4.82939
H 11.49053 -3.37459 8.56516
H 12.40212 -1.73373 8.58833
H 13.01948 -3.24316 7.87228
