79

Mg 7.87449 0.71023 0.60493
C 8.93116 3.09007 3.07452
C 7.44254 -1.51683 3.15212
C 7.37338 -1.53748 -1.57776
C 9.45034 2.69861 -1.78437
N 8.18002 0.88254 2.78878
C 8.52516 1.85432 3.61997
C 8.35301 1.50656 5.12296
C 8.44372 -0.09289 5.01162
C 7.95937 -0.26566 3.57349
C 9.86494 -0.62295 5.10389
C 6.96254 1.96515 5.68713
C 6.84670 1.93739 7.21276
H 6.04999 2.97025 7.86921
N 7.01024 -1.06878 0.76846
C 6.90449 -1.82272 1.88276
C 6.20308 -3.04938 1.47349
C 6.04958 -3.03032 -0.00664
C 6.84081 -1.86251 -0.33869
C 5.68230 -4.05591 2.45792
C 5.32283 -3.92364 -0.96581
O 5.52087 -3.85663 -2.23038
C 4.44255 -4.94206 -0.37471
N 8.52074 0.48181 -1.35786
C 8.11398 -0.56111 -2.10268
C 8.48088 -0.37025 -3.55504
C 9.00719 1.13546 -3.67091
C 8.93414 1.54425 -2.18331
C 9.54205 -1.32367 -4.10394
C 8.31355 2.04451 -4.72218
C 6.88236 2.30790 -4.31267
N 8.83211 2.64682 0.57946
C 9.44845 3.27918 -0.52250
C 10.05868 4.52815 -0.02238
C 9.77253 4.52433 1.35116
C 9.05342 3.34559 1.68725
C 10.80661 5.45760 -0.79881
C 9.92449 5.24424 2.59507
O 10.36923 6.34675 2.91194
C 9.49623 4.28628 3.78893
C 8.57861 5.05788 4.69730
O 7.46257 5.43356 4.29738
O 9.07563 5.03620 5.94745
C 8.19460 5.77920 6.88742
H 7.49091 -2.35786 3.84437
H 7.13314 -2.22751 -2.38993
H 9.87483 3.42129 -2.48453
H 9.13915 1.87953 5.76845
H 7.76035 -0.57647 5.70481
H 10.59280 0.17474 5.11064
H 10.00128 -1.25217 4.23410
H 9.96604 -1.28164 5.97121
H 6.20544 1.21405 5.42752
H 6.70676 2.94117 5.32301
H 7.82510 1.83989 7.69873
H 6.31137 1.03030 7.50368
H 6.08948 -3.88446 3.46202
H 6.08702 -5.03025 2.16342
H 4.59174 -4.11355 2.46436
H 5.02388 -5.58444 0.28246
H 3.94346 -5.42234 -1.21858
H 3.69880 -4.43951 0.25370
H 7.61299 -0.48915 -4.19201
H 10.06879 1.17522 -3.95596
H 9.19863 -1.89866 -4.98457
H 9.84525 -1.99138 -3.30847
H 10.48393 -0.85475 -4.38355
H 8.27143 1.53971 -5.69045
H 8.81936 2.99207 -4.87473
H 6.35437 1.42148 -4.67677
H 6.50842 3.21280 -4.78740
H 6.78229 2.32605 -3.22120
H 10.47294 6.44509 -0.50891
H 10.66848 5.28737 -1.86451
H 11.82087 5.21302 -0.47213
H 10.40730 3.97117 4.29906
H 8.81490 6.53781 7.37468
H 7.73541 5.01065 7.53721
H 7.40876 6.39107 6.46020
