158

Mg 0.00000 0.00000 0.00000
C -0.21700 -2.21800 2.80100
C -1.25500 2.44200 2.02600
C -0.24500 1.85000 -2.56400
C 0.14600 -2.82400 -2.03700
N -0.61700 -0.00900 2.12600
C -0.59400 -0.90800 3.10500
C -0.93600 -0.30900 4.50200
C -1.77300 0.96400 4.03200
C -1.15500 1.16800 2.66000
C -3.26300 0.68500 3.86300
C 0.34500 0.11000 5.29900
C 0.12400 0.39700 6.78700
H 1.16800 0.03300 7.73300
N -0.18500 1.96100 -0.15200
C -0.70300 2.80000 0.77700
C -0.62000 4.15600 0.19300
C -0.18700 4.01500 -1.22500
C -0.21400 2.58300 -1.38000
C -0.88700 5.40600 0.97400
C 0.18100 5.01300 -2.27700
O 0.30300 4.69000 -3.50800
C 0.31000 6.41400 -1.83700
N -0.26500 -0.41300 -2.02900
C -0.27900 0.56900 -2.93700
C -0.19600 0.02400 -4.33200
C 0.12400 -1.53300 -4.18000
C 0.08600 -1.63200 -2.63500
C -1.45100 0.20500 -5.19700
C 1.37300 -2.07000 -4.92300
C 2.62600 -1.49000 -4.30600
N 0.15000 -2.14400 0.30300
C 0.17300 -3.13600 -0.68800
C 0.17300 -4.43800 0.00400
C 0.13300 -4.11100 1.35800
C 0.08300 -2.69500 1.50200
C 0.14900 -5.71500 -0.62300
C 0.09600 -4.62900 2.71600
O 0.20800 -5.74700 3.22100
C -0.25500 -3.42800 3.70100
C 0.71700 -3.48200 4.84800
O 1.93100 -3.25500 4.66900
O 0.03800 -3.55600 6.00300
C 0.94300 -3.58300 7.18300
H -1.85900 3.22000 2.49700
H -0.21800 2.45300 -3.47400
H 0.27600 -3.74700 -2.60500
H -1.55400 -0.94900 5.13200
H -1.58500 1.83100 4.66500
H -3.48400 -0.37700 3.96900
H -3.51100 1.02700 2.85800
H -3.85200 1.30100 4.54300
H 0.66900 1.09600 4.96600
H 1.13000 -0.63900 5.18900
H -0.84400 0.02600 7.12500
H 0.06200 1.47700 6.92100
H -1.34400 5.18600 1.93800
H -1.65100 5.96300 0.43200
H 0.00700 6.02000 1.08400
H -0.63500 6.74400 -1.40500
H 0.66500 6.97000 -2.70400
H 1.04800 6.46600 -1.03600
H 0.60800 0.50100 -4.89100
H -0.69200 -2.15600 -4.54700
H -1.26700 0.74000 -6.12900
H -2.20400 0.71400 -4.59600
H -1.96700 -0.72000 -5.45300
H 1.35600 -1.75900 -5.96700
H 1.45200 -3.15700 -4.90200
H 2.71400 -0.52200 -4.79800
H 3.48700 -2.12100 -4.52900
H 2.49500 -1.30300 -3.24000
H 0.86700 -6.33300 -0.08400
H 0.40400 -5.64200 -1.68000
H -0.89100 -5.99900 -0.46300
H -1.28300 -3.58100 4.02800
H 0.69800 -4.47800 7.75500
H 0.83300 -2.61900 7.68000
H 2.00000 -3.75400 6.97600
Mg 15.76640 1.41202 1.20527
C 13.33233 2.74452 3.48097
C 18.03443 1.61916 3.74452
C 18.03067 0.66844 -0.88939
C 13.65549 2.37187 -1.39635
N 15.58619 2.10783 3.29707
C 14.59735 2.53420 4.06828
C 14.96585 2.67060 5.57000
C 16.55398 2.84938 5.41262
C 16.75208 2.11781 4.08664
C 16.98143 4.29600 5.22850
C 14.61155 1.38179 6.39185
C 14.65699 1.55546 7.91157
H 13.68793 0.82600 8.72477
N 17.60374 0.71884 1.49210
C 18.37021 0.87574 2.59173
C 19.64140 0.19680 2.29632
C 19.62421 -0.23170 0.87125
C 18.40069 0.40074 0.42057
C 20.68872 -0.05980 3.34067
C 20.56133 -1.06137 0.04684
O 20.47248 -1.10839 -1.23094
C 21.64384 -1.74296 0.77148
N 15.93578 1.69412 -0.84755
C 17.00053 1.22844 -1.52384
C 16.77488 1.30320 -3.01511
C 15.23465 1.69306 -3.19755
C 14.84137 1.87133 -1.71467
C 17.64642 2.30643 -3.77032
C 14.37113 0.75387 -4.08350
C 14.21347 -0.59025 -3.40980
N 13.76608 2.21163 1.03977
C 13.08437 2.56578 -0.14511
C 11.79802 3.17082 0.25695
C 11.83084 3.14750 1.65940
C 13.06012 2.58726 2.10042
C 10.81260 3.69422 -0.62685
C 11.10961 3.47917 2.86710
O 9.98006 3.89792 3.11708
C 12.10317 3.34904 4.10092
C 11.40492 2.56628 5.17900
O 11.10768 1.37187 5.00111
O 11.39869 3.28857 6.31418
C 10.72654 2.54956 7.41595
H 18.87410 1.85421 4.39918
H 18.73109 0.32892 -1.65595
H 12.89994 2.60691 -2.14907
H 14.54154 3.53584 6.06508
H 17.08955 2.34281 6.21131
H 16.13371 4.95530 5.11522
H 17.59387 4.31052 4.33645
H 17.63655 4.60283 6.04887
H 15.41332 0.64333 6.26308
H 13.65411 0.99551 6.10076
H 14.68716 2.61183 8.20500
H 15.60187 1.14805 8.27930
H 20.49477 0.51508 4.25462
H 21.62972 0.34917 2.95710
H 20.82437 -1.12327 3.54879
H 22.24698 -1.00597 1.29638
H 22.15339 -2.35657 0.02602
H 21.19975 -2.38906 1.53696
H 16.95169 0.34187 -3.48166
H 15.11719 2.67730 -3.67433
H 18.23907 1.84503 -4.58270
H 18.29562 2.79849 -3.05831
H 17.10951 3.14466 -4.21112
H 14.87164 0.56649 -5.03667
H 13.38884 1.15542 -4.30904
H 15.13317 -1.11436 -3.68649
H 13.33476 -1.10807 -3.78896
H 14.20930 -0.48549 -2.31863
H 9.85336 3.35312 -0.26076
H 10.98567 3.37139 -1.65135
H 10.98592 4.76613 -0.49941
H 12.35536 4.35901 4.42638
H 9.92848 3.19601 7.79395
H 11.53003 2.27428 8.12474
H 10.16990 1.65727 7.15439
