79

Mg 8.92967 0.80655 0.66937
C 10.25162 -1.82844 -1.37717
C 10.41165 3.01006 -1.47140
C 8.16538 3.13047 2.68993
C 8.54658 -1.54764 3.21037
N 10.14690 0.50776 -1.15309
C 10.53239 -0.53707 -1.87007
C 11.18925 -0.17709 -3.22967
C 11.68775 1.30662 -2.87054
C 10.66742 1.65190 -1.78778
C 13.07408 1.34179 -2.24909
C 10.15437 -0.16562 -4.40904
C 10.77381 -0.12681 -5.80781
H 10.10701 -0.85351 -6.88473
N 8.81188 2.76731 0.38636
C 9.46429 3.49589 -0.54360
C 9.05280 4.89096 -0.32316
C 8.23223 4.94759 0.91708
C 8.39219 3.59106 1.40115
C 9.37344 5.99595 -1.28732
C 7.44555 6.04505 1.56741
O 7.00421 5.93798 2.76599
C 7.28716 7.28520 0.79384
N 8.62612 0.84382 2.72577
C 8.25036 1.97458 3.34874
C 7.82610 1.69842 4.77146
C 7.76500 0.10552 4.90005
C 8.27302 -0.28155 3.49382
C 8.73998 2.26188 5.85945
C 6.42859 -0.50957 5.39838
C 5.34586 -0.29778 4.36482
N 9.14273 -1.33591 0.84979
C 8.95829 -2.11657 2.01196
C 9.32922 -3.50445 1.66755
C 9.72882 -3.43011 0.32468
C 9.63419 -2.08688 -0.12948
C 9.31754 -4.61423 2.55883
C 10.21929 -4.18066 -0.80881
O 10.41051 -5.37306 -1.04411
C 10.69994 -3.15527 -1.92413
C 10.12661 -3.59975 -3.24180
O 8.89806 -3.58362 -3.43419
O 11.12797 -3.76230 -4.12567
C 10.60833 -4.19224 -5.45117
H 11.02271 3.77757 -1.94723
H 7.79268 3.87446 3.39778
H 8.36166 -2.35764 3.91917
H 12.03431 -0.79701 -3.50417
H 11.58243 1.97534 -3.72088
H 13.44813 0.35011 -2.04221
H 12.97094 1.90628 -1.33162
H 13.75628 1.91688 -2.88170
H 9.62476 0.79576 -4.41135
H 9.48241 -0.99840 -4.33440
H 11.84489 -0.36230 -5.79096
H 10.73103 0.90043 -6.17789
H 10.12836 5.68430 -2.01970
H 9.86363 6.78938 -0.71283
H 8.48325 6.40652 -1.76863
H 8.26786 7.69149 0.55803
H 6.62148 7.91605 1.38610
H 6.80886 7.04281 -0.16172
H 6.84140 2.10480 4.96718
H 8.50706 -0.27408 5.61775
H 8.21527 2.93201 6.56633
H 9.56023 2.78067 5.38133
H 9.25732 1.51573 6.46013
H 6.09389 -0.00274 6.30681
H 6.49892 -1.56771 5.62725
H 4.99916 0.71838 4.57529
H 4.54504 -1.02292 4.49484
H 5.76340 -0.30032 3.35126
H 8.88063 -5.44322 2.01811
H 8.75825 -4.39060 3.46490
H 10.38827 -4.71979 2.75290
H 11.79058 -3.16352 -1.92856
H 11.12715 -5.11981 -5.71217
H 10.75453 -3.32672 -6.12441
H 9.57266 -4.50671 -5.50550
