79

Mg 13.13371 1.18700 1.00650
C 10.81308 -1.42905 1.81274
C 10.44280 3.24084 0.58775
C 15.11445 3.38369 -0.14183
C 15.49809 -1.29451 0.37601
N 10.95897 0.83531 1.20410
C 10.19717 -0.18249 1.57574
C 8.70024 0.17488 1.77831
C 8.63066 1.46701 0.82730
C 10.09265 1.90289 0.89983
C 8.30295 1.13316 -0.61855
C 8.36910 0.53962 3.26805
C 6.87624 0.59781 3.59931
H 6.43869 0.15562 4.92049
N 12.89586 3.14589 0.79499
C 11.73121 3.81441 0.66104
C 12.09552 5.23239 0.51692
C 13.57690 5.32772 0.41148
C 13.92613 3.92374 0.32807
C 11.08533 6.34151 0.56988
C 14.52178 6.49057 0.37689
O 15.75080 6.34978 0.04144
C 13.94408 7.81325 0.65662
N 14.96326 1.06184 0.02700
C 15.64026 2.17128 -0.31760
C 17.04597 1.83802 -0.75726
C 17.25119 0.29169 -0.40466
C 15.83620 -0.03840 0.11901
C 17.35209 2.06727 -2.23716
C 18.47181 -0.07138 0.48469
C 18.27791 0.48194 1.87811
N 13.24002 -0.95742 1.24784
C 14.31470 -1.80315 0.89585
C 13.87474 -3.19172 1.14233
C 12.55610 -3.05775 1.60249
C 12.19255 -1.68408 1.62098
C 14.64275 -4.36417 0.89408
C 11.38543 -3.76677 2.06672
O 11.13193 -4.93891 2.34163
C 10.16199 -2.75275 2.10346
C 9.46397 -2.91477 3.42597
O 10.04002 -2.61256 4.48589
O 8.16536 -3.19122 3.20786
C 7.42851 -3.34986 4.48993
H 9.66563 3.90596 0.21027
H 15.87368 4.10788 -0.44612
H 16.21039 -2.11858 0.29721
H 8.00257 -0.57876 1.43326
H 7.98330 2.23232 1.24752
H 8.28726 0.06747 -0.79238
H 9.07741 1.60185 -1.21149
H 7.36553 1.61353 -0.91320
H 8.64280 1.58693 3.44960
H 8.86323 -0.13141 3.94347
H 6.26205 0.13617 2.81662
H 6.56234 1.64445 3.60389
H 10.06112 5.95692 0.48936
H 11.22199 6.94200 -0.33599
H 11.21189 6.98517 1.44300
H 13.15445 8.02162 -0.06138
H 14.78957 8.50370 0.67392
H 13.47179 7.78682 1.64499
H 17.77232 2.42336 -0.20688
H 17.40124 -0.31602 -1.30909
H 18.20406 2.75272 -2.40557
H 16.45884 2.44617 -2.71578
H 17.55706 1.16539 -2.81145
H 19.37920 0.39238 0.09007
H 18.65726 -1.13837 0.54895
H 18.61128 1.51943 1.78024
H 18.88873 -0.06293 2.59508
H 17.21607 0.50113 2.14971
H 14.50296 -5.01440 1.74740
H 15.69357 -4.12639 0.74238
H 14.16566 -4.71924 -0.02329
H 9.50971 -2.99581 1.26380
H 6.94850 -4.33300 4.46301
H 6.76550 -2.46748 4.56459
H 8.01421 -3.42527 5.39862
