79

Mg 8.92937 0.80849 0.68713
C 6.60874 -1.80756 1.49336
C 6.23846 2.86233 0.26838
C 10.91010 3.00518 -0.46121
C 11.29375 -1.67301 0.05664
N 6.75462 0.45680 0.88472
C 5.99283 -0.56100 1.25636
C 4.49590 -0.20363 1.45894
C 4.42632 1.08850 0.50792
C 5.88831 1.52438 0.58045
C 4.09861 0.75465 -0.93793
C 4.16476 0.16111 2.94868
C 2.67190 0.21930 3.27994
H 2.23435 -0.22289 4.60111
N 8.69152 2.76738 0.47561
C 7.52686 3.43590 0.34166
C 7.89118 4.85388 0.19755
C 9.37256 4.94921 0.09210
C 9.72179 3.54523 0.00869
C 6.88099 5.96300 0.25050
C 10.31744 6.11206 0.05751
O 11.54646 5.97127 -0.27793
C 9.73974 7.43474 0.33724
N 10.75892 0.68334 -0.29238
C 11.43592 1.79277 -0.63697
C 12.84163 1.45952 -1.07663
C 13.04685 -0.08681 -0.72403
C 11.63186 -0.41691 -0.20036
C 13.14775 1.68876 -2.55654
C 14.26747 -0.44989 0.16531
C 14.07357 0.10344 1.55873
N 9.03568 -1.33592 0.92846
C 10.11035 -2.18166 0.57647
C 9.67040 -3.57022 0.82295
C 8.35176 -3.43626 1.28312
C 7.98821 -2.06258 1.30161
C 10.43841 -4.74268 0.57471
C 7.18109 -4.14528 1.74734
O 6.92759 -5.31742 2.02225
C 5.95765 -3.13126 1.78408
C 5.25963 -3.29328 3.10659
O 5.83568 -2.99107 4.16652
O 3.96102 -3.56973 2.88848
C 3.22417 -3.72837 4.17055
H 5.46129 3.52746 -0.10911
H 11.66934 3.72937 -0.76550
H 12.00605 -2.49709 -0.02217
H 3.79823 -0.95727 1.11388
H 3.77896 1.85382 0.92814
H 4.08292 -0.31103 -1.11175
H 4.87307 1.22334 -1.53087
H 3.16119 1.23502 -1.23258
H 4.43846 1.20842 3.13023
H 4.65889 -0.50992 3.62410
H 2.05771 -0.24234 2.49725
H 2.35800 1.26594 3.28451
H 5.85677 5.57842 0.16998
H 7.01764 6.56350 -0.65536
H 7.00754 6.60667 1.12363
H 8.95011 7.64311 -0.38076
H 10.58523 8.12519 0.35455
H 9.26745 7.40831 1.32561
H 13.56797 2.04485 -0.52625
H 13.19690 -0.69453 -1.62847
H 13.99972 2.37422 -2.72494
H 12.25449 2.06766 -3.03516
H 13.35272 0.78688 -3.13083
H 15.17486 0.01387 -0.22931
H 14.45292 -1.51688 0.22957
H 14.40694 1.14092 1.46086
H 14.68439 -0.44144 2.27570
H 13.01173 0.12263 1.83034
H 10.29862 -5.39291 1.42803
H 11.48923 -4.50490 0.42301
H 9.96131 -5.09775 -0.34266
H 5.30537 -3.37432 0.94442
H 2.74416 -4.71150 4.14364
H 2.56115 -2.84599 4.24522
H 3.80987 -3.80378 5.07924
