79

Mg 13.14800 1.18740 0.99961
C 14.51455 -0.93431 3.55107
C 13.44728 3.77567 3.20095
C 11.53687 2.99054 -1.05474
C 11.91750 -1.68800 -0.53780
N 13.89886 1.28292 3.07791
C 14.45010 0.42474 3.92291
C 15.03388 1.07184 5.20744
C 14.13878 2.40488 5.23330
C 13.83328 2.52313 3.74154
C 12.82511 2.23333 5.97774
C 16.56020 1.40747 5.06701
C 17.26593 1.75389 6.37990
H 18.65332 1.33374 6.55626
N 13.01370 3.16212 0.85467
C 13.18794 4.06431 1.84309
C 12.96089 5.38201 1.22969
C 12.47696 5.17437 -0.16222
C 12.30003 3.73605 -0.16797
C 13.27776 6.67122 1.93037
C 12.20470 6.11606 -1.29593
O 11.56268 5.74392 -2.34099
C 12.62992 7.51060 -1.10636
N 11.72879 0.74460 -0.45369
C 11.22596 1.70822 -1.24524
C 10.43680 1.11776 -2.38934
C 10.71764 -0.45579 -2.33803
C 11.58744 -0.51617 -1.06320
C 8.92906 1.36672 -2.35588
C 11.26007 -1.11653 -3.63490
C 12.65873 -0.61944 -3.92132
N 13.34426 -0.94299 1.30120
C 12.72301 -1.97050 0.55798
C 13.06861 -3.24992 1.21070
C 13.85423 -2.87334 2.31047
C 13.97200 -1.45777 2.35258
C 12.62533 -4.53910 0.80125
C 14.60185 -3.35081 3.45143
O 14.92772 -4.45925 3.87439
C 14.95769 -2.10928 4.37792
C 16.41486 -2.20195 4.73930
O 17.29143 -2.08969 3.86429
O 16.53823 -2.18969 6.07907
C 17.96636 -2.26858 6.48653
H 13.28619 4.60881 3.88565
H 11.05006 3.55852 -1.85091
H 11.65382 -2.63559 -1.01238
H 14.87735 0.50120 6.11499
H 14.71526 3.26120 5.57351
H 12.65654 1.20640 6.26606
H 12.05438 2.56596 5.29481
H 12.78461 2.91433 6.83269
H 16.66953 2.36253 4.53724
H 17.08217 0.60941 4.57581
H 16.66634 1.47726 7.25564
H 17.35600 2.84067 6.44920
H 13.46273 6.51280 2.99999
H 12.36998 7.28347 1.89946
H 14.09143 7.22125 1.45279
H 12.14107 7.92069 -0.22585
H 12.43138 8.00850 -2.05744
H 13.70659 7.52352 -0.90330
H 10.78355 1.50583 -3.33922
H 9.80247 -1.02617 -2.12135
H 8.54941 1.86953 -3.26534
H 8.69898 1.95049 -1.47450
H 8.31735 0.47797 -2.21050
H 10.64659 -0.82815 -4.49201
H 11.26957 -2.20068 -3.59589
H 12.48267 0.33038 -4.43507
H 13.19127 -1.32099 -4.56026
H 13.19537 -0.39687 -2.99173
H 13.48294 -5.19611 0.85905
H 12.20850 -4.51564 -0.20348
H 11.86069 -4.73202 1.55847
H 14.31385 -2.16117 5.25676
H 18.05997 -3.12747 7.15827
H 18.21357 -1.27403 6.90307
H 18.69268 -2.51800 5.72186
