158

Mg 0.00000 0.00000 0.00000
C -0.21700 -2.21800 2.80100
C -1.25500 2.44200 2.02600
C -0.24500 1.85000 -2.56400
C 0.14600 -2.82400 -2.03700
N -0.61700 -0.00900 2.12600
C -0.59400 -0.90800 3.10500
C -0.93600 -0.30900 4.50200
C -1.77300 0.96400 4.03200
C -1.15500 1.16800 2.66000
C -3.26300 0.68500 3.86300
C 0.34500 0.11000 5.29900
C 0.12400 0.39700 6.78700
H 1.16800 0.03300 7.73300
N -0.18500 1.96100 -0.15200
C -0.70300 2.80000 0.77700
C -0.62000 4.15600 0.19300
C -0.18700 4.01500 -1.22500
C -0.21400 2.58300 -1.38000
C -0.88700 5.40600 0.97400
C 0.18100 5.01300 -2.27700
O 0.30300 4.69000 -3.50800
C 0.31000 6.41400 -1.83700
N -0.26500 -0.41300 -2.02900
C -0.27900 0.56900 -2.93700
C -0.19600 0.02400 -4.33200
C 0.12400 -1.53300 -4.18000
C 0.08600 -1.63200 -2.63500
C -1.45100 0.20500 -5.19700
C 1.37300 -2.07000 -4.92300
C 2.62600 -1.49000 -4.30600
N 0.15000 -2.14400 0.30300
C 0.17300 -3.13600 -0.68800
C 0.17300 -4.43800 0.00400
C 0.13300 -4.11100 1.35800
C 0.08300 -2.69500 1.50200
C 0.14900 -5.71500 -0.62300
C 0.09600 -4.62900 2.71600
O 0.20800 -5.74700 3.22100
C -0.25500 -3.42800 3.70100
C 0.71700 -3.48200 4.84800
O 1.93100 -3.25500 4.66900
O 0.03800 -3.55600 6.00300
C 0.94300 -3.58300 7.18300
H -1.85900 3.22000 2.49700
H -0.21800 2.45300 -3.47400
H 0.27600 -3.74700 -2.60500
H -1.55400 -0.94900 5.13200
H -1.58500 1.83100 4.66500
H -3.48400 -0.37700 3.96900
H -3.51100 1.02700 2.85800
H -3.85200 1.30100 4.54300
H 0.66900 1.09600 4.96600
H 1.13000 -0.63900 5.18900
H -0.84400 0.02600 7.12500
H 0.06200 1.47700 6.92100
H -1.34400 5.18600 1.93800
H -1.65100 5.96300 0.43200
H 0.00700 6.02000 1.08400
H -0.63500 6.74400 -1.40500
H 0.66500 6.97000 -2.70400
H 1.04800 6.46600 -1.03600
H 0.60800 0.50100 -4.89100
H -0.69200 -2.15600 -4.54700
H -1.26700 0.74000 -6.12900
H -2.20400 0.71400 -4.59600
H -1.96700 -0.72000 -5.45300
H 1.35600 -1.75900 -5.96700
H 1.45200 -3.15700 -4.90200
H 2.71400 -0.52200 -4.79800
H 3.48700 -2.12100 -4.52900
H 2.49500 -1.30300 -3.24000
H 0.86700 -6.33300 -0.08400
H 0.40400 -5.64200 -1.68000
H -0.89100 -5.99900 -0.46300
H -1.28300 -3.58100 4.02800
H 0.69800 -4.47800 7.75500
H 0.83300 -2.61900 7.68000
H 2.00000 -3.75400 6.97600
Mg 15.75682 1.42264 1.20117
C 13.69751 -1.36476 0.26913
C 13.77368 3.36046 -0.78545
C 17.80982 3.80137 1.64192
C 18.19348 -0.87668 2.16112
N 13.99354 0.94443 -0.04559
C 13.26383 -0.13720 -0.27352
C 11.95433 0.12532 -1.06462
C 12.38912 1.48185 -1.80601
C 13.42634 1.98602 -0.80468
C 13.08509 1.24439 -3.13589
C 10.72203 0.35598 -0.12109
C 9.36070 0.31088 -0.81858
H 8.22579 -0.25435 -0.09404
N 15.53353 3.37706 0.93853
C 14.66488 3.99265 0.10922
C 14.90934 5.43451 0.26876
C 16.10482 5.61439 1.13662
C 16.55122 4.24108 1.25836
C 14.00127 6.48233 -0.30648
C 16.74817 6.82384 1.74450
O 17.91702 6.77335 2.26802
C 16.00906 8.08917 1.62558
N 17.79401 1.46871 1.61357
C 18.43328 2.63510 1.81055
C 19.82109 2.41021 2.36173
C 19.89293 0.85394 2.72293
C 18.50392 0.41138 2.21283
C 20.97488 2.76889 1.42552
C 20.29780 0.48688 4.17690
C 19.21513 0.91987 5.13905
N 15.87678 -0.72562 1.39778
C 17.00062 -1.48471 1.79129
C 16.63050 -2.90912 1.66290
C 15.31432 -2.87973 1.17784
C 14.90084 -1.53231 0.99622
C 17.48230 -4.01744 1.93160
C 14.18442 -3.68230 0.76807
O 13.92005 -4.88376 0.78640
C 13.13145 -2.73896 0.04160
C 11.77073 -3.03884 0.60819
O 11.51316 -2.79014 1.79917
O 10.93709 -3.36453 -0.39646
C 9.57193 -3.65993 0.11432
H 13.35733 4.01162 -1.55455
H 18.52105 4.58532 1.91221
H 18.86384 -1.65414 2.53373
H 11.70514 -0.63449 -1.79562
H 11.55716 2.17775 -1.87619
H 13.27857 0.19599 -3.30782
H 14.01403 1.79710 -3.08458
H 12.50967 1.69689 -3.94858
H 10.72334 1.39887 0.22113
H 10.73255 -0.33880 0.69610
H 9.42727 -0.12001 -1.82499
H 9.02337 1.33634 -0.98785
H 13.30057 6.05256 -1.03292
H 14.62748 7.15743 -0.89974
H 13.48674 7.06217 0.46275
H 15.84006 8.31128 0.57459
H 16.58538 8.81911 2.19734
H 15.02158 7.96185 2.08307
H 19.97700 2.98804 3.26445
H 20.63644 0.32667 2.10729
H 21.67450 3.50857 1.85851
H 20.55919 3.13688 0.49691
H 21.57727 1.92602 1.09101
H 21.20333 1.02622 4.46548
H 20.49466 -0.57083 4.31649
H 19.44046 1.97771 5.30429
H 19.27758 0.35353 6.06608
H 18.22598 0.86290 4.67002
H 16.89146 -4.73815 2.48114
H 18.36392 -3.71447 2.49260
H 17.73006 -4.32468 0.91205
H 13.18543 -2.94977 -1.02715
H 9.30838 -4.66160 -0.23910
H 8.93681 -2.82155 -0.22845
H 9.45148 -3.77500 1.18516
