79

Mg 15.77347 1.42510 1.19235
C 15.16934 4.69884 2.53277
C 15.00830 2.70337 -1.87606
C 15.85771 -1.53340 0.04884
C 15.37108 0.17998 4.42244
N 15.18136 3.45405 0.54043
C 15.04450 4.63250 1.12940
C 14.83712 5.82006 0.15152
C 14.24041 5.00317 -1.09568
C 14.87348 3.64068 -0.82089
C 12.72966 4.84678 -1.04535
C 16.18567 6.53109 -0.21979
C 16.02849 7.88235 -0.92061
H 17.00112 8.93292 -0.63293
N 15.95755 0.77414 -0.67337
C 15.61874 1.43207 -1.80192
C 15.93101 0.51672 -2.91042
C 16.32770 -0.79755 -2.33592
C 16.03664 -0.57126 -0.93443
C 15.91533 0.94563 -4.34890
C 16.86628 -2.05490 -2.94847
O 16.91647 -3.15528 -2.29312
C 17.24622 -1.98258 -4.36688
N 15.42641 -0.43220 2.05973
C 15.58238 -1.56531 1.35287
C 15.54839 -2.77813 2.25193
C 15.57927 -2.20686 3.74534
C 15.53371 -0.69386 3.43851
C 14.33865 -3.69717 2.08378
C 16.70108 -2.73826 4.67907
C 18.04849 -2.25296 4.19498
N 15.53191 2.27005 3.16612
C 15.35432 1.56821 4.37854
C 15.11888 2.57484 5.43385
C 15.15322 3.80103 4.75283
C 15.37302 3.57339 3.36742
C 14.86328 2.29708 6.80631
C 15.04293 5.23557 4.88924
O 14.94315 6.01287 5.83771
C 14.92241 5.87338 3.43836
C 15.87833 7.03205 3.35946
O 17.10604 6.84399 3.42251
O 15.20041 8.13931 3.00623
C 16.10757 9.31338 2.90406
H 14.56818 2.94490 -2.84396
H 15.98758 -2.56858 -0.27523
H 15.33428 -0.12207 5.47129
H 14.12314 6.56362 0.48485
H 14.59809 5.40643 -2.03951
H 12.31779 5.20996 -0.11551
H 12.53981 3.78707 -1.15493
H 12.27184 5.32651 -1.91517
H 16.68250 5.96282 -1.01664
H 16.80819 6.64356 0.64649
H 15.00651 8.27219 -0.83980
H 16.17547 7.73601 -1.99346
H 15.42615 1.91965 -4.47291
H 15.26540 0.24512 -4.88437
H 16.90744 0.92642 -4.80500
H 16.38322 -1.68375 -4.95713
H 17.69133 -2.95182 -4.59997
H 17.99828 -1.19493 -4.48790
H 16.42121 -3.40008 2.09547
H 14.65476 -2.44467 4.29175
H 14.61396 -4.74186 1.84528
H 13.70225 -3.28587 1.31153
H 13.66688 -3.73755 2.93953
H 16.73469 -3.83005 4.64733
H 16.57176 -2.45007 5.71696
H 18.30520 -2.97550 3.41452
H 18.77561 -2.27116 5.00431
H 17.96463 -1.26918 3.71874
H 15.45239 2.99932 7.38104
H 15.11343 1.26833 7.05704
H 13.78585 2.47857 6.84466
H 13.88663 6.18728 3.30349
H 15.70209 10.08860 3.56156
H 16.16978 9.54986 1.82519
H 17.11178 9.20656 3.29727
