79

Mg 31.53256 2.83880 2.39533
C 31.69218 -0.68468 1.78556
C 30.47844 2.09377 5.55394
C 30.94955 5.92794 2.81242
C 31.49188 3.28569 -1.06073
N 31.17180 0.91104 3.42208
C 31.32816 -0.36825 3.09629
C 31.14220 -1.33957 4.30017
C 30.23062 -0.41811 5.22858
C 30.67777 0.94531 4.73154
C 28.73686 -0.57262 4.96154
C 32.50004 -1.68956 4.99694
C 32.45111 -2.87516 5.96509
H 33.60667 -3.75502 6.05376
N 31.29239 3.88475 4.05399
C 30.87160 3.41586 5.25331
C 30.85826 4.58055 6.16436
C 31.12308 5.79872 5.34949
C 31.10605 5.24846 4.01821
C 30.66107 4.46498 7.64474
C 31.34432 7.23315 5.71225
O 31.32609 8.16631 4.83849
C 31.49695 7.53172 7.14773
N 31.03745 4.38094 1.07839
C 30.89680 5.63890 1.51053
C 30.82481 6.60484 0.36523
C 31.19107 5.76670 -0.94364
C 31.33813 4.36822 -0.29486
C 29.47295 7.30296 0.16249
C 32.35366 6.30018 -1.81782
C 33.65924 6.18066 -1.06398
N 31.75944 1.57004 0.64895
C 31.68447 1.96397 -0.69488
C 31.79194 0.74026 -1.51039
C 31.90605 -0.28893 -0.57788
C 31.84565 0.25456 0.73713
C 31.71898 0.67571 -2.92988
C 32.04021 -1.72391 -0.38631
O 32.23312 -2.68421 -1.13337
C 31.78473 -2.05020 1.15126
C 32.88652 -2.96574 1.61076
O 34.06611 -2.56390 1.67754
O 32.35057 -4.08495 2.12132
C 33.38922 -5.02400 2.62288
H 29.91927 1.98538 6.48535
H 30.85681 7.01170 2.90887
H 31.57185 3.35583 -2.14707
H 30.61579 -2.26384 4.06133
H 30.47515 -0.53556 6.28410
H 28.55085 -1.19611 4.08714
H 28.36499 0.43843 4.79423
H 28.22049 -0.93872 5.84930
H 32.76293 -0.89269 5.69261
H 33.28106 -1.86156 4.25550
H 31.53738 -3.45635 5.83766
H 32.38420 -2.48441 6.98049
H 30.32578 3.46790 7.92748
H 29.82750 5.11632 7.90672
H 31.54957 4.76299 8.20159
H 30.60342 7.20520 7.68021
H 31.73585 8.59278 7.21043
H 32.32339 6.94181 7.54515
H 31.54748 7.41062 0.48724
H 30.34976 5.69731 -1.63361
H 29.53481 8.39129 0.18256
H 28.78652 6.93616 0.92510
H 28.94854 7.02690 -0.75195
H 32.20711 7.35665 -2.03998
H 32.45592 5.77289 -2.76637
H 33.66936 7.08082 -0.45044
H 34.50002 6.17202 -1.75840
H 33.65167 5.32553 -0.38783
H 32.50773 -0.00729 -3.24510
H 31.84561 1.66094 -3.37810
H 30.71101 0.28300 -3.06262
H 30.80586 -2.52472 1.21256
H 33.23126 -5.97692 2.11769
H 33.31990 -5.01044 3.71073
H 34.41744 -4.80519 2.33268
