158

Mg 0.00000 0.00000 0.00000
C -0.21700 -2.21800 2.80100
C -1.25500 2.44200 2.02600
C -0.24500 1.85000 -2.56400
C 0.14600 -2.82400 -2.03700
N -0.61700 -0.00900 2.12600
C -0.59400 -0.90800 3.10500
C -0.93600 -0.30900 4.50200
C -1.77300 0.96400 4.03200
C -1.15500 1.16800 2.66000
C -3.26300 0.68500 3.86300
C 0.34500 0.11000 5.29900
C 0.12400 0.39700 6.78700
H 1.16800 0.03300 7.73300
N -0.18500 1.96100 -0.15200
C -0.70300 2.80000 0.77700
C -0.62000 4.15600 0.19300
C -0.18700 4.01500 -1.22500
C -0.21400 2.58300 -1.38000
C -0.88700 5.40600 0.97400
C 0.18100 5.01300 -2.27700
O 0.30300 4.69000 -3.50800
C 0.31000 6.41400 -1.83700
N -0.26500 -0.41300 -2.02900
C -0.27900 0.56900 -2.93700
C -0.19600 0.02400 -4.33200
C 0.12400 -1.53300 -4.18000
C 0.08600 -1.63200 -2.63500
C -1.45100 0.20500 -5.19700
C 1.37300 -2.07000 -4.92300
C 2.62600 -1.49000 -4.30600
N 0.15000 -2.14400 0.30300
C 0.17300 -3.13600 -0.68800
C 0.17300 -4.43800 0.00400
C 0.13300 -4.11100 1.35800
C 0.08300 -2.69500 1.50200
C 0.14900 -5.71500 -0.62300
C 0.09600 -4.62900 2.71600
O 0.20800 -5.74700 3.22100
C -0.25500 -3.42800 3.70100
C 0.71700 -3.48200 4.84800
O 1.93100 -3.25500 4.66900
O 0.03800 -3.55600 6.00300
C 0.94300 -3.58300 7.18300
H -1.85900 3.22000 2.49700
H -0.21800 2.45300 -3.47400
H 0.27600 -3.74700 -2.60500
H -1.55400 -0.94900 5.13200
H -1.58500 1.83100 4.66500
H -3.48400 -0.37700 3.96900
H -3.51100 1.02700 2.85800
H -3.85200 1.30100 4.54300
H 0.66900 1.09600 4.96600
H 1.13000 -0.63900 5.18900
H -0.84400 0.02600 7.12500
H 0.06200 1.47700 6.92100
H -1.34400 5.18600 1.93800
H -1.65100 5.96300 0.43200
H 0.00700 6.02000 1.08400
H -0.63500 6.74400 -1.40500
H 0.66500 6.97000 -2.70400
H 1.04800 6.46600 -1.03600
H 0.60800 0.50100 -4.89100
H -0.69200 -2.15600 -4.54700
H -1.26700 0.74000 -6.12900
H -2.20400 0.71400 -4.59600
H -1.96700 -0.72000 -5.45300
H 1.35600 -1.75900 -5.96700
H 1.45200 -3.15700 -4.90200
H 2.71400 -0.52200 -4.79800
H 3.48700 -2.12100 -4.52900
H 2.49500 -1.30300 -3.24000
H 0.86700 -6.33300 -0.08400
H 0.40400 -5.64200 -1.68000
H -0.89100 -5.99900 -0.46300
H -1.28300 -3.58100 4.02800
H 0.69800 -4.47800 7.75500
H 0.83300 -2.61900 7.68000
H 2.00000 -3.75400 6.97600
Mg 10.51847 0.95113 0.80399
C 10.78569 -1.22848 3.64247
C 9.71122 3.44679 2.98449
C 9.83653 2.78058 -1.69711
C 10.21796 -1.89793 -1.18051
N 10.30855 0.98191 3.00563
C 10.49475 0.10873 3.98402
C 10.44084 0.71947 5.41008
C 9.54780 2.01365 5.08381
C 9.89914 2.18723 3.60763
C 8.05392 1.75690 5.19224
C 11.86119 1.12102 5.94242
C 11.92194 1.43515 7.43888
H 13.12369 1.06246 8.18008
N 10.35015 2.92356 0.66341
C 10.03801 3.78620 1.65320
C 10.02107 5.12037 1.03363
C 10.18666 4.95708 -0.43628
C 10.10830 3.51465 -0.55175
C 9.93878 6.38800 1.83349
C 10.37063 5.93771 -1.55464
O 10.25505 5.58829 -2.78240
C 10.59764 7.33790 -1.16811
N 9.87799 0.51903 -1.12615
C 9.70704 1.49695 -2.03300
C 9.51259 0.92828 -3.41835
C 9.83104 -0.63368 -3.29020
C 10.07858 -0.71743 -1.76800
C 8.12234 1.11585 -4.02534
C 10.90854 -1.21310 -4.24726
C 12.26669 -0.64878 -3.89746
N 10.68475 -1.18135 1.10885
C 10.49570 -2.19781 0.14701
C 10.60095 -3.49088 0.85364
C 10.82279 -3.13384 2.19222
C 10.83350 -1.71808 2.31478
C 10.44526 -4.77665 0.26314
C 11.03974 -3.63266 3.53118
O 11.21539 -4.74542 4.02579
C 10.89934 -2.42133 4.55066
C 12.06752 -2.47277 5.49683
O 13.22519 -2.28651 5.08243
O 11.60901 -2.51636 6.76104
C 12.73063 -2.55728 7.73682
H 9.22892 4.24105 3.55496
H 9.70375 3.36442 -2.61088
H 10.23346 -2.83270 -1.74500
H 9.94513 0.10257 6.15000
H 9.87705 2.87573 5.65805
H 7.83554 0.71211 5.35615
H 7.62942 2.08948 4.25403
H 7.61660 2.39633 5.96438
H 12.13258 2.10267 5.53321
H 12.58541 0.36723 5.70173
H 11.02326 1.09571 7.96812
H 11.91414 2.52039 7.56624
H 9.66011 6.18869 2.87561
H 9.09802 6.96475 1.43305
H 10.84667 6.99074 1.76215
H 9.75925 7.68809 -0.57068
H 10.79500 7.87017 -2.10064
H 11.48348 7.38405 -0.52485
H 10.20819 1.37235 -4.11981
H 8.94340 -1.24893 -3.49855
H 8.13812 1.64398 -4.99740
H 7.50785 1.64955 -3.31254
H 7.55671 0.19799 -4.17638
H 10.70257 -0.91058 -5.27693
H 10.96014 -2.29668 -4.23416
H 12.27371 0.31565 -4.41408
H 13.05794 -1.29913 -4.26489
H 12.34435 -0.44758 -2.82269
H 11.23172 -5.40129 0.66540
H 10.49427 -4.72414 -0.82249
H 9.44322 -5.03368 0.61685
H 9.94701 -2.53832 5.06927
H 12.57698 -3.44136 8.36330
H 12.72233 -1.57365 8.24293
H 13.72552 -2.74297 7.34933
