79

Mg 10.50285 0.94851 0.79186
C 10.72031 -1.80389 -1.50075
C 11.01543 3.01480 -1.87316
C 10.76593 3.35912 2.83812
C 11.14801 -1.31892 3.35862
N 10.81338 0.53927 -1.35950
C 10.81462 -0.54220 -2.12419
C 10.84225 -0.25187 -3.64882
C 11.50439 1.21045 -3.60318
C 11.05802 1.63738 -2.20634
C 13.02354 1.18438 -3.63199
C 9.40446 -0.21206 -4.27586
C 9.36892 -0.24120 -5.80545
H 8.27832 -0.95598 -6.46284
N 10.35297 2.90537 0.49721
C 10.57443 3.57427 -0.65379
C 10.35166 4.99478 -0.34285
C 10.14160 5.12641 1.12455
C 10.43918 3.77524 1.55569
C 10.27358 6.05682 -1.40086
C 9.75150 6.28086 1.99707
O 9.85987 6.22723 3.27308
C 9.32723 7.50877 1.30880
N 11.10740 1.05213 2.77835
C 11.07824 2.21658 3.45001
C 11.29100 1.99865 4.92907
C 11.22786 0.41510 5.14346
C 11.07167 -0.03322 3.67376
C 12.60314 2.53718 5.49886
C 10.20869 -0.11337 6.18973
C 8.79777 0.13255 5.70577
N 10.68789 -1.19743 0.96151
C 10.98630 -1.93843 2.12597
C 11.11980 -3.35253 1.71985
C 10.91088 -3.33277 0.33261
C 10.68455 -1.99775 -0.09865
C 11.44576 -4.43810 2.58090
C 10.84086 -4.13634 -0.86659
O 10.86624 -5.34279 -1.10655
C 10.83974 -3.16620 -2.12564
C 9.74200 -3.61023 -3.05318
O 8.55049 -3.53125 -2.70581
O 10.26329 -3.84891 -4.27042
C 9.21130 -4.28157 -5.22851
H 11.39480 3.73583 -2.59777
H 10.76051 4.13938 3.60274
H 11.25139 -2.10014 4.11471
H 11.46426 -0.92376 -4.22799
H 11.07279 1.86319 -4.35751
H 13.41069 0.17894 -3.55896
H 13.34403 1.77571 -2.78426
H 13.39273 1.70563 -4.51987
H 8.96284 0.77664 -4.09647
H 8.79632 -1.00460 -3.88512
H 10.33460 -0.53473 -6.23468
H 9.21286 0.77759 -6.16841
H 10.63095 5.68653 -2.36966
H 10.99288 6.83577 -1.12570
H 9.28008 6.50394 -1.47635
H 10.12877 7.85471 0.66049
H 9.00330 8.18940 2.09855
H 8.47782 7.26999 0.65910
H 10.50077 2.46316 5.50602
H 12.18959 0.01275 5.49422
H 12.45703 3.25204 6.33055
H 13.16074 2.99838 4.69456
H 13.29745 1.77847 5.85592
H 10.31383 0.43292 7.13030
H 10.32818 -1.16793 6.41471
H 8.61435 1.17103 5.99733
H 8.10107 -0.54411 6.19645
H 8.74251 0.08256 4.61211
H 10.78761 -5.25466 2.31525
H 11.33579 -4.16222 3.62760
H 12.49187 -4.59764 2.30617
H 11.82297 -3.23449 -2.59270
H 9.53217 -5.24229 -5.64292
H 9.09029 -3.44193 -5.93853
H 8.23994 -4.53985 -4.82331
