79

Mg 13.14514 1.18615 0.99043
C 15.91072 -1.05210 1.46043
C 15.30964 3.75043 1.60199
C 10.65275 3.14930 1.02848
C 11.03255 -1.52912 1.54717
N 15.30684 1.21823 1.45763
C 16.26645 0.30988 1.54932
C 17.69861 0.89689 1.66718
C 17.31970 2.33607 2.27056
C 15.90224 2.46760 1.71723
C 17.24332 2.35121 3.78821
C 18.40784 1.02695 0.27359
C 19.91200 1.30042 0.34053
H 20.77366 0.70503 -0.67707
N 13.06078 3.15863 0.78847
C 14.03939 4.04709 1.06090
C 13.47310 5.37241 0.76589
C 12.02742 5.20603 0.45439
C 11.84899 3.80346 0.77230
C 14.30539 6.62082 0.71903
C 10.97614 6.15557 -0.03487
O 9.73093 5.85288 -0.00936
C 11.43933 7.48535 -0.45753
N 11.13848 0.90831 1.45784
C 10.25562 1.91574 1.34141
C 8.83648 1.41423 1.46362
C 8.94159 -0.18145 1.44475
C 10.47800 -0.33337 1.40286
C 8.07902 1.85935 2.71442
C 8.09548 -0.92992 0.37866
C 8.62246 -0.62560 -1.00520
N 13.38625 -0.94605 1.24269
C 12.37108 -1.89587 1.49038
C 13.03562 -3.19811 1.70245
C 14.40351 -2.90890 1.58529
C 14.58007 -1.52049 1.33904
C 12.38267 -4.42488 2.01040
C 15.73875 -3.46053 1.62449
O 16.20793 -4.59467 1.71010
C 16.78008 -2.26059 1.67105
C 17.85342 -2.53734 0.65426
O 17.58426 -2.55616 -0.55975
O 19.05296 -2.51823 1.26345
C 20.15065 -2.77673 0.29388
H 15.84965 4.60920 2.00174
H 9.75252 3.76239 0.94371
H 10.43869 -2.44199 1.62894
H 18.35173 0.36748 2.35049
H 17.96071 3.11513 1.86614
H 17.34091 1.36039 4.20642
H 16.27528 2.77021 4.02986
H 17.98287 3.04629 4.19596
H 18.07060 1.95012 -0.21504
H 18.22487 0.15895 -0.32952
H 20.31955 1.11999 1.34268
H 20.07864 2.36703 0.17147
H 15.29958 6.45800 1.15316
H 13.83177 7.34622 1.38936
H 14.36335 7.05104 -0.28308
H 11.94772 7.97117 0.37191
H 10.55704 7.98850 -0.85789
H 12.18281 7.36045 -1.25267
H 8.23830 1.73700 0.62035
H 8.60795 -0.62303 2.39529
H 7.13616 2.39183 2.48733
H 8.73500 2.48338 3.30672
H 7.82834 1.06115 3.41101
H 7.06103 -0.57841 0.40108
H 8.07342 -2.00512 0.52172
H 8.14713 0.33009 -1.24563
H 8.32545 -1.40188 -1.70749
H 9.70581 -0.45933 -0.98602
H 12.84995 -5.18761 1.40180
H 11.31294 -4.36430 1.82127
H 12.60708 -4.50273 3.07757
H 17.17925 -2.21240 2.68491
H 20.72096 -3.62874 0.67664
H 20.68927 -1.81615 0.18933
H 19.87510 -3.13242 -0.69202
