158

Mg 0.00000 0.00000 0.00000
C -0.21700 -2.21800 2.80100
C -1.25500 2.44200 2.02600
C -0.24500 1.85000 -2.56400
C 0.14600 -2.82400 -2.03700
N -0.61700 -0.00900 2.12600
C -0.59400 -0.90800 3.10500
C -0.93600 -0.30900 4.50200
C -1.77300 0.96400 4.03200
C -1.15500 1.16800 2.66000
C -3.26300 0.68500 3.86300
C 0.34500 0.11000 5.29900
C 0.12400 0.39700 6.78700
H 1.16800 0.03300 7.73300
N -0.18500 1.96100 -0.15200
C -0.70300 2.80000 0.77700
C -0.62000 4.15600 0.19300
C -0.18700 4.01500 -1.22500
C -0.21400 2.58300 -1.38000
C -0.88700 5.40600 0.97400
C 0.18100 5.01300 -2.27700
O 0.30300 4.69000 -3.50800
C 0.31000 6.41400 -1.83700
N -0.26500 -0.41300 -2.02900
C -0.27900 0.56900 -2.93700
C -0.19600 0.02400 -4.33200
C 0.12400 -1.53300 -4.18000
C 0.08600 -1.63200 -2.63500
C -1.45100 0.20500 -5.19700
C 1.37300 -2.07000 -4.92300
C 2.62600 -1.49000 -4.30600
N 0.15000 -2.14400 0.30300
C 0.17300 -3.13600 -0.68800
C 0.17300 -4.43800 0.00400
C 0.13300 -4.11100 1.35800
C 0.08300 -2.69500 1.50200
C 0.14900 -5.71500 -0.62300
C 0.09600 -4.62900 2.71600
O 0.20800 -5.74700 3.22100
C -0.25500 -3.42800 3.70100
C 0.71700 -3.48200 4.84800
O 1.93100 -3.25500 4.66900
O 0.03800 -3.55600 6.00300
C 0.94300 -3.58300 7.18300
H -1.85900 3.22000 2.49700
H -0.21800 2.45300 -3.47400
H 0.27600 -3.74700 -2.60500
H -1.55400 -0.94900 5.13200
H -1.58500 1.83100 4.66500
H -3.48400 -0.37700 3.96900
H -3.51100 1.02700 2.85800
H -3.85200 1.30100 4.54300
H 0.66900 1.09600 4.96600
H 1.13000 -0.63900 5.18900
H -0.84400 0.02600 7.12500
H 0.06200 1.47700 6.92100
H -1.34400 5.18600 1.93800
H -1.65100 5.96300 0.43200
H 0.00700 6.02000 1.08400
H -0.63500 6.74400 -1.40500
H 0.66500 6.97000 -2.70400
H 1.04800 6.46600 -1.03600
H 0.60800 0.50100 -4.89100
H -0.69200 -2.15600 -4.54700
H -1.26700 0.74000 -6.12900
H -2.20400 0.71400 -4.59600
H -1.96700 -0.72000 -5.45300
H 1.35600 -1.75900 -5.96700
H 1.45200 -3.15700 -4.90200
H 2.71400 -0.52200 -4.79800
H 3.48700 -2.12100 -4.52900
H 2.49500 -1.30300 -3.24000
H 0.86700 -6.33300 -0.08400
H 0.40400 -5.64200 -1.68000
H -0.89100 -5.99900 -0.46300
H -1.28300 -3.58100 4.02800
H 0.69800 -4.47800 7.75500
H 0.83300 -2.61900 7.68000
H 2.00000 -3.75400 6.97600
Mg 31.53256 2.83880 2.39533
C 31.36857 0.28428 4.89727
C 30.28027 4.99382 4.72572
C 31.24067 4.99374 0.08715
C 31.67921 0.29483 0.01786
N 30.94105 2.55637 4.50980
C 30.98366 1.54175 5.36765
C 30.65306 1.95690 6.83248
C 29.79930 3.27021 6.53532
C 30.39907 3.65134 5.19333
C 28.30992 2.99938 6.34855
C 31.93972 2.28555 7.66208
C 31.73395 2.38099 9.17664
H 32.79232 1.91173 10.05810
N 31.32844 4.80135 2.49318
C 30.81416 5.51159 3.52582
C 30.87820 6.93101 3.11616
C 31.29550 6.97378 1.68713
C 31.27931 5.57241 1.35354
C 30.60950 8.07015 4.05099
C 31.64210 8.09980 0.76512
O 31.75226 7.93533 -0.49796
C 31.76395 9.43565 1.37644
N 31.24705 2.68136 0.33345
C 31.21355 3.76949 -0.44362
C 31.28472 3.40500 -1.89690
C 31.62026 1.84461 -1.94538
C 31.60156 1.55185 -0.42478
C 30.01795 3.68037 -2.71877
C 32.86501 1.41808 -2.76336
C 34.12010 1.92878 -2.09178
N 31.70510 0.67537 2.42463
C 31.72505 -0.18393 1.31654
C 31.74480 -1.56251 1.83924
C 31.71806 -1.40868 3.22397
C 31.65727 -0.02259 3.54545
C 31.72461 -2.75077 1.05690
C 31.70183 -2.09359 4.50635
O 31.82971 -3.26498 4.86549
C 31.35200 -1.02956 5.63829
C 32.33804 -1.21729 6.75891
O 33.54777 -0.95715 6.59688
O 31.67354 -1.44282 7.90263
C 32.59274 -1.60860 9.06010
H 29.67508 5.70023 5.29728
H 31.25149 5.70656 -0.74001
H 31.81058 -0.54809 -0.66308
H 30.04829 1.23649 7.38356
H 29.98717 4.05267 7.27029
H 28.09959 1.93027 6.32249
H 28.04694 3.46240 5.39726
H 27.72364 3.51896 7.10690
H 32.25100 3.30885 7.45229
H 32.72994 1.56440 7.45034
H 30.77336 1.96054 9.47565
H 31.66401 3.43490 9.44607
H 30.16598 7.72607 4.98451
H 29.83420 8.68298 3.59157
H 31.49929 8.67460 4.22776
H 30.82129 9.69903 1.85661
H 32.10366 10.09981 0.58250
H 32.51096 9.39415 2.16966
H 32.07776 3.95669 -2.40005
H 30.80548 1.26432 -2.37906
H 30.18609 4.33012 -3.57799
H 29.26770 4.10205 -2.05048
H 29.50713 2.78963 -3.08353
H 32.83282 1.85763 -3.75971
H 32.95385 0.33793 -2.88010
H 34.19367 2.95179 -2.45903
H 34.98392 1.33968 -2.40158
H 34.00017 1.97898 -1.00938
H 32.45442 -3.42420 1.50616
H 31.96634 -2.54290 0.01480
H 30.68914 -3.06328 1.19104
H 30.32936 -1.23298 5.95444
H 32.36250 -2.57086 9.51758
H 32.48016 -0.71588 9.67555
H 33.64867 -1.74138 8.82192
