79

Mg 8.94103 0.80833 0.68574
C 8.40686 -1.39664 3.46635
C 7.97471 3.36834 2.72221
C 8.96734 2.70800 -1.85552
C 8.75236 -1.98626 -1.38798
N 8.29796 0.85396 2.80155
C 8.19292 -0.03725 3.77574
C 7.91732 0.57107 5.17701
C 7.24636 1.95371 4.71119
C 7.90274 2.09392 3.33927
C 5.74275 1.85646 4.51359
C 9.23568 0.81800 5.99124
C 9.02704 1.11900 7.47705
H 10.01061 0.61854 8.43341
N 9.00887 2.78794 0.56278
C 8.59522 3.67556 1.49139
C 8.84075 5.00604 0.91370
C 9.28014 4.83095 -0.49732
C 9.07808 3.40534 -0.66136
C 8.73094 6.27261 1.71193
C 9.78498 5.79021 -1.53229
O 9.88265 5.45905 -2.76665
C 10.07311 7.15716 -1.07413
N 8.65974 0.45293 -1.34327
C 8.77609 1.44644 -2.24179
C 8.80591 0.90616 -3.65161
C 8.92921 -0.68118 -3.50088
C 8.85630 -0.79570 -1.96238
C 7.59267 1.24207 -4.51856
C 10.11114 -1.36843 -4.23804
C 11.42233 -0.95246 -3.61104
N 8.82174 -1.33074 0.96533
C 8.72563 -2.31826 -0.03949
C 8.55291 -3.61752 0.64208
C 8.53730 -3.29041 2.00636
C 8.66928 -1.88419 2.16321
C 8.38699 -4.87758 0.00112
C 8.42852 -3.81383 3.34908
O 8.38554 -4.94056 3.84138
C 8.21223 -2.59780 4.34951
C 9.15513 -2.77592 5.50784
O 10.38531 -2.71211 5.33701
O 8.45030 -2.77481 6.65395
C 9.34298 -2.93763 7.83227
H 7.47238 4.20739 3.20445
H 9.08160 3.30562 -2.76286
H 8.78423 -2.91554 -1.96078
H 7.22226 0.00778 5.78805
H 7.54089 2.77413 5.36043
H 5.38927 0.84019 4.60510
H 5.55178 2.23526 3.51806
H 5.22779 2.53612 5.19859
H 9.68351 1.76668 5.66844
H 9.91170 -0.00754 5.88124
H 8.01031 0.87502 7.80823
H 9.10591 2.19851 7.62684
H 8.22979 6.10055 2.67247
H 8.05175 6.93657 1.16630
H 9.69196 6.77592 1.83763
H 9.17262 7.59231 -0.64727
H 10.50743 7.66857 -1.93536
H 10.81181 7.10700 -0.26640
H 9.67015 1.27627 -4.18939
H 8.04276 -1.19815 -3.89684
H 7.85759 1.76876 -5.45477
H 6.90609 1.83558 -3.92957
H 6.97719 0.38988 -4.80165
H 10.14830 -1.04240 -5.28038
H 10.04693 -2.45141 -4.24146
H 11.63237 0.00749 -4.09215
H 12.19976 -1.68184 -3.82932
H 11.30311 -0.76416 -2.53774
H 9.00798 -5.58341 0.53654
H 8.65798 -4.82700 -1.05139
H 7.31329 -5.02807 0.14176
H 7.16833 -2.61485 4.66503
H 8.97634 -3.80249 8.39377
H 9.33488 -1.96034 8.35052
H 10.37080 -3.22649 7.64627
