158

Mg 0.00000 0.00000 0.00000
C -0.21700 -2.21800 2.80100
C -1.25500 2.44200 2.02600
C -0.24500 1.85000 -2.56400
C 0.14600 -2.82400 -2.03700
N -0.61700 -0.00900 2.12600
C -0.59400 -0.90800 3.10500
C -0.93600 -0.30900 4.50200
C -1.77300 0.96400 4.03200
C -1.15500 1.16800 2.66000
C -3.26300 0.68500 3.86300
C 0.34500 0.11000 5.29900
C 0.12400 0.39700 6.78700
H 1.16800 0.03300 7.73300
N -0.18500 1.96100 -0.15200
C -0.70300 2.80000 0.77700
C -0.62000 4.15600 0.19300
C -0.18700 4.01500 -1.22500
C -0.21400 2.58300 -1.38000
C -0.88700 5.40600 0.97400
C 0.18100 5.01300 -2.27700
O 0.30300 4.69000 -3.50800
C 0.31000 6.41400 -1.83700
N -0.26500 -0.41300 -2.02900
C -0.27900 0.56900 -2.93700
C -0.19600 0.02400 -4.33200
C 0.12400 -1.53300 -4.18000
C 0.08600 -1.63200 -2.63500
C -1.45100 0.20500 -5.19700
C 1.37300 -2.07000 -4.92300
C 2.62600 -1.49000 -4.30600
N 0.15000 -2.14400 0.30300
C 0.17300 -3.13600 -0.68800
C 0.17300 -4.43800 0.00400
C 0.13300 -4.11100 1.35800
C 0.08300 -2.69500 1.50200
C 0.14900 -5.71500 -0.62300
C 0.09600 -4.62900 2.71600
O 0.20800 -5.74700 3.22100
C -0.25500 -3.42800 3.70100
C 0.71700 -3.48200 4.84800
O 1.93100 -3.25500 4.66900
O 0.03800 -3.55600 6.00300
C 0.94300 -3.58300 7.18300
H -1.85900 3.22000 2.49700
H -0.21800 2.45300 -3.47400
H 0.27600 -3.74700 -2.60500
H -1.55400 -0.94900 5.13200
H -1.58500 1.83100 4.66500
H -3.48400 -0.37700 3.96900
H -3.51100 1.02700 2.85800
H -3.85200 1.30100 4.54300
H 0.66900 1.09600 4.96600
H 1.13000 -0.63900 5.18900
H -0.84400 0.02600 7.12500
H 0.06200 1.47700 6.92100
H -1.34400 5.18600 1.93800
H -1.65100 5.96300 0.43200
H 0.00700 6.02000 1.08400
H -0.63500 6.74400 -1.40500
H 0.66500 6.97000 -2.70400
H 1.04800 6.46600 -1.03600
H 0.60800 0.50100 -4.89100
H -0.69200 -2.15600 -4.54700
H -1.26700 0.74000 -6.12900
H -2.20400 0.71400 -4.59600
H -1.96700 -0.72000 -5.45300
H 1.35600 -1.75900 -5.96700
H 1.45200 -3.15700 -4.90200
H 2.71400 -0.52200 -4.79800
H 3.48700 -2.12100 -4.52900
H 2.49500 -1.30300 -3.24000
H 0.86700 -6.33300 -0.08400
H 0.40400 -5.64200 -1.68000
H -0.89100 -5.99900 -0.46300
H -1.28300 -3.58100 4.02800
H 0.69800 -4.47800 7.75500
H 0.83300 -2.61900 7.68000
H 2.00000 -3.75400 6.97600
Mg 10.50265 0.94985 0.80411
C 8.20703 -1.78949 0.47967
C 8.13629 2.91288 -0.67286
C 12.65956 3.27268 0.66411
C 13.04332 -1.40541 1.18281
N 8.47300 0.50411 0.04641
C 7.68271 -0.55871 0.03278
C 6.22441 -0.27018 -0.41408
C 6.49462 1.05997 -1.27233
C 7.76084 1.54941 -0.57246
C 6.83123 0.77931 -2.72741
C 5.27214 0.01336 0.80033
C 3.77929 -0.00241 0.46431
H 2.84686 -0.52091 1.46141
N 10.26993 2.90541 0.55879
C 9.23777 3.53288 -0.04304
C 9.55024 4.96920 0.01639
C 10.92833 5.12753 0.55539
C 11.35649 3.74362 0.59502
C 8.55400 6.03409 -0.33989
C 11.73286 6.32709 0.95537
O 12.99363 6.25020 1.17304
C 11.01930 7.61194 0.99379
N 12.57884 0.94142 0.69608
C 13.27600 2.09115 0.70020
C 14.75128 1.83383 0.89439
C 14.87188 0.28240 1.26332
C 13.38898 -0.12660 1.12509
C 15.64411 2.14177 -0.30745
C 15.61685 -0.07220 2.57936
C 14.81914 0.40936 3.76981
N 10.61404 -1.19744 1.01579
C 11.78112 -1.98334 1.13561
C 11.35518 -3.39791 1.13716
C 9.96082 -3.33701 0.99384
C 9.54897 -1.98098 0.88868
C 12.21907 -4.52672 1.21203
C 8.74476 -4.11193 0.89694
O 8.46333 -5.30440 1.00898
C 7.56796 -3.14963 0.43271
C 6.38420 -3.39879 1.32667
O 6.43771 -3.12244 2.53802
O 5.31871 -3.71605 0.56875
C 4.11686 -3.96154 1.40965
H 7.55790 3.56327 -1.32963
H 13.43507 4.03928 0.73044
H 13.76571 -2.19635 1.39553
H 5.78208 -1.03432 -1.04193
H 5.68907 1.77935 -1.15008
H 6.94950 -0.27720 -2.91703
H 7.75720 1.30455 -2.92173
H 6.08302 1.23521 -3.38212
H 5.38473 1.06135 1.10657
H 5.46850 -0.66758 1.60556
H 3.58229 -0.45197 -0.51652
H 3.43619 1.02976 0.35984
H 7.68392 5.61348 -0.85897
H 9.02939 6.67993 -1.08605
H 8.26197 6.64203 0.51906
H 10.59946 7.82134 0.01280
H 11.73795 8.33368 1.38686
H 10.17404 7.52215 1.68523
H 15.14154 2.42180 1.71603
H 15.42518 -0.27732 0.49494
H 16.44781 2.86721 -0.07963
H 15.01955 2.50646 -1.11210
H 16.12292 1.27562 -0.76103
H 16.57892 0.44438 2.62094
H 15.81575 -1.13286 2.69077
H 15.10491 1.46255 3.84865
H 15.09635 -0.14294 4.66544
H 13.74324 0.37435 3.56280
H 11.76591 -5.21995 1.90814
H 13.21994 -4.24107 1.52895
H 12.19730 -4.85840 0.17050
H 7.34874 -3.37992 -0.61059
H 3.74862 -4.96060 1.15675
H 3.43756 -3.11027 1.21563
H 4.26410 -4.05489 2.47925
