79

Mg 8.94216 0.80316 0.67174
C 8.60931 3.81588 -1.24967
C 8.43453 -0.92357 -2.22573
C 8.78109 -1.85322 2.39948
C 8.28551 2.70870 3.51488
N 8.58076 1.47196 -1.40536
C 8.53669 2.64092 -2.02660
C 8.48821 2.54491 -3.57514
C 7.86586 1.07025 -3.70528
C 8.34939 0.48313 -2.38082
C 6.34628 1.05638 -3.70745
C 9.91458 2.62571 -4.22396
C 9.92073 2.84892 -5.73787
H 10.97960 3.67188 -6.31579
N 9.13808 -1.09569 0.12902
C 8.91287 -1.61982 -1.09402
C 9.17882 -3.06130 -0.96919
C 9.41969 -3.37126 0.46630
C 9.09467 -2.09446 1.06981
C 9.26509 -3.97846 -2.15443
C 9.85635 -4.61510 1.17931
O 9.77049 -4.72627 2.45332
C 10.29993 -5.73358 0.33448
N 8.37781 0.43212 2.63800
C 8.45025 -0.80656 3.15602
C 8.25951 -0.78344 4.65385
C 8.28483 0.76147 5.06637
C 8.40163 1.39619 3.66320
C 6.97292 -1.42689 5.17062
C 9.30910 1.18236 6.15560
C 10.71672 1.03994 5.62295
N 8.70377 2.90429 1.11501
C 8.40774 3.48338 2.36844
C 8.22940 4.93308 2.14705
C 8.41279 5.09475 0.76549
C 8.66616 3.83194 0.16499
C 7.89107 5.89138 3.14369
C 8.43914 6.04509 -0.32302
O 8.37745 7.27097 -0.40761
C 8.44232 5.24226 -1.69483
C 9.51041 5.83110 -2.57515
O 10.70988 5.74290 -2.25877
O 8.96033 6.20671 -3.74421
C 9.98244 6.78682 -4.65558
H 8.06083 -1.55778 -3.03009
H 8.82140 -2.72338 3.05879
H 8.17571 3.38485 4.36544
H 7.83797 3.26657 -4.05489
H 8.30035 0.53065 -4.54279
H 5.93417 2.03307 -3.50159
H 6.05741 0.35375 -2.93678
H 5.97443 0.64118 -4.64855
H 10.38541 1.63528 -4.17816
H 10.50880 3.37955 -3.74515
H 8.93977 3.16665 -6.11166
H 10.09679 1.88903 -6.22944
H 8.88002 -3.49906 -3.06289
H 8.57186 -4.80615 -1.96938
H 10.26846 -4.38391 -2.30112
H 9.49582 -6.01756 -0.34021
H 10.65642 -6.49903 1.02650
H 11.13044 -5.39047 -0.29253
H 9.07236 -1.29440 5.15513
H 7.31955 1.08866 5.47992
H 7.15336 -2.23665 5.90260
H 6.41274 -1.79848 4.32289
H 6.26563 -0.73951 5.63154
H 9.23602 0.51882 7.02077
H 9.16605 2.19619 6.51431
H 10.93289 -0.02139 5.77762
H 11.40437 1.66878 6.18485
H 10.75018 1.22930 4.54375
H 8.52236 6.75342 2.97378
H 8.02783 5.48870 4.14515
H 6.83616 6.05444 2.90736
H 7.44905 5.34094 -2.13445
H 9.62864 7.78266 -4.93985
H 10.11227 6.04744 -5.46811
H 10.95406 7.01945 -4.23571
