158

Mg 0.00000 0.00000 0.00000
C -0.21700 -2.21800 2.80100
C -1.25500 2.44200 2.02600
C -0.24500 1.85000 -2.56400
C 0.14600 -2.82400 -2.03700
N -0.61700 -0.00900 2.12600
C -0.59400 -0.90800 3.10500
C -0.93600 -0.30900 4.50200
C -1.77300 0.96400 4.03200
C -1.15500 1.16800 2.66000
C -3.26300 0.68500 3.86300
C 0.34500 0.11000 5.29900
C 0.12400 0.39700 6.78700
H 1.16800 0.03300 7.73300
N -0.18500 1.96100 -0.15200
C -0.70300 2.80000 0.77700
C -0.62000 4.15600 0.19300
C -0.18700 4.01500 -1.22500
C -0.21400 2.58300 -1.38000
C -0.88700 5.40600 0.97400
C 0.18100 5.01300 -2.27700
O 0.30300 4.69000 -3.50800
C 0.31000 6.41400 -1.83700
N -0.26500 -0.41300 -2.02900
C -0.27900 0.56900 -2.93700
C -0.19600 0.02400 -4.33200
C 0.12400 -1.53300 -4.18000
C 0.08600 -1.63200 -2.63500
C -1.45100 0.20500 -5.19700
C 1.37300 -2.07000 -4.92300
C 2.62600 -1.49000 -4.30600
N 0.15000 -2.14400 0.30300
C 0.17300 -3.13600 -0.68800
C 0.17300 -4.43800 0.00400
C 0.13300 -4.11100 1.35800
C 0.08300 -2.69500 1.50200
C 0.14900 -5.71500 -0.62300
C 0.09600 -4.62900 2.71600
O 0.20800 -5.74700 3.22100
C -0.25500 -3.42800 3.70100
C 0.71700 -3.48200 4.84800
O 1.93100 -3.25500 4.66900
O 0.03800 -3.55600 6.00300
C 0.94300 -3.58300 7.18300
H -1.85900 3.22000 2.49700
H -0.21800 2.45300 -3.47400
H 0.27600 -3.74700 -2.60500
H -1.55400 -0.94900 5.13200
H -1.58500 1.83100 4.66500
H -3.48400 -0.37700 3.96900
H -3.51100 1.02700 2.85800
H -3.85200 1.30100 4.54300
H 0.66900 1.09600 4.96600
H 1.13000 -0.63900 5.18900
H -0.84400 0.02600 7.12500
H 0.06200 1.47700 6.92100
H -1.34400 5.18600 1.93800
H -1.65100 5.96300 0.43200
H 0.00700 6.02000 1.08400
H -0.63500 6.74400 -1.40500
H 0.66500 6.97000 -2.70400
H 1.04800 6.46600 -1.03600
H 0.60800 0.50100 -4.89100
H -0.69200 -2.15600 -4.54700
H -1.26700 0.74000 -6.12900
H -2.20400 0.71400 -4.59600
H -1.96700 -0.72000 -5.45300
H 1.35600 -1.75900 -5.96700
H 1.45200 -3.15700 -4.90200
H 2.71400 -0.52200 -4.79800
H 3.48700 -2.12100 -4.52900
H 2.49500 -1.30300 -3.24000
H 0.86700 -6.33300 -0.08400
H 0.40400 -5.64200 -1.68000
H -0.89100 -5.99900 -0.46300
H -1.28300 -3.58100 4.02800
H 0.69800 -4.47800 7.75500
H 0.83300 -2.61900 7.68000
H 2.00000 -3.75400 6.97600
Mg 7.88314 0.70970 0.59883
C 7.26397 3.38189 2.89845
C 6.99867 2.85575 -1.90222
C 7.98322 -1.75043 -1.39976
C 7.61216 -1.47863 3.29761
N 7.23458 2.82619 0.62125
C 7.09594 3.75424 1.56288
C 6.82911 5.17897 0.99161
C 6.21505 4.77225 -0.42243
C 6.88224 3.41936 -0.59691
C 4.70288 4.57439 -0.39580
C 8.14612 6.00965 0.82671
C 7.94719 7.50912 0.58721
H 8.90239 8.44317 1.16384
N 8.01690 0.66447 -1.37168
C 7.62315 1.63355 -2.23257
C 7.93241 1.12608 -3.58664
C 8.36267 -0.29349 -3.45326
C 8.10979 -0.52754 -2.05446
C 7.85478 1.97239 -4.82013
C 8.90436 -1.28537 -4.43351
O 8.99521 -2.53114 -4.16081
C 9.24784 -0.76754 -5.77027
N 7.59196 -1.34136 0.85576
C 7.75149 -2.19386 -0.16246
C 7.77129 -3.61599 0.31408
C 7.83538 -3.54722 1.90810
C 7.75431 -2.01046 2.08146
C 6.57712 -4.48121 -0.11180
C 8.99556 -4.30719 2.59866
C 10.31391 -3.64760 2.26104
N 7.68286 0.89527 2.75208
C 7.56470 -0.14872 3.68095
C 7.34406 0.47033 5.00086
C 7.33257 1.83989 4.74392
C 7.50709 2.06136 3.34793
C 7.12740 -0.22639 6.22237
C 7.18884 3.16683 5.32048
O 7.11151 3.61036 6.46713
C 7.01680 4.21334 4.13261
C 7.94691 5.36452 4.40279
O 9.18460 5.20951 4.36463
O 7.24419 6.50737 4.42785
C 8.11190 7.69237 4.66241
H 6.51852 3.36339 -2.74108
H 8.12264 -2.62547 -2.03796
H 7.60305 -2.09549 4.19809
H 6.10551 5.76696 1.55648
H 6.52789 5.45385 -1.21317
H 4.31302 4.61957 0.62100
H 4.53085 3.58756 -0.82598
H 4.20787 5.28190 -1.06151
H 8.62956 5.73458 -0.11067
H 8.80308 5.86571 1.68520
H 6.92641 7.81719 0.81525
H 8.05632 7.70195 -0.48008
H 7.35125 2.91852 -4.62563
H 7.19955 1.45494 -5.52057
H 8.83335 2.12434 -5.27581
H 8.36018 -0.32671 -6.22444
H 9.70270 -1.59922 -6.30717
H 9.97016 0.04187 -5.66049
H 8.65113 -4.14038 -0.05650
H 6.93697 -3.95555 2.37157
H 6.86101 -5.38053 -0.65892
H 5.90455 -3.86000 -0.70259
H 5.92451 -4.79262 0.70340
H 9.04726 -5.33254 2.23407
H 8.89931 -4.34549 3.68379
H 10.56440 -4.08459 1.29505
H 11.06678 -3.89714 3.00945
H 10.19539 -2.57415 2.11218
H 7.72753 0.28427 6.97538
H 7.40972 -1.27536 6.13536
H 6.05266 -0.09190 6.34366
H 5.97186 4.52191 4.13557
H 7.71669 8.21181 5.53546
H 8.14858 8.24078 3.72097
H 9.13149 7.48599 4.98980
