79

Mg 13.13285 1.18968 1.00378
C 15.36583 1.80812 3.74429
C 10.88262 0.03543 3.29262
C 11.32264 0.21711 -1.41379
C 15.90765 1.30391 -1.10172
N 13.22774 0.99756 3.20523
C 14.10361 1.32211 4.14431
C 13.56919 1.18976 5.59566
C 12.41196 0.10895 5.32818
C 12.12472 0.41668 3.86002
C 12.89563 -1.32812 5.42921
C 12.98083 2.53815 6.14127
C 12.72504 2.56449 7.64979
H 12.94323 3.81536 8.37102
N 11.20426 0.72478 0.94938
C 10.44149 0.29521 1.97648
C 9.10004 0.07178 1.41544
C 9.17382 0.24671 -0.06059
C 10.60532 0.38557 -0.23836
C 7.89453 -0.19332 2.26977
C 8.13001 0.27061 -1.13581
O 8.44036 0.19785 -2.37727
C 6.72931 0.28754 -0.68946
N 13.57422 0.60410 -0.94163
C 12.59566 0.27949 -1.80474
C 13.12774 0.16036 -3.21296
C 14.62776 0.71171 -3.15355
C 14.73781 0.98288 -1.63705
C 13.12655 -1.24774 -3.80765
C 14.99666 1.85547 -4.13762
C 14.24919 3.11619 -3.76716
N 15.22680 1.67819 1.21538
C 16.21834 1.63574 0.21082
C 17.50956 1.94107 0.86039
C 17.18036 2.11873 2.21263
C 15.78571 1.91709 2.39649
C 18.77781 1.97555 0.21505
C 17.69719 2.42055 3.52811
O 18.79069 2.76638 3.97351
C 16.56538 2.10849 4.59956
C 16.48007 3.27964 5.53959
O 16.10375 4.39220 5.13069
O 16.64608 2.84446 6.80190
C 16.55867 3.96826 7.77209
H 10.19525 -0.55584 3.89826
H 10.72722 -0.01045 -2.30102
H 16.80452 1.45496 -1.70627
H 14.28474 0.79943 6.30939
H 11.53525 0.30974 5.93844
H 13.96743 -1.38506 5.54819
H 12.59136 -1.80641 4.50741
H 12.36295 -1.84976 6.22951
H 11.95297 2.65478 5.77435
H 13.60574 3.36548 5.86622
H 13.21844 1.73208 8.16612
H 11.65983 2.39439 7.82415
H 8.17774 -0.42928 3.30297
H 7.43480 -1.11500 1.89691
H 7.15916 0.61269 2.22232
H 6.53540 -0.58859 -0.07524
H 6.13418 0.39394 -1.59852
H 6.57736 1.16212 -0.04710
H 12.55434 0.77468 -3.89628
H 15.36052 -0.07493 -3.38611
H 12.56124 -1.32058 -4.75591
H 12.72251 -1.92913 -3.07077
H 14.11200 -1.66994 -3.99693
H 14.68521 1.59691 -5.15266
H 16.05961 2.06989 -4.17170
H 13.27366 2.97309 -4.24145
H 14.75644 3.99304 -4.16451
H 14.08445 3.17242 -2.68487
H 19.29311 2.85079 0.58779
H 18.67240 2.00621 -0.86741
H 19.19796 1.02694 0.55986
H 16.84672 1.18943 5.11506
H 17.48164 3.95531 8.36000
H 15.60998 3.81643 8.32044
H 16.57541 4.97621 7.37434
