79

Mg 15.76628 1.41940 1.19766
C 15.51484 4.01567 -1.25354
C 15.27854 -0.81457 -1.33503
C 15.53090 -0.85499 3.39502
C 15.10173 3.84014 3.61511
N 15.45091 1.68872 -0.97688
C 15.43586 2.73267 -1.79975
C 15.40430 2.33238 -3.30512
C 14.76655 0.87781 -3.16549
C 15.22125 0.54762 -1.75476
C 13.24174 0.87490 -3.20340
C 16.83682 2.27184 -3.93437
C 16.87645 2.21008 -5.46407
H 17.95098 2.89664 -6.16504
N 15.93527 -0.54214 1.03445
C 15.71463 -1.28428 -0.07723
C 15.97213 -2.68752 0.31176
C 16.17567 -2.72079 1.78674
C 15.85873 -1.36038 2.13914
C 16.05315 -3.81287 -0.67351
C 16.57989 -3.80902 2.73040
O 16.47180 -3.68480 3.99825
C 17.02863 -5.07400 2.12087
N 15.15721 1.43146 3.19429
C 15.20622 0.32044 3.93741
C 14.99626 0.62599 5.39085
C 15.03471 2.21725 5.51809
C 15.18733 2.57033 4.01799
C 13.69291 0.09630 6.00462
C 16.04843 2.81795 6.52405
C 17.45978 2.56573 6.04283
N 15.54912 3.57870 1.23404
C 15.25104 4.37747 2.34749
C 15.09901 5.76029 1.85886
C 15.30420 5.66663 0.48374
C 15.54173 4.30721 0.13181
C 14.75058 6.89022 2.65025
C 15.35365 6.39510 -0.77354
O 15.32004 7.58574 -1.08778
C 15.37121 5.33828 -1.96460
C 16.46120 5.74605 -2.91800
O 17.66082 5.69479 -2.57793
O 15.94239 5.90293 -4.14551
C 16.97673 6.27907 -5.14592
H 14.90102 -1.58961 -2.00491
H 15.54812 -1.59139 4.20116
H 14.97775 4.66153 4.32321
H 14.76745 2.95978 -3.92898
H 15.19809 0.17422 -3.87715
H 12.84096 1.88837 -3.19049
H 12.92946 0.33064 -2.31191
H 12.87646 0.29532 -4.05160
H 17.29288 1.31049 -3.69800
H 17.44453 3.10997 -3.59153
H 15.91044 2.46880 -5.89858
H 17.03767 1.17342 -5.75997
H 15.69706 -3.51014 -1.65744
H 15.34181 -4.57206 -0.34895
H 17.05333 -4.24356 -0.72325
H 16.22972 -5.47654 1.49776
H 17.36186 -5.70343 2.94526
H 17.86431 -4.86665 1.45185
H 15.79292 0.19966 5.99913
H 14.07407 2.62574 5.83270
H 13.84709 -0.55194 6.86759
H 13.13729 -0.41977 5.22215
H 12.98218 0.86647 6.30313
H 15.94978 2.33518 7.49572
H 15.92333 3.89060 6.67243
H 17.66144 1.55595 6.39851
H 18.14843 3.28248 6.49143
H 17.51125 2.54405 4.95408
H 15.40527 7.70060 2.32986
H 14.86993 6.68123 3.71311
H 13.70692 7.02226 2.36527
H 14.38642 5.37346 -2.42944
H 16.64688 7.20572 -5.61577
H 17.11832 5.40904 -5.78733
H 17.94487 6.58388 -4.74699
