79

Mg 7.89075 0.71456 0.60438
C 8.15797 -1.46505 3.44285
C 7.08350 3.21022 2.78488
C 7.20881 2.54402 -1.89672
C 7.59025 -2.13450 -1.38012
N 7.68084 0.74534 2.80602
C 7.86703 -0.12784 3.78441
C 7.81313 0.48290 5.21047
C 6.92008 1.77708 4.88420
C 7.27143 1.95067 3.40802
C 5.42621 1.52034 4.99263
C 9.23347 0.88446 5.74281
C 9.29423 1.19859 7.23927
H 10.49597 0.82590 7.98047
N 7.72244 2.68699 0.46380
C 7.41029 3.54963 1.45359
C 7.39335 4.88380 0.83402
C 7.55895 4.72052 -0.63589
C 7.48059 3.27808 -0.75137
C 7.31107 6.15143 1.63388
C 7.74291 5.70114 -1.75425
O 7.62734 5.35172 -2.98201
C 7.96993 7.10134 -1.36772
N 7.25028 0.28246 -1.32576
C 7.07932 1.26038 -2.23261
C 6.88487 0.69172 -3.61796
C 7.20333 -0.87025 -3.48981
C 7.45086 -0.95399 -1.96761
C 5.49463 0.87928 -4.22495
C 8.28082 -1.44966 -4.44687
C 9.63898 -0.88535 -4.09707
N 8.05704 -1.41792 0.90924
C 7.86799 -2.43438 -0.05260
C 7.97324 -3.72745 0.65403
C 8.19507 -3.37041 1.99261
C 8.20578 -1.95465 2.11517
C 7.81755 -5.01322 0.06353
C 8.41203 -3.86923 3.33156
O 8.58768 -4.98199 3.82618
C 8.27163 -2.65790 4.35105
C 9.43980 -2.70933 5.29722
O 10.59747 -2.52308 4.88282
O 8.98130 -2.75292 6.56143
C 10.10291 -2.79385 7.53721
H 6.60121 4.00449 3.35535
H 7.07603 3.12785 -2.81049
H 7.60574 -3.06927 -1.94461
H 7.31742 -0.13400 5.95039
H 7.24934 2.63917 5.45844
H 5.20783 0.47555 5.15654
H 5.00171 1.85292 4.05441
H 4.98889 2.15977 5.76477
H 9.50487 1.86611 5.33360
H 9.95769 0.13067 5.50212
H 8.39555 0.85915 7.76851
H 9.28643 2.28382 7.36663
H 7.03240 5.95212 2.67600
H 6.47031 6.72818 1.23344
H 8.21896 6.75418 1.56254
H 7.13153 7.45153 -0.77030
H 8.16729 7.63361 -2.30025
H 8.85577 7.14748 -0.72446
H 7.58047 1.13579 -4.31942
H 6.31569 -1.48549 -3.69816
H 5.51040 1.40742 -5.19701
H 4.88014 1.41299 -3.51215
H 4.92900 -0.03857 -4.37599
H 8.07486 -1.14715 -5.47654
H 8.33243 -2.53325 -4.43377
H 9.64599 0.07909 -4.61369
H 10.43023 -1.53570 -4.46450
H 9.71663 -0.68415 -3.02230
H 8.60401 -5.63786 0.46579
H 7.86656 -4.96071 -1.02211
H 6.81550 -5.27024 0.41724
H 7.31930 -2.77489 4.86966
H 9.94927 -3.67793 8.16369
H 10.09461 -1.81022 8.04332
H 11.09781 -2.97953 7.14972
