158

Mg 0.00000 0.00000 0.00000
C -0.21700 -2.21800 2.80100
C -1.25500 2.44200 2.02600
C -0.24500 1.85000 -2.56400
C 0.14600 -2.82400 -2.03700
N -0.61700 -0.00900 2.12600
C -0.59400 -0.90800 3.10500
C -0.93600 -0.30900 4.50200
C -1.77300 0.96400 4.03200
C -1.15500 1.16800 2.66000
C -3.26300 0.68500 3.86300
C 0.34500 0.11000 5.29900
C 0.12400 0.39700 6.78700
H 1.16800 0.03300 7.73300
N -0.18500 1.96100 -0.15200
C -0.70300 2.80000 0.77700
C -0.62000 4.15600 0.19300
C -0.18700 4.01500 -1.22500
C -0.21400 2.58300 -1.38000
C -0.88700 5.40600 0.97400
C 0.18100 5.01300 -2.27700
O 0.30300 4.69000 -3.50800
C 0.31000 6.41400 -1.83700
N -0.26500 -0.41300 -2.02900
C -0.27900 0.56900 -2.93700
C -0.19600 0.02400 -4.33200
C 0.12400 -1.53300 -4.18000
C 0.08600 -1.63200 -2.63500
C -1.45100 0.20500 -5.19700
C 1.37300 -2.07000 -4.92300
C 2.62600 -1.49000 -4.30600
N 0.15000 -2.14400 0.30300
C 0.17300 -3.13600 -0.68800
C 0.17300 -4.43800 0.00400
C 0.13300 -4.11100 1.35800
C 0.08300 -2.69500 1.50200
C 0.14900 -5.71500 -0.62300
C 0.09600 -4.62900 2.71600
O 0.20800 -5.74700 3.22100
C -0.25500 -3.42800 3.70100
C 0.71700 -3.48200 4.84800
O 1.93100 -3.25500 4.66900
O 0.03800 -3.55600 6.00300
C 0.94300 -3.58300 7.18300
H -1.85900 3.22000 2.49700
H -0.21800 2.45300 -3.47400
H 0.27600 -3.74700 -2.60500
H -1.55400 -0.94900 5.13200
H -1.58500 1.83100 4.66500
H -3.48400 -0.37700 3.96900
H -3.51100 1.02700 2.85800
H -3.85200 1.30100 4.54300
H 0.66900 1.09600 4.96600
H 1.13000 -0.63900 5.18900
H -0.84400 0.02600 7.12500
H 0.06200 1.47700 6.92100
H -1.34400 5.18600 1.93800
H -1.65100 5.96300 0.43200
H 0.00700 6.02000 1.08400
H -0.63500 6.74400 -1.40500
H 0.66500 6.97000 -2.70400
H 1.04800 6.46600 -1.03600
H 0.60800 0.50100 -4.89100
H -0.69200 -2.15600 -4.54700
H -1.26700 0.74000 -6.12900
H -2.20400 0.71400 -4.59600
H -1.96700 -0.72000 -5.45300
H 1.35600 -1.75900 -5.96700
H 1.45200 -3.15700 -4.90200
H 2.71400 -0.52200 -4.79800
H 3.48700 -2.12100 -4.52900
H 2.49500 -1.30300 -3.24000
H 0.86700 -6.33300 -0.08400
H 0.40400 -5.64200 -1.68000
H -0.89100 -5.99900 -0.46300
H -1.28300 -3.58100 4.02800
H 0.69800 -4.47800 7.75500
H 0.83300 -2.61900 7.68000
H 2.00000 -3.75400 6.97600
Mg 31.54054 2.84363 2.40036
C 31.97079 0.67614 5.22806
C 30.88892 5.35566 4.61389
C 30.71521 4.66560 -0.06271
C 31.09652 -0.01292 0.45391
N 31.46962 2.88672 4.61064
C 31.71100 2.01705 5.58005
C 31.75098 2.63515 7.00340
C 30.84802 3.93404 6.72696
C 31.10707 4.09787 5.23072
C 29.36220 3.68848 6.93038
C 33.20467 3.02918 7.44332
C 33.36150 3.35021 8.93130
H 34.60489 2.97261 9.59754
N 31.37714 4.81650 2.26009
C 31.13370 5.68619 3.26290
C 31.08693 7.01739 2.63849
C 31.15870 6.84572 1.16198
C 31.06343 5.40333 1.05937
C 31.06370 8.28948 3.43515
C 31.27868 7.81950 0.02904
O 31.08379 7.46489 -1.18714
C 31.53906 9.21993 0.39306
N 30.77710 2.40664 0.51660
C 30.55614 3.38129 -0.38294
C 30.27114 2.80723 -1.75028
C 30.58639 1.24368 -1.63404
C 30.92853 1.16565 -0.12996
C 28.84681 3.00171 -2.26974
C 31.59764 0.65192 -2.65377
C 32.97890 1.20825 -2.39300
N 31.71114 0.71155 2.70557
C 31.45511 -0.30825 1.76295
C 31.59576 -1.59855 2.46848
C 31.90371 -1.23653 3.78855
C 31.93173 0.17969 3.90263
C 31.39452 -2.88606 1.89581
C 32.20099 -1.73031 5.11388
O 32.39981 -2.84185 5.60244
C 32.13318 -0.51302 6.13368
C 33.35814 -0.56813 7.00487
O 34.48872 -0.39217 6.51759
O 32.97971 -0.60225 8.29560
C 34.16013 -0.64637 9.19920
H 30.44885 6.15613 5.20927
H 30.52924 5.24588 -0.96945
H 31.07016 -0.95054 -0.10542
H 31.29857 2.02544 7.77629
H 31.21857 4.79657 7.27477
H 29.14745 2.64609 7.11327
H 28.88185 4.01947 6.01892
H 28.97864 4.33480 7.72504
H 33.45649 4.00685 7.01262
H 33.90719 2.26908 7.16164
H 32.49557 3.01978 9.51776
H 33.36910 4.43608 9.05310
H 30.84973 8.09729 4.49377
H 30.20338 8.87024 3.08524
H 31.96940 8.88539 3.30371
H 30.74227 9.57901 1.04009
H 31.68104 9.74619 -0.55286
H 32.46387 9.26292 0.97915
H 30.92429 3.24289 -2.49641
H 29.68324 0.63377 -1.78292
H 28.80505 3.52495 -3.24367
H 28.28197 3.54328 -1.52260
H 28.26657 2.08719 -2.38004
H 31.32943 0.95084 -3.67007
H 31.64259 -0.43193 -2.63815
H 32.95999 2.17007 -2.91419
H 33.74105 0.55048 -2.80592
H 33.12532 1.41417 -1.32631
H 32.20044 -3.51431 2.25121
H 31.37556 -2.83924 0.80897
H 30.41496 -3.13420 2.31313
H 31.21455 -0.62068 6.71171
H 34.04015 -1.52625 9.83882
H 34.19035 0.33976 9.69957
H 35.12742 -0.84104 8.75098
