158

Mg 0.00000 0.00000 0.00000
C -0.21700 -2.21800 2.80100
C -1.25500 2.44200 2.02600
C -0.24500 1.85000 -2.56400
C 0.14600 -2.82400 -2.03700
N -0.61700 -0.00900 2.12600
C -0.59400 -0.90800 3.10500
C -0.93600 -0.30900 4.50200
C -1.77300 0.96400 4.03200
C -1.15500 1.16800 2.66000
C -3.26300 0.68500 3.86300
C 0.34500 0.11000 5.29900
C 0.12400 0.39700 6.78700
H 1.16800 0.03300 7.73300
N -0.18500 1.96100 -0.15200
C -0.70300 2.80000 0.77700
C -0.62000 4.15600 0.19300
C -0.18700 4.01500 -1.22500
C -0.21400 2.58300 -1.38000
C -0.88700 5.40600 0.97400
C 0.18100 5.01300 -2.27700
O 0.30300 4.69000 -3.50800
C 0.31000 6.41400 -1.83700
N -0.26500 -0.41300 -2.02900
C -0.27900 0.56900 -2.93700
C -0.19600 0.02400 -4.33200
C 0.12400 -1.53300 -4.18000
C 0.08600 -1.63200 -2.63500
C -1.45100 0.20500 -5.19700
C 1.37300 -2.07000 -4.92300
C 2.62600 -1.49000 -4.30600
N 0.15000 -2.14400 0.30300
C 0.17300 -3.13600 -0.68800
C 0.17300 -4.43800 0.00400
C 0.13300 -4.11100 1.35800
C 0.08300 -2.69500 1.50200
C 0.14900 -5.71500 -0.62300
C 0.09600 -4.62900 2.71600
O 0.20800 -5.74700 3.22100
C -0.25500 -3.42800 3.70100
C 0.71700 -3.48200 4.84800
O 1.93100 -3.25500 4.66900
O 0.03800 -3.55600 6.00300
C 0.94300 -3.58300 7.18300
H -1.85900 3.22000 2.49700
H -0.21800 2.45300 -3.47400
H 0.27600 -3.74700 -2.60500
H -1.55400 -0.94900 5.13200
H -1.58500 1.83100 4.66500
H -3.48400 -0.37700 3.96900
H -3.51100 1.02700 2.85800
H -3.85200 1.30100 4.54300
H 0.66900 1.09600 4.96600
H 1.13000 -0.63900 5.18900
H -0.84400 0.02600 7.12500
H 0.06200 1.47700 6.92100
H -1.34400 5.18600 1.93800
H -1.65100 5.96300 0.43200
H 0.00700 6.02000 1.08400
H -0.63500 6.74400 -1.40500
H 0.66500 6.97000 -2.70400
H 1.04800 6.46600 -1.03600
H 0.60800 0.50100 -4.89100
H -0.69200 -2.15600 -4.54700
H -1.26700 0.74000 -6.12900
H -2.20400 0.71400 -4.59600
H -1.96700 -0.72000 -5.45300
H 1.35600 -1.75900 -5.96700
H 1.45200 -3.15700 -4.90200
H 2.71400 -0.52200 -4.79800
H 3.48700 -2.12100 -4.52900
H 2.49500 -1.30300 -3.24000
H 0.86700 -6.33300 -0.08400
H 0.40400 -5.64200 -1.68000
H -0.89100 -5.99900 -0.46300
H -1.28300 -3.58100 4.02800
H 0.69800 -4.47800 7.75500
H 0.83300 -2.61900 7.68000
H 2.00000 -3.75400 6.97600
Mg 7.88314 0.70970 0.59883
C 7.71915 -1.84482 3.10078
C 6.63085 2.86472 2.92922
C 7.59125 2.86464 -1.70934
C 8.02979 -1.83428 -1.77863
N 7.29163 0.42727 2.71330
C 7.33424 -0.58735 3.57115
C 7.00364 -0.17220 5.03598
C 6.14988 1.14111 4.73883
C 6.74966 1.52224 3.39684
C 4.66050 0.87028 4.55205
C 8.29030 0.15644 5.86558
C 8.08453 0.25189 7.38014
H 9.14291 -0.21737 8.26161
N 7.67902 2.67225 0.69668
C 7.16474 3.38249 1.72933
C 7.22879 4.80191 1.31966
C 7.64608 4.84468 -0.10937
C 7.62989 3.44331 -0.44295
C 6.96008 5.94105 2.25450
C 7.99268 5.97070 -1.03137
O 8.10284 5.80623 -2.29446
C 8.11453 7.30655 -0.42006
N 7.59763 0.55226 -1.46304
C 7.56413 1.64039 -2.24012
C 7.63531 1.27589 -3.69340
C 7.97084 -0.28450 -3.74188
C 7.95214 -0.57725 -2.22128
C 6.36853 1.55127 -4.51526
C 9.21559 -0.71102 -4.55986
C 10.47068 -0.20032 -3.88827
N 8.05568 -1.45373 0.62813
C 8.07563 -2.31304 -0.47996
C 8.09538 -3.69161 0.04275
C 8.06864 -3.53778 1.42747
C 8.00785 -2.15169 1.74896
C 8.07519 -4.87987 -0.73960
C 8.05241 -4.22269 2.70985
O 8.18030 -5.39408 3.06899
C 7.70258 -3.15866 3.84179
C 8.68862 -3.34639 4.96241
O 9.89835 -3.08625 4.80038
O 8.02412 -3.57192 6.10614
C 8.94333 -3.73770 7.26361
H 6.02566 3.57112 3.50078
H 7.60207 3.57746 -2.53651
H 8.16116 -2.67719 -2.45958
H 6.39888 -0.89261 5.58707
H 6.33775 1.92357 5.47380
H 4.45017 -0.19883 4.52600
H 4.39752 1.33330 3.60077
H 4.07423 1.38986 5.31040
H 8.60158 1.17975 5.65579
H 9.08052 -0.56470 5.65384
H 7.12394 -0.16856 7.67915
H 8.01459 1.30579 7.64958
H 6.51657 5.59697 3.18801
H 6.18478 6.55387 1.79508
H 7.84987 6.54550 2.43127
H 7.17187 7.56992 0.06012
H 8.45424 7.97071 -1.21399
H 8.86154 7.26505 0.37317
H 8.42834 1.82759 -4.19654
H 7.15606 -0.86478 -4.17556
H 6.53667 2.20101 -5.37449
H 5.61828 1.97295 -3.84698
H 5.85771 0.66053 -4.88003
H 9.18340 -0.27148 -5.55621
H 9.30444 -1.79117 -4.67659
H 10.54425 0.82268 -4.25553
H 11.33450 -0.78942 -4.19808
H 10.35075 -0.15012 -2.80587
H 8.80500 -5.55330 -0.29034
H 8.31692 -4.67200 -1.78170
H 7.03973 -5.19238 -0.60546
H 6.67994 -3.36208 4.15795
H 8.71308 -4.69996 7.72109
H 8.83074 -2.84498 7.87906
H 9.99925 -3.87048 7.02543
