158

Mg 0.00000 0.00000 0.00000
C -0.21700 -2.21800 2.80100
C -1.25500 2.44200 2.02600
C -0.24500 1.85000 -2.56400
C 0.14600 -2.82400 -2.03700
N -0.61700 -0.00900 2.12600
C -0.59400 -0.90800 3.10500
C -0.93600 -0.30900 4.50200
C -1.77300 0.96400 4.03200
C -1.15500 1.16800 2.66000
C -3.26300 0.68500 3.86300
C 0.34500 0.11000 5.29900
C 0.12400 0.39700 6.78700
H 1.16800 0.03300 7.73300
N -0.18500 1.96100 -0.15200
C -0.70300 2.80000 0.77700
C -0.62000 4.15600 0.19300
C -0.18700 4.01500 -1.22500
C -0.21400 2.58300 -1.38000
C -0.88700 5.40600 0.97400
C 0.18100 5.01300 -2.27700
O 0.30300 4.69000 -3.50800
C 0.31000 6.41400 -1.83700
N -0.26500 -0.41300 -2.02900
C -0.27900 0.56900 -2.93700
C -0.19600 0.02400 -4.33200
C 0.12400 -1.53300 -4.18000
C 0.08600 -1.63200 -2.63500
C -1.45100 0.20500 -5.19700
C 1.37300 -2.07000 -4.92300
C 2.62600 -1.49000 -4.30600
N 0.15000 -2.14400 0.30300
C 0.17300 -3.13600 -0.68800
C 0.17300 -4.43800 0.00400
C 0.13300 -4.11100 1.35800
C 0.08300 -2.69500 1.50200
C 0.14900 -5.71500 -0.62300
C 0.09600 -4.62900 2.71600
O 0.20800 -5.74700 3.22100
C -0.25500 -3.42800 3.70100
C 0.71700 -3.48200 4.84800
O 1.93100 -3.25500 4.66900
O 0.03800 -3.55600 6.00300
C 0.94300 -3.58300 7.18300
H -1.85900 3.22000 2.49700
H -0.21800 2.45300 -3.47400
H 0.27600 -3.74700 -2.60500
H -1.55400 -0.94900 5.13200
H -1.58500 1.83100 4.66500
H -3.48400 -0.37700 3.96900
H -3.51100 1.02700 2.85800
H -3.85200 1.30100 4.54300
H 0.66900 1.09600 4.96600
H 1.13000 -0.63900 5.18900
H -0.84400 0.02600 7.12500
H 0.06200 1.47700 6.92100
H -1.34400 5.18600 1.93800
H -1.65100 5.96300 0.43200
H 0.00700 6.02000 1.08400
H -0.63500 6.74400 -1.40500
H 0.66500 6.97000 -2.70400
H 1.04800 6.46600 -1.03600
H 0.60800 0.50100 -4.89100
H -0.69200 -2.15600 -4.54700
H -1.26700 0.74000 -6.12900
H -2.20400 0.71400 -4.59600
H -1.96700 -0.72000 -5.45300
H 1.35600 -1.75900 -5.96700
H 1.45200 -3.15700 -4.90200
H 2.71400 -0.52200 -4.79800
H 3.48700 -2.12100 -4.52900
H 2.49500 -1.30300 -3.24000
H 0.86700 -6.33300 -0.08400
H 0.40400 -5.64200 -1.68000
H -0.89100 -5.99900 -0.46300
H -1.28300 -3.58100 4.02800
H 0.69800 -4.47800 7.75500
H 0.83300 -2.61900 7.68000
H 2.00000 -3.75400 6.97600
Mg 8.93729 0.79781 0.68645
C 6.25238 1.22659 3.02877
C 11.04338 1.92164 3.12284
C 11.25246 0.86055 -1.48230
C 6.54444 0.81360 -1.84727
N 8.57549 1.45757 2.76637
C 7.52262 1.51912 3.56763
C 7.85941 1.83865 5.04885
C 9.26387 2.58322 4.82090
C 9.67837 1.92598 3.50602
C 9.12134 4.07749 4.58386
C 8.03067 0.54220 5.91597
C 8.05416 0.77813 7.42777
H 7.44763 -0.22524 8.29832
N 10.90843 0.84093 0.91302
C 11.59530 1.31066 1.97549
C 13.01791 1.13648 1.64383
C 13.11757 0.67780 0.23159
C 11.73413 0.79790 -0.18282
C 14.11668 1.32331 2.64943
C 14.26972 0.22051 -0.61080
O 14.16638 0.09546 -1.88223
C 15.54852 0.01327 0.08434
N 8.92915 1.04405 -1.37792
C 10.06990 0.97753 -2.08659
C 9.78815 0.90715 -3.56850
C 8.20808 0.69555 -3.69583
C 7.82126 0.77290 -2.20259
C 10.20476 2.13118 -4.38372
C 7.72626 -0.52853 -4.52175
C 8.09618 -1.80963 -3.80948
N 6.77909 0.79819 0.58528
C 5.97973 0.83120 -0.57834
C 4.57351 0.93520 -0.13771
C 4.65450 0.97902 1.26229
C 6.01635 0.92774 1.66505
C 3.43854 1.02514 -0.99204
C 3.89820 1.06770 2.49064
O 2.70185 1.05055 2.77735
C 4.90598 1.35944 3.68464
C 4.57859 0.41631 4.80974
O 4.73814 -0.80950 4.67360
O 4.34005 1.12828 5.92624
C 4.02145 0.23630 7.07284
H 11.75611 2.47396 3.73590
H 12.00551 0.77371 -2.26897
H 5.73337 0.72523 -2.57324
H 7.16062 2.50517 5.54000
H 9.97223 2.34012 5.60861
H 8.08712 4.37370 4.49009
H 9.65822 4.28240 3.66690
H 9.64110 4.63488 5.36840
H 9.04420 0.14632 5.77183
H 7.27525 -0.18012 5.67467
H 7.70094 1.78182 7.69386
H 9.09323 0.76139 7.76550
H 13.75158 1.82081 3.55639
H 14.82830 2.03496 2.21699
H 14.64151 0.39316 2.87755
H 15.85235 0.93993 0.56544
H 16.22610 -0.39765 -0.66659
H 15.39742 -0.72127 0.88324
H 10.29336 0.06135 -4.01846
H 7.72136 1.54855 -4.19113
H 10.90133 1.88971 -5.20867
H 10.64738 2.85436 -3.71168
H 9.38340 2.69554 -4.82198
H 8.23188 -0.55471 -5.49016
H 6.65885 -0.52558 -4.71574
H 9.13569 -1.96861 -4.11152
H 7.45981 -2.62854 -4.13883
H 8.08622 -1.67229 -2.72196
H 2.68440 0.36916 -0.57796
H 3.68789 0.74990 -2.01470
H 3.20760 2.08962 -0.89813
H 4.77709 2.40295 3.97456
H 3.05278 0.55755 7.46800
H 4.89059 0.30325 7.75391
H 3.82602 -0.80750 6.85661
