79

Mg 10.51809 0.94169 0.80469
C 10.71658 -2.32358 -0.67103
C 9.55290 -0.58760 3.69679
C 9.89961 3.81471 2.00079
C 10.37740 2.24114 -2.42600
N 10.21146 -1.18686 1.32191
C 10.37696 -2.34335 0.69781
C 10.24522 -3.59165 1.61101
C 9.33454 -2.94887 2.76703
C 9.74550 -1.48559 2.61669
C 7.84439 -3.05741 2.48950
C 11.63023 -4.07147 2.17094
C 11.61750 -5.45951 2.81509
H 12.79484 -6.30946 2.66036
N 10.30579 1.53020 2.68807
C 9.92877 0.77299 3.73963
C 9.90487 1.67807 4.89912
C 10.13865 3.06600 4.41569
C 10.10225 2.85552 2.98235
C 9.75538 1.18875 6.31038
C 10.34621 4.36939 5.12583
O 10.29335 5.48990 4.50577
C 10.52031 4.30099 6.58408
N 9.97380 2.74660 -0.07188
C 9.81773 3.85655 0.67081
C 9.69857 5.08387 -0.20090
C 10.05089 4.59463 -1.68215
C 10.23374 3.08479 -1.41319
C 8.33185 5.76830 -0.20285
C 11.18361 5.35576 -2.42396
C 12.51034 5.09269 -1.74870
N 10.72527 0.15717 -1.19773
C 10.60444 0.87089 -2.41020
C 10.71168 -0.11290 -3.50705
C 10.86563 -1.34350 -2.85098
C 10.83484 -1.14345 -1.44438
C 10.61482 0.17727 -4.89721
C 11.03654 -2.76757 -3.02846
O 11.21876 -3.50685 -3.99490
C 10.82085 -3.48126 -1.62471
C 11.94750 -4.45695 -1.42172
O 13.11704 -4.05411 -1.29323
O 11.43546 -5.68058 -1.19612
C 12.51405 -6.68100 -0.97785
H 9.02602 -0.94579 4.58166
H 9.79202 4.84098 2.35949
H 10.44141 2.57896 -3.46256
H 9.73356 -4.43301 1.15925
H 9.61627 -3.32530 3.74697
H 7.64580 -3.44490 1.50129
H 7.45295 -2.05335 2.58789
H 7.35758 -3.64855 3.27045
H 11.89411 -3.46140 3.04440
H 12.38328 -4.03407 1.40796
H 10.70552 -6.01829 2.57221
H 11.57645 -5.33811 3.90026
H 9.43662 0.13953 6.34070
H 8.91848 1.73978 6.75291
H 10.64984 1.36090 6.91285
H 9.64794 3.82937 7.03020
H 10.74457 5.32172 6.89981
H 11.37572 3.65260 6.80426
H 10.41260 5.84140 0.09814
H 9.18920 4.69117 -2.35890
H 8.37659 6.83326 0.09367
H 7.67337 5.21756 0.45566
H 7.79697 5.72886 -1.15025
H 11.01518 6.43401 -2.36780
H 11.26224 5.09638 -3.47445
H 12.51530 5.81316 -0.92530
H 13.33323 5.27436 -2.43709
H 12.53580 4.08901 -1.30865
H 11.39863 -0.38435 -5.38784
H 10.70986 1.24415 -5.08823
H 9.60516 -0.18822 -5.10285
H 9.85007 -3.97747 -1.65522
H 12.35579 -7.48487 -1.70341
H 12.45854 -6.95123 0.09343
H 13.52934 -6.38236 -1.21118
