79

Mg 31.53921 2.84696 2.39413
C 30.93748 4.66331 5.43023
C 30.53358 5.63361 0.70360
C 31.62710 1.13703 -0.27717
C 31.39042 -0.08034 4.27946
N 30.84894 4.83027 3.08857
C 30.71992 5.42655 4.26422
C 30.41440 6.94638 4.18448
C 29.75738 6.98304 2.71961
C 30.44473 5.76156 2.11280
C 28.25836 6.73359 2.72595
C 31.71474 7.82185 4.25288
C 31.47354 9.31408 4.49123
H 32.43419 10.05302 5.30584
N 31.61454 3.42933 0.49841
C 31.18229 4.60220 -0.01033
C 31.44391 4.53431 -1.45639
C 31.91444 3.16099 -1.78399
C 31.71269 2.50211 -0.50913
C 31.31926 5.72453 -2.36262
C 32.44467 2.53981 -3.04065
O 32.56922 1.27008 -3.16351
C 32.72573 3.45508 -4.15634
N 31.30267 0.81732 2.01081
C 31.44154 0.32806 0.76611
C 31.50170 -1.18080 0.77666
C 31.61777 -1.59538 2.31686
C 31.51008 -0.19721 2.96409
C 30.30903 -1.89854 0.14518
C 32.81429 -2.50314 2.71310
C 34.11208 -1.74360 2.55737
N 31.40854 2.35408 4.49366
C 31.33264 1.06447 5.06397
C 31.14155 1.24203 6.51806
C 31.09612 2.63359 6.69121
C 31.22792 3.27752 5.43126
C 30.98704 0.19572 7.47068
C 30.95598 3.70404 7.65204
O 30.89926 3.76775 8.87942
C 30.72020 5.06360 6.86312
C 31.63644 6.10408 7.44656
O 32.87030 5.99145 7.33924
O 30.90607 7.16294 7.84121
C 31.77169 8.22650 8.41685
H 30.02257 6.36985 0.08255
H 31.76312 0.50028 -1.15439
H 31.43291 -0.94255 4.94839
H 29.70446 7.30618 4.91953
H 30.03924 7.88511 2.18277
H 27.90048 6.45476 3.70591
H 28.09068 5.93119 2.01949
H 27.72979 7.60329 2.32525
H 32.17198 7.86233 3.25586
H 32.39109 7.44224 4.99388
H 30.44905 9.51775 4.82572
H 31.55161 9.83545 3.53410
H 30.79627 6.55292 -1.86901
H 30.65408 5.43363 -3.18285
H 32.27841 6.03853 -2.77987
H 31.81693 3.98944 -4.42280
H 33.18049 2.83762 -4.93340
H 33.44599 4.20832 -3.81799
H 32.37868 -1.53655 0.24992
H 30.73919 -2.16562 2.65265
H 30.59615 -2.58423 -0.67425
H 29.61083 -1.15245 -0.21037
H 29.69801 -2.47556 0.83721
H 32.87563 -3.36330 2.04189
H 32.74758 -2.88843 3.72507
H 34.33517 -1.85211 1.49175
H 34.89247 -2.18869 3.17132
H 33.96925 -0.67527 2.75714
H 31.59416 0.46118 8.32592
H 31.28170 -0.76609 7.05613
H 29.91009 0.25279 7.65011
H 29.66945 5.33185 6.97940
H 31.39047 8.44052 9.42012
H 31.75431 9.05502 7.68405
H 32.80273 7.97157 8.63231
