158

Mg 0.00000 0.00000 0.00000
C -0.21700 -2.21800 2.80100
C -1.25500 2.44200 2.02600
C -0.24500 1.85000 -2.56400
C 0.14600 -2.82400 -2.03700
N -0.61700 -0.00900 2.12600
C -0.59400 -0.90800 3.10500
C -0.93600 -0.30900 4.50200
C -1.77300 0.96400 4.03200
C -1.15500 1.16800 2.66000
C -3.26300 0.68500 3.86300
C 0.34500 0.11000 5.29900
C 0.12400 0.39700 6.78700
H 1.16800 0.03300 7.73300
N -0.18500 1.96100 -0.15200
C -0.70300 2.80000 0.77700
C -0.62000 4.15600 0.19300
C -0.18700 4.01500 -1.22500
C -0.21400 2.58300 -1.38000
C -0.88700 5.40600 0.97400
C 0.18100 5.01300 -2.27700
O 0.30300 4.69000 -3.50800
C 0.31000 6.41400 -1.83700
N -0.26500 -0.41300 -2.02900
C -0.27900 0.56900 -2.93700
C -0.19600 0.02400 -4.33200
C 0.12400 -1.53300 -4.18000
C 0.08600 -1.63200 -2.63500
C -1.45100 0.20500 -5.19700
C 1.37300 -2.07000 -4.92300
C 2.62600 -1.49000 -4.30600
N 0.15000 -2.14400 0.30300
C 0.17300 -3.13600 -0.68800
C 0.17300 -4.43800 0.00400
C 0.13300 -4.11100 1.35800
C 0.08300 -2.69500 1.50200
C 0.14900 -5.71500 -0.62300
C 0.09600 -4.62900 2.71600
O 0.20800 -5.74700 3.22100
C -0.25500 -3.42800 3.70100
C 0.71700 -3.48200 4.84800
O 1.93100 -3.25500 4.66900
O 0.03800 -3.55600 6.00300
C 0.94300 -3.58300 7.18300
H -1.85900 3.22000 2.49700
H -0.21800 2.45300 -3.47400
H 0.27600 -3.74700 -2.60500
H -1.55400 -0.94900 5.13200
H -1.58500 1.83100 4.66500
H -3.48400 -0.37700 3.96900
H -3.51100 1.02700 2.85800
H -3.85200 1.30100 4.54300
H 0.66900 1.09600 4.96600
H 1.13000 -0.63900 5.18900
H -0.84400 0.02600 7.12500
H 0.06200 1.47700 6.92100
H -1.34400 5.18600 1.93800
H -1.65100 5.96300 0.43200
H 0.00700 6.02000 1.08400
H -0.63500 6.74400 -1.40500
H 0.66500 6.97000 -2.70400
H 1.04800 6.46600 -1.03600
H 0.60800 0.50100 -4.89100
H -0.69200 -2.15600 -4.54700
H -1.26700 0.74000 -6.12900
H -2.20400 0.71400 -4.59600
H -1.96700 -0.72000 -5.45300
H 1.35600 -1.75900 -5.96700
H 1.45200 -3.15700 -4.90200
H 2.71400 -0.52200 -4.79800
H 3.48700 -2.12100 -4.52900
H 2.49500 -1.30300 -3.24000
H 0.86700 -6.33300 -0.08400
H 0.40400 -5.64200 -1.68000
H -0.89100 -5.99900 -0.46300
H -1.28300 -3.58100 4.02800
H 0.69800 -4.47800 7.75500
H 0.83300 -2.61900 7.68000
H 2.00000 -3.75400 6.97600
Mg 31.53256 2.83880 2.39533
C 31.74798 -0.07895 0.33316
C 30.64193 0.77609 4.96341
C 30.89585 5.42877 4.11093
C 31.32335 4.71391 -0.53483
N 31.26509 0.64428 2.51010
C 31.43680 -0.36655 1.66398
C 31.32923 -1.76505 2.34223
C 30.43936 -1.36542 3.60335
C 30.83075 0.09690 3.72322
C 28.93906 -1.45254 3.34257
C 32.72545 -2.32256 2.77982
C 32.74905 -3.80862 3.14921
H 33.92808 -4.59411 2.81718
N 31.34362 3.06726 4.34852
C 30.98936 2.11512 5.24474
C 30.98994 2.77882 6.56617
C 31.18817 4.23785 6.34246
C 31.12343 4.30725 4.90498
C 30.86342 2.03537 7.86040
C 31.39155 5.38862 7.27654
O 31.31120 6.60356 6.88661
C 31.60247 5.05292 8.69635
N 30.94121 4.77338 1.88019
C 30.79056 5.72025 2.81277
C 30.64332 7.07833 2.19320
C 30.96923 6.89376 0.64095
C 31.17904 5.35949 0.62468
C 29.26737 7.74015 2.35060
C 32.07762 7.79616 0.04299
C 33.41877 7.42046 0.63230
N 31.70953 2.44582 0.26805
C 31.56387 3.37146 -0.77533
C 31.66305 2.61757 -2.03861
C 31.84413 1.29474 -1.63964
C 31.83097 1.22298 -0.21733
C 31.52686 3.16121 -3.34641
C 32.02103 -0.07819 -2.08419
O 32.20240 -0.61971 -3.17568
C 31.84392 -1.03884 -0.82656
C 32.98704 -2.01684 -0.83713
O 34.15855 -1.63373 -0.64176
O 32.50178 -3.26786 -0.83761
C 33.58432 -4.28761 -0.81827
H 30.12864 0.25822 5.77600
H 30.78184 6.36325 4.66427
H 31.35190 5.24357 -1.48883
H 30.81461 -2.52013 1.74772
H 30.73460 -1.91137 4.49916
H 28.72818 -1.65098 2.29182
H 28.53597 -0.48282 3.63522
H 28.47266 -2.18294 4.00422
H 33.00081 -1.88813 3.74081
H 33.47564 -2.12995 2.01208
H 31.84455 -4.31703 2.81408
H 32.71934 -3.89099 4.23573
H 30.56523 1.00004 7.70004
H 30.02743 2.47812 8.40151
H 31.76910 2.10382 8.46322
H 30.74224 4.49423 9.06569
H 31.81867 5.99489 9.19915
H 32.46002 4.38437 8.77747
H 31.35143 7.78418 2.62539
H 30.09916 7.09058 0.01412
H 29.30416 8.71767 2.83206
H 28.62544 7.05548 2.90417
H 28.70844 7.85888 1.42274
H 31.89597 8.83956 0.29848
H 32.14895 7.72810 -1.04261
H 33.43549 7.97287 1.57112
H 34.22690 7.74311 -0.02499
H 33.46247 6.35919 0.87786
H 32.31641 2.71069 -3.94776
H 31.60939 4.24778 -3.33413
H 30.52351 2.82151 -3.60282
H 30.88045 -1.53397 -0.94354
H 33.42617 -4.93994 -1.67715
H 33.56449 -4.74183 0.17254
H 34.59271 -3.92399 -1.01894
