79

Mg 7.88314 0.70970 0.59883
C 7.99626 -2.86732 0.66475
C 6.76828 0.58544 3.82136
C 7.34284 3.82929 0.41755
C 7.90337 0.49910 -2.87980
N 7.47587 -0.98583 1.96264
C 7.61694 -2.30544 1.88584
C 7.39686 -3.03057 3.24714
C 6.48569 -1.93947 3.96913
C 6.96212 -0.69963 3.23310
C 4.99400 -2.12249 3.70861
C 8.73796 -3.26045 4.02195
C 8.65514 -4.24209 5.19449
H 9.79507 -5.10414 5.46795
N 7.63383 2.05189 2.02684
C 7.18702 1.82230 3.28500
C 7.17800 3.13762 3.96067
C 7.47479 4.17734 2.93647
C 7.46975 3.38678 1.73215
C 6.95598 3.30505 5.43255
C 7.71310 5.65148 3.02732
O 7.72331 6.40381 1.99366
C 7.84809 6.21274 4.38372
N 7.43315 1.98278 -0.99315
C 7.30579 3.30125 -0.80763
C 7.26698 4.03538 -2.11510
C 7.64021 2.96146 -3.23632
C 7.75493 1.70821 -2.33384
C 5.92970 4.69999 -2.47002
C 8.82460 3.30624 -4.17375
C 10.11622 3.31409 -3.38715
N 8.11700 -0.86764 -0.87371
C 8.06922 -0.73256 -2.26875
C 8.16993 -2.08907 -2.83780
C 8.25315 -2.92588 -1.72664
C 8.18092 -2.14404 -0.53845
C 8.11806 -2.41851 -4.22099
C 8.36150 -4.30080 -1.26653
O 8.55075 -5.38683 -1.81627
C 8.07697 -4.32883 0.30002
C 9.15679 -5.15550 0.94337
O 10.34143 -4.76326 0.95503
O 8.59525 -6.15183 1.64519
C 9.61092 -6.99288 2.33309
H 6.19302 0.66124 4.74617
H 7.26584 4.91294 0.30701
H 8.00134 0.36266 -3.95834
H 6.85962 -3.97651 3.17657
H 6.71186 -1.85939 5.03222
H 4.81175 -2.89691 2.96364
H 4.64089 -1.15632 3.34761
H 4.45813 -2.30853 4.63974
H 9.00261 -2.35036 4.56024
H 9.52760 -3.57871 3.34040
H 7.73440 -4.82525 5.16181
H 8.57865 -3.66653 6.11703
H 6.60053 2.38326 5.89136
H 6.12888 4.00455 5.55225
H 7.84033 3.69118 5.93966
H 6.94131 6.00355 4.95164
H 8.10282 7.26354 4.25036
H 8.65878 5.69768 4.89990
H 8.00037 4.84051 -2.13342
H 6.80875 2.77422 -3.91624
H 6.00852 5.77181 -2.65361
H 5.22574 4.49189 -1.66477
H 5.41527 4.26355 -3.32577
H 8.69833 4.30384 -4.59304
H 8.93322 2.60871 -5.00435
H 10.13109 4.31338 -2.95353
H 10.96747 3.16435 -4.05211
H 10.08455 2.60156 -2.56267
H 8.90067 -3.15855 -4.38784
H 8.26728 -1.53685 -4.84389
H 7.10617 -2.81637 -4.29600
H 7.08985 -4.77091 0.43147
H 9.44573 -8.02173 2.01308
H 9.52490 -6.77409 3.39758
H 10.64689 -6.84560 2.02580
