79

Mg 15.75764 1.41942 1.20381
C 16.67716 3.87460 3.65446
C 15.48184 -0.81630 3.76507
C 15.38598 -0.86737 -0.96411
C 17.19103 3.48974 -1.20553
N 16.06472 1.62266 3.38479
C 16.35297 2.61879 4.20879
C 16.21199 2.26920 5.71460
C 16.40249 0.67803 5.61091
C 15.92142 0.46720 4.17676
C 17.85477 0.23891 5.69697
C 14.79879 2.64254 6.28513
C 14.69400 2.61598 7.81159
H 13.83781 3.60030 8.46771
N 15.00803 -0.40949 1.38191
C 14.95656 -1.16243 2.50071
C 14.33130 -2.43301 2.10216
C 14.16810 -2.43181 0.62295
C 14.88230 -1.21841 0.27993
C 13.88074 -3.46485 3.09500
C 13.49331 -3.37435 -0.32704
O 13.67921 -3.30200 -1.59315
C 12.68238 -4.44283 0.27481
N 16.40531 1.22126 -0.76180
C 16.06054 0.15072 -1.49868
C 16.40606 0.35626 -2.95428
C 16.83589 1.89143 -3.08118
C 16.74612 2.30302 -1.59527
C 17.52184 -0.53156 -3.50493
C 16.08019 2.74924 -4.13273
C 14.63772 2.92436 -3.71559
N 16.59136 3.41222 1.16238
C 17.16012 4.07600 0.05333
C 17.69352 5.36362 0.54319
C 17.41635 5.34939 1.91850
C 16.77485 4.12964 2.26515
C 18.37685 6.33396 -0.24269
C 17.53011 6.08429 3.15772
O 17.90648 7.21433 3.46612
C 17.17008 5.10791 4.35915
C 16.21115 5.82527 5.26929
O 15.07133 6.12782 4.87447
O 16.71598 5.84180 6.51639
C 15.79555 6.53310 7.45805
H 15.58715 -1.64879 4.46132
H 15.18480 -1.57561 -1.77120
H 17.56504 4.23380 -1.91204
H 16.97693 2.69443 6.35321
H 15.75503 0.15626 6.31086
H 18.53102 1.08082 5.69504
H 18.02524 -0.38529 4.82958
H 18.00226 -0.40732 6.56700
H 14.08892 1.84390 6.03414
H 14.47995 3.59853 5.91762
H 15.67948 2.58289 8.29188
H 14.21855 1.67864 8.11052
H 14.28230 -3.26259 4.09562
H 14.34421 -4.41341 2.80297
H 12.79603 -3.59091 3.10859
H 13.30687 -5.04374 0.93160
H 12.20949 -4.95819 -0.56344
H 11.91224 -3.98458 0.90528
H 15.54360 0.17950 -3.58517
H 17.89117 1.99629 -3.37311
H 17.21004 -1.13186 -4.38042
H 17.87118 -1.17448 -2.70797
H 18.43066 -0.00588 -3.79286
H 16.06416 2.23745 -5.09812
H 16.52447 3.72587 -4.29333
H 14.16440 2.00449 -4.07181
H 14.20477 3.80132 -4.19260
H 14.54320 2.94220 -2.62362
H 17.98345 7.30009 0.04422
H 18.24337 6.14950 -1.30662
H 19.40642 6.15545 0.07886
H 18.10220 4.85353 4.86515
H 16.36978 7.33190 7.93750
H 15.38951 5.74079 8.11465
H 14.97024 7.09197 7.03264
