79

Mg 7.88977 0.70677 0.60656
C 5.56710 -0.36145 3.12512
C 9.02578 3.01568 2.84554
C 9.63150 1.96673 -1.72718
C 5.84653 -0.85721 -1.74394
N 7.29410 1.16942 2.68583
C 6.44132 0.65647 3.55990
C 6.58525 1.21324 5.00172
C 7.26980 2.62223 4.64818
C 7.93783 2.24488 3.32756
C 6.26408 3.72842 4.37574
C 7.52331 0.32669 5.89395
C 7.46505 0.63435 7.39185
H 7.60305 -0.47157 8.33544
N 9.46363 1.91307 0.68638
C 9.78425 2.76772 1.68039
C 11.02091 3.43875 1.25079
C 11.31391 3.03035 -0.14995
C 10.11018 2.28759 -0.46525
C 11.83824 4.30274 2.16671
C 12.47842 3.27932 -1.05997
O 12.41672 3.03077 -2.31586
C 13.66061 3.90960 -0.45444
N 7.65349 0.75945 -1.45832
C 8.58387 1.32625 -2.24639
C 8.33740 1.00280 -3.70070
C 7.18241 -0.10334 -3.70505
C 6.88592 -0.16557 -2.19058
C 7.91837 2.17922 -4.58208
C 7.48166 -1.43037 -4.45478
C 8.56458 -2.19863 -3.73197
N 6.14451 -0.56555 0.66412
C 5.43259 -1.08733 -0.43815
C 4.25499 -1.79794 0.10105
C 4.35182 -1.61926 1.48928
C 5.49708 -0.83441 1.79240
C 3.25146 -2.44944 -0.67005
C 3.73976 -1.90716 2.76647
O 2.79659 -2.60299 3.14061
C 4.42956 -0.99895 3.87360
C 4.76763 -1.87513 5.04856
O 5.61351 -2.78021 4.93938
O 4.20115 -1.36400 6.15680
C 4.51703 -2.19227 7.35096
H 9.30014 3.92140 3.38710
H 10.25793 2.28444 -2.56391
H 5.21466 -1.45388 -2.40530
H 5.64870 1.37499 5.52181
H 8.01679 2.89537 5.38896
H 5.25135 3.35454 4.34894
H 6.53878 4.14590 3.41590
H 6.38682 4.53679 5.10225
H 8.56838 0.59171 5.68821
H 7.32996 -0.71582 5.73139
H 6.59924 1.25547 7.65170
H 8.32692 1.25333 7.65275
H 11.28754 4.55223 3.08206
H 11.97495 5.26485 1.66121
H 12.81937 3.87544 2.38459
H 13.37902 4.86860 -0.02608
H 14.41871 3.92393 -1.23991
H 14.00453 3.28283 0.37591
H 9.22521 0.58566 -4.15994
H 6.26657 0.26576 -4.18965
H 8.58885 2.33638 -5.44801
H 7.87654 3.06846 -3.96724
H 6.90513 2.12302 -4.97627
H 7.86529 -1.22125 -5.45640
H 6.61096 -2.06726 -4.56989
H 9.48446 -1.73798 -4.10440
H 8.52061 -3.25530 -3.98802
H 8.52010 -2.01919 -2.65148
H 3.04687 -3.39280 -0.18147
H 3.57301 -2.59533 -1.69917
H 2.44139 -1.71932 -0.59269
H 3.72220 -0.21250 4.13950
H 3.56243 -2.47403 7.80595
H 5.20653 -1.58190 7.96398
H 4.96597 -3.16411 7.18232
