158

Mg 0.00000 0.00000 0.00000
C -0.21700 -2.21800 2.80100
C -1.25500 2.44200 2.02600
C -0.24500 1.85000 -2.56400
C 0.14600 -2.82400 -2.03700
N -0.61700 -0.00900 2.12600
C -0.59400 -0.90800 3.10500
C -0.93600 -0.30900 4.50200
C -1.77300 0.96400 4.03200
C -1.15500 1.16800 2.66000
C -3.26300 0.68500 3.86300
C 0.34500 0.11000 5.29900
C 0.12400 0.39700 6.78700
H 1.16800 0.03300 7.73300
N -0.18500 1.96100 -0.15200
C -0.70300 2.80000 0.77700
C -0.62000 4.15600 0.19300
C -0.18700 4.01500 -1.22500
C -0.21400 2.58300 -1.38000
C -0.88700 5.40600 0.97400
C 0.18100 5.01300 -2.27700
O 0.30300 4.69000 -3.50800
C 0.31000 6.41400 -1.83700
N -0.26500 -0.41300 -2.02900
C -0.27900 0.56900 -2.93700
C -0.19600 0.02400 -4.33200
C 0.12400 -1.53300 -4.18000
C 0.08600 -1.63200 -2.63500
C -1.45100 0.20500 -5.19700
C 1.37300 -2.07000 -4.92300
C 2.62600 -1.49000 -4.30600
N 0.15000 -2.14400 0.30300
C 0.17300 -3.13600 -0.68800
C 0.17300 -4.43800 0.00400
C 0.13300 -4.11100 1.35800
C 0.08300 -2.69500 1.50200
C 0.14900 -5.71500 -0.62300
C 0.09600 -4.62900 2.71600
O 0.20800 -5.74700 3.22100
C -0.25500 -3.42800 3.70100
C 0.71700 -3.48200 4.84800
O 1.93100 -3.25500 4.66900
O 0.03800 -3.55600 6.00300
C 0.94300 -3.58300 7.18300
H -1.85900 3.22000 2.49700
H -0.21800 2.45300 -3.47400
H 0.27600 -3.74700 -2.60500
H -1.55400 -0.94900 5.13200
H -1.58500 1.83100 4.66500
H -3.48400 -0.37700 3.96900
H -3.51100 1.02700 2.85800
H -3.85200 1.30100 4.54300
H 0.66900 1.09600 4.96600
H 1.13000 -0.63900 5.18900
H -0.84400 0.02600 7.12500
H 0.06200 1.47700 6.92100
H -1.34400 5.18600 1.93800
H -1.65100 5.96300 0.43200
H 0.00700 6.02000 1.08400
H -0.63500 6.74400 -1.40500
H 0.66500 6.97000 -2.70400
H 1.04800 6.46600 -1.03600
H 0.60800 0.50100 -4.89100
H -0.69200 -2.15600 -4.54700
H -1.26700 0.74000 -6.12900
H -2.20400 0.71400 -4.59600
H -1.96700 -0.72000 -5.45300
H 1.35600 -1.75900 -5.96700
H 1.45200 -3.15700 -4.90200
H 2.71400 -0.52200 -4.79800
H 3.48700 -2.12100 -4.52900
H 2.49500 -1.30300 -3.24000
H 0.86700 -6.33300 -0.08400
H 0.40400 -5.64200 -1.68000
H -0.89100 -5.99900 -0.46300
H -1.28300 -3.58100 4.02800
H 0.69800 -4.47800 7.75500
H 0.83300 -2.61900 7.68000
H 2.00000 -3.75400 6.97600
Mg 8.93971 0.79970 0.68647
C 6.35744 0.29912 3.12785
C 10.55387 2.71165 3.00456
C 11.00227 1.62745 -1.57806
C 6.63554 -0.16276 -1.74462
N 8.42220 1.35868 2.76300
C 7.44542 1.05889 3.60584
C 7.68454 1.53609 5.06346
C 8.70741 2.73603 4.75890
C 9.29579 2.22791 3.44425
C 8.01627 4.06277 4.49167
C 8.34816 0.42769 5.95400
C 8.32803 0.71309 7.45730
H 8.16108 -0.40914 8.37664
N 10.76150 1.57382 0.82931
C 11.25783 2.30346 1.85037
C 12.63366 2.65258 1.46386
C 12.85338 2.20935 0.06030
C 11.51162 1.79600 -0.29872
C 13.61534 3.26881 2.41779
C 14.06725 2.17646 -0.81814
O 13.97945 1.97384 -2.08070
C 15.35236 2.48103 -0.17222
N 8.77958 0.94686 -1.38115
C 9.84258 1.27790 -2.13505
C 9.56258 1.05240 -3.60173
C 8.16922 0.26945 -3.65769
C 7.82595 0.25581 -2.15191
C 9.47331 2.31184 -4.46325
C 8.14891 -1.07654 -4.43266
C 8.98676 -2.10346 -3.70546
N 6.93186 0.00191 0.67565
C 6.14240 -0.30591 -0.45399
C 4.81097 -0.71005 0.04237
C 4.91184 -0.58622 1.43628
C 6.20779 -0.11732 1.78289
C 3.69800 -1.07672 -0.76569
C 4.21328 -0.73540 2.69265
O 3.11693 -1.18071 3.02946
C 5.07734 -0.04800 3.83601
C 5.15504 -1.00185 4.99647
O 5.75173 -2.08714 4.88370
O 4.70397 -0.38568 6.10428
C 4.77160 -1.28796 7.28459
H 11.03031 3.51043 3.57363
H 11.71032 1.79396 -2.39318
H 5.89310 -0.57100 -2.43367
H 6.80405 1.91684 5.56700
H 9.47867 2.80087 5.52200
H 6.94345 3.95377 4.43403
H 8.41191 4.41581 3.54834
H 8.31670 4.80177 5.23998
H 9.43145 0.42743 5.77730
H 7.90593 -0.53057 5.76217
H 7.63734 1.52569 7.71337
H 9.30947 1.09281 7.75159
H 13.11962 3.63119 3.32683
H 14.00069 4.17540 1.93875
H 14.45306 2.60652 2.64638
H 15.30684 3.47206 0.27302
H 16.11103 2.32005 -0.94059
H 15.50706 1.77343 0.64996
H 10.33068 0.43542 -4.05167
H 7.38740 0.86393 -4.15286
H 10.18484 2.31245 -5.31048
H 9.63753 3.17219 -3.82814
H 8.48893 2.51718 -4.88042
H 8.59930 -0.95165 -5.42044
H 7.15054 -1.47401 -4.58187
H 10.00201 -1.88008 -4.04673
H 8.68815 -3.11099 -3.98786
H 8.95929 -1.93811 -2.62215
H 3.25205 -1.94793 -0.30457
H 4.00068 -1.27960 -1.79087
H 3.09329 -0.16920 -0.68818
H 4.58103 0.88506 4.10554
H 3.76502 -1.33095 7.71197
H 5.57454 -0.87995 7.92690
H 4.96896 -2.33784 7.10224
