79

Mg 8.93903 0.80924 0.68675
C 8.24539 -1.46550 3.37440
C 7.27161 3.19076 2.47075
C 9.13975 2.70698 -1.84816
C 9.52194 -1.97148 -1.33156
N 7.93340 0.74931 2.65585
C 7.78738 -0.15320 3.61423
C 7.18472 0.40087 4.93308
C 6.41491 1.67435 4.32933
C 7.27575 1.91589 3.09107
C 4.99944 1.36145 3.87339
C 8.28963 0.83157 5.96055
C 7.78141 1.09078 7.38050
H 8.64255 0.73269 8.50419
N 8.74256 2.77846 0.53793
C 8.04866 3.59155 1.36175
C 8.19856 4.94679 0.80947
C 8.90024 4.84515 -0.49898
C 8.93704 3.40626 -0.66728
C 7.76913 6.17958 1.55058
C 9.43653 5.87324 -1.44852
O 9.79671 5.56669 -2.63979
C 9.44014 7.26491 -0.97445
N 9.07368 0.42829 -1.35264
C 9.20269 1.43322 -2.23660
C 9.55774 0.91092 -3.60829
C 9.87914 -0.64265 -3.40652
C 9.55346 -0.77520 -1.90260
C 8.48080 1.07244 -4.68091
C 11.25869 -1.14729 -3.91133
C 12.36536 -0.54933 -3.07280
N 9.08069 -1.32610 0.98391
C 9.30594 -2.31145 -0.00222
C 9.20416 -3.62584 0.66445
C 8.90159 -3.31214 1.99806
C 8.80059 -1.90254 2.14741
C 9.33644 -4.89301 0.02970
C 8.63418 -3.85336 3.31118
O 8.66733 -4.97719 3.81082
C 8.07267 -2.68714 4.23369
C 8.81234 -2.73334 5.54261
O 10.03127 -2.49105 5.58867
O 7.92383 -2.84079 6.54728
C 8.60888 -2.87924 7.86677
H 6.57699 3.94546 2.84063
H 9.32511 3.31996 -2.73324
H 9.78733 -2.88310 -1.87118
H 6.48104 -0.26059 5.42408
H 6.46954 2.52511 5.00356
H 4.78499 0.30419 3.92191
H 4.93452 1.71420 2.85241
H 4.27968 1.95548 4.44383
H 8.64643 1.83691 5.70224
H 9.08587 0.11329 5.98723
H 6.76796 0.70025 7.53329
H 7.67684 2.16948 7.52013
H 7.13653 5.93133 2.41174
H 7.10854 6.74123 0.88123
H 8.61058 6.81607 1.83257
H 8.42552 7.56262 -0.72073
H 9.94144 7.83868 -1.75635
H 10.02436 7.31772 -0.04897
H 10.44099 1.40533 -3.99367
H 9.15988 -1.28032 -3.94120
H 8.82816 1.63721 -5.56660
H 7.62320 1.55691 -4.23331
H 8.05367 0.14168 -5.05031
H 11.43177 -0.81343 -4.93736
H 11.35225 -2.22811 -3.90424
H 12.51687 0.43362 -3.52881
H 13.26562 -1.15716 -3.13687
H 12.03308 -0.38634 -2.04097
H 9.94815 -5.50446 0.67966
H 9.77855 -4.79778 -0.95986
H 8.28766 -5.19823 -0.01692
H 7.00294 -2.85700 4.36175
H 8.27705 -3.79124 8.37258
H 8.36936 -1.91636 8.35590
H 9.68404 -3.01512 7.86952
