158

Mg 0.00000 0.00000 0.00000
C -0.21700 -2.21800 2.80100
C -1.25500 2.44200 2.02600
C -0.24500 1.85000 -2.56400
C 0.14600 -2.82400 -2.03700
N -0.61700 -0.00900 2.12600
C -0.59400 -0.90800 3.10500
C -0.93600 -0.30900 4.50200
C -1.77300 0.96400 4.03200
C -1.15500 1.16800 2.66000
C -3.26300 0.68500 3.86300
C 0.34500 0.11000 5.29900
C 0.12400 0.39700 6.78700
H 1.16800 0.03300 7.73300
N -0.18500 1.96100 -0.15200
C -0.70300 2.80000 0.77700
C -0.62000 4.15600 0.19300
C -0.18700 4.01500 -1.22500
C -0.21400 2.58300 -1.38000
C -0.88700 5.40600 0.97400
C 0.18100 5.01300 -2.27700
O 0.30300 4.69000 -3.50800
C 0.31000 6.41400 -1.83700
N -0.26500 -0.41300 -2.02900
C -0.27900 0.56900 -2.93700
C -0.19600 0.02400 -4.33200
C 0.12400 -1.53300 -4.18000
C 0.08600 -1.63200 -2.63500
C -1.45100 0.20500 -5.19700
C 1.37300 -2.07000 -4.92300
C 2.62600 -1.49000 -4.30600
N 0.15000 -2.14400 0.30300
C 0.17300 -3.13600 -0.68800
C 0.17300 -4.43800 0.00400
C 0.13300 -4.11100 1.35800
C 0.08300 -2.69500 1.50200
C 0.14900 -5.71500 -0.62300
C 0.09600 -4.62900 2.71600
O 0.20800 -5.74700 3.22100
C -0.25500 -3.42800 3.70100
C 0.71700 -3.48200 4.84800
O 1.93100 -3.25500 4.66900
O 0.03800 -3.55600 6.00300
C 0.94300 -3.58300 7.18300
H -1.85900 3.22000 2.49700
H -0.21800 2.45300 -3.47400
H 0.27600 -3.74700 -2.60500
H -1.55400 -0.94900 5.13200
H -1.58500 1.83100 4.66500
H -3.48400 -0.37700 3.96900
H -3.51100 1.02700 2.85800
H -3.85200 1.30100 4.54300
H 0.66900 1.09600 4.96600
H 1.13000 -0.63900 5.18900
H -0.84400 0.02600 7.12500
H 0.06200 1.47700 6.92100
H -1.34400 5.18600 1.93800
H -1.65100 5.96300 0.43200
H 0.00700 6.02000 1.08400
H -0.63500 6.74400 -1.40500
H 0.66500 6.97000 -2.70400
H 1.04800 6.46600 -1.03600
H 0.60800 0.50100 -4.89100
H -0.69200 -2.15600 -4.54700
H -1.26700 0.74000 -6.12900
H -2.20400 0.71400 -4.59600
H -1.96700 -0.72000 -5.45300
H 1.35600 -1.75900 -5.96700
H 1.45200 -3.15700 -4.90200
H 2.71400 -0.52200 -4.79800
H 3.48700 -2.12100 -4.52900
H 2.49500 -1.30300 -3.24000
H 0.86700 -6.33300 -0.08400
H 0.40400 -5.64200 -1.68000
H -0.89100 -5.99900 -0.46300
H -1.28300 -3.58100 4.02800
H 0.69800 -4.47800 7.75500
H 0.83300 -2.61900 7.68000
H 2.00000 -3.75400 6.97600
Mg 13.14815 1.18707 0.99648
C 15.17254 -0.93445 3.06532
C 14.19237 3.80506 2.91750
C 11.03556 3.00951 -0.51450
C 11.41574 -1.66902 0.00289
N 14.50802 1.29491 2.73757
C 15.26753 0.43316 3.39704
C 16.23958 1.08275 4.41817
C 15.43722 2.44931 4.67818
C 14.68867 2.54962 3.35068
C 14.41397 2.34293 5.79666
C 17.65687 1.35689 3.80323
C 18.74450 1.70197 4.82291
H 20.10495 1.23262 4.57520
N 13.03541 3.16222 0.83961
C 13.53429 4.07647 1.69783
C 13.16850 5.38950 1.14437
C 12.27140 5.17301 -0.02314
C 12.05794 3.74268 0.07011
C 13.72557 6.67926 1.67315
C 11.69019 6.10180 -1.04575
O 10.74524 5.73389 -1.82968
C 12.19521 7.48253 -1.03955
N 11.33605 0.77021 0.06652
C 10.64229 1.73650 -0.56032
C 9.52023 1.15414 -1.38629
C 9.75541 -0.42768 -1.37596
C 10.97488 -0.49605 -0.43064
C 8.10518 1.46122 -0.89670
C 9.84947 -1.13424 -2.75603
C 11.10513 -0.69678 -3.47529
N 13.36356 -0.94289 1.28793
C 12.51196 -1.96038 0.80463
C 13.00376 -3.23892 1.35770
C 14.10225 -2.87098 2.14918
C 14.27006 -1.46039 2.10946
C 12.41669 -4.51804 1.14480
C 15.15153 -3.35402 3.01772
O 15.55863 -4.46553 3.35321
C 15.81411 -2.10892 3.75061
C 17.30806 -2.25011 3.64721
O 17.87368 -2.18881 2.54135
O 17.84042 -2.21605 4.88244
C 19.32146 -2.34145 4.83139
H 14.27644 4.65714 3.59261
H 10.34362 3.57983 -1.13854
H 10.98955 -2.61503 -0.33784
H 16.35448 0.53659 5.34677
H 16.11634 3.28952 4.79741
H 14.31194 1.32910 6.15427
H 13.48013 2.69121 5.37513
H 14.66075 3.04176 6.60106
H 17.62569 2.29639 3.23657
H 17.97675 0.52987 3.19962
H 18.43737 1.46588 5.84901
H 18.88445 2.78567 4.82766
H 14.22768 6.53508 2.63778
H 12.87178 7.32505 1.90521
H 14.36768 7.18819 0.95111
H 12.01559 7.92837 -0.06414
H 11.72716 7.96874 -1.89769
H 13.28172 7.45827 -1.17924
H 9.56748 1.50978 -2.40824
H 8.93544 -0.95823 -0.86998
H 7.47804 1.96009 -1.65953
H 8.17701 2.07069 -0.00568
H 7.54192 0.59958 -0.54243
H 9.00982 -0.83961 -3.39034
H 9.83777 -2.21697 -2.68864
H 10.80752 0.24872 -3.93848
H 11.39224 -1.43071 -4.22560
H 11.90966 -0.47655 -2.76403
H 13.22977 -5.20611 0.95517
H 11.71023 -4.49855 0.31758
H 11.91856 -4.66654 2.10661
H 15.47269 -2.11873 4.78642
H 19.59238 -3.18983 5.46743
H 19.71545 -1.34904 5.12058
H 19.76749 -2.63356 3.88789
