158

Mg 0.00000 0.00000 0.00000
C -0.21700 -2.21800 2.80100
C -1.25500 2.44200 2.02600
C -0.24500 1.85000 -2.56400
C 0.14600 -2.82400 -2.03700
N -0.61700 -0.00900 2.12600
C -0.59400 -0.90800 3.10500
C -0.93600 -0.30900 4.50200
C -1.77300 0.96400 4.03200
C -1.15500 1.16800 2.66000
C -3.26300 0.68500 3.86300
C 0.34500 0.11000 5.29900
C 0.12400 0.39700 6.78700
H 1.16800 0.03300 7.73300
N -0.18500 1.96100 -0.15200
C -0.70300 2.80000 0.77700
C -0.62000 4.15600 0.19300
C -0.18700 4.01500 -1.22500
C -0.21400 2.58300 -1.38000
C -0.88700 5.40600 0.97400
C 0.18100 5.01300 -2.27700
O 0.30300 4.69000 -3.50800
C 0.31000 6.41400 -1.83700
N -0.26500 -0.41300 -2.02900
C -0.27900 0.56900 -2.93700
C -0.19600 0.02400 -4.33200
C 0.12400 -1.53300 -4.18000
C 0.08600 -1.63200 -2.63500
C -1.45100 0.20500 -5.19700
C 1.37300 -2.07000 -4.92300
C 2.62600 -1.49000 -4.30600
N 0.15000 -2.14400 0.30300
C 0.17300 -3.13600 -0.68800
C 0.17300 -4.43800 0.00400
C 0.13300 -4.11100 1.35800
C 0.08300 -2.69500 1.50200
C 0.14900 -5.71500 -0.62300
C 0.09600 -4.62900 2.71600
O 0.20800 -5.74700 3.22100
C -0.25500 -3.42800 3.70100
C 0.71700 -3.48200 4.84800
O 1.93100 -3.25500 4.66900
O 0.03800 -3.55600 6.00300
C 0.94300 -3.58300 7.18300
H -1.85900 3.22000 2.49700
H -0.21800 2.45300 -3.47400
H 0.27600 -3.74700 -2.60500
H -1.55400 -0.94900 5.13200
H -1.58500 1.83100 4.66500
H -3.48400 -0.37700 3.96900
H -3.51100 1.02700 2.85800
H -3.85200 1.30100 4.54300
H 0.66900 1.09600 4.96600
H 1.13000 -0.63900 5.18900
H -0.84400 0.02600 7.12500
H 0.06200 1.47700 6.92100
H -1.34400 5.18600 1.93800
H -1.65100 5.96300 0.43200
H 0.00700 6.02000 1.08400
H -0.63500 6.74400 -1.40500
H 0.66500 6.97000 -2.70400
H 1.04800 6.46600 -1.03600
H 0.60800 0.50100 -4.89100
H -0.69200 -2.15600 -4.54700
H -1.26700 0.74000 -6.12900
H -2.20400 0.71400 -4.59600
H -1.96700 -0.72000 -5.45300
H 1.35600 -1.75900 -5.96700
H 1.45200 -3.15700 -4.90200
H 2.71400 -0.52200 -4.79800
H 3.48700 -2.12100 -4.52900
H 2.49500 -1.30300 -3.24000
H 0.86700 -6.33300 -0.08400
H 0.40400 -5.64200 -1.68000
H -0.89100 -5.99900 -0.46300
H -1.28300 -3.58100 4.02800
H 0.69800 -4.47800 7.75500
H 0.83300 -2.61900 7.68000
H 2.00000 -3.75400 6.97600
Mg 15.76628 1.41940 1.19766
C 15.28446 1.51469 4.74322
C 14.60352 4.62598 1.10319
C 15.75262 1.20600 -1.96634
C 15.79756 -2.05682 1.44378
N 15.06571 2.79013 2.78856
C 14.98726 2.72565 4.11403
C 14.63205 4.08912 4.77896
C 13.90468 4.78910 3.54488
C 14.58963 4.05061 2.40848
C 12.40688 4.50800 3.48111
C 15.90614 4.88541 5.21982
C 15.64629 6.06418 6.16234
H 16.62395 6.36112 7.19837
N 15.72378 2.83314 -0.18161
C 15.22844 4.08629 -0.04184
C 15.42843 4.75155 -1.34726
C 15.90692 3.72382 -2.31313
C 15.78700 2.52572 -1.52221
C 15.21767 6.21865 -1.56396
C 16.38489 3.80677 -3.72833
O 16.53329 2.76757 -4.45814
C 16.59294 5.16062 -4.27317
N 15.55456 -0.18887 -0.11622
C 15.64490 -0.01546 -1.43938
C 15.74560 -1.32901 -2.15659
C 15.95065 -2.43625 -1.02446
C 15.84421 -1.52249 0.22133
C 14.54170 -1.70879 -3.02976
C 17.18814 -3.35872 -1.15899
C 18.45265 -2.55322 -0.96088
N 15.75519 -0.03726 2.80672
C 15.74898 -1.43386 2.67968
C 15.63116 -1.99084 4.03981
C 15.55985 -0.87213 4.86760
C 15.60234 0.30878 4.07265
C 15.54382 -3.37205 4.37005
C 15.43285 -0.39983 6.23679
O 15.44688 -0.93828 7.34465
C 15.12682 1.16252 6.20153
C 16.04615 1.82814 7.18900
O 17.27914 1.85425 6.99814
O 15.31807 2.52928 8.07152
C 16.17117 3.23860 9.06209
H 14.03654 5.54158 0.92389
H 15.85765 1.08594 -3.04661
H 15.88590 -3.13270 1.60542
H 13.94653 4.01796 5.62361
H 14.12685 5.85476 3.49262
H 12.10879 3.76644 4.22215
H 12.22350 4.13435 2.47351
H 11.83527 5.43253 3.56648
H 16.31070 5.42049 4.36070
H 16.64114 4.21809 5.67124
H 14.64219 6.02242 6.58536
H 15.65395 6.98100 5.57278
H 14.70839 6.67929 -0.71839
H 14.51635 6.32070 -2.39187
H 16.14695 6.73576 -1.80349
H 15.65657 5.71669 -4.22268
H 17.01995 5.02290 -5.26591
H 17.30019 5.69270 -3.63626
H 16.60239 -1.34273 -2.82901
H 15.10877 -3.12690 -0.97056
H 14.79940 -1.89949 -4.07184
H 13.80237 -0.91244 -2.94917
H 13.97351 -2.56863 -2.67587
H 17.23443 -3.78754 -2.15944
H 17.19075 -4.18220 -0.44475
H 18.62707 -2.12717 -1.94825
H 19.27610 -3.20435 -0.66561
H 18.29245 -1.72380 -0.27176
H 16.19519 -3.52159 5.23106
H 15.84528 -3.99949 3.53157
H 14.48109 -3.45892 4.59568
H 14.07845 1.28279 6.47280
H 15.84211 2.92416 10.05259
H 16.10844 4.29997 8.82135
H 17.22121 2.94552 9.09141
