79

Mg 13.12998 1.18235 1.00425
C 13.90776 3.70399 3.43643
C 13.01064 -1.05212 3.57865
C 12.89005 -1.13523 -1.14951
C 14.41591 3.32537 -1.42464
N 13.43663 1.41653 3.18218
C 13.66653 2.43335 3.99923
C 13.55678 2.08391 5.50767
C 13.84640 0.50732 5.41096
C 13.37103 0.25874 3.98096
C 15.32392 0.16088 5.49015
C 12.12632 2.37079 6.08515
C 12.03249 2.34611 7.61235
H 11.11997 3.27825 8.26878
N 12.49800 -0.68908 1.19645
C 12.50066 -1.43757 2.31941
C 11.95423 -2.74714 1.93133
C 11.78248 -2.76437 0.45318
C 12.41687 -1.51037 0.09945
C 11.57540 -3.79977 2.93226
C 11.16269 -3.75271 -0.48770
O 11.33613 -3.67581 -1.75531
C 10.42419 -4.86674 0.12472
N 13.77713 1.01446 -0.96434
C 13.49603 -0.07970 -1.69354
C 13.81927 0.13912 -3.15231
C 14.15089 1.69756 -3.28980
C 14.04423 2.11088 -1.80549
C 14.98540 -0.67980 -3.70540
C 13.33647 2.50033 -4.34097
C 11.88835 2.58669 -3.91568
N 13.83640 3.22338 0.94735
C 14.35567 3.91547 -0.16864
C 14.80989 5.23677 0.31123
C 14.54235 5.21274 1.68831
C 13.98094 3.95699 2.04525
C 15.42613 6.24381 -0.48391
C 14.61702 5.96017 2.92300
O 14.92337 7.11332 3.22322
C 14.32629 4.96972 4.13167
C 13.32956 5.63038 5.04412
O 12.17063 5.85846 4.65492
O 13.83975 5.68550 6.28792
C 12.88327 6.32274 7.23179
H 13.17226 -1.87248 4.27849
H 12.72904 -1.85917 -1.95167
H 14.73815 4.08757 -2.13731
H 14.29724 2.55992 6.13927
H 13.23723 -0.05026 6.11764
H 15.94584 1.04363 5.47965
H 15.52817 -0.45614 4.62492
H 15.51696 -0.46998 6.36255
H 11.46662 1.52771 5.84273
H 11.74578 3.30278 5.71475
H 13.02093 2.37771 8.08661
H 11.61874 1.38239 7.91907
H 11.96937 -3.56714 3.92929
H 12.09589 -4.71891 2.64220
H 10.50087 -3.99372 2.95331
H 11.08915 -5.42355 0.78065
H 9.97969 -5.41544 -0.70788
H 9.63051 -4.45435 0.75766
H 12.96590 -0.09500 -3.77685
H 15.19573 1.86696 -3.58888
H 14.70678 -1.30335 -4.57582
H 15.37923 -1.29507 -2.90735
H 15.85762 -0.09961 -4.00173
H 13.34693 1.98322 -5.30359
H 13.71745 3.50207 -4.50937
H 11.47174 1.63692 -4.26419
H 11.39825 3.43204 -4.39446
H 11.79939 2.60459 -2.82324
H 14.97444 7.18486 -0.19949
H 15.29820 6.04545 -1.54601
H 16.46678 6.13218 -0.16792
H 15.27556 4.77726 4.63310
H 13.40894 7.15871 7.70350
H 12.53179 5.51010 7.89498
H 12.02192 6.82625 6.80870
