79

Mg 31.53256 2.83880 2.39533
C 30.91726 5.19432 5.01929
C 30.59941 5.27295 0.19369
C 31.63054 0.65050 0.10222
C 31.31312 0.32600 4.80018
N 30.86564 4.92892 2.69073
C 30.73003 5.72982 3.74303
C 30.44384 7.21222 3.35839
C 29.81658 6.98015 1.91109
C 30.49357 5.66683 1.56069
C 28.30664 6.76500 1.92882
C 31.75140 8.07051 3.28518
C 31.53639 9.58608 3.23832
H 32.49010 10.45001 3.91759
N 31.64321 3.04294 0.43346
C 31.23068 4.10843 -0.29444
C 31.52825 3.77835 -1.70482
C 31.97259 2.35776 -1.75567
C 31.73848 1.94720 -0.39478
C 31.42845 4.77212 -2.82116
C 32.51131 1.50255 -2.85864
O 32.61640 0.23338 -2.74578
C 32.83424 2.18776 -4.12325
N 31.26260 0.76884 2.39534
C 31.41750 0.05273 1.27633
C 31.45555 -1.41773 1.56998
C 31.53803 -1.54917 3.15921
C 31.44546 -0.04729 3.52534
C 30.26408 -2.23478 1.05148
C 32.71302 -2.37795 3.73622
C 34.02138 -1.66766 3.47014
N 31.35633 2.75024 4.55684
C 31.25848 1.59664 5.34824
C 31.04813 2.04261 6.73781
C 31.02148 3.43341 6.65531
C 31.17738 3.83034 5.29647
C 30.85221 1.19572 7.86424
C 30.87291 4.67583 7.39570
O 30.80534 4.97093 8.58978
C 30.67749 5.86150 6.35080
C 31.60054 6.97909 6.75365
O 32.83901 6.84282 6.68303
O 30.88810 8.10245 6.92978
C 31.74804 9.25742 7.30221
H 30.10482 5.87703 -0.56947
H 31.77006 -0.13593 -0.64243
H 31.32020 -0.39919 5.61596
H 29.72185 7.71711 4.00046
H 30.11394 7.75889 1.20905
H 27.92855 6.67804 2.94735
H 28.13822 5.83834 1.37980
H 27.79750 7.54544 1.36273
H 32.22604 7.92040 2.31552
H 32.41979 7.82658 4.11166
H 30.51571 9.85255 3.51423
H 31.63107 9.91261 2.20265
H 30.91893 5.68109 -2.50382
H 30.76951 4.34010 -3.57407
H 32.40013 4.99017 -3.26457
H 31.93736 2.67303 -4.50883
H 33.28999 1.43485 -4.76534
H 33.55063 2.98433 -3.92028
H 32.33550 -1.88233 1.12698
H 30.64885 -2.02171 3.57724
H 30.54936 -3.05525 0.39258
H 29.57905 -1.55119 0.55076
H 29.62401 -2.65285 1.82798
H 32.76943 -3.34877 3.24503
H 32.63006 -2.55330 4.80889
H 34.26419 -1.97719 2.45423
H 34.78529 -2.00154 4.17311
H 33.89161 -0.58529 3.45876
H 31.45674 1.61383 8.66903
H 31.14273 0.16896 7.64297
H 29.77785 1.30286 8.01299
H 29.62997 6.15651 6.40374
H 31.35869 9.65895 8.23785
H 31.76865 9.92015 6.43689
H 32.77324 9.02202 7.59009
