79

Mg 10.50265 0.94985 0.80411
C 8.20703 -1.78949 0.47967
C 8.13629 2.91288 -0.67286
C 12.65956 3.27268 0.66411
C 13.04332 -1.40541 1.18281
N 8.47300 0.50411 0.04641
C 7.68271 -0.55871 0.03278
C 6.22441 -0.27018 -0.41408
C 6.49462 1.05997 -1.27233
C 7.76084 1.54941 -0.57246
C 6.83123 0.77931 -2.72741
C 5.27214 0.01336 0.80033
C 3.77929 -0.00241 0.46431
H 2.84686 -0.52091 1.46141
N 10.26993 2.90541 0.55879
C 9.23777 3.53288 -0.04304
C 9.55024 4.96920 0.01639
C 10.92833 5.12753 0.55539
C 11.35649 3.74362 0.59502
C 8.55400 6.03409 -0.33989
C 11.73286 6.32709 0.95537
O 12.99363 6.25020 1.17304
C 11.01930 7.61194 0.99379
N 12.57884 0.94142 0.69608
C 13.27600 2.09115 0.70020
C 14.75128 1.83383 0.89439
C 14.87188 0.28240 1.26332
C 13.38898 -0.12660 1.12509
C 15.64411 2.14177 -0.30745
C 15.61685 -0.07220 2.57936
C 14.81914 0.40936 3.76981
N 10.61404 -1.19744 1.01579
C 11.78112 -1.98334 1.13561
C 11.35518 -3.39791 1.13716
C 9.96082 -3.33701 0.99384
C 9.54897 -1.98098 0.88868
C 12.21907 -4.52672 1.21203
C 8.74476 -4.11193 0.89694
O 8.46333 -5.30440 1.00898
C 7.56796 -3.14963 0.43271
C 6.38420 -3.39879 1.32667
O 6.43771 -3.12244 2.53802
O 5.31871 -3.71605 0.56875
C 4.11686 -3.96154 1.40965
H 7.55790 3.56327 -1.32963
H 13.43507 4.03928 0.73044
H 13.76571 -2.19635 1.39553
H 5.78208 -1.03432 -1.04193
H 5.68907 1.77935 -1.15008
H 6.94950 -0.27720 -2.91703
H 7.75720 1.30455 -2.92173
H 6.08302 1.23521 -3.38212
H 5.38473 1.06135 1.10657
H 5.46850 -0.66758 1.60556
H 3.58229 -0.45197 -0.51652
H 3.43619 1.02976 0.35984
H 7.68392 5.61348 -0.85897
H 9.02939 6.67993 -1.08605
H 8.26197 6.64203 0.51906
H 10.59946 7.82134 0.01280
H 11.73795 8.33368 1.38686
H 10.17404 7.52215 1.68523
H 15.14154 2.42180 1.71603
H 15.42518 -0.27732 0.49494
H 16.44781 2.86721 -0.07963
H 15.01955 2.50646 -1.11210
H 16.12292 1.27562 -0.76103
H 16.57892 0.44438 2.62094
H 15.81575 -1.13286 2.69077
H 15.10491 1.46255 3.84865
H 15.09635 -0.14294 4.66544
H 13.74324 0.37435 3.56280
H 11.76591 -5.21995 1.90814
H 13.21994 -4.24107 1.52895
H 12.19730 -4.85840 0.17050
H 7.34874 -3.37992 -0.61059
H 3.74862 -4.96060 1.15675
H 3.43756 -3.11027 1.21563
H 4.26410 -4.05489 2.47925
