79

Mg 15.76628 1.41940 1.19766
C 15.18942 2.82878 4.43697
C 14.71760 4.38841 -0.11700
C 15.83345 0.05206 -1.66284
C 15.67109 -1.71952 2.70889
N 15.06922 3.29590 2.14292
C 14.95170 3.72759 3.39472
C 14.62521 5.24763 3.49597
C 13.95702 5.45753 2.06368
C 14.64756 4.33666 1.30689
C 12.45279 5.20530 2.05026
C 15.91316 6.12265 3.66107
C 15.66786 7.57164 4.09191
H 16.62590 8.20919 4.98242
N 15.81088 2.22383 -0.60615
C 15.35525 3.45033 -0.95740
C 15.61430 3.58151 -2.40736
C 16.08387 2.25945 -2.90712
C 15.90082 1.44141 -1.73551
C 15.46025 4.86883 -3.15757
C 16.60366 1.80310 -4.23366
O 16.73650 0.56479 -4.52268
C 16.87326 2.85487 -5.23072
N 15.53606 -0.55560 0.56204
C 15.66913 -0.88550 -0.72732
C 15.74454 -2.37297 -0.90535
C 15.87976 -2.98755 0.56222
C 15.77013 -1.67598 1.37834
C 14.55309 -3.02238 -1.62279
C 17.08804 -3.92102 0.82509
C 18.37351 -3.12694 0.76096
N 15.66026 0.66119 3.22865
C 15.60955 -0.68299 3.62524
C 15.43479 -0.69514 5.08927
C 15.37897 0.65157 5.44297
C 15.48419 1.45383 4.27096
C 15.29082 -1.85426 5.90177
C 15.23019 1.59910 6.53562
O 15.19481 1.50806 7.76361
C 14.97919 3.04404 5.91515
C 15.89300 4.00738 6.62240
O 17.13100 3.93437 6.48310
O 15.16516 5.00066 7.15550
C 16.01422 6.00719 7.84697
H 14.18766 5.18497 -0.64292
H 15.96435 -0.46100 -2.61787
H 15.71783 -2.66112 3.25903
H 13.91439 5.50856 4.28023
H 14.21709 6.42333 1.63089
H 12.10884 4.79678 3.00038
H 12.28482 4.48978 1.24509
H 11.91117 6.10808 1.76669
H 16.35967 6.29341 2.68152
H 16.61191 5.65366 4.35471
H 14.65152 7.71096 4.46144
H 15.72347 8.20525 3.20667
H 14.94376 5.62030 -2.56169
H 14.78619 4.67284 -3.99120
H 16.41308 5.24053 -3.53480
H 15.95553 3.41038 -5.42495
H 17.32277 2.35077 -6.08551
H 17.58037 3.56920 -4.80802
H 16.61875 -2.65281 -1.49174
H 15.01344 -3.59096 0.83438
H 14.83300 -3.59026 -2.51041
H 13.83962 -2.23681 -1.87004
H 13.94601 -3.67802 -0.99908
H 17.14742 -4.69013 0.05575
H 17.04242 -4.42206 1.79211
H 18.58992 -3.09988 -0.30640
H 19.16552 -3.64053 1.30701
H 18.22279 -2.09830 1.08907
H 15.91242 -1.68907 6.78172
H 15.59377 -2.75354 5.36594
H 14.21986 -1.82852 6.10234
H 13.92843 3.27874 6.08229
H 15.64707 6.08831 8.87013
H 15.99478 6.90553 7.22971
H 17.05233 5.72301 8.02277
