158

Mg 0.00000 0.00000 0.00000
C -0.21700 -2.21800 2.80100
C -1.25500 2.44200 2.02600
C -0.24500 1.85000 -2.56400
C 0.14600 -2.82400 -2.03700
N -0.61700 -0.00900 2.12600
C -0.59400 -0.90800 3.10500
C -0.93600 -0.30900 4.50200
C -1.77300 0.96400 4.03200
C -1.15500 1.16800 2.66000
C -3.26300 0.68500 3.86300
C 0.34500 0.11000 5.29900
C 0.12400 0.39700 6.78700
H 1.16800 0.03300 7.73300
N -0.18500 1.96100 -0.15200
C -0.70300 2.80000 0.77700
C -0.62000 4.15600 0.19300
C -0.18700 4.01500 -1.22500
C -0.21400 2.58300 -1.38000
C -0.88700 5.40600 0.97400
C 0.18100 5.01300 -2.27700
O 0.30300 4.69000 -3.50800
C 0.31000 6.41400 -1.83700
N -0.26500 -0.41300 -2.02900
C -0.27900 0.56900 -2.93700
C -0.19600 0.02400 -4.33200
C 0.12400 -1.53300 -4.18000
C 0.08600 -1.63200 -2.63500
C -1.45100 0.20500 -5.19700
C 1.37300 -2.07000 -4.92300
C 2.62600 -1.49000 -4.30600
N 0.15000 -2.14400 0.30300
C 0.17300 -3.13600 -0.68800
C 0.17300 -4.43800 0.00400
C 0.13300 -4.11100 1.35800
C 0.08300 -2.69500 1.50200
C 0.14900 -5.71500 -0.62300
C 0.09600 -4.62900 2.71600
O 0.20800 -5.74700 3.22100
C -0.25500 -3.42800 3.70100
C 0.71700 -3.48200 4.84800
O 1.93100 -3.25500 4.66900
O 0.03800 -3.55600 6.00300
C 0.94300 -3.58300 7.18300
H -1.85900 3.22000 2.49700
H -0.21800 2.45300 -3.47400
H 0.27600 -3.74700 -2.60500
H -1.55400 -0.94900 5.13200
H -1.58500 1.83100 4.66500
H -3.48400 -0.37700 3.96900
H -3.51100 1.02700 2.85800
H -3.85200 1.30100 4.54300
H 0.66900 1.09600 4.96600
H 1.13000 -0.63900 5.18900
H -0.84400 0.02600 7.12500
H 0.06200 1.47700 6.92100
H -1.34400 5.18600 1.93800
H -1.65100 5.96300 0.43200
H 0.00700 6.02000 1.08400
H -0.63500 6.74400 -1.40500
H 0.66500 6.97000 -2.70400
H 1.04800 6.46600 -1.03600
H 0.60800 0.50100 -4.89100
H -0.69200 -2.15600 -4.54700
H -1.26700 0.74000 -6.12900
H -2.20400 0.71400 -4.59600
H -1.96700 -0.72000 -5.45300
H 1.35600 -1.75900 -5.96700
H 1.45200 -3.15700 -4.90200
H 2.71400 -0.52200 -4.79800
H 3.48700 -2.12100 -4.52900
H 2.49500 -1.30300 -3.24000
H 0.86700 -6.33300 -0.08400
H 0.40400 -5.64200 -1.68000
H -0.89100 -5.99900 -0.46300
H -1.28300 -3.58100 4.02800
H 0.69800 -4.47800 7.75500
H 0.83300 -2.61900 7.68000
H 2.00000 -3.75400 6.97600
Mg 10.51817 0.94527 0.80604
C 8.59005 -0.60611 3.40501
C 11.09056 3.51764 2.97166
C 11.84001 2.54221 -1.59603
C 8.87928 -1.13427 -1.46007
N 9.87090 1.29526 2.89190
C 9.19200 0.60752 3.79769
C 9.22358 1.21728 5.22484
C 9.52741 2.74332 4.82766
C 10.23981 2.51226 3.49658
C 8.27201 3.55755 4.56246
C 10.37208 0.61385 6.10737
C 10.27124 0.93345 7.60050
H 10.70093 -0.08022 8.55983
N 11.74288 2.50681 0.82174
C 11.86161 3.43812 1.79119
C 12.88233 4.38517 1.31646
C 13.23766 4.02880 -0.08406
C 12.25065 3.00248 -0.35342
C 13.47796 5.44724 2.19434
C 14.28342 4.53763 -1.02941
O 14.25860 4.25127 -2.27849
C 15.28388 5.45668 -0.46735
N 10.23178 0.88758 -1.25235
C 10.97424 1.64884 -2.07525
C 10.78493 1.23918 -3.51634
C 9.94241 -0.11933 -3.46967
C 9.70350 -0.21676 -1.94690
C 10.06691 2.25268 -4.40721
C 10.54687 -1.34788 -4.20313
C 11.80246 -1.80482 -3.49596
N 9.14694 -0.71952 0.93345
C 8.56403 -1.42853 -0.13969
C 7.61271 -2.39655 0.44371
C 7.69182 -2.16590 1.82539
C 8.61146 -1.11368 2.08339
C 6.78695 -3.29570 -0.28824
C 7.19855 -2.56609 3.12356
O 6.46696 -3.46547 3.53542
C 7.66379 -1.48833 4.19517
C 8.23489 -2.22417 5.37623
O 9.27718 -2.89267 5.26069
O 7.58287 -1.84344 6.48991
C 8.12096 -2.53795 7.68988
H 11.14202 4.47595 3.48922
H 12.34926 2.98548 -2.45490
H 8.40204 -1.88520 -2.09334
H 8.28772 1.15342 5.76692
H 10.19848 3.21156 5.54305
H 7.38415 2.94289 4.56965
H 8.41318 4.00693 3.58821
H 8.20493 4.38835 5.27070
H 11.31338 1.12553 5.86886
H 10.44132 -0.44759 5.96889
H 9.28371 1.32569 7.87229
H 10.95696 1.75353 7.82692
H 12.90230 5.57390 3.11952
H 13.35953 6.40060 1.66808
H 14.53910 5.28290 2.39343
H 14.78136 6.32552 -0.04894
H 15.99736 5.64021 -1.27305
H 15.79103 4.95546 0.36463
H 11.73860 1.04510 -3.99168
H 8.95324 -0.00155 -3.93605
H 10.65820 2.55076 -5.29355
H 9.81792 3.11814 -3.80760
H 9.09143 1.93662 -4.77293
H 10.84457 -1.07415 -5.21831
H 9.86020 -2.18398 -4.28328
H 12.57018 -1.13890 -3.90123
H 12.01785 -2.84507 -3.73163
H 11.73794 -1.61603 -2.41807
H 6.83462 -4.24821 0.22259
H 7.11247 -3.38183 -1.32284
H 5.82227 -2.78847 -0.20231
H 6.78857 -0.89643 4.46577
H 7.27679 -3.03730 8.17539
H 8.64953 -1.76058 8.27303
H 8.79430 -3.37130 7.52679
