79

Mg 8.93586 0.79724 0.68638
C 6.33327 1.68949 2.99061
C 11.16680 1.47081 3.17713
C 11.26410 0.45470 -1.44185
C 6.63897 1.29813 -1.88637
N 8.66320 1.48367 2.77127
C 7.62493 1.73054 3.55574
C 7.98634 1.96009 5.04780
C 9.50975 2.43074 4.85656
C 9.81952 1.72605 3.53742
C 9.65472 3.92839 4.64354
C 7.89425 0.64239 5.89468
C 7.93170 0.84826 7.41058
H 7.13067 -0.03555 8.25302
N 10.87524 0.46611 0.94665
C 11.61689 0.78335 2.02859
C 12.98786 0.34976 1.71777
C 13.02761 -0.09941 0.29954
C 11.69970 0.28429 -0.13580
C 14.08208 0.31259 2.74477
C 14.08996 -0.75300 -0.53138
O 13.99014 -0.83838 -1.80636
C 15.29321 -1.20659 0.18132
N 9.01484 1.06986 -1.37317
C 10.13663 0.80029 -2.06370
C 9.87602 0.80510 -3.55113
C 8.28714 0.89590 -3.70861
C 7.89226 1.02336 -2.22093
C 10.53082 1.94051 -4.33755
C 7.60069 -0.20406 -4.56394
C 7.70963 -1.54180 -3.86827
N 6.81846 1.20445 0.54911
C 6.06262 1.40352 -0.62697
C 4.69243 1.76356 -0.20818
C 4.75252 1.77153 1.19354
C 6.07237 1.45965 1.61808
C 3.61157 2.07719 -1.07967
C 4.00216 1.98329 2.41042
O 2.81840 2.18710 2.67671
C 5.02299 2.06358 3.62609
C 4.50236 1.18289 4.72875
O 4.43183 -0.04902 4.57371
O 4.37957 1.91109 5.85347
C 3.87675 1.07867 6.97867
H 11.95821 1.87067 3.81168
H 12.00289 0.23911 -2.21721
H 5.84022 1.37399 -2.62727
H 7.41540 2.73898 5.53885
H 10.14425 2.04777 5.65161
H 8.69646 4.41490 4.53770
H 10.23850 4.04178 3.73945
H 10.25418 4.36705 5.44638
H 8.81820 0.06526 5.76056
H 7.02168 0.07833 5.62805
H 7.76781 1.89656 7.68836
H 8.94232 0.63185 7.76531
H 13.79893 0.85692 3.65413
H 14.92295 0.88397 2.33692
H 14.41854 -0.70272 2.96522
H 15.75588 -0.36042 0.68371
H 15.89640 -1.72680 -0.56529
H 14.99128 -1.91092 0.96451
H 10.22242 -0.11408 -4.00742
H 7.97891 1.83208 -4.19688
H 11.18591 1.58421 -5.15486
H 11.08786 2.55808 -3.64556
H 9.83871 2.65527 -4.77950
H 8.11147 -0.31101 -5.52405
H 6.55683 0.00210 -4.77569
H 8.70664 -1.88891 -4.15562
H 6.93761 -2.22184 -4.22261
H 7.70413 -1.42046 -2.77882
H 2.73975 1.56875 -0.68991
H 3.82503 1.77454 -2.10271
H 3.58256 3.16466 -0.97089
H 5.08639 3.10851 3.93216
H 2.97791 1.57054 7.36317
H 4.72939 0.97152 7.67528
H 3.49333 0.09334 6.74084
