79

Mg 15.76628 1.41940 1.19766
C 15.64685 3.13145 -1.94349
C 15.27757 -1.48032 -0.53319
C 15.41435 -0.05616 3.98253
C 15.11150 4.48290 2.72472
N 15.51119 1.00680 -0.96228
C 15.54524 1.74406 -2.06792
C 15.53887 0.89719 -3.37565
C 14.85749 -0.42984 -2.81286
C 15.26856 -0.31471 -1.35557
C 13.33455 -0.41523 -2.89623
C 16.98391 0.61706 -3.90960
C 17.05874 0.08305 -5.34298
H 18.16868 0.49762 -6.18769
N 15.88422 -0.49885 1.65510
C 15.66983 -1.54489 0.82136
C 15.87850 -2.76287 1.63357
C 16.04534 -2.34081 3.05206
C 15.75816 -0.93239 2.95582
C 15.95179 -4.13969 1.04813
C 16.39605 -3.09011 4.29853
O 16.26088 -2.57665 5.46157
C 16.82381 -4.49010 4.12504
N 15.10973 2.06191 3.07217
C 15.10967 1.23552 4.12386
C 14.87330 1.98085 5.40392
C 14.95316 3.53202 5.03348
C 15.15179 3.39933 3.50338
C 13.54119 1.69270 6.10995
C 15.95869 4.39568 5.83562
C 17.37364 3.97970 5.50102
N 15.60879 3.48718 0.55694
C 15.30636 4.59751 1.35843
C 15.20493 5.76316 0.46119
C 15.44057 5.24362 -0.81019
C 15.64842 3.83781 -0.71631
C 14.86922 7.08929 0.85248
C 15.54074 5.54502 -2.22898
O 15.54805 6.57984 -2.89725
C 15.55750 4.17070 -3.03322
C 16.68118 4.24168 -4.03103
O 17.87033 4.27554 -3.65401
O 16.19678 4.01990 -5.26257
C 17.26510 4.04729 -6.29703
H 14.89481 -2.41757 -0.94185
H 15.39148 -0.50633 4.97715
H 14.99348 5.48565 3.13948
H 14.93507 1.31214 -4.18291
H 15.28624 -1.32759 -3.25774
H 12.96208 0.55971 -3.21037
H 12.98572 -0.64999 -1.89040
H 12.97380 -1.22226 -3.53447
H 17.40706 -0.23206 -3.37294
H 17.60637 1.50843 -3.82400
H 16.11113 0.21262 -5.86657
H 17.19800 -0.99714 -5.29819
H 15.62818 -4.15039 0.00808
H 15.21186 -4.74700 1.56909
H 16.94044 -4.58358 1.16582
H 16.02925 -5.05074 3.63219
H 17.11930 -4.83897 5.11389
H 17.68089 -4.51653 3.45148
H 15.64279 1.74911 6.13918
H 13.99700 4.03624 5.17563
H 13.65628 1.34133 7.13562
H 12.99042 0.97006 5.50850
H 12.84528 2.53091 6.13274
H 15.82312 4.24015 6.90538
H 15.86009 5.46363 5.64063
H 17.53833 3.12642 6.15801
H 18.07103 4.78696 5.72727
H 17.45077 3.62035 4.47466
H 15.55387 7.74763 0.31786
H 14.95697 7.21810 1.93105
H 13.83686 7.14632 0.50776
H 14.58560 4.07875 -3.51702
H 16.97274 4.78858 -7.04083
H 17.39775 3.01866 -6.63280
H 18.23146 4.44226 -5.98163
