79

Mg 13.14569 1.17901 1.00491
C 13.32645 -2.24756 -0.04629
C 12.13391 0.03422 4.05456
C 12.54395 4.18501 1.82302
C 13.05298 2.06299 -2.36491
N 12.81170 -0.86479 1.78183
C 12.97200 -2.09200 1.31003
C 12.81767 -3.21432 2.37123
C 11.90130 -2.42322 3.42636
C 12.32885 -0.99416 3.09824
C 10.41318 -2.55263 3.14693
C 14.19161 -3.63212 3.00349
C 14.15773 -4.92795 3.81677
H 15.32787 -5.80098 3.78413
N 12.91927 2.00159 2.79674
C 12.52325 1.38602 3.93055
C 12.49622 2.42992 4.96674
C 12.74940 3.74391 4.31554
C 12.72621 3.35515 2.91969
C 12.32660 2.12334 6.42642
C 12.96271 5.12438 4.85868
O 12.92800 6.15843 4.10213
C 13.12046 5.23840 6.31594
N 12.62938 2.86408 -0.09796
C 12.47676 4.05996 0.49744
C 12.37956 5.16890 -0.52295
C 12.74269 4.49414 -1.92666
C 12.90713 3.02856 -1.46793
C 11.02003 5.85969 -0.62719
C 13.89105 5.14588 -2.74469
C 15.20769 4.95812 -2.02595
N 13.36625 0.14707 -0.88043
C 13.26576 0.70365 -2.17434
C 13.37464 -0.41119 -3.13750
C 13.50891 -1.55081 -2.33020
C 13.46510 -1.17517 -0.96035
C 13.29566 -0.29733 -4.55416
C 13.66708 -2.98735 -2.32526
O 13.85205 -3.84389 -3.18889
C 13.42905 -3.51687 -0.84562
C 14.54339 -4.46920 -0.50820
O 15.71555 -4.06375 -0.41742
O 14.01642 -5.65017 -0.13674
C 15.08228 -6.62468 0.21836
H 11.59394 -0.20516 4.97108
H 12.44307 5.24916 2.04860
H 13.13155 2.26717 -3.43487
H 12.30228 -4.10127 2.02272
H 12.16864 -2.67588 4.44913
H 10.22122 -3.05957 2.21295
H 10.03103 -1.54075 3.11369
H 9.91198 -3.03653 3.99012
H 14.45236 -2.91939 3.79644
H 14.95314 -3.69764 2.25089
H 13.24271 -5.50476 3.63518
H 14.10630 -4.67067 4.87751
H 11.99678 1.08912 6.58455
H 11.49070 2.73302 6.78618
H 13.21628 2.36198 7.01310
H 12.23857 4.83436 6.80735
H 13.35179 6.28872 6.50354
H 13.96676 4.61533 6.62604
H 13.09807 5.95168 -0.31299
H 11.88933 4.51241 -2.62041
H 11.07252 6.95306 -0.46634
H 10.34891 5.40200 0.08742
H 10.49496 5.70613 -1.56842
H 13.73310 6.22409 -2.82648
H 13.97826 4.75575 -3.75324
H 15.21122 5.77636 -1.29962
H 16.03973 5.04449 -2.72185
H 15.21813 4.01758 -1.46299
H 14.07888 -0.92310 -4.96095
H 13.40369 0.73617 -4.87659
H 12.28457 -0.67684 -4.72426
H 12.45361 -4.00438 -0.82509
H 14.92357 -7.51200 -0.40226
H 15.01252 -6.75752 1.31437
H 16.10303 -6.36674 -0.03853
