79

Mg 10.51821 0.95077 0.79229
C 9.94537 4.42558 1.48268
C 9.82130 1.63874 -2.47507
C 10.57325 -2.17082 0.22655
C 10.04587 0.34057 4.19085
N 9.96862 2.82825 -0.23984
C 9.84135 4.09807 0.11470
C 9.66810 5.08305 -1.07246
C 9.07798 4.05381 -2.15472
C 9.68497 2.75940 -1.61738
C 7.56434 3.92884 -2.10352
C 11.03339 5.69442 -1.54600
C 10.90862 6.89164 -2.49091
H 11.89322 7.96516 -2.38796
N 10.72095 -0.04174 -0.91428
C 10.41025 0.39644 -2.15232
C 10.72516 -0.71494 -3.06327
C 11.09193 -1.90263 -2.24498
C 10.78272 -1.41313 -0.91650
C 10.73869 -0.56406 -4.55674
C 11.61994 -3.25947 -2.60051
O 11.64244 -4.21750 -1.74934
C 12.02302 -3.46003 -4.00008
N 10.12824 -0.70570 1.98659
C 10.27718 -1.95342 1.50811
C 10.20994 -2.97498 2.61820
C 10.22664 -2.13347 3.97804
C 10.20990 -0.70472 3.39171
C 8.98852 -3.89383 2.60359
C 11.32519 -2.49394 5.01530
C 12.68752 -2.12546 4.47339
N 10.25941 2.15485 2.56747
C 10.05184 1.69587 3.88669
C 9.81602 2.88592 4.72965
C 9.88043 3.96160 3.83118
C 10.11812 3.47470 2.51744
C 9.53471 2.87450 6.12495
C 9.79082 5.39748 3.69368
O 9.68865 6.34049 4.47728
C 9.70306 5.75251 2.14686
C 10.67836 6.86346 1.86922
O 11.90180 6.67506 1.98890
O 10.02370 7.89303 1.30197
C 10.95087 9.01534 0.99769
H 9.40019 1.69948 -3.47899
H 10.69169 -3.25004 0.10512
H 9.98795 0.24166 5.27692
H 8.96092 5.88503 -0.89783
H 9.45666 4.26780 -3.15080
H 7.14386 4.46560 -1.26613
H 7.35941 2.86992 -2.01556
H 7.12779 4.24218 -3.05619
H 11.53348 4.98018 -2.21272
H 11.64406 5.95991 -0.70504
H 9.89183 7.30264 -2.50346
H 11.06994 6.54428 -3.51431
H 10.26703 0.37538 -4.87042
H 10.08612 -1.34448 -4.96290
H 11.73734 -0.68128 -4.98291
H 11.17417 -3.26663 -4.65162
H 12.45626 -4.46137 -4.03879
H 12.78928 -2.71879 -4.25312
H 11.07510 -3.62626 2.59733
H 9.29007 -2.25253 4.54241
H 9.25089 -4.96814 2.57063
H 8.37083 -3.62708 1.75634
H 8.30296 -3.76403 3.43927
H 11.34195 -3.57256 5.18983
H 11.18433 -2.01409 5.97806
H 12.94484 -2.98509 3.84735
H 13.40157 -2.00034 5.28488
H 12.62672 -1.24783 3.81939
H 10.12588 3.66477 6.56822
H 9.76456 1.90817 6.56898
H 8.45983 3.07360 6.10884
H 8.67461 6.04854 1.93653
H 10.54757 9.90546 1.49036
H 11.03361 9.04389 -0.10507
H 11.94701 8.97166 1.42225
