158

Mg 0.00000 0.00000 0.00000
C -0.21700 -2.21800 2.80100
C -1.25500 2.44200 2.02600
C -0.24500 1.85000 -2.56400
C 0.14600 -2.82400 -2.03700
N -0.61700 -0.00900 2.12600
C -0.59400 -0.90800 3.10500
C -0.93600 -0.30900 4.50200
C -1.77300 0.96400 4.03200
C -1.15500 1.16800 2.66000
C -3.26300 0.68500 3.86300
C 0.34500 0.11000 5.29900
C 0.12400 0.39700 6.78700
H 1.16800 0.03300 7.73300
N -0.18500 1.96100 -0.15200
C -0.70300 2.80000 0.77700
C -0.62000 4.15600 0.19300
C -0.18700 4.01500 -1.22500
C -0.21400 2.58300 -1.38000
C -0.88700 5.40600 0.97400
C 0.18100 5.01300 -2.27700
O 0.30300 4.69000 -3.50800
C 0.31000 6.41400 -1.83700
N -0.26500 -0.41300 -2.02900
C -0.27900 0.56900 -2.93700
C -0.19600 0.02400 -4.33200
C 0.12400 -1.53300 -4.18000
C 0.08600 -1.63200 -2.63500
C -1.45100 0.20500 -5.19700
C 1.37300 -2.07000 -4.92300
C 2.62600 -1.49000 -4.30600
N 0.15000 -2.14400 0.30300
C 0.17300 -3.13600 -0.68800
C 0.17300 -4.43800 0.00400
C 0.13300 -4.11100 1.35800
C 0.08300 -2.69500 1.50200
C 0.14900 -5.71500 -0.62300
C 0.09600 -4.62900 2.71600
O 0.20800 -5.74700 3.22100
C -0.25500 -3.42800 3.70100
C 0.71700 -3.48200 4.84800
O 1.93100 -3.25500 4.66900
O 0.03800 -3.55600 6.00300
C 0.94300 -3.58300 7.18300
H -1.85900 3.22000 2.49700
H -0.21800 2.45300 -3.47400
H 0.27600 -3.74700 -2.60500
H -1.55400 -0.94900 5.13200
H -1.58500 1.83100 4.66500
H -3.48400 -0.37700 3.96900
H -3.51100 1.02700 2.85800
H -3.85200 1.30100 4.54300
H 0.66900 1.09600 4.96600
H 1.13000 -0.63900 5.18900
H -0.84400 0.02600 7.12500
H 0.06200 1.47700 6.92100
H -1.34400 5.18600 1.93800
H -1.65100 5.96300 0.43200
H 0.00700 6.02000 1.08400
H -0.63500 6.74400 -1.40500
H 0.66500 6.97000 -2.70400
H 1.04800 6.46600 -1.03600
H 0.60800 0.50100 -4.89100
H -0.69200 -2.15600 -4.54700
H -1.26700 0.74000 -6.12900
H -2.20400 0.71400 -4.59600
H -1.96700 -0.72000 -5.45300
H 1.35600 -1.75900 -5.96700
H 1.45200 -3.15700 -4.90200
H 2.71400 -0.52200 -4.79800
H 3.48700 -2.12100 -4.52900
H 2.49500 -1.30300 -3.24000
H 0.86700 -6.33300 -0.08400
H 0.40400 -5.64200 -1.68000
H -0.89100 -5.99900 -0.46300
H -1.28300 -3.58100 4.02800
H 0.69800 -4.47800 7.75500
H 0.83300 -2.61900 7.68000
H 2.00000 -3.75400 6.97600
Mg 10.50301 0.94334 0.80494
C 10.52389 3.65601 3.15442
C 11.14874 -1.13770 3.42923
C 10.93728 -1.40050 -1.28915
C 10.99813 3.30252 -1.71197
N 10.77836 1.32822 2.96557
C 10.70296 2.39112 3.75227
C 10.74605 2.07179 5.27073
C 11.50735 0.65970 5.19799
C 11.09549 0.23218 3.79077
C 13.02102 0.78950 5.23393
C 9.31258 1.92027 5.89058
C 9.27065 1.91515 7.42028
H 8.13155 2.53950 8.08744
N 10.48725 -1.02488 1.05876
C 10.75083 -1.70072 2.19675
C 10.62723 -3.12642 1.85578
C 10.43101 -3.24170 0.38510
C 10.63619 -1.86462 -0.01695
C 10.61932 -4.21305 2.89145
C 10.12381 -4.40187 -0.51259
O 10.23196 -4.31445 -1.78675
C 9.78301 -5.67005 0.14851
N 11.11905 0.92276 -1.18061
C 11.17203 -0.22675 -1.87612
C 11.37361 0.03594 -3.34947
C 11.20230 1.61551 -3.53162
C 11.01135 2.02143 -2.05373
C 12.72135 -0.39921 -3.92448
C 10.15225 2.09428 -4.57125
C 8.76018 1.74199 -4.09856
N 10.54046 3.09998 0.68012
C 10.79058 3.88374 -0.46758
C 10.82530 5.29494 -0.03199
C 10.61418 5.23209 1.35364
C 10.47898 3.87600 1.75645
C 11.07831 6.41798 -0.86918
C 10.48554 6.00389 2.56874
O 10.42716 7.20399 2.83350
C 10.54749 5.01004 3.80762
C 9.41910 5.35824 4.73930
O 8.23686 5.20479 4.38522
O 9.91918 5.60687 5.96343
C 8.83712 5.94623 6.92562
H 11.57470 -1.84583 4.14056
H 10.98778 -2.16325 -2.06962
H 11.04973 4.10453 -2.45143
H 11.31867 2.77268 5.86625
H 11.11949 -0.03667 5.93690
H 13.33829 1.82048 5.18321
H 13.38391 0.23932 4.37565
H 13.42260 0.27655 6.11253
H 8.94055 0.90749 5.68904
H 8.65250 2.67707 5.51353
H 10.21260 2.26538 7.85962
H 9.18400 0.88073 7.76158
H 10.94753 -3.83926 3.86918
H 11.39130 -4.93485 2.60351
H 9.65871 -4.72886 2.95345
H 10.60456 -5.97348 0.79307
H 9.50899 -6.35480 -0.65642
H 8.91730 -5.50375 0.79927
H 10.61890 -0.46971 -3.93925
H 12.13509 2.09019 -3.86988
H 12.62720 -1.10500 -4.77128
H 13.30701 -0.83759 -3.12739
H 13.36286 0.41267 -4.26289
H 10.29746 1.57615 -5.52236
H 10.19956 3.15900 -4.77404
H 8.64950 0.69964 -4.41215
H 8.02002 2.37922 -4.57829
H 8.69842 1.76537 -3.00435
H 10.36478 7.18169 -0.58970
H 10.99064 6.15698 -1.92177
H 12.11016 6.64330 -0.58669
H 11.52233 5.13603 4.28025
H 9.08992 6.91793 7.36102
H 8.77209 5.08571 7.61773
H 7.85148 6.14550 6.52158
