79

Mg 8.92596 0.80739 0.68456
C 10.58118 2.68912 3.25329
C 7.73987 -1.23029 3.14945
C 7.82976 -1.12706 -1.57900
C 11.12006 2.26032 -1.60030
N 9.19480 0.82966 2.87989
C 9.79470 1.62860 3.74947
C 9.47213 1.31916 5.23599
C 9.06782 -0.22690 5.07753
C 8.60334 -0.21019 3.62265
C 10.25160 -1.17312 5.19014
C 8.27300 2.17384 5.77786
C 8.10206 2.15064 7.29838
H 7.64159 3.36521 7.96564
N 7.54912 -0.61933 0.77042
C 7.17743 -1.32710 1.85770
C 6.14569 -2.26696 1.39255
C 6.05639 -2.16954 -0.08976
C 7.18070 -1.29756 -0.36483
C 5.30592 -3.08343 2.33148
C 5.12243 -2.77291 -1.09468
O 5.37467 -2.74346 -2.35100
C 3.95078 -3.48085 -0.55844
N 9.53680 0.43209 -1.26694
C 8.85338 -0.41723 -2.05403
C 9.31083 -0.31836 -3.48977
C 10.28038 0.95227 -3.54523
C 10.28634 1.33157 -2.04807
C 10.04352 -1.54168 -4.04026
C 9.93809 2.05383 -4.58546
C 8.64523 2.73891 -4.20523
N 10.43551 2.35198 0.74396
C 11.25448 2.78570 -0.32152
C 12.20334 3.77308 0.23273
C 11.88315 3.82866 1.59760
C 10.82387 2.92386 1.87825
C 13.22804 4.44143 -0.49487
C 12.20747 4.43920 2.86676
O 12.96006 5.34257 3.22907
C 11.46348 3.63574 4.01885
C 10.79871 4.63404 4.92659
O 9.86782 5.34555 4.50971
O 11.22157 4.43261 6.18794
C 10.58166 5.39171 7.12733
H 7.50220 -2.05955 3.81633
H 7.41598 -1.69110 -2.41812
H 11.77085 2.83072 -2.26648
H 10.31246 1.41623 5.91290
H 8.24513 -0.48966 5.73744
H 11.18968 -0.64057 5.24048
H 10.21649 -1.79481 4.30509
H 10.11439 -1.84915 6.03895
H 7.33019 1.70007 5.47555
H 8.34403 3.18865 5.43766
H 8.98519 1.74436 7.80630
H 7.30296 1.44806 7.54707
H 5.71152 -3.06817 3.35063
H 5.39954 -4.12867 2.01751
H 4.25140 -2.80042 2.30785
H 4.28225 -4.28568 0.09335
H 3.35691 -3.76462 -1.42946
H 3.37771 -2.78616 0.06574
H 8.47104 -0.14878 -4.15241
H 11.31140 0.66721 -3.80130
H 9.56958 -1.96293 -4.94690
H 10.09808 -2.28738 -3.25827
H 11.09321 -1.38182 -4.28068
H 9.77521 1.60781 -5.56968
H 10.71691 2.80106 -4.69541
H 7.88193 2.06774 -4.61020
H 8.58577 3.72510 -4.66122
H 8.51835 2.76376 -3.11668
H 13.20619 5.47725 -0.18325
H 13.08065 4.34528 -1.56856
H 14.10524 3.88765 -0.14974
H 12.21452 3.04295 4.54241
H 11.38898 5.91014 7.65378
H 9.88545 4.78953 7.74085
H 10.03852 6.22599 6.69904
