79

Mg 15.75708 1.42273 1.20174
C 13.62434 -1.35447 0.41581
C 13.66624 3.36485 -0.66672
C 17.84986 3.78890 1.49994
C 18.23355 -0.88916 2.01902
N 13.91571 0.95098 0.07078
C 13.16579 -0.12653 -0.10508
C 11.81097 0.14143 -0.81376
C 12.20752 1.49117 -1.58824
C 13.30903 1.99284 -0.65675
C 12.81691 1.24223 -2.95792
C 10.64200 0.38549 0.20407
C 9.23925 0.34666 -0.40629
H 8.14830 -0.20690 0.39113
N 15.53103 3.37737 0.94320
C 14.61618 3.99506 0.16681
C 14.87998 5.43591 0.30297
C 16.12885 5.61152 1.09304
C 16.57266 4.23568 1.19385
C 13.94470 6.48734 -0.21969
C 16.81735 6.81933 1.65284
O 18.01641 6.76308 2.10217
C 16.08084 8.08929 1.57382
N 17.81643 1.45630 1.48511
C 18.47473 2.61905 1.63531
C 19.89288 2.38699 2.09942
C 19.97669 0.83205 2.46371
C 18.55539 0.39690 2.04424
C 20.98797 2.73284 1.09068
C 20.46963 0.46925 3.89132
C 19.45255 0.91466 4.91725
N 15.87455 -0.72534 1.40191
C 17.01570 -1.49048 1.72810
C 16.62856 -2.91284 1.63084
C 15.28473 -2.87645 1.22925
C 14.86983 -1.52702 1.06677
C 17.48800 -4.02586 1.85142
C 14.12588 -3.67294 0.89556
O 13.85501 -4.87239 0.93689
C 13.03577 -2.72570 0.23163
C 11.71135 -3.01310 0.88418
O 11.53084 -2.75673 2.08763
O 10.81401 -3.33777 -0.06437
C 9.48168 -3.62092 0.53272
H 13.20681 4.01518 -1.41162
H 18.58198 4.56908 1.72083
H 18.92071 -1.66954 2.35294
H 11.51117 -0.62017 -1.52359
H 11.37755 2.19262 -1.60974
H 12.99205 0.19165 -3.13605
H 13.75097 1.78855 -2.96802
H 12.19463 1.69482 -3.73527
H 10.67191 1.43001 0.53994
H 10.69914 -0.30533 1.02268
H 9.23951 -0.08962 -1.41257
H 8.89893 1.37366 -0.55952
H 13.19683 6.05900 -0.89838
H 14.53698 7.15503 -0.85472
H 13.48350 7.07459 0.57723
H 15.84764 8.30744 0.53435
H 16.69692 8.81790 2.10434
H 15.12323 7.97126 2.09311
H 20.10914 2.96812 2.98746
H 20.67643 0.29647 1.80541
H 21.71843 3.46964 1.47491
H 20.51724 3.09923 0.18807
H 21.56239 1.88407 0.72350
H 21.39516 1.00353 4.11956
H 20.66768 -0.58914 4.02392
H 19.69501 1.97166 5.06235
H 19.56928 0.35244 5.84154
H 18.43551 0.86244 4.51158
H 16.92799 -4.73964 2.44083
H 18.40519 -3.72643 2.35430
H 17.66911 -4.33986 0.81998
H 13.02104 -2.94214 -0.83725
H 9.18963 -4.62240 0.20191
H 8.83199 -2.77973 0.22605
H 9.42799 -3.72987 1.60961
