79

Mg 31.53256 2.83880 2.39533
C 31.74360 0.53242 -0.33383
C 30.73936 0.18228 4.38449
C 30.89707 4.90501 4.71558
C 31.22042 5.37995 0.03084
N 31.30340 0.67962 1.96396
C 31.47028 -0.08447 0.88903
C 31.40213 -1.60987 1.19870
C 30.53756 -1.55662 2.53723
C 30.90821 -0.16214 3.01048
C 29.03284 -1.60868 2.29310
C 32.81759 -2.22828 1.45517
C 32.87428 -3.75862 1.44133
H 34.05719 -4.41070 0.90015
N 31.38857 2.56913 4.34709
C 31.07207 1.41620 4.98417
C 31.09482 1.72950 6.42916
C 31.26391 3.20220 6.57284
C 31.16234 3.62622 5.19979
C 31.01249 0.68440 7.49909
C 31.47188 4.08804 7.76034
O 31.36232 5.35977 7.68775
C 31.72341 3.41379 9.04687
N 30.89752 4.82736 2.39141
C 30.75486 5.50843 3.53367
C 30.57043 6.97453 3.27583
C 30.86058 7.18976 1.72044
C 31.09460 5.71290 1.31746
C 29.18834 7.54609 3.62102
C 31.93909 8.23664 1.34458
C 33.30035 7.75525 1.79442
N 31.66290 2.99230 0.23419
C 31.47647 4.14536 -0.54194
C 31.55635 3.73242 -1.95515
C 31.76856 2.35617 -1.90276
C 31.79191 1.93195 -0.54343
C 31.37895 4.58172 -3.08283
C 31.95643 1.14153 -2.67942
O 32.11932 0.89319 -3.87495
C 31.82614 -0.10584 -1.69814
C 32.98424 -1.02520 -1.97544
O 34.15392 -0.67744 -1.71416
O 32.51932 -2.24690 -2.27848
C 33.61829 -3.21546 -2.53603
H 30.25484 -0.53281 5.05220
H 30.78182 5.66940 5.48685
H 31.21671 6.13113 -0.76109
H 30.88511 -2.20399 0.44495
H 30.86373 -2.30202 3.26229
H 28.79913 -1.54355 1.23053
H 28.62159 -0.75150 2.82659
H 28.59485 -2.49090 2.76068
H 33.10972 -2.04114 2.48846
H 33.54527 -1.83411 0.74493
H 31.97004 -4.18707 1.00810
H 32.87292 -4.10979 2.47326
H 30.72712 -0.28455 7.09136
H 30.18319 0.96000 8.15025
H 31.93165 0.62018 8.08162
H 30.88173 2.76207 9.28222
H 31.93684 4.20521 9.76447
H 32.59337 2.76496 8.94132
H 31.27760 7.56566 3.85626
H 29.97214 7.51757 1.18017
H 29.22134 8.37335 4.33042
H 28.57147 6.73125 3.99890
H 28.60468 7.88009 2.76358
H 31.74708 9.17923 1.85604
H 31.98450 8.44283 0.27516
H 33.33151 8.05650 2.84090
H 34.08659 8.24905 1.22242
H 33.36722 6.66749 1.76635
H 32.16046 4.31259 -3.79332
H 31.44425 5.63248 -2.80134
H 30.37514 4.29486 -3.39575
H 30.86815 -0.57708 -1.91567
H 33.44936 -3.63646 -3.52722
H 33.63041 -3.90258 -1.68980
H 34.61539 -2.79141 -2.65976
