158

Mg 0.00000 0.00000 0.00000
C -0.21700 -2.21800 2.80100
C -1.25500 2.44200 2.02600
C -0.24500 1.85000 -2.56400
C 0.14600 -2.82400 -2.03700
N -0.61700 -0.00900 2.12600
C -0.59400 -0.90800 3.10500
C -0.93600 -0.30900 4.50200
C -1.77300 0.96400 4.03200
C -1.15500 1.16800 2.66000
C -3.26300 0.68500 3.86300
C 0.34500 0.11000 5.29900
C 0.12400 0.39700 6.78700
H 1.16800 0.03300 7.73300
N -0.18500 1.96100 -0.15200
C -0.70300 2.80000 0.77700
C -0.62000 4.15600 0.19300
C -0.18700 4.01500 -1.22500
C -0.21400 2.58300 -1.38000
C -0.88700 5.40600 0.97400
C 0.18100 5.01300 -2.27700
O 0.30300 4.69000 -3.50800
C 0.31000 6.41400 -1.83700
N -0.26500 -0.41300 -2.02900
C -0.27900 0.56900 -2.93700
C -0.19600 0.02400 -4.33200
C 0.12400 -1.53300 -4.18000
C 0.08600 -1.63200 -2.63500
C -1.45100 0.20500 -5.19700
C 1.37300 -2.07000 -4.92300
C 2.62600 -1.49000 -4.30600
N 0.15000 -2.14400 0.30300
C 0.17300 -3.13600 -0.68800
C 0.17300 -4.43800 0.00400
C 0.13300 -4.11100 1.35800
C 0.08300 -2.69500 1.50200
C 0.14900 -5.71500 -0.62300
C 0.09600 -4.62900 2.71600
O 0.20800 -5.74700 3.22100
C -0.25500 -3.42800 3.70100
C 0.71700 -3.48200 4.84800
O 1.93100 -3.25500 4.66900
O 0.03800 -3.55600 6.00300
C 0.94300 -3.58300 7.18300
H -1.85900 3.22000 2.49700
H -0.21800 2.45300 -3.47400
H 0.27600 -3.74700 -2.60500
H -1.55400 -0.94900 5.13200
H -1.58500 1.83100 4.66500
H -3.48400 -0.37700 3.96900
H -3.51100 1.02700 2.85800
H -3.85200 1.30100 4.54300
H 0.66900 1.09600 4.96600
H 1.13000 -0.63900 5.18900
H -0.84400 0.02600 7.12500
H 0.06200 1.47700 6.92100
H -1.34400 5.18600 1.93800
H -1.65100 5.96300 0.43200
H 0.00700 6.02000 1.08400
H -0.63500 6.74400 -1.40500
H 0.66500 6.97000 -2.70400
H 1.04800 6.46600 -1.03600
H 0.60800 0.50100 -4.89100
H -0.69200 -2.15600 -4.54700
H -1.26700 0.74000 -6.12900
H -2.20400 0.71400 -4.59600
H -1.96700 -0.72000 -5.45300
H 1.35600 -1.75900 -5.96700
H 1.45200 -3.15700 -4.90200
H 2.71400 -0.52200 -4.79800
H 3.48700 -2.12100 -4.52900
H 2.49500 -1.30300 -3.24000
H 0.86700 -6.33300 -0.08400
H 0.40400 -5.64200 -1.68000
H -0.89100 -5.99900 -0.46300
H -1.28300 -3.58100 4.02800
H 0.69800 -4.47800 7.75500
H 0.83300 -2.61900 7.68000
H 2.00000 -3.75400 6.97600
Mg 7.88223 0.71211 0.58855
C 9.98497 -1.79557 -0.88423
C 9.94302 3.04567 -0.80509
C 6.32148 2.92967 2.23595
C 6.70202 -1.74853 2.75605
N 9.69659 0.52538 -0.66264
C 10.36682 -0.47741 -1.20995
C 11.45990 -0.04343 -2.22306
C 11.72187 1.44220 -1.67246
C 10.36010 1.71026 -1.03496
C 12.77948 1.50243 -0.58289
C 10.93162 -0.02365 -3.70040
C 12.01929 0.08977 -4.77085
H 11.82960 -0.61860 -6.03366
N 7.78557 2.67684 0.32577
C 8.69945 3.46252 -0.28154
C 8.17128 4.83296 -0.19742
C 6.95062 4.81381 0.65366
C 6.98441 3.44638 1.13228
C 8.77206 5.98420 -0.95050
C 5.92981 5.85760 0.99224
O 5.08432 5.68984 1.94084
C 6.00928 7.11982 0.24259
N 6.84270 0.66087 2.38830
C 6.21207 1.75338 2.85376
C 5.30793 1.40887 4.01317
C 5.27806 -0.18892 4.07468
C 6.28481 -0.50445 2.94672
C 5.73066 1.96247 5.37377
C 3.88222 -0.86892 4.03114
C 3.24658 -0.65628 2.67610
N 8.11354 -1.42684 0.78711
C 7.55140 -2.25691 1.78163
C 8.08712 -3.61690 1.56752
C 8.94841 -3.47784 0.46872
C 8.96491 -2.12253 0.04169
C 7.80034 -4.75934 2.36672
C 9.85553 -4.16729 -0.42036
O 10.17513 -5.34249 -0.59503
C 10.66418 -3.08421 -1.25665
C 10.63666 -3.49834 -2.70242
O 9.56550 -3.51805 -3.33396
O 11.89920 -3.59211 -3.15803
C 11.92374 -3.98954 -4.59096
H 10.64976 3.85160 -1.00478
H 5.68051 3.63282 2.77280
H 6.30744 -2.59075 3.32845
H 12.37458 -0.62250 -2.18025
H 11.90546 2.13851 -2.48658
H 13.09703 0.51736 -0.27476
H 12.32018 2.02783 0.24418
H 13.61889 2.12462 -0.90632
H 10.39580 0.91796 -3.87648
H 10.31880 -0.88171 -3.89741
H 13.01892 -0.10848 -4.36540
H 12.06777 1.12814 -5.10765
H 9.75695 5.72717 -1.35955
H 8.97927 6.77203 -0.21821
H 8.10301 6.38122 -1.71694
H 6.98796 7.56889 0.39423
H 5.14392 7.70407 0.56146
H 5.92753 6.89713 -0.82714
H 4.30245 1.77277 3.84089
H 5.72118 -0.56915 5.00683
H 4.95228 2.58655 5.85201
H 6.64411 2.52743 5.24356
H 6.02513 1.21272 6.10614
H 3.21385 -0.40887 4.76312
H 3.91268 -1.93184 4.24621
H 2.79989 0.33841 2.76642
H 2.48871 -1.41346 2.48542
H 4.00706 -0.60581 1.88821
H 7.63185 -5.58209 1.68467
H 6.93741 -4.58991 3.00736
H 8.72845 -4.83455 2.93962
H 11.67922 -3.05402 -0.85870
H 12.54475 -4.88780 -4.66278
H 12.26671 -3.09457 -5.14337
H 10.99638 -4.33786 -5.03042
