158

Mg 0.00000 0.00000 0.00000
C -0.21700 -2.21800 2.80100
C -1.25500 2.44200 2.02600
C -0.24500 1.85000 -2.56400
C 0.14600 -2.82400 -2.03700
N -0.61700 -0.00900 2.12600
C -0.59400 -0.90800 3.10500
C -0.93600 -0.30900 4.50200
C -1.77300 0.96400 4.03200
C -1.15500 1.16800 2.66000
C -3.26300 0.68500 3.86300
C 0.34500 0.11000 5.29900
C 0.12400 0.39700 6.78700
H 1.16800 0.03300 7.73300
N -0.18500 1.96100 -0.15200
C -0.70300 2.80000 0.77700
C -0.62000 4.15600 0.19300
C -0.18700 4.01500 -1.22500
C -0.21400 2.58300 -1.38000
C -0.88700 5.40600 0.97400
C 0.18100 5.01300 -2.27700
O 0.30300 4.69000 -3.50800
C 0.31000 6.41400 -1.83700
N -0.26500 -0.41300 -2.02900
C -0.27900 0.56900 -2.93700
C -0.19600 0.02400 -4.33200
C 0.12400 -1.53300 -4.18000
C 0.08600 -1.63200 -2.63500
C -1.45100 0.20500 -5.19700
C 1.37300 -2.07000 -4.92300
C 2.62600 -1.49000 -4.30600
N 0.15000 -2.14400 0.30300
C 0.17300 -3.13600 -0.68800
C 0.17300 -4.43800 0.00400
C 0.13300 -4.11100 1.35800
C 0.08300 -2.69500 1.50200
C 0.14900 -5.71500 -0.62300
C 0.09600 -4.62900 2.71600
O 0.20800 -5.74700 3.22100
C -0.25500 -3.42800 3.70100
C 0.71700 -3.48200 4.84800
O 1.93100 -3.25500 4.66900
O 0.03800 -3.55600 6.00300
C 0.94300 -3.58300 7.18300
H -1.85900 3.22000 2.49700
H -0.21800 2.45300 -3.47400
H 0.27600 -3.74700 -2.60500
H -1.55400 -0.94900 5.13200
H -1.58500 1.83100 4.66500
H -3.48400 -0.37700 3.96900
H -3.51100 1.02700 2.85800
H -3.85200 1.30100 4.54300
H 0.66900 1.09600 4.96600
H 1.13000 -0.63900 5.18900
H -0.84400 0.02600 7.12500
H 0.06200 1.47700 6.92100
H -1.34400 5.18600 1.93800
H -1.65100 5.96300 0.43200
H 0.00700 6.02000 1.08400
H -0.63500 6.74400 -1.40500
H 0.66500 6.97000 -2.70400
H 1.04800 6.46600 -1.03600
H 0.60800 0.50100 -4.89100
H -0.69200 -2.15600 -4.54700
H -1.26700 0.74000 -6.12900
H -2.20400 0.71400 -4.59600
H -1.96700 -0.72000 -5.45300
H 1.35600 -1.75900 -5.96700
H 1.45200 -3.15700 -4.90200
H 2.71400 -0.52200 -4.79800
H 3.48700 -2.12100 -4.52900
H 2.49500 -1.30300 -3.24000
H 0.86700 -6.33300 -0.08400
H 0.40400 -5.64200 -1.68000
H -0.89100 -5.99900 -0.46300
H -1.28300 -3.58100 4.02800
H 0.69800 -4.47800 7.75500
H 0.83300 -2.61900 7.68000
H 2.00000 -3.75400 6.97600
Mg 31.52767 2.84625 2.40107
C 33.78513 3.15222 5.17403
C 29.12110 1.96129 4.65048
C 29.64101 2.13268 -0.04816
C 34.32176 2.63178 0.32916
N 31.56934 2.62202 4.60112
C 32.46685 2.82470 5.55389
C 31.90140 2.74621 6.99738
C 30.62123 1.82203 6.70425
C 30.39381 2.17787 5.23648
C 30.91941 0.33465 6.79446
C 31.47992 4.15238 7.55150
C 31.21005 4.19575 9.05717
H 31.57418 5.40214 9.79509
N 29.55685 2.62786 2.31912
C 28.73304 2.28740 3.33238
C 27.38150 2.23979 2.75339
C 27.49564 2.41863 1.28040
C 28.93543 2.37831 1.12076
C 26.14134 2.11981 3.59068
C 26.47702 2.58407 0.19355
O 26.79175 2.48515 -1.04499
C 25.08388 2.77241 0.62387
N 31.91709 2.22910 0.45433
C 30.91672 2.03851 -0.42366
C 31.44774 1.86739 -1.82692
C 33.00420 2.22533 -1.74392
C 33.12787 2.46555 -0.22326
C 31.27752 0.47653 -2.43761
C 33.52636 3.32334 -2.71056
C 32.93829 4.66426 -2.33439
N 33.66348 3.06574 2.64237
C 34.65470 2.90899 1.64890
C 35.96556 3.04327 2.31676
C 35.64386 3.24754 3.66705
C 34.23269 3.22087 3.83250
C 37.23632 2.92454 1.68653
C 36.17750 3.46905 4.99176
O 37.29993 3.67036 5.45367
C 35.00177 3.29108 6.04646
C 35.05200 4.45433 6.99874
O 34.82357 5.60933 6.59824
O 35.14582 3.98931 8.25783
C 35.18764 5.10556 9.23970
H 28.35722 1.45510 5.24137
H 29.03322 1.99049 -0.94474
H 35.23820 2.67493 -0.26324
H 32.55306 2.26206 7.71482
H 29.76886 2.12533 7.30661
H 31.97396 0.14236 6.92514
H 30.56941 -0.09250 5.86382
H 30.31522 -0.12381 7.58255
H 30.47963 4.40083 7.17410
H 32.20720 4.89733 7.29314
H 31.58840 3.30290 9.56964
H 30.12976 4.15911 9.21729
H 26.37937 1.83996 4.62432
H 25.57443 1.26691 3.20205
H 25.51360 3.01224 3.54395
H 24.77367 1.92156 1.22579
H 24.51857 2.96169 -0.29071
H 25.03463 3.65277 1.27438
H 30.96481 2.55558 -2.50976
H 33.63539 1.35520 -1.97697
H 30.71979 0.48464 -3.39309
H 30.78171 -0.15595 -1.71326
H 32.20456 -0.06423 -2.62030
H 33.19801 3.11598 -3.73201
H 34.60816 3.40286 -2.72992
H 31.95871 4.64952 -2.82151
H 33.55663 5.47431 -2.71584
H 32.76798 4.73005 -1.25351
H 37.85253 3.72439 2.07515
H 37.14954 2.97888 0.60335
H 37.52962 1.92731 2.02532
H 35.15890 2.33891 6.55465
H 36.09404 4.97097 9.83804
H 34.22041 5.06871 9.77530
H 35.33585 6.10730 8.85369
