79

Mg 13.14499 1.19109 0.99977
C 12.62166 1.73847 4.50770
C 12.01468 4.36830 0.48760
C 13.16676 0.59040 -2.11570
C 13.13257 -2.22831 1.67305
N 12.43920 2.75373 2.39701
C 12.34276 2.86982 3.71290
C 12.00152 4.30053 4.20907
C 11.28781 4.85198 2.88039
C 11.97754 3.96463 1.84619
C 9.79591 4.56635 2.83585
C 13.28425 5.13331 4.55992
C 13.02013 6.42335 5.33954
H 13.99526 6.84253 6.34247
N 13.13445 2.43347 -0.54779
C 12.65756 3.69567 -0.57476
C 12.86458 4.17466 -1.95021
C 13.35178 3.03587 -2.77515
C 13.21371 1.94692 -1.82899
C 12.67928 5.61008 -2.34852
C 13.84645 2.94032 -4.18666
O 13.99367 1.81038 -4.77353
C 14.06434 4.21149 -4.89245
N 12.93789 -0.56117 -0.09980
C 13.03918 -0.55205 -1.44054
C 13.13240 -1.95551 -1.99009
C 13.31680 -2.90440 -0.71604
C 13.20388 -1.84787 0.40484
C 11.93208 -2.43050 -2.80863
C 14.54711 -3.85255 -0.71687
C 15.82115 -3.04495 -0.61695
N 13.10617 -0.04522 2.77124
C 13.08031 -1.45602 2.82641
C 12.94168 -1.83367 4.24788
C 12.87281 -0.60638 4.92428
C 12.94189 0.46078 3.98839
C 12.84677 -3.16211 4.75025
C 12.74669 0.02899 6.21622
O 12.73601 -0.36623 7.38130
C 12.45122 1.57464 5.99253
C 13.36653 2.35764 6.89345
O 14.59748 2.33501 6.71777
O 12.62915 3.17065 7.67169
C 13.49308 3.97621 8.57530
H 11.46424 5.26358 0.19713
H 13.28259 0.32694 -3.16957
H 13.21953 -3.27437 1.97449
H 11.31284 4.33939 5.04452
H 11.52911 5.89754 2.70732
H 9.48224 3.93379 3.65293
H 9.61852 4.07562 1.88782
H 9.23354 5.50378 2.79985
H 13.70168 5.55418 3.63615
H 13.99676 4.53079 5.08901
H 12.00514 6.45400 5.75404
H 13.04988 7.26317 4.64110
H 12.15789 6.17965 -1.56933
H 11.98939 5.61933 -3.19931
H 13.61458 6.08857 -2.64673
H 13.13456 4.77484 -4.91711
H 14.50205 3.93999 -5.85504
H 14.78062 4.81125 -4.31988
H 13.99590 -2.06165 -2.63523
H 12.46440 -3.58813 -0.59045
H 12.20216 -2.75552 -3.83112
H 11.20468 -1.63038 -2.84365
H 11.36088 -3.24264 -2.36212
H 14.60113 -4.40206 -1.65989
H 14.52788 -4.58581 0.08248
H 16.00525 -2.74525 -1.65299
H 16.63412 -3.65788 -0.23297
H 15.66302 -2.13108 -0.03258
H 13.48055 -3.20990 5.62577
H 13.14600 -3.89263 4.00154
H 11.77657 -3.21228 4.96800
H 11.40017 1.74482 6.22896
H 13.14632 3.79208 9.59683
H 13.42947 5.01539 8.20138
H 14.53696 3.69545 8.65246
