79

Mg 31.53711 2.84179 2.38623
C 34.27571 0.52941 2.20731
C 33.84915 5.34958 2.37951
C 29.18265 4.87954 2.99578
C 29.56255 0.20118 3.51496
N 33.74715 2.81654 2.30065
C 34.67633 1.88135 2.17257
C 36.10692 2.42683 1.91681
C 35.92637 3.88672 2.56101
C 34.41950 4.05159 2.37435
C 36.23082 3.92967 4.04924
C 36.44970 2.51198 0.38800
C 37.92947 2.74108 0.07251
H 38.49533 2.10295 -1.11284
N 31.45446 4.81224 2.16470
C 32.49199 5.67526 2.16417
C 31.90340 7.01189 1.98770
C 30.42199 6.88395 2.04930
C 30.29335 5.49294 2.43486
C 32.72873 8.23368 1.70579
C 29.30607 7.85639 1.81421
O 28.09929 7.59184 2.15557
C 29.68249 9.16431 1.25818
N 29.70382 2.63246 3.34414
C 28.84526 3.66395 3.42684
C 27.48921 3.20757 3.90979
C 27.54636 1.60936 3.90336
C 29.01962 1.41051 3.48458
C 27.07856 3.69629 5.29864
C 26.44293 0.86891 3.09911
C 26.61604 1.13389 1.62086
N 31.78004 0.70783 2.62131
C 30.83514 -0.20665 3.13605
C 31.49878 -1.52458 3.20723
C 32.80116 -1.27875 2.74695
C 32.94549 0.09937 2.43159
C 30.91264 -2.72575 3.69688
C 34.08985 -1.86964 2.46620
O 34.53705 -3.01580 2.45948
C 35.13964 -0.70103 2.22395
C 35.91861 -1.02707 0.97920
O 35.35516 -1.05817 -0.12903
O 37.23217 -1.03388 1.27055
C 38.04693 -1.34162 0.06502
H 34.49302 6.19828 2.61196
H 28.30531 5.51798 3.12282
H 28.98514 -0.69186 3.76344
H 36.89621 1.88953 2.42878
H 36.46571 4.63918 1.99157
H 36.40469 2.94353 4.45352
H 35.36428 4.38166 4.51384
H 37.06577 4.60890 4.24374
H 36.02457 3.43656 -0.02331
H 36.10061 1.63988 -0.12988
H 38.56915 2.56533 0.94594
H 38.07537 3.79919 -0.15799
H 33.79533 8.04829 1.88298
H 32.45530 8.98420 2.45534
H 32.54600 8.64504 0.71077
H 30.39345 9.64846 1.92346
H 28.74115 9.68702 1.07779
H 30.20111 9.00369 0.30642
H 26.70810 3.53400 3.23420
H 27.44907 1.19409 4.91722
H 26.12248 4.25306 5.30039
H 27.87679 4.31014 5.69431
H 26.98941 2.91784 6.05446
H 25.45579 1.25178 3.36954
H 26.43031 -0.20257 3.26870
H 26.11986 2.09929 1.48344
H 26.13414 0.35522 1.03309
H 27.67383 1.26773 1.36625
H 31.19437 -3.51235 3.00957
H 29.83138 -2.63615 3.77814
H 31.39378 -2.79238 4.67634
H 35.77984 -0.64784 3.10537
H 38.67311 -2.20388 0.31420
H 38.56639 -0.39961 -0.19292
H 37.52568 -1.70537 -0.81272
