79

Mg 7.89081 0.70303 0.60183
C 8.09405 -1.43280 -2.27497
C 7.11930 -2.07511 2.42427
C 7.26350 2.61037 3.05865
C 7.54628 3.39035 -1.59028
N 7.66631 -1.42313 0.03501
C 7.82796 -2.12615 -1.07584
C 7.77658 -3.66471 -0.87652
C 6.91228 -3.70319 0.47639
C 7.27730 -2.33089 1.03874
C 5.41278 -3.73572 0.23187
C 9.20107 -4.28806 -0.66603
C 9.25781 -5.81350 -0.77365
H 10.44658 -6.42613 -1.36016
N 7.76355 0.29992 2.54087
C 7.46213 -0.88744 3.10708
C 7.47658 -0.65565 4.55975
C 7.64900 0.80280 4.80036
C 7.54218 1.30780 3.44623
C 7.41450 -1.77113 5.56239
C 7.86058 1.61073 6.04482
O 7.74645 2.88736 6.04633
C 8.11330 0.85633 7.28115
N 7.25509 2.67853 0.72678
C 7.11031 3.28411 1.91851
C 6.91396 4.77231 1.75387
C 7.19974 5.07514 0.20978
C 7.43497 3.63335 -0.29154
C 5.53205 5.30659 2.12972
C 8.27186 6.15281 -0.10935
C 9.63873 5.66070 0.30883
N 8.01165 0.99179 -1.53594
C 7.80868 2.19483 -2.24699
C 7.88275 1.86797 -3.68578
C 8.10251 0.48252 -3.71248
C 8.14111 -0.02194 -2.38451
C 7.70509 2.78726 -4.75791
C 8.30001 -0.66961 -4.56236
O 8.44961 -0.84182 -5.77137
C 8.17717 -1.98093 -3.67256
C 9.33748 -2.87842 -4.00531
O 10.50153 -2.53193 -3.73786
O 8.86944 -4.08219 -4.38247
C 9.98320 -5.01097 -4.71219
H 6.64929 -2.84021 3.04281
H 7.14894 3.33017 3.87243
H 7.54672 4.18858 -2.33559
H 7.26334 -4.20754 -1.66118
H 7.25498 -4.49136 1.14175
H 5.17211 -3.60790 -0.81306
H 5.00164 -2.92348 0.81691
H 4.98320 -4.65262 0.64548
H 9.49516 -4.16272 0.38399
H 9.91148 -3.85152 -1.34084
H 8.34878 -6.22895 -1.22533
H 9.27117 -6.23231 0.23552
H 7.12463 -2.71893 5.09222
H 6.58842 -1.54243 6.24441
H 8.33492 -1.86809 6.14213
H 7.27806 0.18693 7.47286
H 8.32788 1.60788 8.04339
H 8.99541 0.22392 7.13098
H 7.62327 5.32509 2.35753
H 6.30126 5.44454 -0.30607
H 5.56528 6.09750 2.90266
H 4.92359 4.47584 2.46164
H 4.94896 5.70312 1.30028
H 8.07922 7.06100 0.46706
H 8.30136 6.43601 -1.15621
H 9.66891 5.89437 1.37728
H 10.41914 6.19085 -0.23333
H 9.71301 4.57174 0.20733
H 8.47590 2.56995 -5.48532
H 7.76268 3.81726 -4.41214
H 6.69561 2.51829 -5.08019
H 7.21909 -2.44683 -3.90623
H 9.80730 -5.37210 -5.73019
H 9.99136 -5.76641 -3.90410
H 10.97678 -4.58863 -4.80633
