158

Mg 0.00000 0.00000 0.00000
C -0.21700 -2.21800 2.80100
C -1.25500 2.44200 2.02600
C -0.24500 1.85000 -2.56400
C 0.14600 -2.82400 -2.03700
N -0.61700 -0.00900 2.12600
C -0.59400 -0.90800 3.10500
C -0.93600 -0.30900 4.50200
C -1.77300 0.96400 4.03200
C -1.15500 1.16800 2.66000
C -3.26300 0.68500 3.86300
C 0.34500 0.11000 5.29900
C 0.12400 0.39700 6.78700
H 1.16800 0.03300 7.73300
N -0.18500 1.96100 -0.15200
C -0.70300 2.80000 0.77700
C -0.62000 4.15600 0.19300
C -0.18700 4.01500 -1.22500
C -0.21400 2.58300 -1.38000
C -0.88700 5.40600 0.97400
C 0.18100 5.01300 -2.27700
O 0.30300 4.69000 -3.50800
C 0.31000 6.41400 -1.83700
N -0.26500 -0.41300 -2.02900
C -0.27900 0.56900 -2.93700
C -0.19600 0.02400 -4.33200
C 0.12400 -1.53300 -4.18000
C 0.08600 -1.63200 -2.63500
C -1.45100 0.20500 -5.19700
C 1.37300 -2.07000 -4.92300
C 2.62600 -1.49000 -4.30600
N 0.15000 -2.14400 0.30300
C 0.17300 -3.13600 -0.68800
C 0.17300 -4.43800 0.00400
C 0.13300 -4.11100 1.35800
C 0.08300 -2.69500 1.50200
C 0.14900 -5.71500 -0.62300
C 0.09600 -4.62900 2.71600
O 0.20800 -5.74700 3.22100
C -0.25500 -3.42800 3.70100
C 0.71700 -3.48200 4.84800
O 1.93100 -3.25500 4.66900
O 0.03800 -3.55600 6.00300
C 0.94300 -3.58300 7.18300
H -1.85900 3.22000 2.49700
H -0.21800 2.45300 -3.47400
H 0.27600 -3.74700 -2.60500
H -1.55400 -0.94900 5.13200
H -1.58500 1.83100 4.66500
H -3.48400 -0.37700 3.96900
H -3.51100 1.02700 2.85800
H -3.85200 1.30100 4.54300
H 0.66900 1.09600 4.96600
H 1.13000 -0.63900 5.18900
H -0.84400 0.02600 7.12500
H 0.06200 1.47700 6.92100
H -1.34400 5.18600 1.93800
H -1.65100 5.96300 0.43200
H 0.00700 6.02000 1.08400
H -0.63500 6.74400 -1.40500
H 0.66500 6.97000 -2.70400
H 1.04800 6.46600 -1.03600
H 0.60800 0.50100 -4.89100
H -0.69200 -2.15600 -4.54700
H -1.26700 0.74000 -6.12900
H -2.20400 0.71400 -4.59600
H -1.96700 -0.72000 -5.45300
H 1.35600 -1.75900 -5.96700
H 1.45200 -3.15700 -4.90200
H 2.71400 -0.52200 -4.79800
H 3.48700 -2.12100 -4.52900
H 2.49500 -1.30300 -3.24000
H 0.86700 -6.33300 -0.08400
H 0.40400 -5.64200 -1.68000
H -0.89100 -5.99900 -0.46300
H -1.28300 -3.58100 4.02800
H 0.69800 -4.47800 7.75500
H 0.83300 -2.61900 7.68000
H 2.00000 -3.75400 6.97600
Mg 15.75695 1.42177 1.19322
C 15.32759 -1.37410 -1.01535
C 15.64106 3.42656 -1.56395
C 16.58164 3.85743 3.05196
C 16.96420 -0.82058 3.57232
N 15.51148 0.96724 -0.95745
C 15.29515 -0.12649 -1.67250
C 14.94940 0.13720 -3.16263
C 15.63840 1.57945 -3.31777
C 15.56485 2.04308 -1.86439
C 17.10135 1.50712 -3.72260
C 13.40220 0.20978 -3.41345
C 12.98606 0.15600 -4.88508
H 11.74857 -0.53654 -5.23361
N 15.58739 3.37702 0.89860
C 15.53182 4.01950 -0.28691
C 15.42913 5.45111 0.03576
C 15.59456 5.61367 1.50577
C 15.95626 4.26159 1.88145
C 15.11656 6.49708 -0.99461
C 15.46309 6.79386 2.42013
O 15.88450 6.75846 3.63009
C 14.91160 8.02225 1.82989
N 16.83964 1.54052 2.96410
C 17.00784 2.71645 3.59404
C 17.57679 2.51711 4.97858
C 17.52946 0.94001 5.23954
C 17.00094 0.47195 3.86587
C 19.00254 3.02534 5.19143
C 16.79013 0.46017 6.51854
C 15.30974 0.74034 6.39469
N 15.92468 -0.72561 1.36258
C 16.48511 -1.45558 2.43362
C 16.47783 -2.87969 2.04084
C 15.93051 -2.87698 0.74897
C 15.63736 -1.54318 0.35585
C 16.98074 -3.95996 2.81944
C 15.54393 -3.69813 -0.37574
O 15.47855 -4.90866 -0.58571
C 15.25349 -2.74970 -1.61772
C 13.94856 -3.17598 -2.23252
O 12.88349 -3.05529 -1.60192
O 14.14408 -3.45070 -3.53509
C 12.87612 -3.86750 -4.19111
H 15.84590 4.12354 -2.37705
H 16.78636 4.65025 3.77515
H 17.23309 -1.59174 4.29736
H 15.39054 -0.56278 -3.86206
H 15.04898 2.23212 -3.95649
H 17.46922 0.49183 -3.72417
H 17.63759 2.10270 -2.99542
H 17.25066 2.00200 -4.68651
H 13.04405 1.21422 -3.15351
H 12.89093 -0.55738 -2.86509
H 13.80674 -0.17368 -5.53372
H 12.77005 1.17278 -5.22199
H 15.21197 6.09994 -2.01274
H 15.90098 7.25851 -0.92546
H 14.14707 6.97261 -0.83145
H 15.53478 8.33293 0.99467
H 14.81172 8.72552 2.65893
H 13.92144 7.79830 1.41754
H 16.96705 3.01487 5.72260
H 18.53787 0.51481 5.34976
H 19.08613 3.75817 6.01608
H 19.35358 3.45594 4.26304
H 19.74471 2.25216 5.38268
H 17.13987 1.01878 7.39020
H 16.93548 -0.59358 6.73179
H 15.23076 1.78863 6.69790
H 14.74052 0.09333 7.05908
H 14.98257 0.67365 5.35058
H 16.25696 -4.76067 2.74519
H 17.14189 -3.66333 3.85375
H 17.92111 -4.15556 2.29723
H 16.08737 -2.85545 -2.31273
H 13.05952 -4.84430 -4.64928
H 12.60310 -3.03666 -4.86855
H 12.03016 -4.08954 -3.55119
