79

Mg 7.88699 0.71715 0.60532
C 8.73035 -1.25826 3.48030
C 5.77625 2.48107 2.62223
C 6.78924 2.17810 -1.98852
C 9.14943 -1.86455 -1.36618
N 7.40309 0.53985 2.75628
C 7.83152 -0.20835 3.76176
C 7.32692 0.24181 5.15901
C 6.00044 1.01986 4.69644
C 6.42463 1.40598 3.28093
C 4.77842 0.12163 4.60058
C 8.33642 1.20446 5.87748
C 8.05670 1.43657 7.36397
H 9.19143 1.59891 8.26868
N 6.87534 2.41425 0.41837
C 6.08594 2.99729 1.34476
C 5.55518 4.21485 0.71229
C 5.96452 4.21681 -0.71850
C 6.55417 2.89738 -0.82579
C 4.81298 5.27187 1.47731
C 5.83392 5.23252 -1.81279
O 6.04617 4.93088 -3.04031
C 5.35975 6.56639 -1.41600
N 7.76212 0.14420 -1.38930
C 7.29117 0.98923 -2.32313
C 7.55184 0.46443 -3.71490
C 8.51474 -0.79818 -3.52461
C 8.57474 -0.84045 -1.98189
C 6.31555 0.04599 -4.51045
C 9.85107 -0.78979 -4.31634
C 10.75640 0.30013 -3.78925
N 8.94711 -1.13239 0.95666
C 9.35783 -2.07691 -0.00939
C 9.93719 -3.22291 0.72098
C 9.80131 -2.87291 2.07284
C 9.16276 -1.60774 2.17814
C 10.44975 -4.41240 0.13064
C 10.04324 -3.29082 3.43502
O 10.63180 -4.23350 3.96293
C 9.24637 -2.32109 4.41022
C 10.18145 -1.89663 5.50929
O 11.17678 -1.19516 5.25656
O 9.63171 -2.20325 6.69847
C 10.51705 -1.79155 7.82030
H 4.92089 2.94868 3.11068
H 6.52897 2.68786 -2.91904
H 9.65347 -2.66535 -1.91146
H 7.06795 -0.56766 5.83093
H 5.83284 1.90815 5.29993
H 5.03045 -0.91835 4.74569
H 4.37522 0.27836 3.60866
H 4.00598 0.46045 5.29690
H 8.19121 2.22393 5.49755
H 9.34533 0.86371 5.74854
H 7.34425 0.70717 7.76813
H 7.54874 2.39758 7.47556
H 4.52067 4.91701 2.47333
H 3.86274 5.43503 0.95742
H 5.35687 6.21770 1.52465
H 4.38392 6.47729 -0.94454
H 5.41723 7.17750 -2.31884
H 6.04039 6.96821 -0.65713
H 8.06000 1.20604 -4.31897
H 8.03047 -1.73202 -3.84597
H 6.21920 0.57481 -5.47748
H 5.44111 0.21460 -3.89607
H 6.24412 -1.01857 -4.72680
H 9.66658 -0.55833 -5.36826
H 10.37894 -1.73701 -4.28279
H 10.39866 1.19231 -4.31187
H 11.79483 0.08810 -4.03572
H 10.59652 0.46009 -2.71663
H 11.37306 -4.64260 0.64543
H 10.60989 -4.28861 -0.93838
H 9.63165 -5.10504 0.34565
H 8.38845 -2.87474 4.79367
H 10.69490 -2.68248 8.43046
H 10.00510 -0.94087 8.30817
H 11.53088 -1.49646 7.57633
