79

Mg 31.53256 2.83880 2.39533
C 31.48925 3.93090 -1.01314
C 31.02485 -0.32827 1.23129
C 31.11393 1.91791 5.40088
C 30.90283 6.14288 3.30757
N 31.30460 2.03060 0.34704
C 31.36756 2.54627 -0.87660
C 31.36810 1.46871 -2.00188
C 30.65705 0.27996 -1.21240
C 31.04717 0.66189 0.20459
C 29.13602 0.29792 -1.32485
C 32.81665 1.07487 -2.44721
C 32.90530 0.27990 -3.75317
H 34.03469 0.51411 -4.64028
N 31.61289 1.03948 3.20701
C 31.39491 -0.14190 2.58081
C 31.57154 -1.18793 3.61100
C 31.72296 -0.50877 4.92778
C 31.45972 0.85994 4.56348
C 31.63206 -2.65111 3.29603
C 32.04228 -1.01466 6.29900
O 31.89720 -0.28996 7.34223
C 32.45041 -2.42760 6.39941
N 30.85719 3.83066 4.10347
C 30.82764 3.21688 5.29148
C 30.58323 4.19258 6.40423
C 30.69348 5.64527 5.75055
C 30.91377 5.22466 4.27650
C 29.23589 4.05927 7.12735
C 31.69999 6.63157 6.39443
C 33.11320 6.14218 6.16983
N 31.41792 4.75101 1.37485
C 31.12072 5.99600 1.94785
C 31.05180 6.97330 0.84594
C 31.29892 6.22097 -0.30070
C 31.48293 4.85539 0.05934
C 30.73114 8.35350 0.97498
C 31.42594 6.24886 -1.74878
O 31.46009 7.13935 -2.59928
C 31.43339 4.74771 -2.28012
C 32.57345 4.61551 -3.25280
O 33.75698 4.70460 -2.86719
O 32.10482 4.17223 -4.42941
C 33.18941 3.99103 -5.43090
H 30.63367 -1.32072 0.99903
H 31.06844 1.66317 6.46176
H 30.79430 7.20715 3.52436
H 30.78361 1.73205 -2.88361
H 31.07837 -0.69081 -1.47282
H 28.78402 1.20102 -1.82327
H 28.76790 0.26096 -0.29937
H 28.77248 -0.61010 -1.80662
H 33.21785 0.33654 -1.75298
H 33.45178 1.95848 -2.51920
H 31.96812 0.32069 -4.30900
H 33.02666 -0.77426 -3.50375
H 31.32455 -2.85312 2.27076
H 30.87456 -3.14017 3.90818
H 32.61159 -3.07744 3.51306
H 31.65481 -3.06081 6.00620
H 32.72489 -2.58799 7.44142
H 33.31733 -2.59110 5.75859
H 31.33741 4.09353 7.18387
H 29.74336 6.17930 5.77796
H 29.32940 3.90565 8.20269
H 28.68314 3.24345 6.66237
H 28.55311 4.89556 6.97957
H 31.54533 6.68174 7.47170
H 31.62141 7.64495 6.00055
H 33.25406 5.42567 6.97830
H 33.81971 6.96868 6.25313
H 33.20058 5.59527 5.23082
H 31.43440 8.89081 0.33882
H 30.80413 8.68174 2.01158
H 29.70531 8.35775 0.60687
H 30.46780 4.57873 -2.75573
H 32.92048 4.58285 -6.30592
H 33.31092 2.91602 -5.56501
H 34.15690 4.42600 -5.17770
