79

Mg 7.88022 0.70261 0.60615
C 6.01453 2.78371 2.85722
C 9.95700 -0.00418 3.21806
C 9.79736 -0.77309 -1.44673
C 6.38148 2.43709 -2.01893
N 7.88144 1.36459 2.71662
C 7.08761 2.10696 3.47362
C 7.41731 2.06104 4.98978
C 8.96486 1.64464 4.88683
C 8.93507 0.92417 3.54046
C 9.90201 2.83528 4.77078
C 6.57953 0.97446 5.75101
C 6.62211 1.08198 7.27691
H 5.41952 0.74223 8.03244
N 9.31977 -0.62670 0.92114
C 10.04349 -0.79070 2.04835
C 10.98674 -1.88358 1.76540
C 10.87266 -2.24058 0.32517
C 9.98777 -1.19033 -0.13745
C 11.82148 -2.53409 2.83005
C 11.47226 -3.33725 -0.50187
O 11.42584 -3.31699 -1.78260
C 12.19662 -4.38779 0.22830
N 8.22720 0.95220 -1.42846
C 9.07311 0.14295 -2.08989
C 8.95337 0.33208 -3.58330
C 7.67380 1.26735 -3.79669
C 7.31211 1.54202 -2.32050
C 10.16372 0.96075 -4.27339
C 6.56309 0.73521 -4.74317
C 5.89381 -0.47174 -4.12614
N 6.32337 2.18801 0.41154
C 5.87003 2.79759 -0.77883
C 4.88104 3.82480 -0.39262
C 4.84430 3.75683 1.00828
C 5.76152 2.77176 1.46417
C 4.19528 4.69642 -1.28490
C 4.24594 4.30179 2.20564
O 3.34039 5.10176 2.43753
C 5.06935 3.78401 3.46274
C 4.08762 3.28831 4.48890
O 3.37937 2.29274 4.25685
O 4.30019 3.93397 5.65006
C 3.35781 3.46870 6.70232
H 10.79609 -0.11176 3.90599
H 10.35505 -1.32841 -2.20440
H 5.79764 2.95274 -2.78438
H 7.32091 3.00945 5.50455
H 9.24251 0.95682 5.68129
H 9.36196 3.76352 4.65742
H 10.51353 2.64440 3.89862
H 10.58915 2.85847 5.62144
H 7.05789 -0.00446 5.61821
H 5.56020 0.97616 5.41694
H 7.02664 2.04510 7.61113
H 7.33448 0.34568 7.65692
H 11.81468 -1.95067 3.75901
H 12.86210 -2.49219 2.49060
H 11.54739 -3.57723 3.00148
H 13.00616 -3.93857 0.79867
H 12.47527 -5.12781 -0.52443
H 11.51433 -4.84275 0.95502
H 8.78332 -0.61494 -4.08063
H 7.94686 2.23673 -4.23894
H 10.57837 0.33310 -5.08468
H 10.91806 1.16086 -3.52409
H 9.99192 1.94846 -4.69779
H 6.99889 0.39958 -5.68740
H 5.80788 1.47641 -4.98249
H 6.56677 -1.29145 -4.39499
H 4.90287 -0.61916 -4.55082
H 5.88287 -0.39947 -3.03238
H 3.16343 4.72473 -0.96088
H 4.28007 4.35756 -2.31531
H 4.74544 5.62516 -1.11162
H 5.66170 4.62127 3.83381
H 2.83862 4.35469 7.08066
H 3.97320 2.89904 7.42380
H 2.52330 2.85161 6.39047
