158

Mg 0.00000 0.00000 0.00000
C -0.21700 -2.21800 2.80100
C -1.25500 2.44200 2.02600
C -0.24500 1.85000 -2.56400
C 0.14600 -2.82400 -2.03700
N -0.61700 -0.00900 2.12600
C -0.59400 -0.90800 3.10500
C -0.93600 -0.30900 4.50200
C -1.77300 0.96400 4.03200
C -1.15500 1.16800 2.66000
C -3.26300 0.68500 3.86300
C 0.34500 0.11000 5.29900
C 0.12400 0.39700 6.78700
H 1.16800 0.03300 7.73300
N -0.18500 1.96100 -0.15200
C -0.70300 2.80000 0.77700
C -0.62000 4.15600 0.19300
C -0.18700 4.01500 -1.22500
C -0.21400 2.58300 -1.38000
C -0.88700 5.40600 0.97400
C 0.18100 5.01300 -2.27700
O 0.30300 4.69000 -3.50800
C 0.31000 6.41400 -1.83700
N -0.26500 -0.41300 -2.02900
C -0.27900 0.56900 -2.93700
C -0.19600 0.02400 -4.33200
C 0.12400 -1.53300 -4.18000
C 0.08600 -1.63200 -2.63500
C -1.45100 0.20500 -5.19700
C 1.37300 -2.07000 -4.92300
C 2.62600 -1.49000 -4.30600
N 0.15000 -2.14400 0.30300
C 0.17300 -3.13600 -0.68800
C 0.17300 -4.43800 0.00400
C 0.13300 -4.11100 1.35800
C 0.08300 -2.69500 1.50200
C 0.14900 -5.71500 -0.62300
C 0.09600 -4.62900 2.71600
O 0.20800 -5.74700 3.22100
C -0.25500 -3.42800 3.70100
C 0.71700 -3.48200 4.84800
O 1.93100 -3.25500 4.66900
O 0.03800 -3.55600 6.00300
C 0.94300 -3.58300 7.18300
H -1.85900 3.22000 2.49700
H -0.21800 2.45300 -3.47400
H 0.27600 -3.74700 -2.60500
H -1.55400 -0.94900 5.13200
H -1.58500 1.83100 4.66500
H -3.48400 -0.37700 3.96900
H -3.51100 1.02700 2.85800
H -3.85200 1.30100 4.54300
H 0.66900 1.09600 4.96600
H 1.13000 -0.63900 5.18900
H -0.84400 0.02600 7.12500
H 0.06200 1.47700 6.92100
H -1.34400 5.18600 1.93800
H -1.65100 5.96300 0.43200
H 0.00700 6.02000 1.08400
H -0.63500 6.74400 -1.40500
H 0.66500 6.97000 -2.70400
H 1.04800 6.46600 -1.03600
H 0.60800 0.50100 -4.89100
H -0.69200 -2.15600 -4.54700
H -1.26700 0.74000 -6.12900
H -2.20400 0.71400 -4.59600
H -1.96700 -0.72000 -5.45300
H 1.35600 -1.75900 -5.96700
H 1.45200 -3.15700 -4.90200
H 2.71400 -0.52200 -4.79800
H 3.48700 -2.12100 -4.52900
H 2.49500 -1.30300 -3.24000
H 0.86700 -6.33300 -0.08400
H 0.40400 -5.64200 -1.68000
H -0.89100 -5.99900 -0.46300
H -1.28300 -3.58100 4.02800
H 0.69800 -4.47800 7.75500
H 0.83300 -2.61900 7.68000
H 2.00000 -3.75400 6.97600
Mg 7.88957 0.71795 0.60055
C 7.36624 1.26534 4.10848
C 6.75926 3.89517 0.08838
C 7.91133 0.11727 -2.51492
C 7.87715 -2.70144 1.27383
N 7.18378 2.28059 1.99779
C 7.08734 2.39669 3.31368
C 6.74609 3.82740 3.80985
C 6.03238 4.37885 2.48117
C 6.72211 3.49150 1.44697
C 4.54048 4.09322 2.43663
C 8.02882 4.66018 4.16070
C 7.76470 5.95021 4.94032
H 8.73984 6.36940 5.94325
N 7.87902 1.96034 -0.94701
C 7.40213 3.22253 -0.97398
C 7.60916 3.70152 -2.34943
C 8.09635 2.56274 -3.17437
C 7.95829 1.47379 -2.22821
C 7.42385 5.13694 -2.74775
C 8.59103 2.46718 -4.58589
O 8.73824 1.33725 -5.17275
C 8.80891 3.73836 -5.29167
N 7.68246 -1.03430 -0.49902
C 7.78376 -1.02519 -1.83976
C 7.87697 -2.42865 -2.38931
C 8.06137 -3.37754 -1.11527
C 7.94846 -2.32101 0.00562
C 6.67666 -2.90363 -3.20785
C 9.29169 -4.32569 -1.11609
C 10.56573 -3.51808 -1.01617
N 7.85074 -0.51835 2.37202
C 7.82489 -1.92916 2.42719
C 7.68626 -2.30680 3.84866
C 7.61738 -1.07952 4.52506
C 7.68647 -0.01236 3.58917
C 7.59134 -3.63524 4.35103
C 7.49126 -0.44415 5.81699
O 7.48059 -0.83937 6.98208
C 7.19580 1.10151 5.59331
C 8.11110 1.88451 6.49423
O 9.34205 1.86187 6.31855
O 7.37372 2.69751 7.27247
C 8.23766 3.50308 8.17608
H 6.20882 4.79045 -0.20209
H 8.02717 -0.14620 -3.56879
H 7.96410 -3.74750 1.57527
H 6.05741 3.86626 4.64530
H 6.27369 5.42440 2.30810
H 4.22682 3.46066 3.25371
H 4.36310 3.60249 1.48860
H 3.97811 5.03065 2.40063
H 8.44625 5.08104 3.23692
H 8.74133 4.05766 4.68979
H 6.74971 5.98087 5.35481
H 7.79446 6.79004 4.24188
H 6.90247 5.70652 -1.96855
H 6.73397 5.14620 -3.59853
H 8.35915 5.61543 -3.04595
H 7.87913 4.30171 -5.31633
H 9.24662 3.46686 -6.25426
H 9.52519 4.33812 -4.71910
H 8.74047 -2.53478 -3.03445
H 7.20897 -4.06126 -0.98967
H 6.94674 -3.22866 -4.23034
H 5.94925 -2.10351 -3.24287
H 6.10546 -3.71577 -2.76134
H 9.34570 -4.87519 -2.05911
H 9.27245 -5.05894 -0.31674
H 10.74982 -3.21838 -2.05221
H 11.37869 -4.13101 -0.63219
H 10.40759 -2.60421 -0.43180
H 8.22513 -3.68303 5.22655
H 7.89057 -4.36576 3.60231
H 6.52114 -3.68542 4.56878
H 6.14474 1.27169 5.82974
H 7.89089 3.31894 9.19761
H 8.17405 4.54226 7.80216
H 9.28153 3.22231 8.25324
