158

Mg 0.00000 0.00000 0.00000
C -0.21700 -2.21800 2.80100
C -1.25500 2.44200 2.02600
C -0.24500 1.85000 -2.56400
C 0.14600 -2.82400 -2.03700
N -0.61700 -0.00900 2.12600
C -0.59400 -0.90800 3.10500
C -0.93600 -0.30900 4.50200
C -1.77300 0.96400 4.03200
C -1.15500 1.16800 2.66000
C -3.26300 0.68500 3.86300
C 0.34500 0.11000 5.29900
C 0.12400 0.39700 6.78700
H 1.16800 0.03300 7.73300
N -0.18500 1.96100 -0.15200
C -0.70300 2.80000 0.77700
C -0.62000 4.15600 0.19300
C -0.18700 4.01500 -1.22500
C -0.21400 2.58300 -1.38000
C -0.88700 5.40600 0.97400
C 0.18100 5.01300 -2.27700
O 0.30300 4.69000 -3.50800
C 0.31000 6.41400 -1.83700
N -0.26500 -0.41300 -2.02900
C -0.27900 0.56900 -2.93700
C -0.19600 0.02400 -4.33200
C 0.12400 -1.53300 -4.18000
C 0.08600 -1.63200 -2.63500
C -1.45100 0.20500 -5.19700
C 1.37300 -2.07000 -4.92300
C 2.62600 -1.49000 -4.30600
N 0.15000 -2.14400 0.30300
C 0.17300 -3.13600 -0.68800
C 0.17300 -4.43800 0.00400
C 0.13300 -4.11100 1.35800
C 0.08300 -2.69500 1.50200
C 0.14900 -5.71500 -0.62300
C 0.09600 -4.62900 2.71600
O 0.20800 -5.74700 3.22100
C -0.25500 -3.42800 3.70100
C 0.71700 -3.48200 4.84800
O 1.93100 -3.25500 4.66900
O 0.03800 -3.55600 6.00300
C 0.94300 -3.58300 7.18300
H -1.85900 3.22000 2.49700
H -0.21800 2.45300 -3.47400
H 0.27600 -3.74700 -2.60500
H -1.55400 -0.94900 5.13200
H -1.58500 1.83100 4.66500
H -3.48400 -0.37700 3.96900
H -3.51100 1.02700 2.85800
H -3.85200 1.30100 4.54300
H 0.66900 1.09600 4.96600
H 1.13000 -0.63900 5.18900
H -0.84400 0.02600 7.12500
H 0.06200 1.47700 6.92100
H -1.34400 5.18600 1.93800
H -1.65100 5.96300 0.43200
H 0.00700 6.02000 1.08400
H -0.63500 6.74400 -1.40500
H 0.66500 6.97000 -2.70400
H 1.04800 6.46600 -1.03600
H 0.60800 0.50100 -4.89100
H -0.69200 -2.15600 -4.54700
H -1.26700 0.74000 -6.12900
H -2.20400 0.71400 -4.59600
H -1.96700 -0.72000 -5.45300
H 1.35600 -1.75900 -5.96700
H 1.45200 -3.15700 -4.90200
H 2.71400 -0.52200 -4.79800
H 3.48700 -2.12100 -4.52900
H 2.49500 -1.30300 -3.24000
H 0.86700 -6.33300 -0.08400
H 0.40400 -5.64200 -1.68000
H -0.89100 -5.99900 -0.46300
H -1.28300 -3.58100 4.02800
H 0.69800 -4.47800 7.75500
H 0.83300 -2.61900 7.68000
H 2.00000 -3.75400 6.97600
Mg 7.88314 0.70970 0.59883
C 7.86407 1.58508 -2.87184
C 7.36616 -2.52204 -0.36638
C 7.44336 -0.01807 3.65392
C 7.26479 4.06755 1.29750
N 7.66248 -0.22488 -1.39579
C 7.73476 0.21238 -2.64909
C 7.73616 -0.93393 -3.70424
C 7.01487 -2.06729 -2.84562
C 7.39905 -1.59865 -1.45325
C 5.49459 -2.04944 -2.96784
C 9.18517 -1.36171 -4.11546
C 9.27708 -2.23778 -5.36822
H 10.41250 -2.06513 -6.26172
N 7.95005 -1.03526 1.52267
C 7.72968 -2.25273 0.97085
C 7.89543 -3.23258 2.06588
C 8.04294 -2.47251 3.33814
C 7.78851 -1.12828 2.88684
C 7.95042 -4.71296 1.84404
C 8.35217 -2.89247 4.74033
O 8.20493 -2.10282 5.73499
C 8.75272 -4.29814 4.93189
N 7.20329 1.81030 2.23716
C 7.16413 1.27273 3.46128
C 6.91843 2.31772 4.50893
C 7.03950 3.72582 3.76572
C 7.26583 3.21217 2.32239
C 5.56648 2.23643 5.23115
C 8.04732 4.74607 4.35206
C 9.45930 4.23700 4.16695
N 7.78363 2.55432 -0.54069
C 7.48946 3.83430 -0.04897
C 7.43147 4.74054 -1.21063
C 7.68118 3.91633 -2.30615
C 7.85642 2.57531 -1.85976
C 7.11696 6.12759 -1.17063
C 7.81632 3.85235 -3.75235
O 7.85959 4.68733 -4.65703
C 7.81926 2.32069 -4.18805
C 8.96400 2.12223 -5.14382
O 10.14581 2.22998 -4.75770
O 8.49967 1.60785 -6.29289
C 9.58887 1.35893 -7.27464
H 6.97134 -3.52535 -0.53795
H 7.39075 -0.20526 4.72846
H 7.16035 5.14386 1.44621
H 7.15786 -0.72397 -4.60420
H 7.43280 -3.05447 -3.04194
H 5.14984 -1.17793 -3.52419
H 5.12063 -2.02003 -1.94423
H 5.12921 -2.98433 -3.39358
H 9.57887 -2.05667 -3.37378
H 9.82507 -0.48733 -4.23924
H 8.34320 -2.22778 -5.93096
H 9.39183 -3.27468 -5.05220
H 7.64757 -4.97774 0.83175
H 7.18713 -5.15899 2.48135
H 8.92660 -5.12927 2.09318
H 7.95617 -4.95120 4.57472
H 9.02065 -4.39383 5.98351
H 9.62235 -4.50568 4.30769
H 7.66779 2.26451 5.29763
H 6.09190 4.26488 3.75391
H 5.65329 2.15044 6.31456
H 5.01225 1.39550 4.81527
H 4.88868 3.06489 5.02703
H 7.88697 4.86472 5.42311
H 7.97595 5.73297 3.89469
H 9.59214 3.57221 5.01974
H 10.16944 5.06385 4.20215
H 9.54914 3.63162 3.26477
H 7.82638 6.62051 -1.83525
H 7.18585 6.52015 -0.15635
H 6.09321 6.11337 -1.54424
H 6.85548 2.12653 -4.65768
H 9.32771 1.89568 -8.18675
H 9.70578 0.27705 -7.34008
H 10.55709 1.80452 -7.04371
