79

Mg 7.88441 0.71447 0.60821
C 6.35816 -1.68327 2.79921
C 5.56907 2.96683 1.70397
C 8.91423 2.71264 -1.63103
C 9.29711 -1.96573 -1.11415
N 6.22938 0.54484 2.06572
C 5.78350 -0.39786 2.88235
C 4.71319 0.08444 3.89792
C 4.16080 1.35207 3.08131
C 5.40426 1.67033 2.25355
C 3.02821 1.00719 2.12860
C 5.34177 0.51443 5.26978
C 4.33574 0.70175 6.40757
H 4.73925 0.33182 7.76138
N 7.66495 2.67980 0.44129
C 6.67979 3.43631 0.96898
C 6.95893 4.81590 0.54122
C 8.09634 4.78851 -0.41809
C 8.25936 3.35920 -0.59293
C 6.23028 6.00394 1.09894
C 8.89561 5.86997 -1.07975
O 9.68229 5.62154 -2.06070
C 8.65994 7.24197 -0.60693
N 8.77680 0.41592 -1.24566
C 9.17475 1.45748 -1.99712
C 10.03302 1.00023 -3.15241
C 10.32969 -0.54763 -2.88095
C 9.48059 -0.74833 -1.60654
C 9.41945 1.16435 -4.54273
C 11.82011 -0.98410 -2.85245
C 12.51198 -0.37986 -1.65179
N 8.00616 -1.42431 0.88907
C 8.62370 -2.36312 0.03388
C 8.34531 -3.70456 0.58658
C 7.55949 -3.45236 1.72120
C 7.34517 -2.05382 1.85409
C 8.76046 -4.94139 0.01734
C 6.85366 -4.05192 2.83072
O 6.75312 -5.19200 3.28221
C 5.93875 -2.94185 3.50680
C 6.14684 -3.01158 4.99487
O 7.25081 -2.72860 5.49263
O 4.95728 -3.18807 5.59834
C 5.11038 -3.25237 7.07626
H 4.75280 3.68216 1.80828
H 9.38318 3.36479 -2.37147
H 9.78438 -2.84641 -1.53799
H 3.90991 -0.61940 4.07992
H 3.92412 2.17810 3.74690
H 2.86039 -0.05802 2.07106
H 3.32675 1.39583 1.16378
H 2.12234 1.55359 2.40643
H 5.72133 1.54073 5.18372
H 6.10497 -0.17597 5.57226
H 3.35643 0.27041 6.16706
H 4.13708 1.77006 6.52275
H 5.33773 5.70125 1.66031
H 5.83658 6.56700 0.24581
H 6.87857 6.65842 1.68549
H 7.61042 7.49410 -0.73876
H 9.38625 7.86215 -1.13583
H 8.85996 7.28019 0.46971
H 10.97205 1.53955 -3.17375
H 9.88783 -1.18945 -3.65727
H 10.04134 1.77407 -5.22506
H 8.43581 1.60116 -4.43233
H 9.20181 0.23384 -5.06424
H 12.34245 -0.60580 -3.73461
H 11.95472 -2.06048 -2.83541
H 12.77457 0.62435 -1.99777
H 13.40002 -0.95287 -1.39281
H 11.81651 -0.26778 -0.81190
H 9.11821 -5.55516 0.83331
H 9.53040 -4.79333 -0.73701
H 7.81766 -5.28121 -0.41959
H 4.90599 -3.15386 3.22747
H 4.65871 -4.19393 7.40359
H 4.66331 -2.31768 7.46387
H 6.11435 -3.35046 7.47234
