79

Mg 7.89110 0.70271 0.59845
C 8.01344 0.00695 -2.92008
C 7.27003 -2.61628 1.08137
C 7.33149 1.35356 3.65306
C 7.38288 4.05136 -0.22252
N 7.69161 -0.98635 -0.81560
C 7.81901 -1.14160 -2.12480
C 7.81343 -2.61906 -2.60085
C 7.01302 -3.26590 -1.36805
C 7.37059 -2.25044 -0.28470
C 5.50512 -3.25263 -1.55616
C 9.26048 -3.21363 -2.72154
C 9.34855 -4.54397 -3.47267
H 10.52351 -4.79885 -4.30149
N 7.86222 -0.49320 2.18197
C 7.61534 -1.81991 2.19533
C 7.69064 -2.22896 3.60642
C 7.83911 -1.00642 4.44192
C 7.65852 0.02268 3.43771
C 7.70102 -3.66688 4.03735
C 8.08805 -0.79798 5.90506
O 7.94374 0.35039 6.45574
C 8.41489 -1.99627 6.69168
N 7.21490 2.40863 1.57567
C 7.11036 2.44205 2.91577
C 6.87132 3.84905 3.40934
C 7.07895 4.79251 2.13484
C 7.32528 3.71288 1.05822
C 5.49571 4.11497 4.02037
C 8.10940 5.94643 2.27382
C 9.50529 5.37959 2.39867
N 7.90720 1.87972 -1.21330
C 7.64337 3.26161 -1.33510
C 7.65937 3.58247 -2.77705
C 7.91060 2.35084 -3.40031
C 8.02184 1.33057 -2.41736
C 7.41106 4.86287 -3.34717
C 8.09642 1.67996 -4.66684
O 8.19466 2.04575 -5.83743
C 8.04562 0.11066 -4.41968
C 9.21055 -0.51097 -5.14014
O 10.37703 -0.26405 -4.78665
O 8.75455 -1.45728 -5.98092
C 9.87387 -2.11039 -6.71057
H 6.84713 -3.59061 1.32778
H 7.23714 1.65252 4.69958
H 7.33024 5.09039 -0.55466
H 7.27793 -2.79626 -3.52585
H 7.40444 -4.24768 -1.11453
H 5.21397 -2.70167 -2.43809
H 5.10192 -2.78483 -0.66755
H 5.11683 -4.27515 -1.56106
H 9.59919 -3.53579 -1.72845
H 9.92872 -2.50237 -3.16673
H 8.42997 -4.76422 -4.03003
H 9.41797 -5.35201 -2.74036
H 7.41260 -4.33492 3.21642
H 6.90176 -3.78478 4.77705
H 8.64901 -3.96381 4.49100
H 7.60546 -2.71719 6.60474
H 8.64613 -1.63314 7.69495
H 9.30402 -2.46758 6.25817
H 7.59412 4.12044 4.16895
H 6.14929 5.30932 1.85469
H 5.54539 4.50166 5.05578
H 4.92300 3.19779 3.98406
H 4.86605 4.80289 3.45867
H 7.92174 6.51359 3.18884
H 8.08428 6.64972 1.44814
H 9.57869 5.13663 3.46294
H 10.24726 6.12178 2.11116
H 9.60075 4.44180 1.83913
H 8.15278 5.00814 -4.12129
H 7.45986 5.64869 -2.59625
H 6.39459 4.71572 -3.72188
H 7.08923 -0.25011 -4.80012
H 9.66028 -2.01010 -7.77921
H 9.93694 -3.13715 -6.30368
H 10.85178 -1.64781 -6.64603
