158

Mg 0.00000 0.00000 0.00000
C -0.21700 -2.21800 2.80100
C -1.25500 2.44200 2.02600
C -0.24500 1.85000 -2.56400
C 0.14600 -2.82400 -2.03700
N -0.61700 -0.00900 2.12600
C -0.59400 -0.90800 3.10500
C -0.93600 -0.30900 4.50200
C -1.77300 0.96400 4.03200
C -1.15500 1.16800 2.66000
C -3.26300 0.68500 3.86300
C 0.34500 0.11000 5.29900
C 0.12400 0.39700 6.78700
H 1.16800 0.03300 7.73300
N -0.18500 1.96100 -0.15200
C -0.70300 2.80000 0.77700
C -0.62000 4.15600 0.19300
C -0.18700 4.01500 -1.22500
C -0.21400 2.58300 -1.38000
C -0.88700 5.40600 0.97400
C 0.18100 5.01300 -2.27700
O 0.30300 4.69000 -3.50800
C 0.31000 6.41400 -1.83700
N -0.26500 -0.41300 -2.02900
C -0.27900 0.56900 -2.93700
C -0.19600 0.02400 -4.33200
C 0.12400 -1.53300 -4.18000
C 0.08600 -1.63200 -2.63500
C -1.45100 0.20500 -5.19700
C 1.37300 -2.07000 -4.92300
C 2.62600 -1.49000 -4.30600
N 0.15000 -2.14400 0.30300
C 0.17300 -3.13600 -0.68800
C 0.17300 -4.43800 0.00400
C 0.13300 -4.11100 1.35800
C 0.08300 -2.69500 1.50200
C 0.14900 -5.71500 -0.62300
C 0.09600 -4.62900 2.71600
O 0.20800 -5.74700 3.22100
C -0.25500 -3.42800 3.70100
C 0.71700 -3.48200 4.84800
O 1.93100 -3.25500 4.66900
O 0.03800 -3.55600 6.00300
C 0.94300 -3.58300 7.18300
H -1.85900 3.22000 2.49700
H -0.21800 2.45300 -3.47400
H 0.27600 -3.74700 -2.60500
H -1.55400 -0.94900 5.13200
H -1.58500 1.83100 4.66500
H -3.48400 -0.37700 3.96900
H -3.51100 1.02700 2.85800
H -3.85200 1.30100 4.54300
H 0.66900 1.09600 4.96600
H 1.13000 -0.63900 5.18900
H -0.84400 0.02600 7.12500
H 0.06200 1.47700 6.92100
H -1.34400 5.18600 1.93800
H -1.65100 5.96300 0.43200
H 0.00700 6.02000 1.08400
H -0.63500 6.74400 -1.40500
H 0.66500 6.97000 -2.70400
H 1.04800 6.46600 -1.03600
H 0.60800 0.50100 -4.89100
H -0.69200 -2.15600 -4.54700
H -1.26700 0.74000 -6.12900
H -2.20400 0.71400 -4.59600
H -1.96700 -0.72000 -5.45300
H 1.35600 -1.75900 -5.96700
H 1.45200 -3.15700 -4.90200
H 2.71400 -0.52200 -4.79800
H 3.48700 -2.12100 -4.52900
H 2.49500 -1.30300 -3.24000
H 0.86700 -6.33300 -0.08400
H 0.40400 -5.64200 -1.68000
H -0.89100 -5.99900 -0.46300
H -1.28300 -3.58100 4.02800
H 0.69800 -4.47800 7.75500
H 0.83300 -2.61900 7.68000
H 2.00000 -3.75400 6.97600
Mg 15.76628 1.41940 1.19766
C 15.98313 -1.36159 -1.04539
C 14.90012 -0.80534 3.63557
C 15.12764 3.89300 3.07652
C 15.53139 3.47426 -1.60734
N 15.50960 -0.77930 1.17542
C 15.68104 -1.73397 0.26637
C 15.58386 -3.17292 0.85574
C 14.69951 -2.85792 2.14443
C 15.08485 -1.40413 2.35402
C 13.19813 -2.93590 1.88696
C 16.98515 -3.74995 1.24963
C 17.01774 -5.25618 1.52452
H 18.19842 -6.01334 1.13716
N 15.58766 1.52347 3.16238
C 15.24302 0.51503 3.99878
C 15.24823 1.09419 5.35938
C 15.43844 2.56537 5.22694
C 15.36500 2.72484 3.79706
C 15.13267 0.27009 6.60487
C 15.64194 3.65603 6.23052
O 15.55373 4.89270 5.91836
C 15.86267 3.23264 7.62518
N 15.16304 3.37962 0.80870
C 15.01346 4.26512 1.79991
C 14.85636 5.65878 1.26795
C 15.17407 5.57395 -0.29462
C 15.39085 4.04481 -0.40868
C 13.47832 6.30253 1.47432
C 16.27480 6.51770 -0.84065
C 17.62107 6.11229 -0.28359
N 15.93267 1.16205 -0.95109
C 15.77668 2.15082 -1.93326
C 15.87198 1.47848 -3.24206
C 16.06147 0.13407 -2.92823
C 16.05691 -0.02719 -1.51321
C 15.72567 2.10272 -4.51224
C 16.24209 -1.20725 -3.45936
O 16.41960 -1.67805 -4.58378
C 16.07674 -2.24605 -2.26379
C 17.22427 -3.21576 -2.34227
O 18.39512 -2.83991 -2.12962
O 16.74478 -4.46666 -2.41888
C 17.83211 -5.48021 -2.46980
H 14.39397 -1.37589 4.41673
H 15.01256 4.79020 3.68825
H 15.55194 4.06307 -2.52621
H 15.06927 -3.89160 0.21769
H 15.00247 -3.45773 3.00242
H 12.98206 -3.06881 0.82698
H 12.79229 -1.98854 2.24235
H 12.73897 -3.70882 2.50385
H 17.26410 -3.37553 2.23455
H 17.72997 -3.50565 0.49141
H 16.11366 -5.74696 1.16302
H 16.99474 -5.40696 2.60384
H 14.83833 -0.75455 6.38125
H 14.29782 0.67373 7.17741
H 16.04152 0.30494 7.20580
H 15.00719 2.64754 7.96333
H 16.07745 4.14213 8.18513
H 16.72375 2.56457 7.65929
H 15.56371 6.33952 1.73984
H 14.29947 5.80553 -0.90299
H 13.51341 7.24796 2.01620
H 12.84278 5.58118 1.98719
H 12.91346 6.47668 0.55889
H 16.08984 7.54202 -0.51893
H 16.34012 6.51850 -1.92876
H 17.64071 6.60456 0.68806
H 18.42387 6.47971 -0.92370
H 17.67109 5.03790 -0.10563
H 16.51377 1.69489 -5.14513
H 15.80326 3.18676 -4.43198
H 14.72242 1.77487 -4.78400
H 15.11490 -2.73761 -2.40641
H 17.67196 -6.07795 -3.36719
H 17.82013 -5.99602 -1.50949
H 18.83762 -5.09968 -2.65273
