158

Mg 0.00000 0.00000 0.00000
C -0.21700 -2.21800 2.80100
C -1.25500 2.44200 2.02600
C -0.24500 1.85000 -2.56400
C 0.14600 -2.82400 -2.03700
N -0.61700 -0.00900 2.12600
C -0.59400 -0.90800 3.10500
C -0.93600 -0.30900 4.50200
C -1.77300 0.96400 4.03200
C -1.15500 1.16800 2.66000
C -3.26300 0.68500 3.86300
C 0.34500 0.11000 5.29900
C 0.12400 0.39700 6.78700
H 1.16800 0.03300 7.73300
N -0.18500 1.96100 -0.15200
C -0.70300 2.80000 0.77700
C -0.62000 4.15600 0.19300
C -0.18700 4.01500 -1.22500
C -0.21400 2.58300 -1.38000
C -0.88700 5.40600 0.97400
C 0.18100 5.01300 -2.27700
O 0.30300 4.69000 -3.50800
C 0.31000 6.41400 -1.83700
N -0.26500 -0.41300 -2.02900
C -0.27900 0.56900 -2.93700
C -0.19600 0.02400 -4.33200
C 0.12400 -1.53300 -4.18000
C 0.08600 -1.63200 -2.63500
C -1.45100 0.20500 -5.19700
C 1.37300 -2.07000 -4.92300
C 2.62600 -1.49000 -4.30600
N 0.15000 -2.14400 0.30300
C 0.17300 -3.13600 -0.68800
C 0.17300 -4.43800 0.00400
C 0.13300 -4.11100 1.35800
C 0.08300 -2.69500 1.50200
C 0.14900 -5.71500 -0.62300
C 0.09600 -4.62900 2.71600
O 0.20800 -5.74700 3.22100
C -0.25500 -3.42800 3.70100
C 0.71700 -3.48200 4.84800
O 1.93100 -3.25500 4.66900
O 0.03800 -3.55600 6.00300
C 0.94300 -3.58300 7.18300
H -1.85900 3.22000 2.49700
H -0.21800 2.45300 -3.47400
H 0.27600 -3.74700 -2.60500
H -1.55400 -0.94900 5.13200
H -1.58500 1.83100 4.66500
H -3.48400 -0.37700 3.96900
H -3.51100 1.02700 2.85800
H -3.85200 1.30100 4.54300
H 0.66900 1.09600 4.96600
H 1.13000 -0.63900 5.18900
H -0.84400 0.02600 7.12500
H 0.06200 1.47700 6.92100
H -1.34400 5.18600 1.93800
H -1.65100 5.96300 0.43200
H 0.00700 6.02000 1.08400
H -0.63500 6.74400 -1.40500
H 0.66500 6.97000 -2.70400
H 1.04800 6.46600 -1.03600
H 0.60800 0.50100 -4.89100
H -0.69200 -2.15600 -4.54700
H -1.26700 0.74000 -6.12900
H -2.20400 0.71400 -4.59600
H -1.96700 -0.72000 -5.45300
H 1.35600 -1.75900 -5.96700
H 1.45200 -3.15700 -4.90200
H 2.71400 -0.52200 -4.79800
H 3.48700 -2.12100 -4.52900
H 2.49500 -1.30300 -3.24000
H 0.86700 -6.33300 -0.08400
H 0.40400 -5.64200 -1.68000
H -0.89100 -5.99900 -0.46300
H -1.28300 -3.58100 4.02800
H 0.69800 -4.47800 7.75500
H 0.83300 -2.61900 7.68000
H 2.00000 -3.75400 6.97600
Mg 10.51718 0.95118 0.80538
C 10.29634 -1.27154 3.61426
C 9.26049 3.39275 2.82876
C 10.27533 2.81002 -1.75463
C 10.65714 -1.86847 -1.23807
N 9.89793 0.93988 2.92874
C 9.91692 0.05370 3.91295
C 9.58327 0.63857 5.31158
C 8.73861 1.92068 4.84082
C 9.35631 2.12649 3.45924
C 7.25695 1.63327 4.66357
C 10.86947 1.05826 6.10629
C 10.64183 1.34762 7.59162
H 11.69144 0.98549 8.54012
N 10.33438 2.92212 0.66203
C 9.82325 3.76135 1.58708
C 9.89302 5.10544 0.99318
C 10.33462 4.97079 -0.42159
C 10.31136 3.52932 -0.56894
C 9.63420 6.35724 1.78022
C 10.70298 5.97395 -1.47239
O 10.82723 5.64361 -2.70457
C 10.82239 7.37139 -1.03149
N 10.25937 0.54017 -1.21624
C 10.23962 1.53011 -2.12594
C 10.32081 0.98180 -3.53063
C 10.64426 -0.57570 -3.36584
C 10.60407 -0.68091 -1.82548
C 9.06506 1.15290 -4.38515
C 11.89457 -1.11756 -4.11135
C 13.15027 -0.53322 -3.50542
N 10.67077 -1.18263 1.10757
C 10.68789 -2.18580 0.11387
C 10.68762 -3.48860 0.81039
C 10.64679 -3.15050 2.17146
C 10.60288 -1.73713 2.31272
C 10.67392 -4.76675 0.18408
C 10.62012 -3.66808 3.52057
O 10.72470 -4.78561 4.02448
C 10.26434 -2.47747 4.51166
C 11.23545 -2.52264 5.65945
O 12.44582 -2.30691 5.47217
O 10.54933 -2.59691 6.81448
C 11.46893 -2.63298 7.98275
H 8.66234 4.16757 3.30913
H 10.30313 3.40687 -2.66922
H 10.79888 -2.79288 -1.80203
H 8.97157 -0.00048 5.93705
H 8.93522 2.77893 5.47809
H 7.03501 0.58178 4.76965
H 7.00843 1.97373 3.66689
H 6.66863 2.25070 5.34840
H 11.19083 2.05189 5.76840
H 11.64253 0.32288 5.99574
H 9.66769 0.98178 7.93826
H 10.58619 2.43014 7.72972
H 9.16975 6.13462 2.74879
H 8.87073 6.92446 1.23686
H 10.52576 6.97857 1.88856
H 9.87935 7.69494 -0.59738
H 11.17906 7.92340 -1.90324
H 11.57080 7.42354 -0.23288
H 11.12545 1.45128 -4.08312
H 9.82526 -1.20430 -3.74523
H 9.25090 1.69795 -5.32985
H 8.31621 1.66224 -3.79326
H 8.55828 0.22703 -4.65187
H 11.87846 -0.80135 -5.15725
H 11.96688 -2.20001 -4.10325
H 13.23250 0.43995 -3.99864
H 14.01060 -1.16171 -3.72649
H 13.02073 -0.34914 -2.43258
H 11.38479 -5.38292 0.71840
H 10.92425 -4.69457 -0.87228
H 9.62932 -5.04917 0.34002
H 9.23456 -2.62179 4.84075
H 11.22034 -3.53055 8.55743
H 11.34411 -1.65858 8.49139
H 12.52268 -2.79268 7.78639
