79

Mg 10.50325 0.94289 0.80501
C 10.36739 3.66444 3.14034
C 11.29423 -1.07890 3.43584
C 11.07167 -1.38053 -1.27971
C 10.83397 3.31460 -1.72705
N 10.76668 1.35625 2.96186
C 10.62923 2.41663 3.74354
C 10.70137 2.10903 5.26333
C 11.54956 0.74723 5.19305
C 11.15705 0.28689 3.79066
C 13.05225 0.97216 5.21881
C 9.28398 1.87109 5.89294
C 9.25156 1.87179 7.42288
H 8.07941 2.42694 8.09397
N 10.61287 -1.02099 1.06902
C 10.92522 -1.67263 2.20880
C 10.88954 -3.10514 1.87594
C 10.69221 -3.24065 0.40712
C 10.80795 -1.85563 -0.00328
C 10.95617 -4.18438 2.91720
C 10.45329 -4.42278 -0.48264
O 10.54814 -4.33577 -1.75789
C 10.19690 -5.70622 0.18709
N 11.10754 0.95012 -1.18424
C 11.22860 -0.19760 -1.87416
C 11.40449 0.06910 -3.35008
C 11.13306 1.63375 -3.53926
C 10.92573 2.03501 -2.06230
C 12.77349 -0.28359 -3.93131
C 10.04879 2.03979 -4.57471
C 8.68449 1.60327 -4.09148
N 10.40419 3.09689 0.66888
C 10.59767 3.88849 -0.48439
C 10.54611 5.30146 -0.05627
C 10.34761 5.23310 1.33096
C 10.30040 3.87345 1.74157
C 10.72298 6.43355 -0.90079
C 10.17790 6.00199 2.54287
O 10.04570 7.19748 2.80182
C 10.30962 5.02086 3.78642
C 9.16713 5.30255 4.72337
O 7.99480 5.07310 4.37752
O 9.65784 5.58888 5.94303
C 8.56232 5.86483 6.91025
H 11.76813 -1.75491 4.14810
H 11.16542 -2.14289 -2.05655
H 10.83061 4.11417 -2.47093
H 11.23228 2.84782 5.85163
H 11.21068 0.03194 5.93796
H 13.30372 2.02075 5.16080
H 13.44393 0.44115 4.36110
H 13.49053 0.49033 6.09750
H 8.97522 0.83582 5.69894
H 8.57536 2.58279 5.51616
H 10.17220 2.28298 7.85448
H 9.23219 0.83587 7.77003
H 11.26603 -3.78530 3.89092
H 11.77032 -4.85778 2.62812
H 10.03031 -4.75923 2.98788
H 11.03972 -5.95381 0.82802
H 9.96171 -6.41127 -0.61258
H 9.32632 -5.59109 0.84242
H 10.67960 -0.48625 -3.93250
H 12.03210 2.16428 -3.88581
H 12.71890 -0.99857 -4.77386
H 13.39030 -0.67987 -3.13567
H 13.36062 0.56514 -4.27790
H 10.22066 1.52658 -5.52404
H 10.02781 3.10425 -4.78327
H 8.63774 0.55431 -4.39901
H 7.90285 2.19003 -4.56982
H 8.62788 1.62876 -2.99704
H 9.96448 7.15241 -0.62076
H 10.64565 6.16174 -1.95146
H 11.74027 6.72486 -0.62596
H 11.27740 5.21051 4.25226
H 8.75607 6.85290 7.33906
H 8.55568 5.00576 7.60717
H 7.56371 5.99950 6.51140
