79

Mg 15.76386 1.41219 1.20504
C 13.78434 3.38424 3.45706
C 17.89649 0.85183 3.80744
C 17.75780 0.04865 -0.85224
C 14.14336 3.03446 -1.41945
N 15.73598 2.08457 3.31202
C 14.90152 2.77972 4.07018
C 15.24248 2.76299 5.58445
C 16.81251 2.44418 5.47392
C 16.82011 1.71584 4.13148
C 17.67219 3.69074 5.34587
C 14.47926 1.63010 6.35650
C 14.52407 1.74851 7.88154
H 13.34976 1.33798 8.64634
N 17.28604 0.17779 1.51779
C 18.02534 0.06585 2.64126
C 19.03379 -0.96709 2.35801
C 18.93383 -1.33850 0.92038
C 17.98187 -0.34855 0.45794
C 19.91411 -1.55793 3.42072
C 19.59631 -2.39985 0.09523
O 19.54109 -2.38962 -1.18527
C 20.38967 -3.39871 0.82623
N 16.08233 1.67186 -0.83297
C 16.97354 0.91377 -1.49553
C 16.83326 1.08674 -2.98912
C 15.49613 1.93851 -3.19926
C 15.12665 2.19803 -1.72226
C 17.99752 1.78647 -3.69002
C 14.41549 1.33235 -4.13599
C 13.82715 0.08913 -3.50859
N 14.11550 2.79564 1.01258
C 13.61763 3.36892 -0.17803
C 12.56828 4.33402 0.20910
C 12.54423 4.27161 1.61054
C 13.52431 3.34870 2.06571
C 11.82375 5.15585 -0.68330
C 11.91990 4.78447 2.80883
O 10.96721 5.52717 3.04229
C 12.78172 4.32644 4.06337
C 11.83924 3.77566 5.09821
O 11.19367 2.73625 4.87574
O 12.01767 4.43981 6.25468
C 11.11271 3.92201 7.31522
H 18.74476 0.80102 4.49062
H 18.34481 -0.47468 -1.61054
H 13.52369 3.50814 -2.18385
H 15.08966 3.70630 6.09494
H 17.13762 1.77958 6.27015
H 17.07414 4.58254 5.23114
H 18.28931 3.53388 4.47088
H 18.36156 3.76179 6.19207
H 15.01747 0.68248 6.22573
H 13.45988 1.56585 6.02885
H 14.86919 2.73699 8.20826
H 15.28361 1.06057 8.26084
H 19.87615 -0.97098 4.34670
H 20.94800 -1.45255 3.07453
H 19.70723 -2.61528 3.59922
H 21.17271 -2.89632 1.38918
H 20.70984 -4.12388 0.07557
H 19.74169 -3.89165 1.55954
H 16.72017 0.12817 -3.48050
H 15.70501 2.92068 -3.64819
H 18.44601 1.18167 -4.50066
H 18.74222 2.03775 -2.94651
H 17.76140 2.75906 -4.11840
H 14.86592 1.01958 -5.08121
H 13.61373 2.02326 -4.37437
H 14.54875 -0.68811 -3.77745
H 12.84495 -0.12266 -3.92627
H 13.81819 0.16660 -2.41517
H 10.79411 5.12101 -0.35296
H 11.92355 4.81731 -1.71248
H 12.31540 6.11829 -0.51826
H 13.32241 5.20133 4.42640
H 10.54106 4.77568 7.69225
H 11.76700 3.39617 8.03573
H 10.31684 3.25195 7.01179
