79

Mg 13.13067 1.18685 1.00387
C 14.97573 2.82031 3.61283
C 11.66661 -0.70991 3.43151
C 11.82963 -0.57215 -1.29410
C 15.51900 2.37513 -1.23880
N 13.37189 1.15352 3.20227
C 14.05606 1.86215 4.08777
C 13.67809 1.58103 5.56685
C 13.08504 0.09964 5.38610
C 12.64510 0.18892 3.92625
C 14.13917 -0.98885 5.50157
C 12.58881 2.57418 6.10455
C 12.39675 2.55763 7.62264
H 12.08378 3.81379 8.29836
N 11.58469 -0.05639 1.05756
C 11.11315 -0.72256 2.13234
C 9.97771 -1.52073 1.64463
C 9.92043 -1.39824 0.16260
C 11.14873 -0.67173 -0.08952
C 9.03010 -2.23447 2.56444
C 8.93116 -1.86956 -0.85985
O 9.20126 -1.85964 -2.11276
C 7.67313 -2.42997 -0.34528
N 13.71468 0.75707 -0.94460
C 12.94027 0.00813 -1.74916
C 13.42496 0.06292 -3.17831
C 14.54692 1.20217 -3.20808
C 14.58116 1.56293 -1.70672
C 14.00538 -1.23726 -3.73422
C 14.35900 2.34822 -4.23955
C 13.15754 3.18649 -3.86648
N 14.82123 2.52892 1.09831
C 15.70181 2.86682 0.04736
C 16.75985 3.72166 0.62374
C 16.43161 3.80356 1.98538
C 15.26365 3.03626 2.24344
C 17.86961 4.26315 -0.08432
C 16.81361 4.35597 3.26507
O 17.66889 5.15402 3.64632
C 15.95991 3.64100 4.39926
C 15.41404 4.70589 5.31060
O 14.58523 5.53278 4.89115
O 15.79200 4.44051 6.57436
C 15.26546 5.46308 7.51718
H 11.31819 -1.50929 4.08610
H 11.35919 -1.07143 -2.14432
H 16.24474 2.86581 -1.89088
H 14.51517 1.56509 6.25447
H 12.22744 -0.06419 6.03344
H 15.13594 -0.57888 5.56879
H 14.03773 -1.59244 4.60914
H 13.90730 -1.65063 6.34098
H 11.59797 2.22561 5.78600
H 12.79100 3.57534 5.77679
H 13.21529 2.03864 8.13604
H 11.51266 1.95859 7.85406
H 9.42124 -2.28033 3.58830
H 8.99585 -3.28004 2.23967
H 8.01982 -1.82101 2.53187
H 7.89256 -3.27645 0.30108
H 7.05961 -2.62828 -1.22626
H 7.18377 -1.67499 0.28013
H 12.62169 0.34318 -3.84862
H 15.53724 0.79240 -3.45547
H 13.49403 -1.58667 -4.65101
H 13.95585 -1.99158 -2.96021
H 15.06984 -1.20816 -3.96068
H 14.15413 1.93593 -5.23061
H 15.22679 2.99274 -4.33198
H 12.32133 2.62055 -4.28785
H 13.22818 4.17679 -4.31185
H 13.02077 3.21634 -2.77925
H 17.97390 5.29038 0.23882
H 17.72516 4.19687 -1.16066
H 18.66586 3.60018 0.26458
H 16.62382 2.95343 4.92466
H 16.12460 5.87076 8.05880
H 14.49134 4.94710 8.11573
H 14.83686 6.36316 7.09220
