79

Mg 8.93550 0.80909 0.68806
C 7.40924 -1.58864 2.87905
C 6.62016 3.06145 1.78382
C 9.96531 2.80727 -1.55119
C 10.34819 -1.87110 -1.03431
N 7.28046 0.63946 2.14557
C 6.83458 -0.30323 2.96219
C 5.76427 0.17907 3.97776
C 5.21188 1.44669 3.16115
C 6.45535 1.76496 2.33339
C 4.07929 1.10182 2.20845
C 6.39286 0.60906 5.34962
C 5.38683 0.79638 6.48741
H 5.79033 0.42644 7.84122
N 8.71604 2.77443 0.52114
C 7.73088 3.53093 1.04882
C 8.01002 4.91052 0.62107
C 9.14742 4.88314 -0.33824
C 9.31044 3.45382 -0.51308
C 7.28136 6.09856 1.17879
C 9.94670 5.96460 -0.99991
O 10.73337 5.71616 -1.98085
C 9.71103 7.33660 -0.52708
N 9.82788 0.51054 -1.16582
C 10.22584 1.55211 -1.91728
C 11.08411 1.09486 -3.07257
C 11.38078 -0.45300 -2.80111
C 10.53168 -0.65370 -1.52669
C 10.47053 1.25898 -4.46289
C 12.87120 -0.88948 -2.77261
C 13.56307 -0.28523 -1.57195
N 9.05724 -1.32968 0.96891
C 9.67479 -2.26850 0.11373
C 9.39639 -3.60994 0.66642
C 8.61058 -3.35773 1.80104
C 8.39626 -1.95920 1.93394
C 9.81155 -4.84676 0.09718
C 7.90475 -3.95729 2.91056
O 7.80421 -5.09737 3.36205
C 6.98984 -2.84723 3.58664
C 7.19792 -2.91695 5.07471
O 8.30190 -2.63397 5.57248
O 6.00837 -3.09344 5.67819
C 6.16147 -3.15774 7.15611
H 5.80389 3.77679 1.88813
H 10.43427 3.45942 -2.29163
H 10.83547 -2.75178 -1.45815
H 4.96099 -0.52477 4.15976
H 4.97520 2.27272 3.82675
H 3.91148 0.03661 2.15091
H 4.37783 1.49045 1.24363
H 3.17343 1.64822 2.48627
H 6.77241 1.63535 5.26357
H 7.15606 -0.08134 5.65210
H 4.40752 0.36503 6.24690
H 5.18816 1.86468 6.60260
H 6.38881 5.79587 1.74016
H 6.88767 6.66163 0.32566
H 7.92966 6.75305 1.76533
H 8.66150 7.58873 -0.65891
H 10.43733 7.95678 -1.05599
H 9.91105 7.37481 0.54955
H 12.02314 1.63418 -3.09390
H 10.93892 -1.09482 -3.57742
H 11.09242 1.86869 -5.14522
H 9.48690 1.69579 -4.35249
H 10.25289 0.32846 -4.98440
H 13.39354 -0.51118 -3.65477
H 13.00580 -1.96585 -2.75557
H 13.82565 0.71898 -1.91793
H 14.45111 -0.85825 -1.31297
H 12.86760 -0.17315 -0.73206
H 10.16930 -5.46053 0.91315
H 10.58148 -4.69870 -0.65717
H 8.86875 -5.18659 -0.33975
H 5.95707 -3.05923 3.30731
H 5.70980 -4.09930 7.48343
H 5.71439 -2.22305 7.54371
H 7.16544 -3.25584 7.55218
