158

Mg 0.00000 0.00000 0.00000
C -0.21700 -2.21800 2.80100
C -1.25500 2.44200 2.02600
C -0.24500 1.85000 -2.56400
C 0.14600 -2.82400 -2.03700
N -0.61700 -0.00900 2.12600
C -0.59400 -0.90800 3.10500
C -0.93600 -0.30900 4.50200
C -1.77300 0.96400 4.03200
C -1.15500 1.16800 2.66000
C -3.26300 0.68500 3.86300
C 0.34500 0.11000 5.29900
C 0.12400 0.39700 6.78700
H 1.16800 0.03300 7.73300
N -0.18500 1.96100 -0.15200
C -0.70300 2.80000 0.77700
C -0.62000 4.15600 0.19300
C -0.18700 4.01500 -1.22500
C -0.21400 2.58300 -1.38000
C -0.88700 5.40600 0.97400
C 0.18100 5.01300 -2.27700
O 0.30300 4.69000 -3.50800
C 0.31000 6.41400 -1.83700
N -0.26500 -0.41300 -2.02900
C -0.27900 0.56900 -2.93700
C -0.19600 0.02400 -4.33200
C 0.12400 -1.53300 -4.18000
C 0.08600 -1.63200 -2.63500
C -1.45100 0.20500 -5.19700
C 1.37300 -2.07000 -4.92300
C 2.62600 -1.49000 -4.30600
N 0.15000 -2.14400 0.30300
C 0.17300 -3.13600 -0.68800
C 0.17300 -4.43800 0.00400
C 0.13300 -4.11100 1.35800
C 0.08300 -2.69500 1.50200
C 0.14900 -5.71500 -0.62300
C 0.09600 -4.62900 2.71600
O 0.20800 -5.74700 3.22100
C -0.25500 -3.42800 3.70100
C 0.71700 -3.48200 4.84800
O 1.93100 -3.25500 4.66900
O 0.03800 -3.55600 6.00300
C 0.94300 -3.58300 7.18300
H -1.85900 3.22000 2.49700
H -0.21800 2.45300 -3.47400
H 0.27600 -3.74700 -2.60500
H -1.55400 -0.94900 5.13200
H -1.58500 1.83100 4.66500
H -3.48400 -0.37700 3.96900
H -3.51100 1.02700 2.85800
H -3.85200 1.30100 4.54300
H 0.66900 1.09600 4.96600
H 1.13000 -0.63900 5.18900
H -0.84400 0.02600 7.12500
H 0.06200 1.47700 6.92100
H -1.34400 5.18600 1.93800
H -1.65100 5.96300 0.43200
H 0.00700 6.02000 1.08400
H -0.63500 6.74400 -1.40500
H 0.66500 6.97000 -2.70400
H 1.04800 6.46600 -1.03600
H 0.60800 0.50100 -4.89100
H -0.69200 -2.15600 -4.54700
H -1.26700 0.74000 -6.12900
H -2.20400 0.71400 -4.59600
H -1.96700 -0.72000 -5.45300
H 1.35600 -1.75900 -5.96700
H 1.45200 -3.15700 -4.90200
H 2.71400 -0.52200 -4.79800
H 3.48700 -2.12100 -4.52900
H 2.49500 -1.30300 -3.24000
H 0.86700 -6.33300 -0.08400
H 0.40400 -5.64200 -1.68000
H -0.89100 -5.99900 -0.46300
H -1.28300 -3.58100 4.02800
H 0.69800 -4.47800 7.75500
H 0.83300 -2.61900 7.68000
H 2.00000 -3.75400 6.97600
Mg 10.51720 0.95076 0.80564
C 10.32296 -1.44550 3.47008
C 9.26108 3.25380 2.98573
C 10.25189 2.96591 -1.63080
C 10.65825 -1.73388 -1.41213
N 9.91038 0.80269 2.92746
C 9.93918 -0.14360 3.85376
C 9.61099 0.35036 5.28828
C 8.75771 1.65537 4.90390
C 9.36640 1.95084 3.53464
C 7.27638 1.37234 4.71708
C 10.89985 0.72555 6.10074
C 10.67953 0.91967 7.60259
H 11.73630 0.50374 8.52058
N 10.32449 2.92589 0.78776
C 9.81490 3.70265 1.76665
C 9.87502 5.08180 1.25824
C 10.30899 5.03871 -0.16462
C 10.29151 3.60928 -0.40236
C 9.61502 6.28025 2.12400
C 10.66660 6.10786 -1.15215
O 10.78519 5.85640 -2.40336
C 10.78214 7.47534 -0.62475
N 10.24952 0.66660 -1.23640
C 10.21992 1.71176 -2.08180
C 10.29545 1.25341 -3.51867
C 10.62703 -0.30976 -3.45412
C 10.59629 -0.51196 -1.92326
C 9.03397 1.47174 -4.35377
C 11.87546 -0.79738 -4.23918
C 13.13196 -0.24613 -3.60458
N 10.68237 -1.19705 0.97195
C 10.69833 -2.13556 -0.08306
C 10.70811 -3.47962 0.52999
C 10.67365 -3.22811 1.90986
C 10.62406 -1.82668 2.14012
C 10.69666 -4.71584 -0.17552
C 10.65722 -3.82975 3.22381
O 10.76988 -4.97626 3.65572
C 10.30174 -2.70570 4.28989
C 11.27971 -2.81824 5.42717
O 12.48796 -2.58514 5.24718
O 10.60067 -2.96850 6.57900
C 11.52722 -3.07351 7.73758
H 8.66217 3.99385 3.51726
H 10.27162 3.61930 -2.50611
H 10.80096 -2.62022 -2.03399
H 9.00589 -0.32984 5.87562
H 8.95407 2.47275 5.59288
H 7.05991 0.31517 4.75793
H 7.02050 1.77365 3.74522
H 6.68922 1.94249 5.44268
H 11.21465 1.74007 5.82436
H 11.67563 0.00244 5.93982
H 9.70912 0.52789 7.93086
H 10.61971 1.99105 7.80892
H 9.15725 5.99478 3.07917
H 8.84579 6.87677 1.62168
H 10.50432 6.89794 2.26634
H 9.84016 7.76623 -0.16592
H 11.13118 8.08292 -1.46194
H 11.53493 7.48081 0.17142
H 11.09469 1.76073 -4.04492
H 9.80874 -0.91727 -3.86784
H 9.21180 2.07612 -5.26327
H 8.28624 1.93908 -3.72684
H 8.52992 0.56200 -4.67549
H 11.85180 -0.41602 -5.26298
H 11.95280 -1.87782 -4.29969
H 13.20683 0.75656 -4.03596
H 13.99387 -0.85517 -3.86955
H 13.00782 -0.13062 -2.52158
H 11.41345 -5.36090 0.31499
H 10.94050 -4.57604 -1.22660
H 9.65429 -5.01271 -0.03192
H 9.27456 -2.87557 4.61491
H 11.28611 -4.00671 8.25593
H 11.40087 -2.13371 8.30728
H 12.58053 -3.21529 7.52574
