79

Mg 13.13732 1.18741 1.00753
C 11.18744 -1.29920 2.70866
C 10.55550 3.35445 1.52976
C 14.63061 3.26342 -0.87069
C 15.01387 -1.41488 -0.35348
N 11.17788 0.94181 2.00379
C 10.57167 -0.03090 2.66764
C 9.26852 0.40018 3.39257
C 8.89845 1.67266 2.48554
C 10.29843 2.04153 1.99907
C 8.04908 1.32233 1.27509
C 9.52319 0.81300 4.88479
C 8.26079 0.94797 5.73911
H 8.32615 0.55614 7.14434
N 12.90709 3.15005 0.82429
C 11.79936 3.86891 1.10260
C 12.13432 5.26484 0.78112
C 13.47474 5.28874 0.13504
C 13.71911 3.86852 -0.01770
C 11.25446 6.42068 1.15966
C 14.38041 6.40529 -0.28840
O 15.39330 6.20001 -1.04651
C 13.99338 7.75933 0.13382
N 14.47101 0.95546 -0.57038
C 15.01165 2.02423 -1.18140
C 16.14348 1.61621 -2.09402
C 16.40991 0.07023 -1.78329
C 15.27718 -0.18191 -0.76410
C 15.89002 1.79796 -3.59038
C 17.85894 -0.32939 -1.39179
C 18.21218 0.26324 -0.04664
N 13.24986 -0.95373 1.27385
C 14.08857 -1.85620 0.58378
C 13.72213 -3.21695 1.02707
C 12.67176 -3.01154 1.93427
C 12.38908 -1.62236 2.03309
C 14.30281 -4.42911 0.55846
C 11.73074 -3.65479 2.82276
O 11.55556 -4.80745 3.21574
C 10.64348 -2.58436 3.26821
C 10.47723 -2.68424 4.75982
O 11.41382 -2.38566 5.52157
O 9.18090 -2.90473 5.04491
C 8.96378 -3.00032 6.51309
H 9.71773 4.04646 1.43947
H 15.24898 3.94453 -1.45991
H 15.61751 -2.27277 -0.65734
H 8.46680 -0.32766 3.35688
H 8.47899 2.47644 3.08500
H 7.93302 0.25493 1.15966
H 8.56618 1.74115 0.42172
H 7.08655 1.83914 1.32766
H 9.88111 1.85022 4.91326
H 10.20773 0.13490 5.35618
H 7.38544 0.49812 5.25503
H 8.00762 2.00794 5.81913
H 10.25994 6.08249 1.47584
H 11.06834 6.99385 0.24495
H 11.71661 7.07703 1.90012
H 13.00243 7.98820 -0.25102
H 14.80930 8.40988 -0.18699
H 13.91831 7.77691 1.22683
H 17.04166 2.17920 -1.87171
H 16.19439 -0.56379 -2.65587
H 16.64330 2.43910 -4.08595
H 14.89710 2.20728 -3.72115
H 15.83696 0.87496 -4.16524
H 18.57248 0.08274 -2.10954
H 18.01747 -1.40216 -1.35986
H 18.52212 1.28165 -0.29937
H 19.02486 -0.29339 0.41570
H 17.32675 0.33787 0.59530
H 14.46489 -5.05298 1.42738
H 15.23124 -4.24394 0.02227
H 13.50886 -4.78192 -0.10519
H 9.71941 -2.81542 2.73691
H 8.47352 -3.96040 6.70171
H 8.40644 -2.08660 6.79278
H 9.84030 -3.08267 7.14505
