79

Mg 15.77258 1.42639 1.20254
C 15.39723 0.40455 4.62219
C 14.54473 4.46953 2.13328
C 15.66624 2.21222 -1.86969
C 15.87234 -1.95118 0.34944
N 15.09438 2.21410 3.15493
C 15.05545 1.75423 4.39645
C 14.70327 2.82170 5.46698
C 13.91666 3.85703 4.52453
C 14.57933 3.52420 3.18933
C 12.43151 3.55665 4.40866
C 15.98051 3.47741 6.10002
C 15.72166 4.30011 7.36411
H 16.73135 4.29152 8.41906
N 15.66175 3.20826 0.33581
C 15.15422 4.34083 0.86588
C 15.28670 5.36839 -0.17850
C 15.76266 4.71085 -1.42582
C 15.69394 3.31785 -1.03221
C 15.04927 6.82773 0.08105
C 16.19444 5.24637 -2.75735
O 16.34154 4.48140 -3.77520
C 16.34952 6.70487 -2.85838
N 15.55721 0.30300 -0.53353
C 15.59688 0.88680 -1.74412
C 15.69827 -0.14347 -2.84350
C 15.96323 -1.53640 -2.10383
C 15.87654 -1.06396 -0.63595
C 14.47345 -0.27313 -3.74870
C 17.21445 -2.34240 -2.54824
C 18.47214 -1.60286 -2.15240
N 15.84420 -0.44744 2.27572
C 15.85448 -1.74696 1.72325
C 15.78998 -2.69975 2.85040
C 15.72290 -1.88174 3.98832
C 15.72372 -0.51565 3.59682
C 15.74978 -4.11825 2.73933
C 15.64086 -1.86334 5.43110
O 15.69286 -2.71749 6.31511
C 15.29877 -0.38332 5.89898
C 16.23540 -0.02212 7.01915
O 17.45722 0.08282 6.81241
O 15.51521 0.35065 8.09281
C 16.40012 0.72900 9.22666
H 13.96044 5.37980 2.27072
H 15.74003 2.42803 -2.93808
H 15.99786 -3.02141 0.17188
H 14.05276 2.47249 6.25987
H 14.12485 4.88556 4.80763
H 12.17066 2.62390 4.88623
H 12.22271 3.50994 3.34788
H 11.84592 4.39607 4.79441
H 16.34515 4.26858 5.43232
H 16.73059 2.73666 6.29827
H 14.72623 4.10950 7.78332
H 15.69946 5.35795 7.09118
H 14.55063 6.98898 1.04477
H 14.32120 7.17038 -0.66217
H 15.95831 7.42563 -0.01295
H 15.40644 7.18632 -2.61086
H 16.74912 6.88773 -3.85776
H 17.07674 7.03225 -2.10699
H 16.53366 0.07101 -3.49865
H 15.13398 -2.24280 -2.25609
H 14.70417 -0.12000 -4.81986
H 13.72636 0.43501 -3.41563
H 13.94274 -1.22080 -3.67468
H 17.23837 -2.43487 -3.63683
H 17.24923 -3.34650 -2.13890
H 18.60151 -0.88291 -2.96606
H 19.31616 -2.28704 -2.09284
H 18.31916 -1.03253 -1.22883
H 16.42387 -4.50857 3.49017
H 16.03178 -4.44705 1.74126
H 14.69215 -4.30033 2.94795
H 14.25587 -0.37343 6.21809
H 16.10488 0.11299 10.08169
H 16.29477 1.82485 9.33507
H 17.45281 0.48523 9.14383
