79

Mg 7.88314 0.70970 0.59883
C 7.26683 3.65527 2.53687
C 7.04760 2.53186 -2.16245
C 7.97937 -1.98306 -1.07342
C 7.56081 -1.11933 3.54780
N 7.25614 2.81785 0.34737
C 7.11694 3.85816 1.16318
C 6.87090 5.20201 0.41426
C 6.26788 4.62612 -0.94468
C 6.92298 3.25618 -0.93980
C 4.75356 4.44655 -0.91143
C 8.19805 5.99369 0.16198
C 8.01710 7.45283 -0.26641
H 8.97561 8.44351 0.19961
N 8.03753 0.41581 -1.34864
C 7.66300 1.27235 -2.32912
C 7.98153 0.59588 -3.60490
C 8.39574 -0.79939 -3.28906
C 8.12550 -0.85339 -1.87505
C 7.92582 1.28098 -4.93580
C 8.93770 -1.91142 -4.13036
O 9.01283 -3.11376 -3.70221
C 9.30078 -1.56890 -5.51740
N 7.56819 -1.29010 1.10799
C 7.72986 -2.26528 0.20695
C 7.72995 -3.61630 0.85863
C 7.77766 -3.34815 2.43202
C 7.71052 -1.80113 2.40990
C 6.53159 -4.51762 0.53066
C 8.92251 -4.02545 3.22639
C 10.25110 -3.42523 2.82429
N 7.66171 1.16639 2.70915
C 7.52290 0.24861 3.76038
C 7.29449 1.03068 4.98930
C 7.29981 2.35709 4.56216
C 7.49155 2.39967 3.15159
C 7.05761 0.49507 6.28601
C 7.16354 3.74723 4.96565
O 7.07849 4.33213 6.04646
C 7.01500 4.63750 3.65371
C 7.95392 5.80526 3.78816
O 9.19030 5.63575 3.78453
O 7.26275 6.94835 3.66102
C 8.14001 8.14573 3.75512
H 6.58170 2.93418 -3.06412
H 8.11663 -2.93262 -1.59489
H 7.53572 -1.61792 4.51848
H 6.14735 5.86276 0.89209
H 6.59616 5.20005 -1.81103
H 4.35331 4.62270 0.08691
H 4.57603 3.41500 -1.21621
H 4.27300 5.06905 -1.66663
H 8.68866 5.59864 -0.72757
H 8.84426 5.95307 1.03953
H 6.99715 7.79614 -0.09108
H 8.13963 7.50891 -1.34810
H 7.42997 2.24848 -4.86776
H 7.27285 0.68535 -5.57342
H 8.91072 1.36576 -5.39526
H 8.42261 -1.18087 -6.03393
H 9.75280 -2.46549 -5.94007
H 10.03015 -0.75852 -5.50161
H 8.60828 -4.19088 0.56741
H 6.87019 -3.68699 2.93238
H 6.81209 -5.48108 0.10431
H 5.87181 -3.96973 -0.14149
H 5.86712 -4.71825 1.37068
H 8.96758 -5.08893 2.99419
H 8.81425 -3.92611 4.30651
H 10.50743 -3.98245 1.92394
H 10.99330 -3.58531 3.60706
H 10.14521 -2.37803 2.54032
H 7.65485 1.09106 6.97598
H 7.33007 -0.55896 6.33489
H 5.98307 0.65324 6.37662
H 5.97331 4.95322 3.60541
H 7.74082 8.77433 4.55120
H 8.19240 8.57103 2.75274
H 9.15386 7.97317 4.11798
