158

Mg 0.00000 0.00000 0.00000
C -0.21700 -2.21800 2.80100
C -1.25500 2.44200 2.02600
C -0.24500 1.85000 -2.56400
C 0.14600 -2.82400 -2.03700
N -0.61700 -0.00900 2.12600
C -0.59400 -0.90800 3.10500
C -0.93600 -0.30900 4.50200
C -1.77300 0.96400 4.03200
C -1.15500 1.16800 2.66000
C -3.26300 0.68500 3.86300
C 0.34500 0.11000 5.29900
C 0.12400 0.39700 6.78700
H 1.16800 0.03300 7.73300
N -0.18500 1.96100 -0.15200
C -0.70300 2.80000 0.77700
C -0.62000 4.15600 0.19300
C -0.18700 4.01500 -1.22500
C -0.21400 2.58300 -1.38000
C -0.88700 5.40600 0.97400
C 0.18100 5.01300 -2.27700
O 0.30300 4.69000 -3.50800
C 0.31000 6.41400 -1.83700
N -0.26500 -0.41300 -2.02900
C -0.27900 0.56900 -2.93700
C -0.19600 0.02400 -4.33200
C 0.12400 -1.53300 -4.18000
C 0.08600 -1.63200 -2.63500
C -1.45100 0.20500 -5.19700
C 1.37300 -2.07000 -4.92300
C 2.62600 -1.49000 -4.30600
N 0.15000 -2.14400 0.30300
C 0.17300 -3.13600 -0.68800
C 0.17300 -4.43800 0.00400
C 0.13300 -4.11100 1.35800
C 0.08300 -2.69500 1.50200
C 0.14900 -5.71500 -0.62300
C 0.09600 -4.62900 2.71600
O 0.20800 -5.74700 3.22100
C -0.25500 -3.42800 3.70100
C 0.71700 -3.48200 4.84800
O 1.93100 -3.25500 4.66900
O 0.03800 -3.55600 6.00300
C 0.94300 -3.58300 7.18300
H -1.85900 3.22000 2.49700
H -0.21800 2.45300 -3.47400
H 0.27600 -3.74700 -2.60500
H -1.55400 -0.94900 5.13200
H -1.58500 1.83100 4.66500
H -3.48400 -0.37700 3.96900
H -3.51100 1.02700 2.85800
H -3.85200 1.30100 4.54300
H 0.66900 1.09600 4.96600
H 1.13000 -0.63900 5.18900
H -0.84400 0.02600 7.12500
H 0.06200 1.47700 6.92100
H -1.34400 5.18600 1.93800
H -1.65100 5.96300 0.43200
H 0.00700 6.02000 1.08400
H -0.63500 6.74400 -1.40500
H 0.66500 6.97000 -2.70400
H 1.04800 6.46600 -1.03600
H 0.60800 0.50100 -4.89100
H -0.69200 -2.15600 -4.54700
H -1.26700 0.74000 -6.12900
H -2.20400 0.71400 -4.59600
H -1.96700 -0.72000 -5.45300
H 1.35600 -1.75900 -5.96700
H 1.45200 -3.15700 -4.90200
H 2.71400 -0.52200 -4.79800
H 3.48700 -2.12100 -4.52900
H 2.49500 -1.30300 -3.24000
H 0.86700 -6.33300 -0.08400
H 0.40400 -5.64200 -1.68000
H -0.89100 -5.99900 -0.46300
H -1.28300 -3.58100 4.02800
H 0.69800 -4.47800 7.75500
H 0.83300 -2.61900 7.68000
H 2.00000 -3.75400 6.97600
Mg 15.76628 1.41940 1.19766
C 15.20180 2.61910 4.52246
C 14.69630 4.46007 0.07848
C 15.82310 0.23527 -1.74363
C 15.69435 -1.80889 2.50863
N 15.06610 3.22916 2.26310
C 14.95388 3.58057 3.54024
C 14.62099 5.08958 3.73886
C 13.94351 5.38594 2.32634
C 14.63479 4.31840 1.49664
C 12.44041 5.12760 2.30537
C 15.90583 5.95885 3.95164
C 15.65637 7.37660 4.47426
H 16.61664 7.96155 5.39787
N 15.79667 2.33604 -0.55211
C 15.33336 3.57995 -0.82287
C 15.58335 3.80346 -2.26309
C 16.05610 2.51785 -2.84773
C 15.88364 1.62675 -1.72899
C 15.41902 5.13469 -2.92984
C 16.57025 2.14852 -4.20323
O 16.70711 0.93155 -4.57042
C 16.82920 3.26232 -5.13352
N 15.54146 -0.51277 0.44015
C 15.66855 -0.76016 -0.86814
C 15.74976 -2.23307 -1.13994
C 15.89635 -2.93817 0.28522
C 15.78544 -1.68116 1.18294
C 14.55716 -2.84191 -1.89029
C 17.11043 -3.88033 0.48209
C 18.39183 -3.07742 0.46102
N 15.67557 0.53427 3.17740
C 15.63338 -0.83245 3.48879
C 15.46719 -0.93764 4.95009
C 15.40723 0.38383 5.38823
C 15.50193 1.25882 4.26854
C 15.33330 -2.14632 5.68874
C 15.26045 1.25992 6.53922
O 15.23264 1.09156 7.75921
C 14.99919 2.73980 6.01240
C 15.91266 3.66122 6.77389
O 17.15014 3.60327 6.62343
O 15.18336 4.61533 7.37252
C 16.03179 5.58052 8.12133
H 14.15964 5.28552 -0.39328
H 15.95079 -0.21598 -2.72979
H 15.74863 -2.78302 2.99809
H 13.91355 5.29707 4.54191
H 14.19660 6.37837 1.95384
H 12.10388 4.65835 3.22974
H 12.27105 4.46338 1.45765
H 11.89299 6.04375 2.08222
H 16.34584 6.19318 2.98234
H 16.61076 5.45059 4.61048
H 14.64157 7.48732 4.85744
H 15.70391 8.06496 3.63040
H 14.90254 5.84457 -2.28495
H 14.74103 4.98825 -3.77043
H 16.36791 5.53413 -3.28815
H 15.90780 3.82440 -5.28730
H 17.27604 2.81529 -6.02084
H 17.53546 3.95212 -4.67057
H 16.62183 -2.47109 -1.74762
H 15.03442 -3.56181 0.52360
H 14.83452 -3.35138 -2.81345
H 13.83866 -2.04588 -2.08361
H 13.95675 -3.53853 -1.30578
H 17.16887 -4.59916 -0.33450
H 17.07276 -4.44149 1.41586
H 18.60191 -2.98212 -0.60370
H 19.18937 -3.62043 0.96924
H 18.23829 -2.07224 0.85410
H 15.95924 -2.03379 6.57390
H 15.63726 -3.00856 5.09565
H 14.26341 -2.13858 5.89643
H 13.94835 2.95830 6.19980
H 15.67024 5.59522 9.14958
H 16.00462 6.51584 7.56201
H 17.07221 5.29099 8.27315
