79

Mg 31.52336 2.84213 2.39941
C 29.39062 0.06493 1.61347
C 29.43252 4.78425 0.53094
C 33.61614 5.20830 2.69760
C 33.99983 0.53024 3.21668
N 29.68199 2.37038 1.26844
C 28.93207 1.29287 1.09258
C 27.57725 1.56083 0.38390
C 27.97380 2.91057 -0.39058
C 29.07531 3.41224 0.54091
C 28.58318 2.66163 -1.76026
C 26.40828 1.80489 1.40173
C 25.00553 1.76606 0.79137
H 23.91458 1.21250 1.58879
N 31.29731 4.79677 2.14087
C 30.38246 5.41446 1.36447
C 30.64626 6.85531 1.50063
C 31.89512 7.03092 2.29071
C 32.33894 5.65508 2.39151
C 29.71098 7.90674 0.97797
C 32.58362 8.23873 2.85050
O 33.78269 8.18248 3.29984
C 31.84712 9.50869 2.77148
N 33.58271 2.87570 2.68277
C 34.24101 4.03846 2.83297
C 35.65916 3.80639 3.29709
C 35.74297 2.25145 3.66138
C 34.32167 1.81630 3.24190
C 36.75425 4.15224 2.28835
C 36.23591 1.88865 5.08898
C 35.21883 2.33406 6.11491
N 31.64082 0.69406 2.59957
C 32.78198 -0.07108 2.92576
C 32.39484 -1.49344 2.82850
C 31.05101 -1.45705 2.42692
C 30.63611 -0.10762 2.26443
C 33.25428 -2.60646 3.04909
C 29.89215 -2.25354 2.09322
O 29.62129 -3.45298 2.13455
C 28.80205 -1.30630 1.42929
C 27.47763 -1.59370 2.08184
O 27.29712 -1.33733 3.28529
O 26.58029 -1.91837 1.13329
C 25.24795 -2.20152 1.73038
H 28.97309 5.43458 -0.21396
H 34.34826 5.98848 2.91849
H 34.68699 -0.25014 3.55060
H 27.27745 0.79923 -0.32592
H 27.14383 3.61202 -0.41208
H 28.75833 1.61105 -1.93839
H 29.51725 3.20796 -1.77035
H 27.96091 3.11422 -2.53760
H 26.43819 2.84942 1.73761
H 26.46541 1.11407 2.22035
H 25.00579 1.32978 -0.21491
H 24.66521 2.79306 0.63815
H 28.96310 7.47840 0.29929
H 30.30325 8.57444 0.34294
H 29.24977 8.49399 1.77489
H 31.61392 9.72684 1.73201
H 32.46319 10.23730 3.30201
H 30.88951 9.39066 3.29077
H 35.87542 4.38752 4.18513
H 36.44271 1.71587 3.00308
H 37.48471 4.88904 2.67258
H 36.28352 4.51863 1.38573
H 37.32867 3.30347 1.92116
H 37.16144 2.42293 5.31723
H 36.43396 0.83026 5.22158
H 35.46129 3.39106 6.26001
H 35.33556 1.77184 7.03920
H 34.20179 2.28184 5.70925
H 32.69427 -3.32024 3.63850
H 34.17147 -2.30703 3.55197
H 33.43539 -2.92046 2.01764
H 28.78732 -1.52274 0.36041
H 24.95591 -3.20300 1.39958
H 24.59827 -1.36033 1.42371
H 25.19426 -2.31047 2.80728
