79

Mg 7.88314 0.70970 0.59883
C 7.26507 3.22866 3.06562
C 6.97425 3.00458 -1.75713
C 7.98291 -1.61916 -1.55131
C 7.63796 -1.64556 3.15584
N 7.22498 2.81733 0.75813
C 7.08755 3.68355 1.75711
C 6.81084 5.14007 1.27822
C 6.19044 4.82017 -0.15523
C 6.86283 3.48428 -0.41828
C 4.67938 4.61352 -0.13277
C 8.12303 5.98602 1.15871
C 7.91580 7.49659 1.01525
H 8.87003 8.39720 1.64430
N 8.00563 0.78932 -1.37132
C 7.60242 1.80872 -2.16726
C 7.90613 1.38907 -3.55230
C 8.34369 -0.03393 -3.51100
C 8.10004 -0.35685 -2.12835
C 7.81742 2.31098 -4.72957
C 8.88423 -0.95940 -4.55477
O 8.98240 -2.21941 -4.36160
C 9.21753 -0.35672 -5.85812
N 7.60291 -1.35489 0.72763
C 7.76044 -2.14077 -0.34314
C 7.78956 -3.58998 0.04274
C 7.86261 -3.62141 1.63755
C 7.77548 -2.09903 1.90783
C 6.59693 -4.43257 -0.43020
C 9.03028 -4.41759 2.27244
C 10.34359 -3.73151 1.96977
N 7.69455 0.75830 2.76057
C 7.58661 -0.34268 3.62246
C 7.37080 0.19092 4.97995
C 7.35151 1.57386 4.80986
C 7.51688 1.88367 3.42966
C 7.16447 -0.58242 6.15630
C 7.20502 2.86113 5.46967
O 7.13234 3.23118 6.64239
C 7.02126 3.97950 4.35105
C 7.94761 5.11599 4.68809
O 9.18576 4.96984 4.63340
O 7.23980 6.25149 4.78898
C 8.10339 7.42365 5.09293
H 6.48689 3.56165 -2.55968
H 8.12264 -2.45157 -2.24413
H 7.63693 -2.31794 4.01570
H 6.08784 5.68773 1.88300
H 6.49553 5.55176 -0.90317
H 4.29524 4.59265 0.88699
H 4.50939 3.65490 -0.62332
H 4.17725 5.35908 -0.74984
H 8.60227 5.77293 0.20321
H 8.78563 5.79157 2.00279
H 6.89496 7.78462 1.26788
H 8.01782 7.75679 -0.03835
H 7.31068 3.24048 -4.47307
H 7.16051 1.83543 -5.45760
H 8.79261 2.49619 -5.18017
H 8.32522 0.10742 -6.27871
H 9.67308 -1.15067 -6.44885
H 9.93674 0.44775 -5.70155
H 8.66963 -4.08561 -0.36499
H 6.96881 -4.06257 2.07932
H 6.88177 -5.29423 -1.03446
H 5.91808 -3.77873 -0.97696
H 5.95051 -4.79794 0.36734
H 9.08457 -5.41768 1.84370
H 8.94053 -4.52463 3.35352
H 10.59046 -4.10555 0.97681
H 11.10194 -4.02395 2.69681
H 10.21926 -2.65142 1.88950
H 7.76661 -0.11722 6.93668
H 7.45111 -1.62241 6.00183
H 6.08985 -0.46117 6.29176
H 5.97495 4.28209 4.37922
H 7.71088 7.88512 5.99914
H 8.13206 8.03044 4.18773
H 9.12581 7.20214 5.40104
