158

Mg 0.00000 0.00000 0.00000
C -0.21700 -2.21800 2.80100
C -1.25500 2.44200 2.02600
C -0.24500 1.85000 -2.56400
C 0.14600 -2.82400 -2.03700
N -0.61700 -0.00900 2.12600
C -0.59400 -0.90800 3.10500
C -0.93600 -0.30900 4.50200
C -1.77300 0.96400 4.03200
C -1.15500 1.16800 2.66000
C -3.26300 0.68500 3.86300
C 0.34500 0.11000 5.29900
C 0.12400 0.39700 6.78700
H 1.16800 0.03300 7.73300
N -0.18500 1.96100 -0.15200
C -0.70300 2.80000 0.77700
C -0.62000 4.15600 0.19300
C -0.18700 4.01500 -1.22500
C -0.21400 2.58300 -1.38000
C -0.88700 5.40600 0.97400
C 0.18100 5.01300 -2.27700
O 0.30300 4.69000 -3.50800
C 0.31000 6.41400 -1.83700
N -0.26500 -0.41300 -2.02900
C -0.27900 0.56900 -2.93700
C -0.19600 0.02400 -4.33200
C 0.12400 -1.53300 -4.18000
C 0.08600 -1.63200 -2.63500
C -1.45100 0.20500 -5.19700
C 1.37300 -2.07000 -4.92300
C 2.62600 -1.49000 -4.30600
N 0.15000 -2.14400 0.30300
C 0.17300 -3.13600 -0.68800
C 0.17300 -4.43800 0.00400
C 0.13300 -4.11100 1.35800
C 0.08300 -2.69500 1.50200
C 0.14900 -5.71500 -0.62300
C 0.09600 -4.62900 2.71600
O 0.20800 -5.74700 3.22100
C -0.25500 -3.42800 3.70100
C 0.71700 -3.48200 4.84800
O 1.93100 -3.25500 4.66900
O 0.03800 -3.55600 6.00300
C 0.94300 -3.58300 7.18300
H -1.85900 3.22000 2.49700
H -0.21800 2.45300 -3.47400
H 0.27600 -3.74700 -2.60500
H -1.55400 -0.94900 5.13200
H -1.58500 1.83100 4.66500
H -3.48400 -0.37700 3.96900
H -3.51100 1.02700 2.85800
H -3.85200 1.30100 4.54300
H 0.66900 1.09600 4.96600
H 1.13000 -0.63900 5.18900
H -0.84400 0.02600 7.12500
H 0.06200 1.47700 6.92100
H -1.34400 5.18600 1.93800
H -1.65100 5.96300 0.43200
H 0.00700 6.02000 1.08400
H -0.63500 6.74400 -1.40500
H 0.66500 6.97000 -2.70400
H 1.04800 6.46600 -1.03600
H 0.60800 0.50100 -4.89100
H -0.69200 -2.15600 -4.54700
H -1.26700 0.74000 -6.12900
H -2.20400 0.71400 -4.59600
H -1.96700 -0.72000 -5.45300
H 1.35600 -1.75900 -5.96700
H 1.45200 -3.15700 -4.90200
H 2.71400 -0.52200 -4.79800
H 3.48700 -2.12100 -4.52900
H 2.49500 -1.30300 -3.24000
H 0.86700 -6.33300 -0.08400
H 0.40400 -5.64200 -1.68000
H -0.89100 -5.99900 -0.46300
H -1.28300 -3.58100 4.02800
H 0.69800 -4.47800 7.75500
H 0.83300 -2.61900 7.68000
H 2.00000 -3.75400 6.97600
Mg 31.53963 2.84519 2.39070
C 30.92263 5.91815 4.13863
C 30.72667 4.49101 -0.48419
C 31.63637 0.05488 0.88332
C 31.18680 1.19996 5.44265
N 30.92189 4.93380 2.00554
C 30.78165 6.02742 2.73948
C 30.55215 7.32627 1.92101
C 29.94785 6.66651 0.58743
C 30.59616 5.28686 0.68187
C 28.43925 6.48954 0.63389
C 31.88983 8.09213 1.62765
C 31.71238 9.51906 1.10408
H 32.67905 10.53508 1.51118
N 31.70720 2.43578 0.45605
C 31.34916 3.22681 -0.57709
C 31.65628 2.46127 -1.79520
C 32.07138 1.08937 -1.39485
C 31.79506 1.13474 0.02701
C 31.61966 3.06737 -3.16805
C 32.61371 -0.07544 -2.16641
O 32.68143 -1.24888 -1.65525
C 32.97606 0.17845 -3.56846
N 31.21936 0.89015 3.02125
C 31.37690 -0.14349 2.17585
C 31.36435 -1.45996 2.91554
C 31.40798 -1.08061 4.46852
C 31.34540 0.45841 4.35494
C 30.16086 -2.36294 2.64611
C 32.54549 -1.71358 5.31592
C 33.88270 -1.15749 4.88231
N 31.31416 3.43288 4.45754
C 31.15724 2.58245 5.57389
C 30.92552 3.44602 6.74989
C 30.94090 4.74835 6.22818
C 31.14617 4.69889 4.82286
C 30.68877 2.99538 8.07918
C 30.81957 6.15318 6.54511
O 30.72425 6.80405 7.58483
C 30.67614 6.96699 5.18735
C 31.62077 8.13614 5.24458
O 32.85076 7.95425 5.27031
O 30.92894 9.27200 5.04070
C 31.82440 10.45885 5.07730
H 30.27292 4.84773 -1.40926
H 31.77151 -0.92998 0.43025
H 31.16517 0.76814 6.44551
H 29.83565 8.01468 2.35285
H 30.29067 7.18883 -0.30196
H 28.03530 6.72874 1.60638
H 28.25748 5.45010 0.39393
H 27.96687 7.07004 -0.16373
H 32.38214 7.63364 0.76038
H 32.52162 8.10123 2.49448
H 30.68804 9.88515 1.24423
H 31.84785 9.51022 0.01983
H 31.12044 4.04419 -3.16332
H 30.96960 2.43308 -3.78039
H 32.60639 3.11581 -3.63355
H 32.10348 0.54021 -4.10715
H 33.42691 -0.74919 -3.92636
H 33.71963 0.98274 -3.59749
H 32.24070 -2.04832 2.67276
H 30.49219 -1.39467 4.99056
H 30.44253 -3.36651 2.27516
H 29.51169 -1.86441 1.93858
H 29.49972 -2.51744 3.49713
H 32.58837 -2.79233 5.14676
H 32.42602 -1.55946 6.38315
H 34.13646 -1.77355 4.01446
H 34.61954 -1.26979 5.67509
H 33.78448 -0.12258 4.53452
H 31.27846 3.62583 8.73132
H 30.95097 1.94590 8.19582
H 29.61031 3.15953 8.15160
H 29.63609 7.28469 5.10414
H 31.41996 11.14109 5.83140
H 31.87165 10.82966 4.03614
H 32.83413 10.31377 5.44317
