79

Mg 13.14642 1.18263 0.99094
C 12.76409 4.40935 -0.53260
C 12.61957 -0.17140 -2.09509
C 13.02944 -1.67133 2.37248
C 12.50691 2.70893 4.05805
N 12.75440 2.10341 -0.98156
C 12.69259 3.34065 -1.45032
C 12.62651 3.43952 -2.99803
C 12.01571 1.98659 -3.30594
C 12.52016 1.24268 -2.07110
C 10.49639 1.95751 -3.29355
C 14.04427 3.61586 -3.64678
C 14.03040 4.02759 -5.12057
H 15.07499 4.92748 -5.60171
N 13.35264 -0.63085 0.21163
C 13.11750 -0.99941 -1.06514
C 13.39764 -2.44234 -1.12546
C 13.65834 -2.92775 0.25698
C 13.32927 -1.74032 1.01974
C 13.47788 -3.20235 -2.41750
C 14.11445 -4.24679 0.80315
O 14.04477 -4.51806 2.05391
C 14.55779 -5.24562 -0.18034
N 12.60886 0.56166 2.90086
C 12.69841 -0.73149 3.25816
C 12.52534 -0.89874 4.74895
C 12.54193 0.58226 5.35222
C 12.63638 1.38945 4.03886
C 11.25074 -1.61521 5.19445
C 13.57535 0.87342 6.47469
C 14.97772 0.81352 5.91331
N 12.89478 3.20884 1.69749
C 12.60861 3.62275 3.01691
C 12.41484 5.08687 2.98154
C 12.58031 5.42276 1.62940
C 12.83765 4.24808 0.87215
C 12.07996 5.90881 4.09437
C 12.58528 6.50258 0.66884
O 12.51176 7.72867 0.73978
C 12.57920 5.87858 -0.79300
C 13.63148 6.58431 -1.60366
O 14.83537 6.46937 -1.31376
O 13.06421 7.09819 -2.71023
C 14.07021 7.79869 -3.55230
H 12.24192 -0.70331 -2.96879
H 13.08530 -2.61698 2.91663
H 12.40128 3.27166 4.98802
H 11.96424 4.20904 -3.37620
H 12.44493 1.56101 -4.20927
H 10.07815 2.89631 -2.96208
H 10.22295 1.16068 -2.61433
H 10.11703 1.66008 -4.27536
H 14.52435 2.63240 -3.73097
H 14.63747 4.30960 -3.08335
H 13.04229 4.37970 -5.44089
H 14.20907 3.13895 -5.73083
H 13.07779 -2.61657 -3.25427
H 12.79425 -4.05381 -2.33061
H 14.48297 -3.57584 -2.62477
H 13.74823 -5.45080 -0.87674
H 14.92925 -6.08827 0.40604
H 15.37770 -4.81793 -0.76808
H 13.34860 -1.46027 5.17325
H 11.57880 0.84495 5.81395
H 11.44705 -2.50864 5.81679
H 10.68380 -1.88305 4.31276
H 10.54295 -0.99849 5.74572
H 13.51846 0.10569 7.25027
H 13.42764 1.83261 6.95959
H 15.20509 -0.25656 5.93093
H 15.66645 1.37379 6.54244
H 14.99664 1.13733 4.86620
H 12.70154 6.79180 4.02747
H 12.23221 5.38489 5.03569
H 11.02091 6.08943 3.89174
H 11.57994 6.02151 -1.20605
H 13.70426 8.81868 -3.70525
H 14.19687 7.16866 -4.45272
H 15.04467 7.98667 -3.11694
