79

Mg 13.13603 1.19131 1.00390
C 15.28116 0.72315 3.84261
C 10.49821 1.04762 3.16164
C 11.20625 1.15018 -1.51437
C 15.79627 0.16605 -1.00052
N 13.03098 0.91808 3.19628
C 13.91399 0.81219 4.17782
C 13.30288 0.88185 5.60304
C 11.81058 0.40636 5.24831
C 11.75469 0.84654 3.78688
C 11.63119 -1.10178 5.30008
C 13.31792 2.33719 6.18936
C 13.02326 2.42976 7.68815
H 13.71692 3.44781 8.47230
N 11.19822 1.59618 0.86414
C 10.27532 1.50612 1.84466
C 8.99590 1.89209 1.22962
C 9.21011 2.05829 -0.23366
C 10.57152 1.57723 -0.35709
C 7.75147 2.14438 2.03035
C 8.33035 2.55450 -1.34091
O 8.64132 2.38950 -2.57335
C 7.04975 3.15599 -0.94122
N 13.38208 0.52575 -0.95029
C 12.40247 0.67340 -1.85941
C 12.90234 0.37629 -3.25305
C 14.48942 0.23244 -3.11866
C 14.62912 0.38984 -1.58860
C 12.33161 -0.87993 -3.91076
C 15.35816 1.13505 -4.03695
C 15.20079 2.58381 -3.63478
N 15.22552 0.73293 1.30718
C 16.15318 0.29808 0.33536
C 17.41768 0.00520 1.04083
C 17.12882 0.27009 2.38801
C 15.77370 0.67849 2.51590
C 18.61033 -0.48793 0.44039
C 17.65908 0.28688 3.73234
O 18.77227 0.12052 4.22922
C 16.45052 0.45943 4.75018
C 16.82516 1.52916 5.73903
O 16.97874 2.70640 5.36873
O 16.72748 1.03107 6.98512
C 17.07859 2.05809 8.00186
H 9.59552 0.79051 3.71655
H 10.61535 1.22259 -2.43038
H 16.70091 -0.06421 -1.56734
H 13.74803 0.20433 6.32179
H 11.07358 0.94587 5.83748
H 12.56956 -1.61414 5.45204
H 11.19840 -1.37939 4.34789
H 10.88826 -1.36724 6.05766
H 12.45693 2.89140 5.79403
H 14.24823 2.82546 5.97316
H 13.08935 1.45284 8.18233
H 11.97971 2.72625 7.81899
H 7.85581 1.78245 3.06065
H 6.96237 1.51768 1.60090
H 7.43227 3.18819 1.99504
H 6.47133 2.43046 -0.37422
H 6.60229 3.53070 -1.86386
H 7.25274 3.99412 -0.26524
H 12.67944 1.19473 -3.92652
H 14.82837 -0.78525 -3.36212
H 11.83676 -0.67891 -4.87967
H 11.64009 -1.34302 -3.21946
H 13.05181 -1.67729 -4.08603
H 15.01699 1.06160 -5.07250
H 16.41157 0.87584 -4.02578
H 14.28190 2.88379 -4.14736
H 16.05191 3.17037 -3.97477
H 15.02224 2.67594 -2.55715
H 19.42989 0.07308 0.86946
H 18.58175 -0.38616 -0.64247
H 18.56928 -1.53398 0.75560
H 16.28817 -0.50523 5.23252
H 17.87796 1.63646 8.61905
H 16.12958 2.31129 8.51080
H 17.54228 2.97263 7.65106
