79

Mg 7.88127 0.71421 0.60824
C 5.84616 -1.79466 2.17122
C 5.25636 2.86082 0.97779
C 9.47475 2.81035 -1.16220
C 9.85810 -1.86793 -0.64490
N 5.86492 0.44997 1.47816
C 5.22516 -0.53038 2.09781
C 3.87600 -0.11206 2.74151
C 3.55458 1.16271 1.81927
C 4.97969 1.54369 1.42358
C 2.78544 0.81309 0.55613
C 4.03349 0.29450 4.24880
C 2.71899 0.41632 5.02274
H 2.69875 0.01743 6.42736
N 7.64902 2.67620 0.42052
C 6.52090 3.38601 0.63218
C 6.86545 4.78588 0.33925
C 8.24360 4.82236 -0.22118
C 8.50719 3.40466 -0.36523
C 5.95532 5.93367 0.66741
C 9.16609 5.94728 -0.58138
O 10.22604 5.75296 -1.27533
C 8.74367 7.29638 -0.17767
N 9.31306 0.49978 -0.88385
C 9.88338 1.57546 -1.45444
C 11.07318 1.18003 -2.29610
C 11.33057 -0.36574 -1.97683
C 10.13789 -0.63102 -1.03210
C 10.91292 1.36805 -3.80453
C 12.75497 -0.75757 -1.49700
C 13.01878 -0.16976 -0.12943
N 7.99212 -1.42750 0.87059
C 8.87892 -2.32054 0.23017
C 8.49507 -3.68610 0.64287
C 7.38834 -3.49270 1.48326
C 7.09012 -2.10602 1.57094
C 9.11266 -4.89176 0.20574
C 6.39799 -4.14708 2.30768
O 6.20669 -5.30299 2.68321
C 5.27729 -3.08646 2.68917
C 5.01839 -3.19544 4.16687
O 5.90313 -2.89458 4.98743
O 3.70832 -3.42627 4.36884
C 3.40009 -3.53119 5.81998
H 4.42101 3.54759 0.83843
H 10.12405 3.49879 -1.70804
H 10.48573 -2.72006 -0.91443
H 3.08332 -0.84513 2.65193
H 3.09258 1.96040 2.39512
H 2.68447 -0.25445 0.42839
H 3.35212 1.23998 -0.26099
H 1.81784 1.32305 0.55064
H 4.38152 1.33397 4.30480
H 4.69189 -0.38144 4.75895
H 1.87900 -0.03689 4.48240
H 2.45375 1.47409 5.09190
H 4.94535 5.58704 0.91880
H 5.82295 6.51045 -0.25436
H 6.36537 6.58918 1.43867
H 7.77724 7.52056 -0.62291
H 9.57347 7.95418 -0.44338
H 8.59997 7.30761 0.90853
H 11.95159 1.74792 -2.01502
H 11.17481 -0.99653 -2.86434
H 11.69125 2.01694 -4.24862
H 9.92729 1.77130 -3.99543
H 10.90266 0.44780 -4.38611
H 13.50922 -0.33677 -2.16646
H 12.91882 -1.82940 -1.46044
H 13.33672 0.85207 -0.35718
H 13.80476 -0.72331 0.38034
H 12.09427 -0.10458 0.45596
H 9.22427 -5.51915 1.08006
H 10.07159 -4.69741 -0.27013
H 8.36449 -5.24641 -0.50822
H 4.39009 -3.32096 2.09971
H 2.90581 -4.49558 5.97270
H 2.81978 -2.62278 6.06857
H 4.23575 -3.61095 6.50537
