79

Mg 31.53917 2.84706 2.39461
C 30.94677 4.46559 5.54238
C 30.51088 5.72961 0.88858
C 31.61938 1.30920 -0.37956
C 31.41484 -0.19387 4.09256
N 30.84382 4.77925 3.21643
C 30.71891 5.29966 4.42800
C 30.40593 6.81995 4.44586
C 29.74023 6.94553 2.98986
C 30.42965 5.76812 2.30351
C 28.24244 6.68874 2.98874
C 31.70260 7.69582 4.56209
C 31.45592 9.16887 4.89532
H 32.41788 9.85980 5.74955
N 31.60077 3.54801 0.53896
C 31.16017 4.74843 0.10752
C 31.41368 4.77304 -1.34137
C 31.88861 3.42543 -1.75743
C 31.69732 2.68658 -0.52552
C 31.27827 6.01734 -2.17011
C 32.41438 2.88727 -3.05364
O 32.54406 1.62843 -3.25693
C 32.68472 3.87236 -4.11099
N 31.30975 0.84443 1.88549
C 31.44362 0.43522 0.61170
C 31.51079 -1.07099 0.52683
C 31.63774 -1.58116 2.03719
C 31.52738 -0.22708 2.77180
C 30.31778 -1.75345 -0.14202
C 32.84071 -2.50612 2.36883
C 34.13406 -1.73185 2.25410
N 31.42299 2.22229 4.45961
C 31.35635 0.89897 4.94794
C 31.17292 0.98365 6.41136
C 31.12208 2.36131 6.67209
C 31.24358 3.08395 5.45450
C 31.02877 -0.12132 7.29701
C 30.98261 3.36841 7.69922
O 30.93274 3.35441 8.92846
C 30.73599 4.77376 6.99882
C 31.65081 5.77998 7.64159
O 32.88452 5.68045 7.52059
O 30.91788 6.80824 8.10620
C 31.78193 7.83772 8.74292
H 29.99288 6.50095 0.31798
H 31.75322 0.72963 -1.29589
H 31.46519 -1.09627 4.70559
H 29.69862 7.12922 5.20602
H 30.01480 7.88100 2.50936
H 27.89155 6.34698 3.95115
H 28.07435 5.93160 2.23407
H 27.70754 7.57932 2.64655
H 32.15384 7.80128 3.56710
H 32.38499 7.27367 5.27397
H 30.43246 9.34598 5.24763
H 31.52602 9.74985 3.97252
H 30.75436 6.81039 -1.62241
H 30.60967 5.77538 -3.00336
H 32.23353 6.36175 -2.57204
H 31.77193 4.41793 -4.33822
H 33.13779 3.30733 -4.92790
H 33.40346 4.60636 -3.72983
H 32.38632 -1.38851 -0.02611
H 30.76376 -2.17577 2.34123
H 30.60329 -2.38474 -1.00460
H 29.61410 -0.98993 -0.44600
H 29.71347 -2.37593 0.51564
H 32.90210 -3.32199 1.64444
H 32.78167 -2.95470 3.35487
H 34.35144 -1.77192 1.18255
H 34.92005 -2.21084 2.83448
H 33.98748 -0.67894 2.52157
H 31.63963 0.09275 8.16391
H 31.32544 -1.05365 6.82107
H 29.95264 -0.08101 7.48562
H 29.68470 5.02894 7.13758
H 31.40557 7.98624 9.75977
H 31.75646 8.71065 8.06387
H 32.81537 7.57485 8.93619
