158

Mg 0.00000 0.00000 0.00000
C -0.21700 -2.21800 2.80100
C -1.25500 2.44200 2.02600
C -0.24500 1.85000 -2.56400
C 0.14600 -2.82400 -2.03700
N -0.61700 -0.00900 2.12600
C -0.59400 -0.90800 3.10500
C -0.93600 -0.30900 4.50200
C -1.77300 0.96400 4.03200
C -1.15500 1.16800 2.66000
C -3.26300 0.68500 3.86300
C 0.34500 0.11000 5.29900
C 0.12400 0.39700 6.78700
H 1.16800 0.03300 7.73300
N -0.18500 1.96100 -0.15200
C -0.70300 2.80000 0.77700
C -0.62000 4.15600 0.19300
C -0.18700 4.01500 -1.22500
C -0.21400 2.58300 -1.38000
C -0.88700 5.40600 0.97400
C 0.18100 5.01300 -2.27700
O 0.30300 4.69000 -3.50800
C 0.31000 6.41400 -1.83700
N -0.26500 -0.41300 -2.02900
C -0.27900 0.56900 -2.93700
C -0.19600 0.02400 -4.33200
C 0.12400 -1.53300 -4.18000
C 0.08600 -1.63200 -2.63500
C -1.45100 0.20500 -5.19700
C 1.37300 -2.07000 -4.92300
C 2.62600 -1.49000 -4.30600
N 0.15000 -2.14400 0.30300
C 0.17300 -3.13600 -0.68800
C 0.17300 -4.43800 0.00400
C 0.13300 -4.11100 1.35800
C 0.08300 -2.69500 1.50200
C 0.14900 -5.71500 -0.62300
C 0.09600 -4.62900 2.71600
O 0.20800 -5.74700 3.22100
C -0.25500 -3.42800 3.70100
C 0.71700 -3.48200 4.84800
O 1.93100 -3.25500 4.66900
O 0.03800 -3.55600 6.00300
C 0.94300 -3.58300 7.18300
H -1.85900 3.22000 2.49700
H -0.21800 2.45300 -3.47400
H 0.27600 -3.74700 -2.60500
H -1.55400 -0.94900 5.13200
H -1.58500 1.83100 4.66500
H -3.48400 -0.37700 3.96900
H -3.51100 1.02700 2.85800
H -3.85200 1.30100 4.54300
H 0.66900 1.09600 4.96600
H 1.13000 -0.63900 5.18900
H -0.84400 0.02600 7.12500
H 0.06200 1.47700 6.92100
H -1.34400 5.18600 1.93800
H -1.65100 5.96300 0.43200
H 0.00700 6.02000 1.08400
H -0.63500 6.74400 -1.40500
H 0.66500 6.97000 -2.70400
H 1.04800 6.46600 -1.03600
H 0.60800 0.50100 -4.89100
H -0.69200 -2.15600 -4.54700
H -1.26700 0.74000 -6.12900
H -2.20400 0.71400 -4.59600
H -1.96700 -0.72000 -5.45300
H 1.35600 -1.75900 -5.96700
H 1.45200 -3.15700 -4.90200
H 2.71400 -0.52200 -4.79800
H 3.48700 -2.12100 -4.52900
H 2.49500 -1.30300 -3.24000
H 0.86700 -6.33300 -0.08400
H 0.40400 -5.64200 -1.68000
H -0.89100 -5.99900 -0.46300
H -1.28300 -3.58100 4.02800
H 0.69800 -4.47800 7.75500
H 0.83300 -2.61900 7.68000
H 2.00000 -3.75400 6.97600
Mg 8.92559 0.80435 0.68482
C 9.84510 3.25953 3.13547
C 8.64979 -1.43138 3.24609
C 8.55393 -1.48244 -1.48309
C 10.35897 2.87467 -1.72451
N 9.23267 1.00759 2.86580
C 9.52092 2.00372 3.68980
C 9.37993 1.65413 5.19561
C 9.57044 0.06295 5.09192
C 9.08937 -0.14787 3.65777
C 11.02271 -0.37616 5.17798
C 7.96674 2.02747 5.76614
C 7.86195 2.00090 7.29260
H 7.00575 2.98523 7.94872
N 8.17598 -1.02457 0.86292
C 8.12450 -1.77750 1.98172
C 7.49925 -3.04808 1.58317
C 7.33605 -3.04688 0.10396
C 8.05025 -1.83348 -0.23906
C 7.04869 -4.07992 2.57601
C 6.66126 -3.98942 -0.84603
O 6.84716 -3.91708 -2.11214
C 5.85033 -5.05791 -0.24418
N 9.57325 0.60619 -1.28078
C 9.22849 -0.46435 -2.01767
C 9.57401 -0.25881 -3.47327
C 10.00384 1.27635 -3.60017
C 9.91406 1.68794 -2.11426
C 10.68978 -1.14663 -4.02392
C 9.24814 2.13416 -4.65172
C 7.80567 2.30929 -4.23458
N 9.75931 2.79715 0.64339
C 10.32807 3.46093 -0.46566
C 10.86147 4.74855 0.02420
C 10.58430 4.73432 1.39951
C 9.94279 3.51457 1.74617
C 11.54480 5.71889 -0.76168
C 10.69805 5.46922 2.63873
O 11.07443 6.59925 2.94713
C 10.33803 4.49283 3.84017
C 9.37910 5.21020 4.75031
O 8.23928 5.51274 4.35548
O 9.88393 5.22672 5.99740
C 8.96350 5.91803 6.93907
H 8.75510 -2.26386 3.94233
H 8.35275 -2.19069 -2.29019
H 10.73299 3.61873 -2.43103
H 10.14487 2.07935 5.83422
H 8.92298 -0.45881 5.79187
H 11.69897 0.46575 5.17605
H 11.19319 -1.00036 4.31059
H 11.17021 -1.02240 6.04801
H 7.25686 1.22883 5.51516
H 7.64790 2.98345 5.39863
H 8.84743 1.96781 7.77290
H 7.38650 1.06357 7.59153
H 7.45024 -3.87766 3.57664
H 7.51216 -5.02848 2.28398
H 5.96398 -4.20599 2.58960
H 6.47482 -5.65881 0.41262
H 5.37744 -5.57327 -1.08242
H 5.08018 -4.59966 0.38630
H 8.71155 -0.43557 -4.10415
H 11.05912 1.38122 -3.89209
H 10.37799 -1.74694 -4.89941
H 11.03912 -1.78955 -3.22695
H 11.59861 -0.62096 -4.31185
H 9.23210 1.62237 -5.61710
H 9.69241 3.11080 -4.81232
H 7.33235 1.38941 -4.59080
H 7.37272 3.18625 -4.71159
H 7.71115 2.32713 -3.14261
H 11.15140 6.68502 -0.47476
H 11.41132 5.53443 -1.82560
H 12.57436 5.54038 -0.44013
H 11.27014 4.23846 4.34616
H 9.53773 6.71683 7.41851
H 8.55745 5.12572 7.59566
H 8.13819 6.47690 6.51365
