158

Mg 0.00000 0.00000 0.00000
C -0.21700 -2.21800 2.80100
C -1.25500 2.44200 2.02600
C -0.24500 1.85000 -2.56400
C 0.14600 -2.82400 -2.03700
N -0.61700 -0.00900 2.12600
C -0.59400 -0.90800 3.10500
C -0.93600 -0.30900 4.50200
C -1.77300 0.96400 4.03200
C -1.15500 1.16800 2.66000
C -3.26300 0.68500 3.86300
C 0.34500 0.11000 5.29900
C 0.12400 0.39700 6.78700
H 1.16800 0.03300 7.73300
N -0.18500 1.96100 -0.15200
C -0.70300 2.80000 0.77700
C -0.62000 4.15600 0.19300
C -0.18700 4.01500 -1.22500
C -0.21400 2.58300 -1.38000
C -0.88700 5.40600 0.97400
C 0.18100 5.01300 -2.27700
O 0.30300 4.69000 -3.50800
C 0.31000 6.41400 -1.83700
N -0.26500 -0.41300 -2.02900
C -0.27900 0.56900 -2.93700
C -0.19600 0.02400 -4.33200
C 0.12400 -1.53300 -4.18000
C 0.08600 -1.63200 -2.63500
C -1.45100 0.20500 -5.19700
C 1.37300 -2.07000 -4.92300
C 2.62600 -1.49000 -4.30600
N 0.15000 -2.14400 0.30300
C 0.17300 -3.13600 -0.68800
C 0.17300 -4.43800 0.00400
C 0.13300 -4.11100 1.35800
C 0.08300 -2.69500 1.50200
C 0.14900 -5.71500 -0.62300
C 0.09600 -4.62900 2.71600
O 0.20800 -5.74700 3.22100
C -0.25500 -3.42800 3.70100
C 0.71700 -3.48200 4.84800
O 1.93100 -3.25500 4.66900
O 0.03800 -3.55600 6.00300
C 0.94300 -3.58300 7.18300
H -1.85900 3.22000 2.49700
H -0.21800 2.45300 -3.47400
H 0.27600 -3.74700 -2.60500
H -1.55400 -0.94900 5.13200
H -1.58500 1.83100 4.66500
H -3.48400 -0.37700 3.96900
H -3.51100 1.02700 2.85800
H -3.85200 1.30100 4.54300
H 0.66900 1.09600 4.96600
H 1.13000 -0.63900 5.18900
H -0.84400 0.02600 7.12500
H 0.06200 1.47700 6.92100
H -1.34400 5.18600 1.93800
H -1.65100 5.96300 0.43200
H 0.00700 6.02000 1.08400
H -0.63500 6.74400 -1.40500
H 0.66500 6.97000 -2.70400
H 1.04800 6.46600 -1.03600
H 0.60800 0.50100 -4.89100
H -0.69200 -2.15600 -4.54700
H -1.26700 0.74000 -6.12900
H -2.20400 0.71400 -4.59600
H -1.96700 -0.72000 -5.45300
H 1.35600 -1.75900 -5.96700
H 1.45200 -3.15700 -4.90200
H 2.71400 -0.52200 -4.79800
H 3.48700 -2.12100 -4.52900
H 2.49500 -1.30300 -3.24000
H 0.86700 -6.33300 -0.08400
H 0.40400 -5.64200 -1.68000
H -0.89100 -5.99900 -0.46300
H -1.28300 -3.58100 4.02800
H 0.69800 -4.47800 7.75500
H 0.83300 -2.61900 7.68000
H 2.00000 -3.75400 6.97600
Mg 7.88314 0.70970 0.59883
C 7.46503 0.12966 4.10610
C 6.67831 3.85807 1.12723
C 7.81437 1.09420 -2.54824
C 7.96297 -2.74993 0.18625
N 7.19445 1.74591 2.42985
C 7.14106 1.43238 3.72059
C 6.78081 2.64088 4.63554
C 6.02219 3.54855 3.56660
C 6.69557 3.04763 2.30107
C 4.52716 3.26068 3.47442
C 8.05254 3.36032 5.19840
C 7.79505 4.33679 6.34973
H 8.78763 4.44934 7.40777
N 7.79752 2.35649 -0.48911
C 7.28899 3.55306 -0.10845
C 7.45664 4.45476 -1.26841
C 7.93038 3.63448 -2.41767
C 7.84013 2.30739 -1.86442
C 7.22338 5.93291 -1.20201
C 8.38132 3.98935 -3.79928
O 8.52952 3.10821 -4.71373
C 8.56221 5.42457 -4.08294
N 7.66785 -0.62631 -0.99062
C 7.73178 -0.20605 -2.25880
C 7.83600 -1.35974 -3.21173
C 8.07572 -2.65652 -2.31138
C 7.98049 -1.99483 -0.91447
C 6.62126 -1.58782 -4.12190
C 9.32213 -3.51754 -2.63625
C 10.57975 -2.74360 -2.30989
N 7.91992 -1.02325 1.90519
C 7.92909 -2.37105 1.51786
C 7.84321 -3.17539 2.75063
C 7.77287 -2.23335 3.77507
C 7.78586 -0.92362 3.21583
C 7.77943 -4.59526 2.81653
C 7.66494 -2.02871 5.21045
O 7.70603 -2.76538 6.19692
C 7.33854 -0.49261 5.47443
C 8.26726 -0.00980 6.55503
O 9.49612 0.07128 6.35331
O 7.54659 0.50144 7.56489
C 8.40859 1.02554 8.65779
H 6.09658 4.78193 1.13218
H 7.90115 1.18087 -3.63332
H 8.06787 -3.83549 0.14127
H 6.11180 2.40145 5.46230
H 6.22985 4.60845 3.71225
H 4.25208 2.38849 4.06733
H 4.33015 3.08007 2.41751
H 3.94554 4.14352 3.74104
H 8.43452 4.05360 4.44906
H 8.80407 2.63184 5.50477
H 6.79946 4.20038 6.77293
H 7.78031 5.34804 5.94307
H 6.72384 6.21838 -0.27707
H 6.50581 6.17750 -1.98494
H 8.14150 6.50051 -1.35445
H 7.61994 5.94631 -3.91420
H 8.97271 5.48257 -5.09040
H 9.27417 5.83871 -3.36842
H 8.68046 -1.23331 -3.88799
H 7.24379 -3.35829 -2.37524
H 6.86226 -1.57528 -5.18513
H 5.87348 -0.83263 -3.88147
H 6.07057 -2.50775 -3.92724
H 9.35557 -3.75002 -3.70010
H 9.34823 -4.46036 -2.08976
H 10.73068 -2.13696 -3.20210
H 11.41663 -3.42543 -2.15521
H 10.42166 -2.06103 -1.47467
H 8.44827 -4.89350 3.62380
H 8.07345 -5.04917 1.87043
H 6.72219 -4.73983 3.03832
H 6.29386 -0.44210 5.77976
H 8.10171 0.52547 9.57647
H 8.32804 2.11211 8.62197
H 9.46262 0.74888 8.61511
