79

Mg 15.76628 1.41940 1.19766
C 15.89129 0.72723 -2.31196
C 15.14741 -1.90145 1.67932
C 15.20204 2.07823 4.24794
C 15.26480 4.76730 0.36956
N 15.56970 -0.27263 -0.21621
C 15.69887 -0.41498 -1.53159
C 15.68609 -1.90201 -1.99630
C 14.89249 -2.54200 -0.77049
C 15.25202 -1.53240 0.30532
C 13.37878 -2.54193 -0.95799
C 17.12843 -2.49888 -2.11928
C 17.22329 -3.82833 -2.87355
H 18.39213 -4.08131 -3.70251
N 15.73270 0.23582 2.77907
C 15.47984 -1.09506 2.78932
C 15.57104 -1.51638 4.20383
C 15.70992 -0.28913 5.03610
C 15.52506 0.73879 4.04383
C 15.57210 -2.95035 4.63683
C 15.95781 -0.07657 6.49606
O 15.81219 1.06576 7.05145
C 16.29417 -1.27452 7.28652
N 15.08146 3.13058 2.17772
C 14.98216 3.16902 3.51101
C 14.74704 4.56710 4.00094
C 14.94889 5.51900 2.73489
C 15.19881 4.43240 1.66012
C 13.37104 4.83457 4.62632
C 15.97898 6.66767 2.87587
C 17.37395 6.09488 2.99012
N 15.77812 2.60162 -0.62258
C 15.52155 3.97555 -0.73727
C 15.53702 4.29929 -2.17568
C 15.78671 3.08017 -2.80279
C 15.89276 2.05495 -1.81995
C 15.27862 5.57736 -2.74507
C 15.96410 2.40089 -4.07596
O 16.06976 2.76768 -5.24719
C 15.91774 0.83039 -3.81669
C 17.08259 0.21520 -4.54331
O 18.25522 0.44951 -4.18637
O 16.63356 -0.72981 -5.38347
C 17.74168 -1.40039 -6.11460
H 14.71728 -2.87209 1.93386
H 15.10833 2.36968 5.29614
H 15.20005 5.80602 0.04044
H 15.14522 -2.08323 -2.92529
H 15.27546 -3.52799 -0.50803
H 13.08758 -1.98397 -1.84782
H 12.97463 -2.06886 -0.06280
H 12.98877 -3.56010 -0.96090
H 17.46998 -2.81923 -1.13501
H 17.80723 -1.77686 -2.57452
H 16.30860 -4.03763 -3.42892
H 17.28549 -4.63302 -2.14088
H 15.29033 -3.61518 3.82127
H 14.77167 -3.06281 5.36784
H 16.52214 -3.24330 5.08397
H 15.48300 -1.99842 7.20574
H 16.52504 -0.91781 8.28966
H 17.17357 -1.74962 6.85077
H 15.46864 4.83835 4.77045
H 14.02504 6.02366 2.45117
H 13.42045 5.21795 5.64577
H 12.79599 3.91002 4.58364
H 12.73450 5.51212 4.05785
H 15.79034 7.23659 3.78565
H 15.96246 7.36571 2.03878
H 17.45276 5.85551 4.04999
H 18.11599 6.84024 2.70199
H 17.46694 5.15998 2.43713
H 16.02803 5.72180 -3.52320
H 15.33193 6.36407 -1.99284
H 14.26728 5.42916 -3.12334
H 14.96190 0.47711 -4.20229
H 17.53132 -1.29904 -7.17935
H 17.81607 -2.40884 -5.70729
H 18.71971 -0.92203 -6.05161
