158

Mg 0.00000 0.00000 0.00000
C -0.21700 -2.21800 2.80100
C -1.25500 2.44200 2.02600
C -0.24500 1.85000 -2.56400
C 0.14600 -2.82400 -2.03700
N -0.61700 -0.00900 2.12600
C -0.59400 -0.90800 3.10500
C -0.93600 -0.30900 4.50200
C -1.77300 0.96400 4.03200
C -1.15500 1.16800 2.66000
C -3.26300 0.68500 3.86300
C 0.34500 0.11000 5.29900
C 0.12400 0.39700 6.78700
H 1.16800 0.03300 7.73300
N -0.18500 1.96100 -0.15200
C -0.70300 2.80000 0.77700
C -0.62000 4.15600 0.19300
C -0.18700 4.01500 -1.22500
C -0.21400 2.58300 -1.38000
C -0.88700 5.40600 0.97400
C 0.18100 5.01300 -2.27700
O 0.30300 4.69000 -3.50800
C 0.31000 6.41400 -1.83700
N -0.26500 -0.41300 -2.02900
C -0.27900 0.56900 -2.93700
C -0.19600 0.02400 -4.33200
C 0.12400 -1.53300 -4.18000
C 0.08600 -1.63200 -2.63500
C -1.45100 0.20500 -5.19700
C 1.37300 -2.07000 -4.92300
C 2.62600 -1.49000 -4.30600
N 0.15000 -2.14400 0.30300
C 0.17300 -3.13600 -0.68800
C 0.17300 -4.43800 0.00400
C 0.13300 -4.11100 1.35800
C 0.08300 -2.69500 1.50200
C 0.14900 -5.71500 -0.62300
C 0.09600 -4.62900 2.71600
O 0.20800 -5.74700 3.22100
C -0.25500 -3.42800 3.70100
C 0.71700 -3.48200 4.84800
O 1.93100 -3.25500 4.66900
O 0.03800 -3.55600 6.00300
C 0.94300 -3.58300 7.18300
H -1.85900 3.22000 2.49700
H -0.21800 2.45300 -3.47400
H 0.27600 -3.74700 -2.60500
H -1.55400 -0.94900 5.13200
H -1.58500 1.83100 4.66500
H -3.48400 -0.37700 3.96900
H -3.51100 1.02700 2.85800
H -3.85200 1.30100 4.54300
H 0.66900 1.09600 4.96600
H 1.13000 -0.63900 5.18900
H -0.84400 0.02600 7.12500
H 0.06200 1.47700 6.92100
H -1.34400 5.18600 1.93800
H -1.65100 5.96300 0.43200
H 0.00700 6.02000 1.08400
H -0.63500 6.74400 -1.40500
H 0.66500 6.97000 -2.70400
H 1.04800 6.46600 -1.03600
H 0.60800 0.50100 -4.89100
H -0.69200 -2.15600 -4.54700
H -1.26700 0.74000 -6.12900
H -2.20400 0.71400 -4.59600
H -1.96700 -0.72000 -5.45300
H 1.35600 -1.75900 -5.96700
H 1.45200 -3.15700 -4.90200
H 2.71400 -0.52200 -4.79800
H 3.48700 -2.12100 -4.52900
H 2.49500 -1.30300 -3.24000
H 0.86700 -6.33300 -0.08400
H 0.40400 -5.64200 -1.68000
H -0.89100 -5.99900 -0.46300
H -1.28300 -3.58100 4.02800
H 0.69800 -4.47800 7.75500
H 0.83300 -2.61900 7.68000
H 2.00000 -3.75400 6.97600
Mg 15.77330 1.42280 1.19049
C 18.51977 -0.79906 1.82238
C 17.87678 3.99844 1.94946
C 13.26951 3.36872 1.08145
C 13.64931 -1.30971 1.60002
N 17.90110 1.46709 1.79277
C 18.85950 0.56481 1.94013
C 20.27721 1.16092 2.15065
C 19.85091 2.59424 2.73608
C 18.47010 2.71908 2.09541
C 19.67923 2.60074 4.24599
C 21.07163 1.30324 0.80504
C 22.56663 1.58658 0.96774
H 23.49472 1.00251 0.00338
N 15.68773 3.39571 0.99330
C 16.64094 4.28935 1.33106
C 16.08488 5.61233 1.00755
C 14.66284 5.43779 0.60499
C 14.47479 4.03236 0.90417
C 16.90954 6.86661 1.01922
C 13.63763 6.38277 0.05530
O 12.39546 6.07147 0.00101
C 14.11696 7.71790 -0.33089
N 13.74327 1.12882 1.52949
C 12.86231 2.13083 1.36275
C 11.44191 1.61903 1.39305
C 11.55936 0.02423 1.37300
C 13.09641 -0.11701 1.42700
C 10.60422 2.05229 2.59595
C 10.78724 -0.72427 0.25217
C 11.39793 -0.40898 -1.09432
N 16.01327 -0.70903 1.44693
C 14.99134 -1.66704 1.62567
C 15.65051 -2.96585 1.87269
C 17.02096 -2.66671 1.84315
C 17.20274 -1.27584 1.61530
C 14.98827 -4.19865 2.13296
C 18.35500 -3.20945 1.96348
O 18.82595 -4.34081 2.07284
C 19.38278 -2.00272 2.08129
C 20.51981 -2.26672 1.13262
O 20.32758 -2.28088 -0.09598
O 21.67854 -2.24271 1.81609
C 22.83678 -2.48854 0.91616
H 18.38448 4.85871 2.38656
H 12.37204 3.97612 0.94328
H 13.05801 -2.22703 1.63982
H 20.88988 0.63231 2.87106
H 20.51048 3.37979 2.37658
H 19.75742 1.60838 4.66464
H 18.69497 3.01184 4.42838
H 20.38674 3.29864 4.70282
H 20.75918 2.22670 0.30072
H 20.93309 0.43726 0.18738
H 22.91170 1.40357 1.99262
H 22.73595 2.65519 0.81472
H 17.87564 6.70824 1.51418
H 16.38960 7.58518 1.66201
H 17.02727 7.30257 0.02486
H 14.56877 8.20273 0.53124
H 13.25800 8.21717 -0.78343
H 14.90979 7.60231 -1.07833
H 10.89559 1.94223 0.51545
H 11.16982 -0.42469 2.29851
H 9.67372 2.57955 2.31267
H 11.21723 2.67759 3.23136
H 10.31597 1.24870 3.27148
H 9.75095 -0.37993 0.21127
H 10.76390 -1.80034 0.38829
H 10.93184 0.54472 -1.35945
H 11.15115 -1.18349 -1.81769
H 12.47672 -0.23545 -1.00627
H 15.49827 -4.95492 1.55120
H 13.93212 -4.14435 1.87727
H 15.14575 -4.28069 3.21173
H 19.71712 -1.95723 3.11846
H 23.38798 -3.33869 1.32982
H 23.37405 -1.52378 0.85039
H 22.62625 -2.84083 -0.08685
