158

Mg 0.00000 0.00000 0.00000
C -0.21700 -2.21800 2.80100
C -1.25500 2.44200 2.02600
C -0.24500 1.85000 -2.56400
C 0.14600 -2.82400 -2.03700
N -0.61700 -0.00900 2.12600
C -0.59400 -0.90800 3.10500
C -0.93600 -0.30900 4.50200
C -1.77300 0.96400 4.03200
C -1.15500 1.16800 2.66000
C -3.26300 0.68500 3.86300
C 0.34500 0.11000 5.29900
C 0.12400 0.39700 6.78700
H 1.16800 0.03300 7.73300
N -0.18500 1.96100 -0.15200
C -0.70300 2.80000 0.77700
C -0.62000 4.15600 0.19300
C -0.18700 4.01500 -1.22500
C -0.21400 2.58300 -1.38000
C -0.88700 5.40600 0.97400
C 0.18100 5.01300 -2.27700
O 0.30300 4.69000 -3.50800
C 0.31000 6.41400 -1.83700
N -0.26500 -0.41300 -2.02900
C -0.27900 0.56900 -2.93700
C -0.19600 0.02400 -4.33200
C 0.12400 -1.53300 -4.18000
C 0.08600 -1.63200 -2.63500
C -1.45100 0.20500 -5.19700
C 1.37300 -2.07000 -4.92300
C 2.62600 -1.49000 -4.30600
N 0.15000 -2.14400 0.30300
C 0.17300 -3.13600 -0.68800
C 0.17300 -4.43800 0.00400
C 0.13300 -4.11100 1.35800
C 0.08300 -2.69500 1.50200
C 0.14900 -5.71500 -0.62300
C 0.09600 -4.62900 2.71600
O 0.20800 -5.74700 3.22100
C -0.25500 -3.42800 3.70100
C 0.71700 -3.48200 4.84800
O 1.93100 -3.25500 4.66900
O 0.03800 -3.55600 6.00300
C 0.94300 -3.58300 7.18300
H -1.85900 3.22000 2.49700
H -0.21800 2.45300 -3.47400
H 0.27600 -3.74700 -2.60500
H -1.55400 -0.94900 5.13200
H -1.58500 1.83100 4.66500
H -3.48400 -0.37700 3.96900
H -3.51100 1.02700 2.85800
H -3.85200 1.30100 4.54300
H 0.66900 1.09600 4.96600
H 1.13000 -0.63900 5.18900
H -0.84400 0.02600 7.12500
H 0.06200 1.47700 6.92100
H -1.34400 5.18600 1.93800
H -1.65100 5.96300 0.43200
H 0.00700 6.02000 1.08400
H -0.63500 6.74400 -1.40500
H 0.66500 6.97000 -2.70400
H 1.04800 6.46600 -1.03600
H 0.60800 0.50100 -4.89100
H -0.69200 -2.15600 -4.54700
H -1.26700 0.74000 -6.12900
H -2.20400 0.71400 -4.59600
H -1.96700 -0.72000 -5.45300
H 1.35600 -1.75900 -5.96700
H 1.45200 -3.15700 -4.90200
H 2.71400 -0.52200 -4.79800
H 3.48700 -2.12100 -4.52900
H 2.49500 -1.30300 -3.24000
H 0.86700 -6.33300 -0.08400
H 0.40400 -5.64200 -1.68000
H -0.89100 -5.99900 -0.46300
H -1.28300 -3.58100 4.02800
H 0.69800 -4.47800 7.75500
H 0.83300 -2.61900 7.68000
H 2.00000 -3.75400 6.97600
Mg 31.53957 2.83581 2.40269
C 31.69640 -0.69723 1.79267
C 30.48347 2.09267 5.55975
C 30.95998 5.92603 2.82933
C 31.49205 3.28970 -1.05237
N 31.17631 0.90899 3.42626
C 31.32905 -0.36918 3.11436
C 31.15185 -1.34771 4.30628
C 30.23240 -0.42211 5.24263
C 30.67808 0.95049 4.74264
C 28.74610 -0.57249 4.96395
C 32.51457 -1.69479 5.00237
C 32.45868 -2.87769 5.97158
H 33.62008 -3.75820 6.06286
N 31.30241 3.87920 4.07412
C 30.88797 3.41464 5.27149
C 30.86056 4.58078 6.16789
C 31.13417 5.80014 5.35979
C 31.12195 5.23912 4.02368
C 30.67217 4.46174 7.65240
C 31.35581 7.23602 5.72765
O 31.33982 8.16697 4.84679
C 31.49909 7.53103 7.16080
N 31.05243 4.37327 1.09073
C 30.90572 5.63584 1.52927
C 30.83085 6.60845 0.37652
C 31.20205 5.75931 -0.92684
C 31.34652 4.36168 -0.28564
C 29.47967 7.29263 0.17010
C 32.36574 6.29282 -1.80654
C 33.67261 6.18532 -1.05425
N 31.76972 1.57302 0.66475
C 31.68881 1.96331 -0.68995
C 31.79656 0.73525 -1.50401
C 31.91047 -0.29491 -0.55835
C 31.85584 0.25041 0.75281
C 31.73394 0.67072 -2.92459
C 32.05382 -1.72077 -0.37104
O 32.23923 -2.68073 -1.11791
C 31.79452 -2.05786 1.16047
C 32.89535 -2.96999 1.62815
O 34.07058 -2.56671 1.68123
O 32.35234 -4.09016 2.13877
C 33.40427 -5.02165 2.62620
H 29.93128 1.97525 6.49258
H 30.86762 7.01095 2.91816
H 31.58417 3.35698 -2.13849
H 30.63114 -2.26686 4.06587
H 30.48615 -0.54648 6.29216
H 28.55897 -1.19116 4.09887
H 28.37474 0.43051 4.79927
H 28.23096 -0.94204 5.85524
H 32.77411 -0.89032 5.70252
H 33.28341 -1.86117 4.27309
H 31.53979 -3.46465 5.85303
H 32.39853 -2.48859 6.99089
H 30.33007 3.45858 7.93530
H 29.83877 5.11919 7.92270
H 31.55791 4.76441 8.21500
H 30.60789 7.19982 7.68854
H 31.73918 8.59452 7.21767
H 32.33559 6.94446 7.55681
H 31.55507 7.40505 0.49499
H 30.35641 5.69772 -1.62751
H 29.54166 8.39704 0.19288
H 28.79628 6.93441 0.92850
H 28.96317 7.02656 -0.75057
H 32.21976 7.35353 -2.02506
H 32.45975 5.77818 -2.75696
H 33.67676 7.08836 -0.43652
H 34.51290 6.17612 -1.74553
H 33.66736 5.32301 -0.37747
H 32.51501 -0.00814 -3.24014
H 31.85602 1.65446 -3.37303
H 30.72088 0.28178 -3.05769
H 30.81396 -2.53027 1.23047
H 33.24312 -5.97854 2.12017
H 33.32141 -5.01496 3.72931
H 34.43031 -4.80710 2.35113
