79

Mg 8.94180 0.79802 0.68258
C 9.15392 -1.68440 -1.90038
C 8.12233 -1.72191 2.83037
C 8.30780 3.00469 2.87258
C 8.64838 3.19121 -1.83381
N 8.70157 -1.38048 0.38481
C 8.86789 -2.21904 -0.62688
C 8.79859 -3.71980 -0.23641
C 7.91949 -3.58016 1.10021
C 8.29252 -2.15131 1.48995
C 6.42244 -3.62994 0.84385
C 10.21426 -4.32428 0.06771
C 10.25650 -5.85158 0.15332
H 11.44513 -6.54360 -0.33733
N 8.78964 0.64314 2.65525
C 8.46999 -0.46086 3.36256
C 8.47125 -0.04834 4.77464
C 8.65605 1.42721 4.83210
C 8.56893 1.75881 3.42407
C 8.38698 -1.02826 5.90870
C 8.86256 2.38335 5.96760
O 8.76153 3.65099 5.80731
C 9.09425 1.78824 7.29186
N 8.32508 2.77908 0.55069
C 8.17376 3.53101 1.65506
C 7.99447 4.98836 1.30238
C 8.29988 5.09203 -0.26401
C 8.52566 3.59662 -0.57733
C 6.61417 5.57785 1.59160
C 9.38636 6.11149 -0.70324
C 10.74355 5.66383 -0.21027
N 9.08849 0.81452 -1.47294
C 8.90551 1.92032 -2.33190
C 8.99164 1.41445 -3.71722
C 9.19744 0.03475 -3.56699
C 9.21663 -0.29899 -2.18578
C 8.83492 2.19312 -4.89842
C 9.39220 -1.21682 -4.26292
O 9.55296 -1.54104 -5.43883
C 9.24638 -2.40468 -3.21691
C 10.40091 -3.34711 -3.42038
O 11.56553 -2.98002 -3.18474
O 9.92460 -4.58457 -3.64883
C 11.03224 -5.55725 -3.84591
H 7.63789 -2.39896 3.53451
H 8.19192 3.82211 3.58803
H 8.66499 3.88933 -2.67347
H 8.28824 -4.35245 -0.95271
H 8.24693 -4.28139 1.86338
H 6.19430 -3.63245 -0.21165
H 6.01341 -2.74697 1.31724
H 5.97906 -4.48371 1.36426
H 10.49836 -4.07047 1.09708
H 10.93631 -3.98238 -0.64809
H 9.34814 -6.31250 -0.25337
H 10.25473 -6.14025 1.20721
H 8.09245 -2.02507 5.55795
H 7.55603 -0.70830 6.54668
H 9.30009 -1.05966 6.50696
H 8.25019 1.15568 7.55620
H 9.30836 2.62777 7.95611
H 9.97139 1.13420 7.23288
H 8.70292 5.60639 1.84020
H 7.41082 5.40154 -0.83287
H 6.64723 6.45937 2.25936
H 5.99370 4.80086 2.01802
H 6.04411 5.87205 0.71202
H 9.19689 7.08663 -0.24786
H 9.42999 6.26049 -1.77696
H 10.76467 6.02975 0.82063
H 11.53513 6.11466 -0.80541
H 10.80773 4.57014 -0.17322
H 9.61121 1.87924 -5.58352
H 8.89937 3.25788 -4.68417
H 7.82624 1.89468 -5.19636
H 8.28612 -2.88778 -3.40159
H 10.86356 -6.04199 -4.81249
H 11.02399 -6.20509 -2.94926
H 12.03106 -5.15890 -3.98053
