79

Mg 31.53256 2.83880 2.39533
C 31.38696 4.74465 -0.63102
C 31.04714 0.05145 0.48795
C 31.20365 1.18906 5.08360
C 30.87258 5.79676 4.11595
N 31.26680 2.56178 0.21513
C 31.29102 3.36737 -0.84205
C 31.28093 2.60450 -2.20047
C 30.60896 1.24131 -1.71865
C 31.02798 1.26648 -0.25930
C 29.08551 1.25358 -1.79254
C 32.72412 2.36574 -2.75898
C 32.79307 1.92343 -4.22355
H 33.89614 2.39587 -5.04657
N 31.66200 0.89616 2.73035
C 31.44758 -0.09635 1.83356
C 31.66658 -1.36201 2.56625
C 31.83973 -1.02929 4.00757
C 31.54551 0.38095 4.00184
C 31.74280 -2.69885 1.89483
C 32.20113 -1.85385 5.20240
O 32.07038 -1.41534 6.39621
C 32.63433 -3.23800 4.93869
N 30.88398 3.35872 4.31018
C 30.89385 2.46775 5.30770
C 30.66150 3.12981 6.63346
C 30.73206 4.70161 6.36106
C 30.92239 4.66652 4.82456
C 29.33487 2.79116 7.32728
C 31.73825 5.51802 7.21045
C 33.15314 5.13096 6.84250
N 31.36182 4.94202 1.88703
C 31.05895 5.99816 2.75853
C 30.94693 7.21748 1.93709
C 31.17756 6.78021 0.63423
C 31.39242 5.37233 0.63820
C 30.60740 8.51466 2.41300
C 31.26807 7.17086 -0.76329
O 31.26673 8.24573 -1.36507
C 31.28649 5.85001 -1.65259
C 32.40400 5.98926 -2.65014
O 33.59515 6.00521 -2.27831
O 31.91346 5.84308 -3.89052
C 32.97560 5.94086 -4.92707
H 30.66633 -0.86009 0.02318
H 31.18865 0.67705 6.04799
H 30.75235 6.77080 4.59370
H 30.67054 3.06647 -2.97664
H 31.03925 0.37549 -2.22157
H 28.70674 2.24450 -2.04257
H 28.74363 0.95421 -0.80158
H 28.72477 0.48656 -2.47835
H 33.15429 1.48662 -2.27923
H 33.34296 3.25303 -2.62083
H 31.84183 2.08101 -4.73270
H 32.93755 0.84327 -4.24767
H 31.41319 -2.64564 0.85797
H 31.00872 -3.34142 2.38057
H 32.73415 -3.14436 1.97887
H 31.83950 -3.77042 4.41590
H 32.93717 -3.64698 5.90195
H 33.48758 -3.21771 4.26009
H 31.43632 2.85605 7.34841
H 29.77444 5.19112 6.53996
H 29.45754 2.37647 8.32813
H 28.78394 2.10511 6.68455
H 28.63525 3.62280 7.40668
H 31.60963 5.29476 8.26902
H 31.63360 6.59562 7.08368
H 33.32557 4.23883 7.44351
H 33.84811 5.92582 7.11531
H 33.22594 4.83735 5.79513
H 31.28588 9.20874 1.91715
H 30.70083 8.57572 3.49704
H 29.57279 8.58815 2.07826
H 30.31222 5.78389 -2.13586
H 32.67550 6.72606 -5.62107
H 33.11103 4.93609 -5.32771
H 33.94195 6.31998 -4.59276
