79

Mg 10.51842 0.93996 0.80235
C 10.73055 -1.54246 -1.78061
C 9.69895 -1.57997 2.95014
C 9.88443 3.14663 2.99234
C 10.22501 3.33315 -1.71405
N 10.27820 -1.23854 0.50457
C 10.44452 -2.07710 -0.50712
C 10.37522 -3.57786 -0.11665
C 9.49611 -3.43822 1.21997
C 9.86915 -2.00937 1.60971
C 7.99907 -3.48800 0.96362
C 11.79089 -4.18234 0.18747
C 11.83312 -5.70964 0.27309
H 13.02176 -6.40166 -0.21756
N 10.36626 0.78508 2.77502
C 10.04662 -0.31892 3.48232
C 10.04788 0.09360 4.89441
C 10.23268 1.56915 4.95187
C 10.14556 1.90075 3.54384
C 9.96361 -0.88632 6.02847
C 10.43919 2.52529 6.08737
O 10.33815 3.79293 5.92707
C 10.67088 1.93018 7.41162
N 9.90171 2.92102 0.67046
C 9.75039 3.67295 1.77483
C 9.57110 5.13030 1.42214
C 9.87651 5.23397 -0.14424
C 10.10229 3.73856 -0.45756
C 8.19080 5.71979 1.71137
C 10.96299 6.25343 -0.58347
C 12.32018 5.80577 -0.09050
N 10.66512 0.95646 -1.35317
C 10.48214 2.06226 -2.21214
C 10.56827 1.55639 -3.59745
C 10.77407 0.17669 -3.44722
C 10.79326 -0.15705 -2.06601
C 10.41155 2.33506 -4.77866
C 10.96883 -1.07488 -4.14315
O 11.12959 -1.39910 -5.31907
C 10.82300 -2.26274 -3.09715
C 11.97754 -3.20517 -3.30061
O 13.14215 -2.83808 -3.06497
O 11.50123 -4.44263 -3.52906
C 12.60887 -5.41531 -3.72614
H 9.21451 -2.25702 3.65428
H 9.76855 3.96405 3.70779
H 10.24162 4.03127 -2.55371
H 9.86486 -4.21051 -0.83294
H 9.82356 -4.13945 1.98314
H 7.77093 -3.49051 -0.09189
H 7.59004 -2.60503 1.43701
H 7.55569 -4.34177 1.48403
H 12.07499 -3.92853 1.21685
H 12.51294 -3.84044 -0.52833
H 10.92477 -6.17056 -0.13360
H 11.83136 -5.99831 1.32698
H 9.66908 -1.88312 5.67772
H 9.13266 -0.56636 6.66645
H 10.87672 -0.91772 6.62673
H 9.82681 1.29762 7.67596
H 10.88499 2.76971 8.07587
H 11.54801 1.27614 7.35265
H 10.27955 5.74833 1.95996
H 8.98744 5.54348 -0.71310
H 8.22386 6.60131 2.37913
H 7.57033 4.94280 2.13778
H 7.62074 6.01399 0.83178
H 10.77352 7.22857 -0.12810
H 11.00661 6.40243 -1.65720
H 12.34130 6.17169 0.94040
H 13.11176 6.25660 -0.68564
H 12.38436 4.71208 -0.05345
H 11.18784 2.02118 -5.46375
H 10.47600 3.39982 -4.56441
H 9.40287 2.03662 -5.07659
H 9.86275 -2.74584 -3.28182
H 12.44019 -5.90005 -4.69272
H 12.60062 -6.06315 -2.82949
H 13.60769 -5.01696 -3.86076
