158

Mg 0.00000 0.00000 0.00000
C -0.21700 -2.21800 2.80100
C -1.25500 2.44200 2.02600
C -0.24500 1.85000 -2.56400
C 0.14600 -2.82400 -2.03700
N -0.61700 -0.00900 2.12600
C -0.59400 -0.90800 3.10500
C -0.93600 -0.30900 4.50200
C -1.77300 0.96400 4.03200
C -1.15500 1.16800 2.66000
C -3.26300 0.68500 3.86300
C 0.34500 0.11000 5.29900
C 0.12400 0.39700 6.78700
H 1.16800 0.03300 7.73300
N -0.18500 1.96100 -0.15200
C -0.70300 2.80000 0.77700
C -0.62000 4.15600 0.19300
C -0.18700 4.01500 -1.22500
C -0.21400 2.58300 -1.38000
C -0.88700 5.40600 0.97400
C 0.18100 5.01300 -2.27700
O 0.30300 4.69000 -3.50800
C 0.31000 6.41400 -1.83700
N -0.26500 -0.41300 -2.02900
C -0.27900 0.56900 -2.93700
C -0.19600 0.02400 -4.33200
C 0.12400 -1.53300 -4.18000
C 0.08600 -1.63200 -2.63500
C -1.45100 0.20500 -5.19700
C 1.37300 -2.07000 -4.92300
C 2.62600 -1.49000 -4.30600
N 0.15000 -2.14400 0.30300
C 0.17300 -3.13600 -0.68800
C 0.17300 -4.43800 0.00400
C 0.13300 -4.11100 1.35800
C 0.08300 -2.69500 1.50200
C 0.14900 -5.71500 -0.62300
C 0.09600 -4.62900 2.71600
O 0.20800 -5.74700 3.22100
C -0.25500 -3.42800 3.70100
C 0.71700 -3.48200 4.84800
O 1.93100 -3.25500 4.66900
O 0.03800 -3.55600 6.00300
C 0.94300 -3.58300 7.18300
H -1.85900 3.22000 2.49700
H -0.21800 2.45300 -3.47400
H 0.27600 -3.74700 -2.60500
H -1.55400 -0.94900 5.13200
H -1.58500 1.83100 4.66500
H -3.48400 -0.37700 3.96900
H -3.51100 1.02700 2.85800
H -3.85200 1.30100 4.54300
H 0.66900 1.09600 4.96600
H 1.13000 -0.63900 5.18900
H -0.84400 0.02600 7.12500
H 0.06200 1.47700 6.92100
H -1.34400 5.18600 1.93800
H -1.65100 5.96300 0.43200
H 0.00700 6.02000 1.08400
H -0.63500 6.74400 -1.40500
H 0.66500 6.97000 -2.70400
H 1.04800 6.46600 -1.03600
H 0.60800 0.50100 -4.89100
H -0.69200 -2.15600 -4.54700
H -1.26700 0.74000 -6.12900
H -2.20400 0.71400 -4.59600
H -1.96700 -0.72000 -5.45300
H 1.35600 -1.75900 -5.96700
H 1.45200 -3.15700 -4.90200
H 2.71400 -0.52200 -4.79800
H 3.48700 -2.12100 -4.52900
H 2.49500 -1.30300 -3.24000
H 0.86700 -6.33300 -0.08400
H 0.40400 -5.64200 -1.68000
H -0.89100 -5.99900 -0.46300
H -1.28300 -3.58100 4.02800
H 0.69800 -4.47800 7.75500
H 0.83300 -2.61900 7.68000
H 2.00000 -3.75400 6.97600
Mg 10.50574 0.94847 0.78943
C 11.67850 -1.70588 -1.32199
C 11.86519 3.13083 -1.45196
C 9.88578 3.28767 2.84156
C 10.26710 -1.39043 3.36203
N 11.60396 0.63208 -1.10427
C 11.93651 -0.41898 -1.83845
C 12.50905 -0.07036 -3.23853
C 13.03922 1.41150 -2.91936
C 12.09133 1.76935 -1.77651
C 14.46207 1.43984 -2.38641
C 11.40220 -0.05732 -4.35061
C 11.93275 -0.02978 -5.78571
H 11.19466 -0.75699 -6.81472
N 10.38374 2.90862 0.50390
C 10.98135 3.62795 -0.46909
C 10.59402 5.02699 -0.23069
C 9.85343 5.09555 1.05831
C 10.03427 3.74031 1.53863
C 10.86095 6.12492 -1.21899
C 9.11667 6.20176 1.75090
O 8.75081 6.10372 2.97539
C 8.91841 7.43920 0.98218
N 10.33229 0.99800 2.86061
C 10.00413 2.13446 3.49990
C 9.66826 1.86831 4.94791
C 9.60453 0.27654 5.08860
C 10.02051 -0.12104 3.65533
C 10.65252 2.43058 5.97332
C 8.29792 -0.32656 5.67317
C 7.15384 -0.11214 4.70854
N 10.71513 -1.19453 0.96756
C 10.59880 -1.96814 2.14318
C 10.93790 -3.36031 1.78357
C 11.25281 -3.29541 0.41788
C 11.13896 -1.95379 -0.03662
C 10.97470 -4.46559 2.67975
C 11.66595 -4.05500 -0.74015
O 11.83388 -5.24986 -0.98062
C 12.08252 -3.03854 -1.88893
C 11.42449 -3.48539 -3.16558
O 10.18642 -3.46145 -3.28051
O 12.36720 -3.65941 -4.10973
C 11.76236 -4.09213 -5.39765
H 12.45035 3.89163 -1.96932
H 9.56338 4.03777 3.56743
H 10.12158 -2.19560 4.08536
H 13.33095 -0.69763 -3.56225
H 12.88522 2.07677 -3.76497
H 14.84163 0.44655 -2.19813
H 14.42064 2.00954 -1.46730
H 15.10707 2.00694 -3.06369
H 10.88004 0.90779 -4.32479
H 10.73060 -0.88491 -4.22945
H 13.00114 -0.27281 -5.83492
H 11.87379 0.99591 -6.15786
H 11.56621 5.80431 -1.99567
H 11.39166 6.91764 -0.68067
H 9.94508 6.53945 -1.64562
H 9.88509 7.83733 0.68307
H 8.29557 8.07768 1.61171
H 8.37936 7.19554 0.05986
H 8.70059 2.28266 5.20292
H 10.38762 -0.10481 5.76029
H 10.17785 3.10789 6.70817
H 11.44460 2.94116 5.44185
H 11.20151 1.68372 6.54430
H 8.02443 0.18710 6.59811
H 8.37530 -1.38404 5.90283
H 6.82797 0.90749 4.93494
H 6.35786 -0.83091 4.89248
H 7.50682 -0.12262 3.67078
H 10.49905 -5.29409 2.17198
H 10.47501 -4.23354 3.61795
H 12.05477 -4.57783 2.80674
H 13.17064 -3.05458 -1.96182
H 12.25743 -5.02464 -5.68576
H 11.87185 -3.23099 -6.08337
H 10.72321 -4.39947 -5.38514
