158

Mg 0.00000 0.00000 0.00000
C -0.21700 -2.21800 2.80100
C -1.25500 2.44200 2.02600
C -0.24500 1.85000 -2.56400
C 0.14600 -2.82400 -2.03700
N -0.61700 -0.00900 2.12600
C -0.59400 -0.90800 3.10500
C -0.93600 -0.30900 4.50200
C -1.77300 0.96400 4.03200
C -1.15500 1.16800 2.66000
C -3.26300 0.68500 3.86300
C 0.34500 0.11000 5.29900
C 0.12400 0.39700 6.78700
H 1.16800 0.03300 7.73300
N -0.18500 1.96100 -0.15200
C -0.70300 2.80000 0.77700
C -0.62000 4.15600 0.19300
C -0.18700 4.01500 -1.22500
C -0.21400 2.58300 -1.38000
C -0.88700 5.40600 0.97400
C 0.18100 5.01300 -2.27700
O 0.30300 4.69000 -3.50800
C 0.31000 6.41400 -1.83700
N -0.26500 -0.41300 -2.02900
C -0.27900 0.56900 -2.93700
C -0.19600 0.02400 -4.33200
C 0.12400 -1.53300 -4.18000
C 0.08600 -1.63200 -2.63500
C -1.45100 0.20500 -5.19700
C 1.37300 -2.07000 -4.92300
C 2.62600 -1.49000 -4.30600
N 0.15000 -2.14400 0.30300
C 0.17300 -3.13600 -0.68800
C 0.17300 -4.43800 0.00400
C 0.13300 -4.11100 1.35800
C 0.08300 -2.69500 1.50200
C 0.14900 -5.71500 -0.62300
C 0.09600 -4.62900 2.71600
O 0.20800 -5.74700 3.22100
C -0.25500 -3.42800 3.70100
C 0.71700 -3.48200 4.84800
O 1.93100 -3.25500 4.66900
O 0.03800 -3.55600 6.00300
C 0.94300 -3.58300 7.18300
H -1.85900 3.22000 2.49700
H -0.21800 2.45300 -3.47400
H 0.27600 -3.74700 -2.60500
H -1.55400 -0.94900 5.13200
H -1.58500 1.83100 4.66500
H -3.48400 -0.37700 3.96900
H -3.51100 1.02700 2.85800
H -3.85200 1.30100 4.54300
H 0.66900 1.09600 4.96600
H 1.13000 -0.63900 5.18900
H -0.84400 0.02600 7.12500
H 0.06200 1.47700 6.92100
H -1.34400 5.18600 1.93800
H -1.65100 5.96300 0.43200
H 0.00700 6.02000 1.08400
H -0.63500 6.74400 -1.40500
H 0.66500 6.97000 -2.70400
H 1.04800 6.46600 -1.03600
H 0.60800 0.50100 -4.89100
H -0.69200 -2.15600 -4.54700
H -1.26700 0.74000 -6.12900
H -2.20400 0.71400 -4.59600
H -1.96700 -0.72000 -5.45300
H 1.35600 -1.75900 -5.96700
H 1.45200 -3.15700 -4.90200
H 2.71400 -0.52200 -4.79800
H 3.48700 -2.12100 -4.52900
H 2.49500 -1.30300 -3.24000
H 0.86700 -6.33300 -0.08400
H 0.40400 -5.64200 -1.68000
H -0.89100 -5.99900 -0.46300
H -1.28300 -3.58100 4.02800
H 0.69800 -4.47800 7.75500
H 0.83300 -2.61900 7.68000
H 2.00000 -3.75400 6.97600
Mg 13.14609 1.18601 0.99130
C 12.61783 4.73562 1.00614
C 12.51114 1.25597 -2.35930
C 13.16034 -1.98672 1.02306
C 12.61127 1.23191 4.43478
N 12.64252 2.84268 -0.38497
C 12.52993 4.15803 -0.27764
C 12.39085 4.90427 -1.63165
C 11.80137 3.69742 -2.51192
C 12.37929 2.51958 -1.73001
C 10.28533 3.60349 -2.46583
C 13.77288 5.39832 -2.18656
C 13.68187 6.39794 -3.34165
H 14.68166 7.45911 -3.42419
N 13.35959 -0.11225 -0.49448
C 13.07519 0.08918 -1.79825
C 13.38655 -1.17760 -2.47832
C 13.72163 -2.19474 -1.44496
C 13.39959 -1.46024 -0.23794
C 13.42572 -1.31047 -3.97306
C 14.23349 -3.60081 -1.52959
O 14.22752 -4.38188 -0.51336
C 14.65508 -4.06611 -2.85898
N 12.71131 -0.21121 2.46815
C 12.84785 -1.52844 2.23535
C 12.74713 -2.32205 3.51614
C 12.75601 -1.24009 4.69379
C 12.77110 0.05298 3.84933
C 11.51164 -3.21170 3.65206
C 13.83242 -1.41294 5.80020
C 15.20870 -1.17026 5.22371
N 12.87884 2.70564 2.50369
C 12.64350 2.50563 3.88162
C 12.41351 3.83587 4.48160
C 12.50898 4.72248 3.39841
C 12.75933 3.99421 2.20407
C 12.11037 4.09064 5.84883
C 12.44434 6.10790 2.99204
O 12.34497 7.18267 3.58257
C 12.38631 6.16676 1.40472
C 13.38334 7.19321 0.94123
O 14.60162 7.01520 1.11650
O 12.75402 8.10593 0.17882
C 13.70353 9.13915 -0.31385
H 12.10673 1.13214 -3.36429
H 13.26350 -3.07093 1.10869
H 12.53488 1.33977 5.51885
H 11.69386 5.73368 -1.62371
H 12.19887 3.71543 -3.52337
H 9.86044 4.29346 -1.75199
H 10.06226 2.58270 -2.18430
H 9.86869 3.73758 -3.46821
H 14.27188 4.56515 -2.69800
H 14.37452 5.80947 -1.39942
H 12.67205 6.81210 -3.44974
H 13.85356 5.86230 -4.27846
H 12.97398 -0.44090 -4.46618
H 12.76724 -2.14502 -4.23725
H 14.42890 -1.51840 -4.35130
H 13.81965 -3.98796 -3.55065
H 15.07291 -5.06227 -2.70099
H 15.43686 -3.39546 -3.23269
H 13.60205 -2.97655 3.63379
H 11.80900 -1.23901 5.25327
H 11.75739 -4.27628 3.82628
H 10.91153 -3.10125 2.75864
H 10.81530 -2.91837 4.43582
H 13.82933 -2.43961 6.17449
H 13.68423 -0.75884 6.65295
H 15.46205 -2.13547 4.77509
H 15.91193 -0.90380 6.01016
H 15.17203 -0.43058 4.41550
H 12.70704 4.94263 6.14651
H 12.31790 3.22224 6.47059
H 11.03917 4.29676 5.77597
H 11.36609 6.43096 1.12378
H 13.30679 10.11108 -0.00460
H 13.80387 8.95874 -1.40065
H 14.69212 9.16348 0.12949
