158

Mg 0.00000 0.00000 0.00000
C -0.21700 -2.21800 2.80100
C -1.25500 2.44200 2.02600
C -0.24500 1.85000 -2.56400
C 0.14600 -2.82400 -2.03700
N -0.61700 -0.00900 2.12600
C -0.59400 -0.90800 3.10500
C -0.93600 -0.30900 4.50200
C -1.77300 0.96400 4.03200
C -1.15500 1.16800 2.66000
C -3.26300 0.68500 3.86300
C 0.34500 0.11000 5.29900
C 0.12400 0.39700 6.78700
H 1.16800 0.03300 7.73300
N -0.18500 1.96100 -0.15200
C -0.70300 2.80000 0.77700
C -0.62000 4.15600 0.19300
C -0.18700 4.01500 -1.22500
C -0.21400 2.58300 -1.38000
C -0.88700 5.40600 0.97400
C 0.18100 5.01300 -2.27700
O 0.30300 4.69000 -3.50800
C 0.31000 6.41400 -1.83700
N -0.26500 -0.41300 -2.02900
C -0.27900 0.56900 -2.93700
C -0.19600 0.02400 -4.33200
C 0.12400 -1.53300 -4.18000
C 0.08600 -1.63200 -2.63500
C -1.45100 0.20500 -5.19700
C 1.37300 -2.07000 -4.92300
C 2.62600 -1.49000 -4.30600
N 0.15000 -2.14400 0.30300
C 0.17300 -3.13600 -0.68800
C 0.17300 -4.43800 0.00400
C 0.13300 -4.11100 1.35800
C 0.08300 -2.69500 1.50200
C 0.14900 -5.71500 -0.62300
C 0.09600 -4.62900 2.71600
O 0.20800 -5.74700 3.22100
C -0.25500 -3.42800 3.70100
C 0.71700 -3.48200 4.84800
O 1.93100 -3.25500 4.66900
O 0.03800 -3.55600 6.00300
C 0.94300 -3.58300 7.18300
H -1.85900 3.22000 2.49700
H -0.21800 2.45300 -3.47400
H 0.27600 -3.74700 -2.60500
H -1.55400 -0.94900 5.13200
H -1.58500 1.83100 4.66500
H -3.48400 -0.37700 3.96900
H -3.51100 1.02700 2.85800
H -3.85200 1.30100 4.54300
H 0.66900 1.09600 4.96600
H 1.13000 -0.63900 5.18900
H -0.84400 0.02600 7.12500
H 0.06200 1.47700 6.92100
H -1.34400 5.18600 1.93800
H -1.65100 5.96300 0.43200
H 0.00700 6.02000 1.08400
H -0.63500 6.74400 -1.40500
H 0.66500 6.97000 -2.70400
H 1.04800 6.46600 -1.03600
H 0.60800 0.50100 -4.89100
H -0.69200 -2.15600 -4.54700
H -1.26700 0.74000 -6.12900
H -2.20400 0.71400 -4.59600
H -1.96700 -0.72000 -5.45300
H 1.35600 -1.75900 -5.96700
H 1.45200 -3.15700 -4.90200
H 2.71400 -0.52200 -4.79800
H 3.48700 -2.12100 -4.52900
H 2.49500 -1.30300 -3.24000
H 0.86700 -6.33300 -0.08400
H 0.40400 -5.64200 -1.68000
H -0.89100 -5.99900 -0.46300
H -1.28300 -3.58100 4.02800
H 0.69800 -4.47800 7.75500
H 0.83300 -2.61900 7.68000
H 2.00000 -3.75400 6.97600
Mg 8.94377 0.80883 0.67961
C 10.45351 -1.31001 3.15151
C 9.39841 3.40568 2.84393
C 7.21901 2.61331 -1.27909
C 7.59954 -2.06524 -0.76207
N 9.82440 0.90920 2.70611
C 10.42180 0.05128 3.51939
C 11.08955 0.70049 4.76124
C 10.20693 2.03998 4.83614
C 9.80910 2.15309 3.36590
C 8.94151 1.88147 5.66253
C 12.60627 1.02455 4.52341
C 13.39546 1.37237 5.78751
H 14.78830 0.94321 5.87862
N 8.81406 2.78373 0.53284
C 9.05622 3.68949 1.50353
C 8.80003 5.00575 0.89856
C 8.22817 4.79473 -0.45907
C 8.04145 3.35770 -0.44601
C 9.16908 6.29609 1.57105
C 7.89161 5.73276 -1.57846
O 7.18266 5.36009 -2.57913
C 8.33739 7.12515 -1.42344
N 7.43304 0.36903 -0.67929
C 6.88803 1.33231 -1.44283
C 6.02452 0.74188 -2.53193
C 6.29733 -0.83336 -2.48995
C 7.24510 -0.89368 -1.27196
C 4.52359 1.00174 -2.40515
C 6.75266 -1.50431 -3.81477
C 8.13390 -1.01860 -4.19113
N 9.14410 -1.32140 0.97966
C 8.47039 -2.34808 0.28244
C 8.84762 -3.62672 0.91900
C 9.70334 -3.25036 1.96522
C 9.83316 -1.83547 1.99228
C 8.37072 -4.91470 0.54509
C 10.51793 -3.72753 3.05950
O 10.86220 -4.83618 3.46707
C 10.93974 -2.48404 3.95516
C 12.41608 -2.58531 4.22478
O 13.23666 -2.48360 3.29585
O 12.62348 -2.56735 5.55408
C 14.07383 -2.65442 5.87143
H 9.28634 4.24330 3.53294
H 6.68700 3.18083 -2.04614
H 7.30012 -3.01324 -1.21408
H 10.98649 0.13544 5.67986
H 10.80947 2.89384 5.13488
H 8.78442 0.85719 5.96636
H 8.13167 2.21621 5.02760
H 8.95946 2.56692 6.51468
H 12.68859 1.97619 3.98272
H 13.09090 0.22038 4.00467
H 12.85023 1.10432 6.70065
H 13.49711 2.45881 5.84520
H 9.41982 6.14161 2.62778
H 8.26533 6.91463 1.59395
H 9.95484 6.83796 1.04037
H 7.90764 7.54303 -0.51616
H 8.08285 7.61978 -2.36281
H 9.42475 7.13140 -1.28847
H 6.31352 1.12280 -3.50377
H 5.39372 -1.39614 -2.21316
H 4.09097 1.50277 -3.29165
H 4.35334 1.59145 -1.51420
H 3.91621 0.11809 -2.21689
H 6.08851 -1.21577 -4.63318
H 6.75722 -2.58830 -3.77064
H 7.93238 -0.07009 -4.69789
H 8.62045 -1.72706 -4.85851
H 8.72941 -0.79530 -3.29830
H 9.22577 -5.57751 0.55242
H 7.89174 -4.89320 -0.43158
H 7.65389 -5.09845 1.34987
H 10.35207 -2.52703 4.87296
H 14.20363 -3.51065 6.54055
H 14.35349 -1.65962 6.26630
H 14.74894 -2.91275 5.06400
