158

Mg 0.00000 0.00000 0.00000
C -0.21700 -2.21800 2.80100
C -1.25500 2.44200 2.02600
C -0.24500 1.85000 -2.56400
C 0.14600 -2.82400 -2.03700
N -0.61700 -0.00900 2.12600
C -0.59400 -0.90800 3.10500
C -0.93600 -0.30900 4.50200
C -1.77300 0.96400 4.03200
C -1.15500 1.16800 2.66000
C -3.26300 0.68500 3.86300
C 0.34500 0.11000 5.29900
C 0.12400 0.39700 6.78700
H 1.16800 0.03300 7.73300
N -0.18500 1.96100 -0.15200
C -0.70300 2.80000 0.77700
C -0.62000 4.15600 0.19300
C -0.18700 4.01500 -1.22500
C -0.21400 2.58300 -1.38000
C -0.88700 5.40600 0.97400
C 0.18100 5.01300 -2.27700
O 0.30300 4.69000 -3.50800
C 0.31000 6.41400 -1.83700
N -0.26500 -0.41300 -2.02900
C -0.27900 0.56900 -2.93700
C -0.19600 0.02400 -4.33200
C 0.12400 -1.53300 -4.18000
C 0.08600 -1.63200 -2.63500
C -1.45100 0.20500 -5.19700
C 1.37300 -2.07000 -4.92300
C 2.62600 -1.49000 -4.30600
N 0.15000 -2.14400 0.30300
C 0.17300 -3.13600 -0.68800
C 0.17300 -4.43800 0.00400
C 0.13300 -4.11100 1.35800
C 0.08300 -2.69500 1.50200
C 0.14900 -5.71500 -0.62300
C 0.09600 -4.62900 2.71600
O 0.20800 -5.74700 3.22100
C -0.25500 -3.42800 3.70100
C 0.71700 -3.48200 4.84800
O 1.93100 -3.25500 4.66900
O 0.03800 -3.55600 6.00300
C 0.94300 -3.58300 7.18300
H -1.85900 3.22000 2.49700
H -0.21800 2.45300 -3.47400
H 0.27600 -3.74700 -2.60500
H -1.55400 -0.94900 5.13200
H -1.58500 1.83100 4.66500
H -3.48400 -0.37700 3.96900
H -3.51100 1.02700 2.85800
H -3.85200 1.30100 4.54300
H 0.66900 1.09600 4.96600
H 1.13000 -0.63900 5.18900
H -0.84400 0.02600 7.12500
H 0.06200 1.47700 6.92100
H -1.34400 5.18600 1.93800
H -1.65100 5.96300 0.43200
H 0.00700 6.02000 1.08400
H -0.63500 6.74400 -1.40500
H 0.66500 6.97000 -2.70400
H 1.04800 6.46600 -1.03600
H 0.60800 0.50100 -4.89100
H -0.69200 -2.15600 -4.54700
H -1.26700 0.74000 -6.12900
H -2.20400 0.71400 -4.59600
H -1.96700 -0.72000 -5.45300
H 1.35600 -1.75900 -5.96700
H 1.45200 -3.15700 -4.90200
H 2.71400 -0.52200 -4.79800
H 3.48700 -2.12100 -4.52900
H 2.49500 -1.30300 -3.24000
H 0.86700 -6.33300 -0.08400
H 0.40400 -5.64200 -1.68000
H -0.89100 -5.99900 -0.46300
H -1.28300 -3.58100 4.02800
H 0.69800 -4.47800 7.75500
H 0.83300 -2.61900 7.68000
H 2.00000 -3.75400 6.97600
Mg 31.53256 2.83880 2.39533
C 31.62755 -0.72744 2.68704
C 30.39932 2.92295 5.61274
C 31.00876 5.94323 2.01480
C 31.57095 2.40936 -1.06296
N 31.10936 1.23446 3.86081
C 31.24430 -0.08801 3.86809
C 31.01311 -0.72491 5.27104
C 30.10339 0.41370 5.91757
C 30.59003 1.60249 5.10771
C 28.61228 0.22149 5.66042
C 32.34876 -0.91169 6.06658
C 32.25459 -1.81712 7.29812
H 33.38870 -2.66547 7.63196
N 31.28203 4.26943 3.73451
C 30.82716 4.12162 5.00200
C 30.82093 5.47692 5.59343
C 31.12852 6.44867 4.50753
C 31.12621 5.58384 3.35538
C 30.59162 5.73777 7.05053
C 31.37365 7.92449 4.50676
O 31.39329 8.61015 3.42784
C 31.50393 8.56947 5.82588
N 31.09768 4.01112 0.72374
C 30.97585 5.33922 0.82512
C 30.94790 5.98970 -0.52619
C 31.32198 4.84556 -1.57537
C 31.42550 3.65115 -0.59510
C 29.61591 6.63678 -0.93004
C 32.51322 5.12514 -2.52574
C 33.80051 5.17658 -1.73369
N 31.76671 1.17077 1.02643
C 31.72731 1.21790 -0.37460
C 31.82441 -0.17221 -0.85650
C 31.89735 -0.93773 0.30561
C 31.82244 -0.08226 1.44177
C 31.77855 -0.58790 -2.21648
C 31.99633 -2.28142 0.85202
O 32.18322 -3.40079 0.37288
C 31.70302 -2.20938 2.41555
C 32.77516 -2.99885 3.11595
O 33.96165 -2.61211 3.10978
O 32.20482 -3.94638 3.87584
C 33.21249 -4.74709 4.62124
H 29.81936 3.05952 6.52758
H 30.93775 7.01810 1.83580
H 31.67419 2.20479 -2.13018
H 30.47158 -1.67094 5.25706
H 30.32409 0.55955 6.97481
H 28.43030 -0.59747 4.96464
H 28.26596 1.16462 5.23724
H 28.07035 0.09697 6.59828
H 32.61494 0.02927 6.54803
H 33.14056 -1.27590 5.41104
H 31.33116 -2.39693 7.29687
H 32.17587 -1.18423 8.18212
H 30.22908 4.84837 7.56440
H 29.76736 6.44722 7.12113
H 31.47506 6.15101 7.53746
H 30.59300 8.40065 6.40056
H 31.76460 9.60860 5.62809
H 32.30919 8.08422 6.37818
H 31.68537 6.78869 -0.59091
H 30.49337 4.61968 -2.24697
H 29.70107 7.69452 -1.18030
H 28.90650 6.48307 -0.11740
H 29.10406 6.14966 -1.75959
H 32.39422 6.09491 -3.00774
H 32.62297 4.37617 -3.31012
H 33.81794 6.20113 -1.36378
H 34.65466 4.98132 -2.38293
H 33.76075 4.51756 -0.86617
H 32.55838 -1.34058 -2.33184
H 31.93558 0.25207 -2.89279
H 30.76512 -0.98503 -2.27218
H 30.71301 -2.63776 2.56882
H 33.04396 -5.79329 4.36570
H 33.12168 -4.46127 5.66932
H 34.25085 -4.62424 4.31133
