158

Mg 0.00000 0.00000 0.00000
C -0.21700 -2.21800 2.80100
C -1.25500 2.44200 2.02600
C -0.24500 1.85000 -2.56400
C 0.14600 -2.82400 -2.03700
N -0.61700 -0.00900 2.12600
C -0.59400 -0.90800 3.10500
C -0.93600 -0.30900 4.50200
C -1.77300 0.96400 4.03200
C -1.15500 1.16800 2.66000
C -3.26300 0.68500 3.86300
C 0.34500 0.11000 5.29900
C 0.12400 0.39700 6.78700
H 1.16800 0.03300 7.73300
N -0.18500 1.96100 -0.15200
C -0.70300 2.80000 0.77700
C -0.62000 4.15600 0.19300
C -0.18700 4.01500 -1.22500
C -0.21400 2.58300 -1.38000
C -0.88700 5.40600 0.97400
C 0.18100 5.01300 -2.27700
O 0.30300 4.69000 -3.50800
C 0.31000 6.41400 -1.83700
N -0.26500 -0.41300 -2.02900
C -0.27900 0.56900 -2.93700
C -0.19600 0.02400 -4.33200
C 0.12400 -1.53300 -4.18000
C 0.08600 -1.63200 -2.63500
C -1.45100 0.20500 -5.19700
C 1.37300 -2.07000 -4.92300
C 2.62600 -1.49000 -4.30600
N 0.15000 -2.14400 0.30300
C 0.17300 -3.13600 -0.68800
C 0.17300 -4.43800 0.00400
C 0.13300 -4.11100 1.35800
C 0.08300 -2.69500 1.50200
C 0.14900 -5.71500 -0.62300
C 0.09600 -4.62900 2.71600
O 0.20800 -5.74700 3.22100
C -0.25500 -3.42800 3.70100
C 0.71700 -3.48200 4.84800
O 1.93100 -3.25500 4.66900
O 0.03800 -3.55600 6.00300
C 0.94300 -3.58300 7.18300
H -1.85900 3.22000 2.49700
H -0.21800 2.45300 -3.47400
H 0.27600 -3.74700 -2.60500
H -1.55400 -0.94900 5.13200
H -1.58500 1.83100 4.66500
H -3.48400 -0.37700 3.96900
H -3.51100 1.02700 2.85800
H -3.85200 1.30100 4.54300
H 0.66900 1.09600 4.96600
H 1.13000 -0.63900 5.18900
H -0.84400 0.02600 7.12500
H 0.06200 1.47700 6.92100
H -1.34400 5.18600 1.93800
H -1.65100 5.96300 0.43200
H 0.00700 6.02000 1.08400
H -0.63500 6.74400 -1.40500
H 0.66500 6.97000 -2.70400
H 1.04800 6.46600 -1.03600
H 0.60800 0.50100 -4.89100
H -0.69200 -2.15600 -4.54700
H -1.26700 0.74000 -6.12900
H -2.20400 0.71400 -4.59600
H -1.96700 -0.72000 -5.45300
H 1.35600 -1.75900 -5.96700
H 1.45200 -3.15700 -4.90200
H 2.71400 -0.52200 -4.79800
H 3.48700 -2.12100 -4.52900
H 2.49500 -1.30300 -3.24000
H 0.86700 -6.33300 -0.08400
H 0.40400 -5.64200 -1.68000
H -0.89100 -5.99900 -0.46300
H -1.28300 -3.58100 4.02800
H 0.69800 -4.47800 7.75500
H 0.83300 -2.61900 7.68000
H 2.00000 -3.75400 6.97600
Mg 13.14537 1.18684 1.00512
C 12.61120 -1.01814 3.78573
C 12.17905 3.74685 3.04158
C 13.17168 3.08651 -1.53614
C 12.95670 -1.60775 -1.06861
N 12.50231 1.23247 3.12093
C 12.39726 0.34126 4.09512
C 12.12166 0.94958 5.49639
C 11.45070 2.33222 5.03057
C 12.10708 2.47242 3.65864
C 9.94709 2.23497 4.83297
C 13.44002 1.19651 6.31062
C 13.23138 1.49750 7.79643
H 14.21495 0.99705 8.75278
N 13.21321 3.16645 0.88216
C 12.79956 4.05407 1.81076
C 13.04509 5.38454 1.23308
C 13.48448 5.20945 -0.17795
C 13.28242 3.78385 -0.34199
C 12.93528 6.65111 2.03131
C 13.98932 6.16871 -1.21292
O 14.08699 5.83756 -2.44727
C 14.27746 7.53566 -0.75476
N 12.86408 0.83144 -1.02390
C 12.98043 1.82495 -1.92241
C 13.01025 1.28467 -3.33223
C 13.13355 -0.30267 -3.18150
C 13.06064 -0.41720 -1.64301
C 11.79701 1.62058 -4.19918
C 14.31548 -0.98992 -3.91867
C 15.62667 -0.57396 -3.29166
N 13.02608 -0.95224 1.28471
C 12.92997 -1.93976 0.27989
C 12.75725 -3.23901 0.96146
C 12.74164 -2.91191 2.32573
C 12.87363 -1.50568 2.48259
C 12.59133 -4.49907 0.32049
C 12.63286 -3.43532 3.66845
O 12.58988 -4.56206 4.16076
C 12.41657 -2.21929 4.66889
C 13.35947 -2.39741 5.82722
O 14.58966 -2.33360 5.65639
O 12.65464 -2.39630 6.97333
C 13.54732 -2.55913 8.15165
H 11.67672 4.58589 3.52383
H 13.28594 3.68413 -2.44348
H 12.98857 -2.53704 -1.64140
H 11.42660 0.38629 6.10743
H 11.74523 3.15264 5.67981
H 9.59361 1.21869 4.92448
H 9.75612 2.61377 3.83744
H 9.43213 2.91462 5.51796
H 13.88785 2.14519 5.98781
H 14.11605 0.37097 6.20062
H 12.21465 1.25353 8.12761
H 13.31025 2.57702 7.94621
H 12.43413 6.47905 2.99185
H 12.25609 7.31508 1.48568
H 13.89630 7.15443 2.15701
H 13.37696 7.97081 -0.32789
H 14.71177 8.04707 -1.61598
H 15.01615 7.48551 0.05298
H 13.87449 1.65478 -3.87001
H 12.24710 -0.81964 -3.57746
H 12.06193 2.14726 -5.13539
H 11.11044 2.21409 -3.61020
H 11.18153 0.76838 -4.48227
H 14.35264 -0.66389 -4.96101
H 14.25127 -2.07291 -3.92208
H 15.83671 0.38599 -3.77277
H 16.40411 -1.30333 -3.50995
H 15.50745 -0.38566 -2.21836
H 13.21232 -5.20490 0.85592
H 12.86232 -4.44849 -0.73202
H 11.51763 -4.64956 0.46114
H 11.37267 -2.23635 4.98441
H 13.18068 -3.42399 8.71315
H 13.53922 -1.58183 8.66989
H 14.57514 -2.84799 7.96565
