79

Mg 8.92454 0.80748 0.68160
C 6.94775 -1.98884 -0.39170
C 7.05635 2.74236 -1.41620
C 10.92881 3.19773 1.26218
C 11.31241 -1.48031 1.78149
N 7.24650 0.32397 -0.67585
C 6.54029 -0.76137 -0.95450
C 5.28122 -0.50354 -1.82504
C 5.75205 0.85986 -2.53097
C 6.72071 1.36571 -1.46397
C 6.53186 0.63426 -3.81563
C 3.99048 -0.28632 -0.95970
C 2.67600 -0.33695 -1.74159
H 1.50188 -0.91375 -1.09259
N 8.70427 2.76171 0.41504
C 7.88506 3.37581 -0.46419
C 8.10873 4.81842 -0.28253
C 9.24603 5.00179 0.65962
C 9.69368 3.63091 0.80244
C 7.23115 5.86310 -0.90856
C 9.84130 6.21232 1.31266
O 10.97528 6.16699 1.90836
C 9.10211 7.47321 1.15374
N 10.93142 0.86520 1.22144
C 11.54873 2.03484 1.46393
C 12.90074 1.81646 2.10013
C 12.96084 0.25881 2.45749
C 11.60981 -0.19045 1.85893
C 14.10848 2.18798 1.24006
C 13.27619 -0.11326 3.93221
C 12.13217 0.30721 4.82653
N 9.04722 -1.34093 0.87481
C 10.14950 -2.09445 1.33444
C 9.79834 -3.52064 1.17606
C 8.51505 -3.49761 0.60938
C 8.10420 -2.15208 0.40875
C 10.63945 -4.62456 1.49232
C 7.41887 -4.30564 0.12547
O 7.16243 -5.50896 0.12126
C 6.40691 -3.36562 -0.66110
C 5.01546 -3.67778 -0.18262
O 4.68183 -3.43721 0.99101
O 4.24891 -4.00376 -1.23927
C 2.85651 -4.31117 -0.81676
H 6.68450 3.39478 -2.20674
H 11.61604 3.98505 1.58048
H 11.96357 -2.25517 2.19168
H 5.08387 -1.26112 -2.57397
H 4.92120 1.55044 -2.64989
H 6.74321 -0.41187 -3.98020
H 7.45178 1.19299 -3.70332
H 6.00540 1.08717 -4.66064
H 3.96286 0.75471 -0.61297
H 3.95460 -0.98537 -0.14689
H 2.80873 -0.76199 -2.74393
H 2.34268 0.68708 -1.92669
H 6.58054 5.43246 -1.67970
H 7.88857 6.54561 -1.45797
H 6.66520 6.43530 -0.17035
H 8.99789 7.69978 0.09531
H 9.63617 8.20398 1.76417
H 8.08878 7.33673 1.54763
H 12.99552 2.39050 3.01369
H 13.74529 -0.26010 1.88722
H 14.77423 2.93008 1.71980
H 13.74932 2.55810 0.28898
H 14.73669 1.35103 0.93994
H 14.15794 0.43067 4.27978
H 13.47142 -1.17034 4.07870
H 12.33913 1.36565 5.01079
H 12.14029 -0.26365 5.75286
H 11.17486 0.24602 4.29598
H 10.02042 -5.35220 2.00009
H 11.48192 -4.31861 2.10910
H 10.95295 -4.92466 0.48886
H 6.52942 -3.57034 -1.72536
H 2.62282 -5.31269 -1.19095
H 2.23822 -3.47530 -1.19464
H 2.66985 -4.43277 0.24382
