79

Mg 8.92682 0.80924 0.68445
C 10.92852 2.17217 3.33298
C 7.20518 -0.91244 3.07324
C 7.44504 -0.74962 -1.64829
C 11.47407 1.71016 -1.51682
N 9.13362 0.72418 2.88496
C 9.88984 1.33249 3.78632
C 9.46057 1.08649 5.25763
C 8.68869 -0.30680 5.05318
C 8.28227 -0.14857 3.58946
C 9.59632 -1.52018 5.16837
C 8.49769 2.20326 5.79403
C 8.28554 2.19599 7.30952
H 8.12400 3.47478 7.99586
N 7.23649 -0.23041 0.70611
C 6.67128 -0.84264 1.76771
C 5.45103 -1.48701 1.25787
C 5.42867 -1.34367 -0.22324
C 6.74156 -0.77476 -0.45287
C 4.40958 -2.08510 2.15847
C 4.40132 -1.67688 -1.26234
O 4.68664 -1.68861 -2.51185
C 3.07639 -2.07987 -0.76874
N 9.47732 0.32875 -1.26193
C 8.62548 -0.30900 -2.08386
C 9.13158 -0.30143 -3.50660
C 10.38793 0.68810 -3.51044
C 10.44782 1.02687 -2.00477
C 9.55137 -1.65867 -4.07057
C 10.35861 1.85879 -4.53087
C 9.26713 2.83762 -4.16214
N 10.77107 1.92732 0.81368
C 11.70055 2.16228 -0.22311
C 12.84999 2.87171 0.37515
C 12.51712 2.98076 1.73376
C 11.25887 2.36374 1.96956
C 14.02795 3.27647 -0.31383
C 12.94891 3.46815 3.02399
O 13.89259 4.14864 3.42416
C 11.99770 2.85493 4.14003
C 11.57808 3.97091 5.05710
O 10.86506 4.89946 4.63756
O 11.90344 3.64769 6.32202
C 11.49729 4.71896 7.27031
H 6.75080 -1.66814 3.71461
H 6.92665 -1.17744 -2.50952
H 12.26398 2.11220 -2.15484
H 10.28010 0.95874 5.95464
H 7.80905 -0.36799 5.68867
H 10.63571 -1.23935 5.25177
H 9.43144 -2.09741 4.26801
H 9.27244 -2.15584 5.99745
H 7.47513 1.98507 5.46012
H 8.82813 3.17427 5.48007
H 9.02581 1.57324 7.82637
H 7.33036 1.71049 7.52387
H 4.77866 -2.18983 3.18620
H 4.24857 -3.11483 1.82143
H 3.45967 -1.54771 2.11897
H 3.17951 -2.95355 -0.12959
H 2.45422 -2.19084 -1.65895
H 2.67762 -1.27560 -0.14045
H 8.37853 0.08411 -4.18290
H 11.32209 0.15963 -3.75104
H 9.01206 -1.93202 -4.99713
H 9.39761 -2.40840 -3.30585
H 10.61389 -1.76129 -4.28439
H 10.11639 1.48530 -5.52886
H 11.30152 2.39008 -4.60592
H 8.37201 2.38540 -4.59957
H 9.46721 3.81555 -4.59534
H 9.12120 2.87369 -3.07630
H 14.25616 4.27922 0.02218
H 13.89020 3.23949 -1.39246
H 14.73016 2.51532 0.03664
H 12.56326 2.08426 4.66517
H 12.39376 5.01012 7.82641
H 10.65690 4.29843 7.85396
H 11.19054 5.66990 6.85070
