158

Mg 0.00000 0.00000 0.00000
C -0.21700 -2.21800 2.80100
C -1.25500 2.44200 2.02600
C -0.24500 1.85000 -2.56400
C 0.14600 -2.82400 -2.03700
N -0.61700 -0.00900 2.12600
C -0.59400 -0.90800 3.10500
C -0.93600 -0.30900 4.50200
C -1.77300 0.96400 4.03200
C -1.15500 1.16800 2.66000
C -3.26300 0.68500 3.86300
C 0.34500 0.11000 5.29900
C 0.12400 0.39700 6.78700
H 1.16800 0.03300 7.73300
N -0.18500 1.96100 -0.15200
C -0.70300 2.80000 0.77700
C -0.62000 4.15600 0.19300
C -0.18700 4.01500 -1.22500
C -0.21400 2.58300 -1.38000
C -0.88700 5.40600 0.97400
C 0.18100 5.01300 -2.27700
O 0.30300 4.69000 -3.50800
C 0.31000 6.41400 -1.83700
N -0.26500 -0.41300 -2.02900
C -0.27900 0.56900 -2.93700
C -0.19600 0.02400 -4.33200
C 0.12400 -1.53300 -4.18000
C 0.08600 -1.63200 -2.63500
C -1.45100 0.20500 -5.19700
C 1.37300 -2.07000 -4.92300
C 2.62600 -1.49000 -4.30600
N 0.15000 -2.14400 0.30300
C 0.17300 -3.13600 -0.68800
C 0.17300 -4.43800 0.00400
C 0.13300 -4.11100 1.35800
C 0.08300 -2.69500 1.50200
C 0.14900 -5.71500 -0.62300
C 0.09600 -4.62900 2.71600
O 0.20800 -5.74700 3.22100
C -0.25500 -3.42800 3.70100
C 0.71700 -3.48200 4.84800
O 1.93100 -3.25500 4.66900
O 0.03800 -3.55600 6.00300
C 0.94300 -3.58300 7.18300
H -1.85900 3.22000 2.49700
H -0.21800 2.45300 -3.47400
H 0.27600 -3.74700 -2.60500
H -1.55400 -0.94900 5.13200
H -1.58500 1.83100 4.66500
H -3.48400 -0.37700 3.96900
H -3.51100 1.02700 2.85800
H -3.85200 1.30100 4.54300
H 0.66900 1.09600 4.96600
H 1.13000 -0.63900 5.18900
H -0.84400 0.02600 7.12500
H 0.06200 1.47700 6.92100
H -1.34400 5.18600 1.93800
H -1.65100 5.96300 0.43200
H 0.00700 6.02000 1.08400
H -0.63500 6.74400 -1.40500
H 0.66500 6.97000 -2.70400
H 1.04800 6.46600 -1.03600
H 0.60800 0.50100 -4.89100
H -0.69200 -2.15600 -4.54700
H -1.26700 0.74000 -6.12900
H -2.20400 0.71400 -4.59600
H -1.96700 -0.72000 -5.45300
H 1.35600 -1.75900 -5.96700
H 1.45200 -3.15700 -4.90200
H 2.71400 -0.52200 -4.79800
H 3.48700 -2.12100 -4.52900
H 2.49500 -1.30300 -3.24000
H 0.86700 -6.33300 -0.08400
H 0.40400 -5.64200 -1.68000
H -0.89100 -5.99900 -0.46300
H -1.28300 -3.58100 4.02800
H 0.69800 -4.47800 7.75500
H 0.83300 -2.61900 7.68000
H 2.00000 -3.75400 6.97600
Mg 8.92638 0.80140 0.68518
C 8.94727 3.51407 3.03466
C 9.57211 -1.27964 3.30947
C 9.36066 -1.54244 -1.40892
C 9.42150 3.16058 -1.83173
N 9.20173 1.18628 2.84580
C 9.12633 2.24918 3.63250
C 9.16942 1.92985 5.15097
C 9.93072 0.51776 5.07822
C 9.51886 0.09024 3.67100
C 11.44439 0.64756 5.11416
C 7.73595 1.77833 5.77081
C 7.69402 1.77321 7.30051
H 6.55492 2.39756 7.96767
N 8.91062 -1.16682 0.93899
C 9.17421 -1.84266 2.07699
C 9.05060 -3.26836 1.73602
C 8.85438 -3.38364 0.26533
C 9.05956 -2.00656 -0.13672
C 9.04269 -4.35499 2.77169
C 8.54719 -4.54381 -0.63236
O 8.65533 -4.45639 -1.90652
C 8.20639 -5.81199 0.02874
N 9.54242 0.78082 -1.30037
C 9.59540 -0.36869 -1.99589
C 9.79698 -0.10601 -3.46924
C 9.62568 1.47357 -3.65138
C 9.43472 1.87949 -2.17350
C 11.14472 -0.54115 -4.04425
C 8.57562 1.95234 -4.69101
C 7.18356 1.60005 -4.21832
N 8.96383 2.95804 0.56036
C 9.21396 3.74180 -0.58735
C 9.24867 5.15300 -0.15175
C 9.03755 5.09015 1.23387
C 8.90235 3.73406 1.63668
C 9.50168 6.27604 -0.98894
C 8.90892 5.86195 2.44898
O 8.85053 7.06205 2.71373
C 8.97086 4.86810 3.68786
C 7.84248 5.21630 4.61953
O 6.66024 5.06285 4.26545
O 8.34255 5.46493 5.84366
C 7.26050 5.80429 6.80585
H 9.99808 -1.98777 4.02079
H 9.41115 -2.30519 -2.18939
H 9.47310 3.96259 -2.57119
H 9.74204 2.63074 5.74648
H 9.54286 -0.17861 5.81714
H 11.76166 1.67854 5.06344
H 11.80728 0.09738 4.25588
H 11.84597 0.13461 5.99276
H 7.36392 0.76555 5.56927
H 7.07587 2.53513 5.39376
H 8.63597 2.12344 7.73985
H 7.60737 0.73879 7.64182
H 9.37090 -3.98120 3.74942
H 9.81468 -5.07679 2.48374
H 8.08208 -4.87080 2.83368
H 9.02793 -6.11542 0.67330
H 7.93236 -6.49674 -0.77619
H 7.34067 -5.64569 0.67951
H 9.04227 -0.61165 -4.05902
H 10.55846 1.94825 -3.98964
H 11.05057 -1.24694 -4.89105
H 11.73038 -0.97953 -3.24715
H 11.78623 0.27073 -4.38265
H 8.72084 1.43421 -5.64212
H 8.62293 3.01706 -4.89381
H 7.07287 0.55770 -4.53191
H 6.44339 2.23728 -4.69805
H 7.12179 1.62343 -3.12412
H 8.78815 7.03975 -0.70946
H 9.41402 6.01504 -2.04154
H 10.53353 6.50136 -0.70646
H 9.94570 4.99409 4.16049
H 7.51330 6.77599 7.24125
H 7.19546 4.94377 7.49797
H 6.27485 6.00356 6.40181
