79

Mg 15.76628 1.41940 1.19766
C 15.91177 -2.13619 0.81194
C 14.69106 0.87972 4.39073
C 15.19631 4.53133 1.41599
C 15.74690 1.64784 -2.27985
N 15.39030 -0.43817 2.34166
C 15.54209 -1.73615 2.09799
C 15.34467 -2.62882 3.35955
C 14.43257 -1.64651 4.22277
C 14.88922 -0.31918 3.64347
C 12.93956 -1.81065 3.95730
C 16.69690 -2.94047 4.08488
C 16.63674 -4.06248 5.12547
H 17.78741 -4.94032 5.27610
N 15.52216 2.56886 2.78574
C 15.09243 2.17841 4.00974
C 15.07984 3.39823 4.84554
C 15.35520 4.56141 3.95713
C 15.34279 3.92845 2.66306
C 14.87391 3.37707 6.32908
C 15.58155 6.01481 4.23012
O 15.57278 6.89114 3.29923
C 15.72773 6.40252 5.64481
N 15.28611 2.87777 -0.21663
C 15.14933 4.16109 0.13460
C 15.08845 5.05327 -1.06966
C 15.45776 4.13266 -2.32099
C 15.59430 2.77717 -1.58459
C 13.74121 5.74346 -1.32382
C 16.62779 4.60465 -3.22025
C 17.92858 4.52685 -2.45279
N 15.99650 0.04211 -0.46399
C 15.93090 0.35093 -1.83038
C 16.03679 -0.92221 -2.56657
C 16.14065 -1.89112 -1.57045
C 16.07568 -1.26559 -0.29265
C 15.97136 -1.07573 -3.97958
C 16.26662 -3.31178 -1.28811
O 16.45889 -4.31812 -1.97208
C 16.00105 -3.53937 0.26543
C 17.09572 -4.42922 0.78809
O 18.27691 -4.02941 0.83629
O 16.55142 -5.51155 1.36499
C 17.58261 -6.42191 1.93072
H 14.12622 0.83279 5.32385
H 15.10843 5.61943 1.44346
H 15.83321 1.64903 -3.36797
H 14.81501 -3.56386 3.17633
H 14.67068 -1.69835 5.28500
H 12.75529 -2.48714 3.12283
H 12.57364 -0.81045 3.72449
H 12.41649 -2.11771 4.86333
H 16.95989 -2.10257 4.73050
H 17.48114 -3.16244 3.36029
H 15.72086 -4.64633 5.02957
H 16.56617 -3.60823 6.11384
H 14.53212 2.40133 6.67210
H 14.04215 4.04745 6.54468
H 15.76080 3.70547 6.87123
H 14.82967 6.11432 6.19159
H 15.97155 7.46431 5.64195
H 16.54903 5.83502 6.08339
H 15.81442 5.86181 -0.99443
H 14.61994 4.02382 -3.01011
H 13.80836 6.83060 -1.37198
H 13.04877 5.42859 -0.54364
H 13.22049 5.41276 -2.22210
H 16.48772 5.64568 -3.50935
H 16.73267 4.01818 -4.13310
H 17.93979 5.46382 -1.89711
H 18.77313 4.47060 -3.14039
H 17.91304 3.71606 -1.72419
H 16.75843 -1.78086 -4.24656
H 16.10535 -0.12129 -4.48820
H 14.96219 -1.47137 -4.09319
H 15.01951 -4.00458 0.35080
H 17.42271 -7.40403 1.48564
H 17.50735 -6.33952 3.01514
H 18.61349 -6.22656 1.63332
