158

Mg 0.00000 0.00000 0.00000
C -0.21700 -2.21800 2.80100
C -1.25500 2.44200 2.02600
C -0.24500 1.85000 -2.56400
C 0.14600 -2.82400 -2.03700
N -0.61700 -0.00900 2.12600
C -0.59400 -0.90800 3.10500
C -0.93600 -0.30900 4.50200
C -1.77300 0.96400 4.03200
C -1.15500 1.16800 2.66000
C -3.26300 0.68500 3.86300
C 0.34500 0.11000 5.29900
C 0.12400 0.39700 6.78700
H 1.16800 0.03300 7.73300
N -0.18500 1.96100 -0.15200
C -0.70300 2.80000 0.77700
C -0.62000 4.15600 0.19300
C -0.18700 4.01500 -1.22500
C -0.21400 2.58300 -1.38000
C -0.88700 5.40600 0.97400
C 0.18100 5.01300 -2.27700
O 0.30300 4.69000 -3.50800
C 0.31000 6.41400 -1.83700
N -0.26500 -0.41300 -2.02900
C -0.27900 0.56900 -2.93700
C -0.19600 0.02400 -4.33200
C 0.12400 -1.53300 -4.18000
C 0.08600 -1.63200 -2.63500
C -1.45100 0.20500 -5.19700
C 1.37300 -2.07000 -4.92300
C 2.62600 -1.49000 -4.30600
N 0.15000 -2.14400 0.30300
C 0.17300 -3.13600 -0.68800
C 0.17300 -4.43800 0.00400
C 0.13300 -4.11100 1.35800
C 0.08300 -2.69500 1.50200
C 0.14900 -5.71500 -0.62300
C 0.09600 -4.62900 2.71600
O 0.20800 -5.74700 3.22100
C -0.25500 -3.42800 3.70100
C 0.71700 -3.48200 4.84800
O 1.93100 -3.25500 4.66900
O 0.03800 -3.55600 6.00300
C 0.94300 -3.58300 7.18300
H -1.85900 3.22000 2.49700
H -0.21800 2.45300 -3.47400
H 0.27600 -3.74700 -2.60500
H -1.55400 -0.94900 5.13200
H -1.58500 1.83100 4.66500
H -3.48400 -0.37700 3.96900
H -3.51100 1.02700 2.85800
H -3.85200 1.30100 4.54300
H 0.66900 1.09600 4.96600
H 1.13000 -0.63900 5.18900
H -0.84400 0.02600 7.12500
H 0.06200 1.47700 6.92100
H -1.34400 5.18600 1.93800
H -1.65100 5.96300 0.43200
H 0.00700 6.02000 1.08400
H -0.63500 6.74400 -1.40500
H 0.66500 6.97000 -2.70400
H 1.04800 6.46600 -1.03600
H 0.60800 0.50100 -4.89100
H -0.69200 -2.15600 -4.54700
H -1.26700 0.74000 -6.12900
H -2.20400 0.71400 -4.59600
H -1.96700 -0.72000 -5.45300
H 1.35600 -1.75900 -5.96700
H 1.45200 -3.15700 -4.90200
H 2.71400 -0.52200 -4.79800
H 3.48700 -2.12100 -4.52900
H 2.49500 -1.30300 -3.24000
H 0.86700 -6.33300 -0.08400
H 0.40400 -5.64200 -1.68000
H -0.89100 -5.99900 -0.46300
H -1.28300 -3.58100 4.02800
H 0.69800 -4.47800 7.75500
H 0.83300 -2.61900 7.68000
H 2.00000 -3.75400 6.97600
Mg 7.89099 0.70266 0.59991
C 8.05703 -0.64391 -2.72247
C 7.20985 -2.45813 1.68622
C 7.29431 1.92343 3.46717
C 7.44886 3.84332 -0.84456
N 7.68673 -1.21954 -0.47512
C 7.83202 -1.61984 -1.72931
C 7.81039 -3.16028 -1.91939
C 6.98071 -3.55353 -0.60187
C 7.33745 -2.35704 0.27781
C 5.47632 -3.55676 -0.81665
C 9.24952 -3.78522 -1.89979
C 9.32813 -5.23410 -2.38593
H 10.51166 -5.65519 -3.13052
N 7.81848 -0.17362 2.37908
C 7.55038 -1.47090 2.63688
C 7.59719 -1.60819 4.10082
C 7.75204 -0.25231 4.69440
C 7.60347 0.57176 3.51164
C 7.57802 -2.93942 4.79429
C 7.98145 0.22441 6.09665
O 7.84685 1.45759 6.41910
C 8.27693 -0.80860 7.10018
N 7.22684 2.57035 1.22679
C 7.10200 2.85654 2.53463
C 6.87768 4.33417 2.75068
C 7.12008 5.01840 1.32567
C 7.36596 3.75252 0.47568
C 5.49712 4.72768 3.27564
C 8.16644 6.16471 1.26424
C 9.55103 5.61382 1.51883
N 7.95399 1.51762 -1.40007
C 7.71406 2.85518 -1.78406
C 7.75760 2.89889 -3.26007
C 7.99891 1.56893 -3.63620
C 8.07862 0.75041 -2.47725
C 7.53857 4.05226 -4.06498
C 8.19375 0.66953 -4.75057
O 8.31600 0.80736 -5.96704
C 8.11419 -0.82452 -4.21402
C 9.28017 -1.58526 -4.78348
O 10.44478 -1.29106 -4.46140
O 8.82234 -2.66696 -5.43975
C 9.94237 -3.45977 -6.01315
H 6.76774 -3.36329 2.10347
H 7.18844 2.41504 4.43700
H 7.41791 4.80192 -1.36686
H 7.28661 -3.50149 -2.80427
H 7.35249 -4.47498 -0.16134
H 5.20772 -3.17785 -1.79155
H 5.06682 -2.92511 -0.03924
H 5.07197 -4.55695 -0.63650
H 9.56757 -3.91913 -0.85784
H 9.93582 -3.17891 -2.45836
H 8.41496 -5.54359 -2.90870
H 9.37330 -5.89080 -1.51374
H 7.29185 -3.74623 4.10831
H 6.76558 -2.90596 5.52824
H 8.51401 -3.15772 5.31289
H 7.45761 -1.52269 7.13542
H 8.49827 -0.26622 8.02144
H 9.16511 -1.36425 6.77924
H 7.59279 4.73440 3.45888
H 6.20322 5.48503 0.93649
H 5.53681 5.30155 4.22073
H 4.91055 3.82737 3.40180
H 4.88728 5.30561 2.58332
H 7.97359 6.89617 2.05286
H 8.16535 6.70042 0.32084
H 9.60399 5.57444 2.61096
H 10.30909 6.27923 1.11064
H 9.64029 4.58639 1.14723
H 8.29446 4.03993 -4.83892
H 7.58814 4.96460 -3.47426
H 6.52585 3.85016 -4.42390
H 7.15822 -1.23824 -4.53734
H 9.74706 -3.55956 -7.08534
H 9.98278 -4.39239 -5.41957
H 10.92638 -3.00574 -6.01878
