79

Mg 31.53256 2.83880 2.39533
C 31.28112 5.43507 -0.05588
C 31.04482 0.60483 -0.13737
C 31.29718 0.56441 4.59268
C 30.86801 5.25954 4.81278
N 31.21719 3.10812 0.22078
C 31.20214 4.15207 -0.60208
C 31.17058 3.75178 -2.10745
C 30.53283 2.29721 -1.96782
C 30.98753 1.96702 -0.55710
C 29.00801 2.29430 -2.00574
C 32.60310 3.69124 -2.73671
C 32.64273 3.62948 -4.26641
H 33.71726 4.31604 -4.96738
N 31.70155 0.87726 2.23211
C 31.48091 0.13512 1.12043
C 31.73841 -1.26812 1.50942
C 31.94195 -1.30139 2.98440
C 31.62501 0.05903 3.33681
C 31.81943 -2.39347 0.52415
C 32.34617 -2.38962 3.92806
O 32.23808 -2.26540 5.19592
C 32.79490 -3.65460 3.31854
N 30.92349 2.85086 4.39196
C 30.97249 1.73984 5.13507
C 30.76254 2.04540 6.58851
C 30.80099 3.63665 6.71576
C 30.95361 3.98973 5.21565
C 29.45919 1.51570 7.20228
C 31.81471 4.23735 7.72171
C 33.22606 3.98513 7.24049
N 31.31540 4.99810 2.43170
C 31.01731 5.79687 3.54516
C 30.86529 7.17970 3.05653
C 31.07048 7.08603 1.68140
C 31.30801 5.72661 1.32948
C 30.51685 8.30962 3.84791
C 31.11992 7.81450 0.42413
O 31.08632 9.00514 0.10989
C 31.13749 6.75768 -0.76694
C 32.22748 7.16545 -1.72034
O 33.42710 7.11419 -1.38027
O 31.70867 7.32234 -2.94785
C 32.74301 7.69847 -3.94826
H 30.66730 -0.17021 -0.80725
H 31.31440 -0.17199 5.39882
H 30.74403 6.08093 5.52087
H 30.53373 4.37918 -2.73132
H 30.96437 1.59362 -2.67948
H 28.60724 3.30777 -1.99283
H 28.69574 1.75004 -1.11424
H 28.64274 1.71472 -2.85393
H 33.05916 2.72989 -2.50034
H 33.21081 4.52937 -2.39387
H 31.67672 3.88820 -4.70091
H 32.80394 2.59282 -4.56231
H 31.46334 -2.09074 -0.45977
H 31.10809 -3.15266 0.84872
H 32.81961 -2.82416 0.47441
H 31.99600 -4.05714 2.69542
H 33.12814 -4.28403 4.14292
H 33.63059 -3.44725 2.64951
H 31.55920 1.61906 7.19679
H 29.84035 4.04514 7.03037
H 29.61336 0.86746 8.06525
H 28.90357 0.99963 6.41982
H 28.74846 2.28587 7.50079
H 31.71605 3.75458 8.69339
H 31.68961 5.31000 7.87009
H 33.42772 2.97535 7.59617
H 33.91471 4.70188 7.68909
H 33.27753 3.96346 6.15174
H 31.17154 9.12000 3.52753
H 30.63621 8.10063 4.91077
H 29.47320 8.44166 3.56293
H 30.15270 6.79286 -1.23177
H 32.41316 8.62512 -4.41810
H 32.88460 6.82844 -4.58967
H 33.71115 8.00328 -3.54933
