79

Mg 31.53969 2.84486 2.39035
C 30.92831 6.02465 3.93767
C 30.75079 4.31001 -0.58716
C 31.63090 -0.03530 1.06226
C 31.16185 1.39681 5.53774
N 30.93446 4.90788 1.87083
C 30.79560 6.04620 2.53362
C 30.57706 7.29194 1.63365
C 29.97687 6.55227 0.34078
C 30.61780 5.17833 0.52569
C 28.46718 6.38552 0.38950
C 31.92014 8.03163 1.30044
C 31.75266 9.42354 0.68702
H 32.72210 10.45873 1.03495
N 31.71590 2.31361 0.48633
C 31.36750 3.03961 -0.59664
C 31.67753 2.19745 -1.76231
C 32.08360 0.85159 -1.27396
C 31.79967 0.98773 0.14059
C 31.65150 2.71601 -3.17080
C 32.62439 -0.36200 -1.96746
O 32.68346 -1.50120 -1.38303
C 32.99574 -0.19861 -3.38058
N 31.20624 0.93492 3.14089
C 31.36332 -0.15064 2.36319
C 31.34015 -1.41782 3.18423
C 31.37709 -0.94159 4.71047
C 31.32278 0.58749 4.49983
C 30.13369 -2.33044 2.96520
C 32.50675 -1.52515 5.60266
C 33.84907 -1.00365 5.14268
N 31.30573 3.56262 4.41473
C 31.13844 2.78495 5.58149
C 30.90451 3.72195 6.69940
C 30.92924 4.98874 6.09681
C 31.14202 4.84989 4.69861
C 30.65819 3.35705 8.05302
C 30.81314 6.41128 6.32393
O 30.71530 7.12680 7.32003
C 30.68125 7.13859 4.91680
C 31.63134 8.30466 4.90579
O 32.86024 8.11909 4.95009
O 30.94628 9.42859 4.62676
C 31.84742 10.61125 4.59376
H 30.30393 4.60983 -1.53548
H 31.76365 -1.04736 0.67291
H 31.13254 1.02913 6.56567
H 29.86162 8.00948 2.01711
H 30.32719 7.01593 -0.57773
H 28.05906 6.68737 1.34263
H 28.28158 5.33388 0.21442
H 28.00210 6.91679 -0.44583
H 32.41494 7.51714 0.46665
H 32.54717 8.09241 2.16864
H 30.72939 9.80244 0.79787
H 31.89407 9.34578 -0.39371
H 31.15712 3.69347 -3.23050
H 31.00169 2.04740 -3.74575
H 32.64101 2.73048 -3.63268
H 32.12795 0.13251 -3.94605
H 33.44394 -1.14903 -3.67672
H 33.74344 0.59881 -3.45588
H 32.21489 -2.02434 2.98409
H 30.45688 -1.21792 5.24591
H 30.41242 -3.35666 2.65984
H 29.49092 -1.87449 2.22392
H 29.46711 -2.42797 3.82039
H 32.54520 -2.61260 5.50202
H 32.38215 -1.30355 6.65734
H 34.10456 -1.67432 4.31684
H 34.58096 -1.06917 5.94523
H 33.75791 0.00773 4.72984
H 31.24740 4.02461 8.66760
H 30.91454 2.31580 8.23706
H 29.58018 3.53040 8.10868
H 29.64325 7.45521 4.80770
H 31.44220 11.34150 5.30103
H 31.90225 10.91551 3.53161
H 32.85437 10.48487 4.97391
