158

Mg 0.00000 0.00000 0.00000
C -0.21700 -2.21800 2.80100
C -1.25500 2.44200 2.02600
C -0.24500 1.85000 -2.56400
C 0.14600 -2.82400 -2.03700
N -0.61700 -0.00900 2.12600
C -0.59400 -0.90800 3.10500
C -0.93600 -0.30900 4.50200
C -1.77300 0.96400 4.03200
C -1.15500 1.16800 2.66000
C -3.26300 0.68500 3.86300
C 0.34500 0.11000 5.29900
C 0.12400 0.39700 6.78700
H 1.16800 0.03300 7.73300
N -0.18500 1.96100 -0.15200
C -0.70300 2.80000 0.77700
C -0.62000 4.15600 0.19300
C -0.18700 4.01500 -1.22500
C -0.21400 2.58300 -1.38000
C -0.88700 5.40600 0.97400
C 0.18100 5.01300 -2.27700
O 0.30300 4.69000 -3.50800
C 0.31000 6.41400 -1.83700
N -0.26500 -0.41300 -2.02900
C -0.27900 0.56900 -2.93700
C -0.19600 0.02400 -4.33200
C 0.12400 -1.53300 -4.18000
C 0.08600 -1.63200 -2.63500
C -1.45100 0.20500 -5.19700
C 1.37300 -2.07000 -4.92300
C 2.62600 -1.49000 -4.30600
N 0.15000 -2.14400 0.30300
C 0.17300 -3.13600 -0.68800
C 0.17300 -4.43800 0.00400
C 0.13300 -4.11100 1.35800
C 0.08300 -2.69500 1.50200
C 0.14900 -5.71500 -0.62300
C 0.09600 -4.62900 2.71600
O 0.20800 -5.74700 3.22100
C -0.25500 -3.42800 3.70100
C 0.71700 -3.48200 4.84800
O 1.93100 -3.25500 4.66900
O 0.03800 -3.55600 6.00300
C 0.94300 -3.58300 7.18300
H -1.85900 3.22000 2.49700
H -0.21800 2.45300 -3.47400
H 0.27600 -3.74700 -2.60500
H -1.55400 -0.94900 5.13200
H -1.58500 1.83100 4.66500
H -3.48400 -0.37700 3.96900
H -3.51100 1.02700 2.85800
H -3.85200 1.30100 4.54300
H 0.66900 1.09600 4.96600
H 1.13000 -0.63900 5.18900
H -0.84400 0.02600 7.12500
H 0.06200 1.47700 6.92100
H -1.34400 5.18600 1.93800
H -1.65100 5.96300 0.43200
H 0.00700 6.02000 1.08400
H -0.63500 6.74400 -1.40500
H 0.66500 6.97000 -2.70400
H 1.04800 6.46600 -1.03600
H 0.60800 0.50100 -4.89100
H -0.69200 -2.15600 -4.54700
H -1.26700 0.74000 -6.12900
H -2.20400 0.71400 -4.59600
H -1.96700 -0.72000 -5.45300
H 1.35600 -1.75900 -5.96700
H 1.45200 -3.15700 -4.90200
H 2.71400 -0.52200 -4.79800
H 3.48700 -2.12100 -4.52900
H 2.49500 -1.30300 -3.24000
H 0.86700 -6.33300 -0.08400
H 0.40400 -5.64200 -1.68000
H -0.89100 -5.99900 -0.46300
H -1.28300 -3.58100 4.02800
H 0.69800 -4.47800 7.75500
H 0.83300 -2.61900 7.68000
H 2.00000 -3.75400 6.97600
Mg 15.75890 1.42316 1.20428
C 13.40461 -1.28542 1.20058
C 13.25214 3.40649 0.01383
C 17.91180 3.71296 0.76923
C 18.29557 -0.96516 1.28769
N 13.64449 0.99991 0.71195
C 12.84471 -0.05138 0.80928
C 11.34582 0.25414 0.54555
C 11.52381 1.57212 -0.35452
C 12.87422 2.04962 0.17563
C 11.67143 1.27298 -1.83711
C 10.55731 0.56284 1.86651
C 9.03402 0.56564 1.72045
H 8.22728 0.07012 2.83225
N 15.52318 3.37952 0.96834
C 14.43207 4.01627 0.49370
C 14.76854 5.44838 0.49754
C 16.20535 5.59169 0.85777
C 16.61671 4.20213 0.85879
C 13.74968 6.52427 0.25712
C 17.06954 6.78311 1.14040
O 18.34653 6.68993 1.19917
C 16.38354 8.07851 1.25368
N 17.80483 1.38351 0.83697
C 18.51217 2.52297 0.74091
C 19.99662 2.24605 0.75150
C 20.14199 0.69656 1.11962
C 18.64817 0.30789 1.17289
C 20.73559 2.52971 -0.55612
C 21.04143 0.34349 2.33576
C 20.40587 0.84772 3.61138
N 15.86749 -0.72345 1.42417
C 17.02987 -1.52509 1.40548
C 16.58878 -2.93323 1.47612
C 15.18838 -2.85341 1.50804
C 14.78460 -1.49258 1.44027
C 17.44019 -4.07374 1.45466
C 13.95961 -3.61143 1.57293
O 13.67868 -4.79858 1.73260
C 12.74672 -2.63650 1.24920
C 11.68129 -2.86004 2.28719
O 11.89004 -2.57318 3.47914
O 10.52501 -3.16885 1.67237
C 9.43503 -3.38895 2.65995
H 12.60459 4.05905 -0.57245
H 18.69959 4.46878 0.72932
H 19.02839 -1.76450 1.41696
H 10.81811 -0.50934 -0.01338
H 10.74957 2.30425 -0.14027
H 11.75095 0.21315 -2.02831
H 12.57257 1.78286 -2.15178
H 10.85308 1.73358 -2.39790
H 10.72132 1.61190 2.14457
H 10.84411 -0.11331 2.64830
H 8.70955 0.10984 0.77710
H 8.69423 1.60168 1.64835
H 12.81584 6.11152 -0.14410
H 14.13620 7.15612 -0.54987
H 13.57581 7.14440 1.13910
H 15.84673 8.28480 0.33078
H 17.15533 8.79337 1.54553
H 15.63061 8.00750 2.04657
H 20.49465 2.83595 1.51116
H 20.58703 0.12167 0.29422
H 21.57106 3.24548 -0.43890
H 20.01989 2.89590 -1.28014
H 21.14217 1.65249 -1.05648
H 22.00788 0.84639 2.25069
H 21.23867 -0.71887 2.43314
H 20.71321 1.89733 3.64208
H 20.78592 0.29985 4.47129
H 19.31212 0.82643 3.54126
H 17.06881 -4.75376 2.20974
H 18.47661 -3.79973 1.64044
H 17.28351 -4.41480 0.42782
H 12.39528 -2.87333 0.24423
H 9.02475 -4.38487 2.46631
H 8.74809 -2.52974 2.54316
H 9.71407 -3.47442 3.70363
