79

Mg 31.52456 2.84104 2.38874
C 31.74201 0.08864 0.09614
C 32.03713 4.90734 -0.27627
C 31.78764 5.25165 4.43501
C 32.16971 0.57362 4.95551
N 31.83508 2.43181 0.23738
C 31.83632 1.35033 -0.52731
C 31.86396 1.64067 -2.05194
C 32.52609 3.10298 -2.00629
C 32.07972 3.52992 -0.60945
C 34.04525 3.07692 -2.03511
C 30.42616 1.68047 -2.67898
C 30.39062 1.65133 -4.20857
H 29.30002 0.93655 -4.86595
N 31.37468 4.79790 2.09409
C 31.59613 5.46680 0.94309
C 31.37336 6.88731 1.25404
C 31.16330 7.01894 2.72144
C 31.46088 5.66778 3.15258
C 31.29529 7.94936 0.19603
C 30.77321 8.17339 3.59395
O 30.88157 8.11976 4.86997
C 30.34893 9.40130 2.90569
N 32.12910 2.94467 4.37523
C 32.09994 4.10912 5.04689
C 32.31270 3.89118 6.52596
C 32.24957 2.30763 6.74034
C 32.09337 1.85932 5.27065
C 33.62484 4.42971 7.09575
C 31.23039 1.77917 7.78661
C 29.81947 2.02509 7.30265
N 31.70959 0.69511 2.55840
C 32.00800 -0.04589 3.72285
C 32.14151 -1.45999 3.31674
C 31.93258 -1.44024 1.92949
C 31.70626 -0.10521 1.49824
C 32.46746 -2.54557 4.17779
C 31.86257 -2.24381 0.73030
O 31.88795 -3.45025 0.49033
C 31.86144 -1.27366 -0.52875
C 30.76371 -1.71770 -1.45629
O 29.57219 -1.63872 -1.10893
O 31.28499 -1.95638 -2.67353
C 30.23301 -2.38903 -3.63163
H 32.41651 5.62837 -1.00089
H 31.78221 6.03191 5.19962
H 32.27310 -0.20761 5.71160
H 32.48597 0.96878 -2.63111
H 32.09450 3.75572 -2.76063
H 34.43240 2.07147 -1.96208
H 34.36574 3.66825 -1.18737
H 34.41443 3.59817 -2.92299
H 29.98454 2.66917 -2.49958
H 29.81802 0.88794 -2.28823
H 31.35631 1.35780 -4.63779
H 30.23457 2.67012 -4.57152
H 31.65265 7.57906 -0.77277
H 32.01459 8.72831 0.47118
H 30.30178 8.39648 0.12053
H 31.15047 9.74725 2.25737
H 30.02500 10.08193 3.69543
H 29.49953 9.16253 2.25599
H 31.52248 4.35570 7.10291
H 33.21129 1.90528 7.09110
H 33.47874 5.14457 7.92744
H 34.18244 4.89092 6.29144
H 34.31915 3.67100 7.45280
H 31.33553 2.32545 8.72719
H 31.34988 0.72461 8.01160
H 29.63606 3.06356 7.59422
H 29.12277 1.34842 7.79334
H 29.76421 1.97509 6.20899
H 31.80932 -3.36213 3.91213
H 32.35750 -2.26969 5.22448
H 33.51357 -2.70510 3.90306
H 32.84468 -1.34195 -0.99582
H 30.55387 -3.34976 -4.04603
H 30.11199 -1.54940 -4.34164
H 29.26164 -2.64732 -3.22642
