158

Mg 0.00000 0.00000 0.00000
C -0.21700 -2.21800 2.80100
C -1.25500 2.44200 2.02600
C -0.24500 1.85000 -2.56400
C 0.14600 -2.82400 -2.03700
N -0.61700 -0.00900 2.12600
C -0.59400 -0.90800 3.10500
C -0.93600 -0.30900 4.50200
C -1.77300 0.96400 4.03200
C -1.15500 1.16800 2.66000
C -3.26300 0.68500 3.86300
C 0.34500 0.11000 5.29900
C 0.12400 0.39700 6.78700
H 1.16800 0.03300 7.73300
N -0.18500 1.96100 -0.15200
C -0.70300 2.80000 0.77700
C -0.62000 4.15600 0.19300
C -0.18700 4.01500 -1.22500
C -0.21400 2.58300 -1.38000
C -0.88700 5.40600 0.97400
C 0.18100 5.01300 -2.27700
O 0.30300 4.69000 -3.50800
C 0.31000 6.41400 -1.83700
N -0.26500 -0.41300 -2.02900
C -0.27900 0.56900 -2.93700
C -0.19600 0.02400 -4.33200
C 0.12400 -1.53300 -4.18000
C 0.08600 -1.63200 -2.63500
C -1.45100 0.20500 -5.19700
C 1.37300 -2.07000 -4.92300
C 2.62600 -1.49000 -4.30600
N 0.15000 -2.14400 0.30300
C 0.17300 -3.13600 -0.68800
C 0.17300 -4.43800 0.00400
C 0.13300 -4.11100 1.35800
C 0.08300 -2.69500 1.50200
C 0.14900 -5.71500 -0.62300
C 0.09600 -4.62900 2.71600
O 0.20800 -5.74700 3.22100
C -0.25500 -3.42800 3.70100
C 0.71700 -3.48200 4.84800
O 1.93100 -3.25500 4.66900
O 0.03800 -3.55600 6.00300
C 0.94300 -3.58300 7.18300
H -1.85900 3.22000 2.49700
H -0.21800 2.45300 -3.47400
H 0.27600 -3.74700 -2.60500
H -1.55400 -0.94900 5.13200
H -1.58500 1.83100 4.66500
H -3.48400 -0.37700 3.96900
H -3.51100 1.02700 2.85800
H -3.85200 1.30100 4.54300
H 0.66900 1.09600 4.96600
H 1.13000 -0.63900 5.18900
H -0.84400 0.02600 7.12500
H 0.06200 1.47700 6.92100
H -1.34400 5.18600 1.93800
H -1.65100 5.96300 0.43200
H 0.00700 6.02000 1.08400
H -0.63500 6.74400 -1.40500
H 0.66500 6.97000 -2.70400
H 1.04800 6.46600 -1.03600
H 0.60800 0.50100 -4.89100
H -0.69200 -2.15600 -4.54700
H -1.26700 0.74000 -6.12900
H -2.20400 0.71400 -4.59600
H -1.96700 -0.72000 -5.45300
H 1.35600 -1.75900 -5.96700
H 1.45200 -3.15700 -4.90200
H 2.71400 -0.52200 -4.79800
H 3.48700 -2.12100 -4.52900
H 2.49500 -1.30300 -3.24000
H 0.86700 -6.33300 -0.08400
H 0.40400 -5.64200 -1.68000
H -0.89100 -5.99900 -0.46300
H -1.28300 -3.58100 4.02800
H 0.69800 -4.47800 7.75500
H 0.83300 -2.61900 7.68000
H 2.00000 -3.75400 6.97600
Mg 31.53711 2.84179 2.38623
C 34.27571 0.52941 2.20731
C 33.84915 5.34958 2.37951
C 29.18265 4.87954 2.99578
C 29.56255 0.20118 3.51496
N 33.74715 2.81654 2.30065
C 34.67633 1.88135 2.17257
C 36.10692 2.42683 1.91681
C 35.92637 3.88672 2.56101
C 34.41950 4.05159 2.37435
C 36.23082 3.92967 4.04924
C 36.44970 2.51198 0.38800
C 37.92947 2.74108 0.07251
H 38.49533 2.10295 -1.11284
N 31.45446 4.81224 2.16470
C 32.49199 5.67526 2.16417
C 31.90340 7.01189 1.98770
C 30.42199 6.88395 2.04930
C 30.29335 5.49294 2.43486
C 32.72873 8.23368 1.70579
C 29.30607 7.85639 1.81421
O 28.09929 7.59184 2.15557
C 29.68249 9.16431 1.25818
N 29.70382 2.63246 3.34414
C 28.84526 3.66395 3.42684
C 27.48921 3.20757 3.90979
C 27.54636 1.60936 3.90336
C 29.01962 1.41051 3.48458
C 27.07856 3.69629 5.29864
C 26.44293 0.86891 3.09911
C 26.61604 1.13389 1.62086
N 31.78004 0.70783 2.62131
C 30.83514 -0.20665 3.13605
C 31.49878 -1.52458 3.20723
C 32.80116 -1.27875 2.74695
C 32.94549 0.09937 2.43159
C 30.91264 -2.72575 3.69688
C 34.08985 -1.86964 2.46620
O 34.53705 -3.01580 2.45948
C 35.13964 -0.70103 2.22395
C 35.91861 -1.02707 0.97920
O 35.35516 -1.05817 -0.12903
O 37.23217 -1.03388 1.27055
C 38.04693 -1.34162 0.06502
H 34.49302 6.19828 2.61196
H 28.30531 5.51798 3.12282
H 28.98514 -0.69186 3.76344
H 36.89621 1.88953 2.42878
H 36.46571 4.63918 1.99157
H 36.40469 2.94353 4.45352
H 35.36428 4.38166 4.51384
H 37.06577 4.60890 4.24374
H 36.02457 3.43656 -0.02331
H 36.10061 1.63988 -0.12988
H 38.56915 2.56533 0.94594
H 38.07537 3.79919 -0.15799
H 33.79533 8.04829 1.88298
H 32.45530 8.98420 2.45534
H 32.54600 8.64504 0.71077
H 30.39345 9.64846 1.92346
H 28.74115 9.68702 1.07779
H 30.20111 9.00369 0.30642
H 26.70810 3.53400 3.23420
H 27.44907 1.19409 4.91722
H 26.12248 4.25306 5.30039
H 27.87679 4.31014 5.69431
H 26.98941 2.91784 6.05446
H 25.45579 1.25178 3.36954
H 26.43031 -0.20257 3.26870
H 26.11986 2.09929 1.48344
H 26.13414 0.35522 1.03309
H 27.67383 1.26773 1.36625
H 31.19437 -3.51235 3.00957
H 29.83138 -2.63615 3.77814
H 31.39378 -2.79238 4.67634
H 35.77984 -0.64784 3.10537
H 38.67311 -2.20388 0.31420
H 38.56639 -0.39961 -0.19292
H 37.52568 -1.70537 -0.81272
