79

Mg 31.52576 2.84455 2.40107
C 33.64839 3.91903 5.08789
C 29.57105 1.32929 4.75005
C 29.89024 1.50727 0.03376
C 34.19405 3.44003 0.23976
N 31.69189 2.71248 4.60271
C 32.50680 3.21204 5.51961
C 32.03114 3.00742 6.98297
C 31.09321 1.72421 6.75374
C 30.72875 1.94667 5.28734
C 31.83985 0.40536 6.86556
C 31.20919 4.23094 7.52093
C 30.97830 4.23543 9.03368
H 30.96968 5.51755 9.73266
N 29.71819 2.02531 2.39137
C 29.06699 1.47848 3.43933
C 27.78219 0.99757 2.90812
C 27.79707 1.15718 1.42859
C 29.17383 1.55890 1.22063
C 26.66241 0.52618 3.78977
C 26.74950 0.96594 0.37397
O 27.04716 0.93079 -0.87222
C 25.37822 0.72772 0.84762
N 32.03663 2.31794 0.45581
C 31.12215 1.80039 -0.38311
C 31.64348 1.75836 -1.79974
C 33.01401 2.58222 -1.77779
C 33.09655 2.89591 -0.26776
C 31.89685 0.36477 -2.37427
C 33.14497 3.75734 -2.78507
C 32.18030 4.86184 -2.41782
N 33.49392 3.72077 2.56432
C 34.45881 3.84733 1.54106
C 35.68039 4.40082 2.16060
C 35.34636 4.53740 3.51643
C 34.01770 4.08104 3.73065
C 36.90860 4.66117 1.48991
C 35.81925 4.95394 4.81703
O 36.83563 5.50651 5.23580
C 34.78430 4.45408 5.91495
C 34.49627 5.60483 6.83979
O 33.91087 6.61969 6.42268
O 34.76219 5.23084 8.10462
C 34.48149 6.33523 9.06031
H 29.01721 0.63037 5.37747
H 29.33339 1.15648 -0.83822
H 35.03633 3.74593 -0.38448
H 32.81912 2.77086 7.68789
H 30.20474 1.76773 7.37831
H 32.90510 0.55255 6.96414
H 31.61544 -0.13769 5.95683
H 31.42811 -0.19274 7.68354
H 30.17171 4.14624 7.17277
H 31.66287 5.15581 7.22189
H 31.62785 3.51956 9.55191
H 29.96707 3.87167 9.23145
H 27.00216 0.36578 4.82042
H 26.37782 -0.47179 3.43917
H 25.78804 1.17901 3.74544
H 25.36266 -0.15825 1.47791
H 24.75857 0.70458 -0.05092
H 25.07548 1.56947 1.48040
H 30.95353 2.24210 -2.48023
H 33.87749 1.94299 -2.01361
H 31.33949 0.17049 -3.31005
H 31.64040 -0.36721 -1.61997
H 32.94076 0.13161 -2.57697
H 32.87067 3.42710 -3.78999
H 34.14799 4.16668 -2.84317
H 31.24121 4.52998 -2.87067
H 32.50708 5.81111 -2.83750
H 32.02607 4.90524 -1.33339
H 37.25648 5.62395 1.83996
H 36.78120 4.65243 0.40942
H 37.50517 3.81442 1.83976
H 35.24188 3.61332 6.43777
H 35.40018 6.50597 9.63001
H 33.58753 6.01786 9.62940
H 34.30193 7.32126 8.64807
