79

Mg 7.87870 0.71741 0.60459
C 10.13346 0.86649 3.39258
C 5.40715 -0.02592 2.83472
C 5.96632 0.13655 -1.85973
C 10.66673 0.33821 -1.45182
N 7.89236 0.47971 2.80358
C 8.79483 0.62062 3.76277
C 8.21650 0.57045 5.20242
C 6.88262 -0.26984 4.89658
C 6.68726 0.10715 3.42947
C 7.08609 -1.77347 4.98034
C 7.88082 1.99749 5.76178
C 7.60475 2.05002 7.26603
H 8.03938 3.22730 8.01275
N 5.89859 0.62388 0.50971
C 5.04865 0.33073 1.51616
C 3.70046 0.37123 0.92888
C 3.83488 0.55009 -0.54239
C 5.27025 0.42008 -0.69369
C 2.44998 0.32522 1.75810
C 2.83553 0.78488 -1.63435
O 3.15118 0.67271 -2.87153
C 1.45431 1.05829 -1.21129
N 8.24076 0.08699 -1.34319
C 7.23592 -0.03577 -2.22815
C 7.76393 -0.23275 -3.62915
C 9.33927 0.02612 -3.53491
C 9.46825 0.25026 -2.01224
C 7.51043 -1.60699 -4.24850
C 9.93551 1.09405 -4.49235
C 9.43058 2.46736 -4.11229
N 10.02252 0.80084 0.85980
C 11.00814 0.58714 -0.12862
C 12.32063 0.63525 0.54776
C 12.00394 0.85241 1.89722
C 10.59287 0.91374 2.05412
C 13.58534 0.44003 -0.07554
C 12.54211 1.03310 3.22629
O 13.67206 1.16101 3.69597
C 11.35092 0.92404 4.27298
C 11.46821 2.07692 5.23195
O 11.31539 3.24605 4.83648
O 11.52469 1.60046 6.48899
C 11.63045 2.70681 7.47724
H 4.60925 -0.48607 3.41825
H 5.35644 0.03750 -2.76068
H 11.58778 0.32666 -2.03851
H 8.83191 0.04258 5.92103
H 6.04724 0.08339 5.49552
H 8.12563 -2.03241 5.11623
H 6.71579 -2.17297 4.04529
H 6.44933 -2.19705 5.76229
H 6.90052 2.31031 5.37981
H 8.65511 2.69651 5.51186
H 7.92298 1.13251 7.77580
H 6.52331 2.08060 7.41951
H 2.66344 0.02564 2.79159
H 1.83300 -0.48832 1.36141
H 1.87991 1.25560 1.71257
H 1.08744 0.22556 -0.61594
H 0.90778 1.28746 -2.12816
H 1.45643 1.93665 -0.55624
H 7.32954 0.48797 -4.31103
H 9.91594 -0.88079 -3.76900
H 6.96033 -1.55889 -5.20723
H 6.97128 -2.21073 -3.53062
H 8.40275 -2.20406 -4.42866
H 9.60120 0.91301 -5.51686
H 11.02027 1.10545 -4.50484
H 8.45509 2.51679 -4.60530
H 10.10103 3.23886 -4.48557
H 9.25796 2.53818 -3.03209
H 14.24818 1.19752 0.32115
H 13.50896 0.50528 -1.15890
H 13.81322 -0.57540 0.25948
H 11.44466 -0.03873 4.77683
H 12.52282 2.51238 8.08021
H 10.65948 2.72813 8.00686
H 11.84379 3.69921 7.09766
