158

Mg 0.00000 0.00000 0.00000
C -0.21700 -2.21800 2.80100
C -1.25500 2.44200 2.02600
C -0.24500 1.85000 -2.56400
C 0.14600 -2.82400 -2.03700
N -0.61700 -0.00900 2.12600
C -0.59400 -0.90800 3.10500
C -0.93600 -0.30900 4.50200
C -1.77300 0.96400 4.03200
C -1.15500 1.16800 2.66000
C -3.26300 0.68500 3.86300
C 0.34500 0.11000 5.29900
C 0.12400 0.39700 6.78700
H 1.16800 0.03300 7.73300
N -0.18500 1.96100 -0.15200
C -0.70300 2.80000 0.77700
C -0.62000 4.15600 0.19300
C -0.18700 4.01500 -1.22500
C -0.21400 2.58300 -1.38000
C -0.88700 5.40600 0.97400
C 0.18100 5.01300 -2.27700
O 0.30300 4.69000 -3.50800
C 0.31000 6.41400 -1.83700
N -0.26500 -0.41300 -2.02900
C -0.27900 0.56900 -2.93700
C -0.19600 0.02400 -4.33200
C 0.12400 -1.53300 -4.18000
C 0.08600 -1.63200 -2.63500
C -1.45100 0.20500 -5.19700
C 1.37300 -2.07000 -4.92300
C 2.62600 -1.49000 -4.30600
N 0.15000 -2.14400 0.30300
C 0.17300 -3.13600 -0.68800
C 0.17300 -4.43800 0.00400
C 0.13300 -4.11100 1.35800
C 0.08300 -2.69500 1.50200
C 0.14900 -5.71500 -0.62300
C 0.09600 -4.62900 2.71600
O 0.20800 -5.74700 3.22100
C -0.25500 -3.42800 3.70100
C 0.71700 -3.48200 4.84800
O 1.93100 -3.25500 4.66900
O 0.03800 -3.55600 6.00300
C 0.94300 -3.58300 7.18300
H -1.85900 3.22000 2.49700
H -0.21800 2.45300 -3.47400
H 0.27600 -3.74700 -2.60500
H -1.55400 -0.94900 5.13200
H -1.58500 1.83100 4.66500
H -3.48400 -0.37700 3.96900
H -3.51100 1.02700 2.85800
H -3.85200 1.30100 4.54300
H 0.66900 1.09600 4.96600
H 1.13000 -0.63900 5.18900
H -0.84400 0.02600 7.12500
H 0.06200 1.47700 6.92100
H -1.34400 5.18600 1.93800
H -1.65100 5.96300 0.43200
H 0.00700 6.02000 1.08400
H -0.63500 6.74400 -1.40500
H 0.66500 6.97000 -2.70400
H 1.04800 6.46600 -1.03600
H 0.60800 0.50100 -4.89100
H -0.69200 -2.15600 -4.54700
H -1.26700 0.74000 -6.12900
H -2.20400 0.71400 -4.59600
H -1.96700 -0.72000 -5.45300
H 1.35600 -1.75900 -5.96700
H 1.45200 -3.15700 -4.90200
H 2.71400 -0.52200 -4.79800
H 3.48700 -2.12100 -4.52900
H 2.49500 -1.30300 -3.24000
H 0.86700 -6.33300 -0.08400
H 0.40400 -5.64200 -1.68000
H -0.89100 -5.99900 -0.46300
H -1.28300 -3.58100 4.02800
H 0.69800 -4.47800 7.75500
H 0.83300 -2.61900 7.68000
H 2.00000 -3.75400 6.97600
Mg 10.52050 0.95064 0.79813
C 12.30026 -1.16671 3.08468
C 11.27751 3.56075 2.85941
C 8.58767 2.76160 -0.94888
C 8.96801 -1.91694 -0.43169
N 11.64971 1.05715 2.69702
C 12.33302 0.19828 3.43849
C 13.15986 0.84931 4.57956
C 12.31146 2.20214 4.74961
C 11.73381 2.30726 3.33967
C 11.15774 2.06978 5.72980
C 14.63892 1.14903 4.14992
C 15.58503 1.49715 5.30120
H 16.97248 1.04865 5.22177
N 10.39959 2.92575 0.64684
C 10.77362 3.83694 1.56939
C 10.46102 5.15107 0.98672
C 9.72057 4.93569 -0.28610
C 9.51794 3.50172 -0.23377
C 10.92860 6.44215 1.59328
C 9.25867 5.86800 -1.36482
O 8.42489 5.49633 -2.26454
C 9.73880 7.25515 -1.28238
N 8.84550 0.52016 -0.35573
C 8.22180 1.48407 -1.05560
C 7.22071 0.89610 -2.02125
C 7.47572 -0.68248 -1.99630
C 8.56795 -0.74517 -0.90612
C 5.75113 1.17894 -1.71024
C 7.75228 -1.37235 -3.36021
C 9.08169 -0.91033 -3.91210
N 10.72864 -1.17938 1.09435
C 9.95922 -2.20263 0.49851
C 10.39636 -3.48061 1.09694
C 11.38151 -3.10695 2.02340
C 11.53244 -1.69391 2.01826
C 9.85927 -4.76496 0.80009
C 12.32058 -3.58566 3.01219
O 12.69854 -4.69534 3.38569
C 12.86789 -2.34011 3.83404
C 14.36491 -2.46032 3.91761
O 15.06372 -2.37925 2.89208
O 14.73770 -2.43294 5.21014
C 16.21513 -2.53812 5.34416
H 11.26390 4.40632 3.54768
H 7.97118 3.32959 -1.64945
H 8.60170 -2.86468 -0.83204
H 13.16540 0.29444 5.51008
H 12.95798 3.04990 4.96098
H 11.02645 1.05079 6.06229
H 10.27913 2.41032 5.19770
H 11.29156 2.76285 6.56532
H 14.66534 2.09427 3.59264
H 15.04392 0.33308 3.58350
H 15.15518 1.24562 6.27839
H 15.70750 2.58249 5.33362
H 11.30789 6.29393 2.61189
H 10.04316 7.07395 1.72240
H 11.64868 6.96754 0.96231
H 9.43188 7.68771 -0.33309
H 9.37498 7.74462 -2.18788
H 10.83449 7.24685 -1.28484
H 7.39050 1.26367 -3.02583
H 6.60660 -1.22944 -1.60220
H 5.21736 1.67789 -2.54104
H 5.70185 1.77937 -0.81158
H 5.16050 0.30602 -1.43753
H 6.99456 -1.08185 -4.09208
H 7.74797 -2.45583 -3.30496
H 8.83076 0.03623 -4.40010
H 9.47122 -1.63201 -4.62728
H 9.78743 -0.68737 -3.10348
H 10.69963 -5.44004 0.70755
H 9.26186 -4.74564 -0.10903
H 9.24673 -4.93072 1.69035
H 12.39951 -2.36595 4.81869
H 16.41650 -3.38984 6.00121
H 16.55529 -1.54384 5.68978
H 16.78009 -2.81379 4.46140
