158

Mg 0.00000 0.00000 0.00000
C -0.21700 -2.21800 2.80100
C -1.25500 2.44200 2.02600
C -0.24500 1.85000 -2.56400
C 0.14600 -2.82400 -2.03700
N -0.61700 -0.00900 2.12600
C -0.59400 -0.90800 3.10500
C -0.93600 -0.30900 4.50200
C -1.77300 0.96400 4.03200
C -1.15500 1.16800 2.66000
C -3.26300 0.68500 3.86300
C 0.34500 0.11000 5.29900
C 0.12400 0.39700 6.78700
H 1.16800 0.03300 7.73300
N -0.18500 1.96100 -0.15200
C -0.70300 2.80000 0.77700
C -0.62000 4.15600 0.19300
C -0.18700 4.01500 -1.22500
C -0.21400 2.58300 -1.38000
C -0.88700 5.40600 0.97400
C 0.18100 5.01300 -2.27700
O 0.30300 4.69000 -3.50800
C 0.31000 6.41400 -1.83700
N -0.26500 -0.41300 -2.02900
C -0.27900 0.56900 -2.93700
C -0.19600 0.02400 -4.33200
C 0.12400 -1.53300 -4.18000
C 0.08600 -1.63200 -2.63500
C -1.45100 0.20500 -5.19700
C 1.37300 -2.07000 -4.92300
C 2.62600 -1.49000 -4.30600
N 0.15000 -2.14400 0.30300
C 0.17300 -3.13600 -0.68800
C 0.17300 -4.43800 0.00400
C 0.13300 -4.11100 1.35800
C 0.08300 -2.69500 1.50200
C 0.14900 -5.71500 -0.62300
C 0.09600 -4.62900 2.71600
O 0.20800 -5.74700 3.22100
C -0.25500 -3.42800 3.70100
C 0.71700 -3.48200 4.84800
O 1.93100 -3.25500 4.66900
O 0.03800 -3.55600 6.00300
C 0.94300 -3.58300 7.18300
H -1.85900 3.22000 2.49700
H -0.21800 2.45300 -3.47400
H 0.27600 -3.74700 -2.60500
H -1.55400 -0.94900 5.13200
H -1.58500 1.83100 4.66500
H -3.48400 -0.37700 3.96900
H -3.51100 1.02700 2.85800
H -3.85200 1.30100 4.54300
H 0.66900 1.09600 4.96600
H 1.13000 -0.63900 5.18900
H -0.84400 0.02600 7.12500
H 0.06200 1.47700 6.92100
H -1.34400 5.18600 1.93800
H -1.65100 5.96300 0.43200
H 0.00700 6.02000 1.08400
H -0.63500 6.74400 -1.40500
H 0.66500 6.97000 -2.70400
H 1.04800 6.46600 -1.03600
H 0.60800 0.50100 -4.89100
H -0.69200 -2.15600 -4.54700
H -1.26700 0.74000 -6.12900
H -2.20400 0.71400 -4.59600
H -1.96700 -0.72000 -5.45300
H 1.35600 -1.75900 -5.96700
H 1.45200 -3.15700 -4.90200
H 2.71400 -0.52200 -4.79800
H 3.48700 -2.12100 -4.52900
H 2.49500 -1.30300 -3.24000
H 0.86700 -6.33300 -0.08400
H 0.40400 -5.64200 -1.68000
H -0.89100 -5.99900 -0.46300
H -1.28300 -3.58100 4.02800
H 0.69800 -4.47800 7.75500
H 0.83300 -2.61900 7.68000
H 2.00000 -3.75400 6.97600
Mg 7.88314 0.70970 0.59883
C 8.08427 -2.54631 -0.87431
C 6.91999 -0.82176 3.49193
C 7.26101 3.58397 1.78550
C 7.74938 2.00276 -2.63470
N 7.57910 -1.42051 1.11885
C 7.74789 -2.57452 0.48094
C 7.60757 -3.81903 1.40771
C 6.70463 -3.17810 2.55485
C 7.11729 -1.72441 2.40505
C 5.20738 -3.29370 2.28770
C 8.98778 -4.30194 1.96768
C 8.98202 -5.69218 2.60998
H 10.15345 -6.54098 2.45300
N 7.66747 1.30380 2.47056
C 7.28422 0.54178 3.52305
C 7.27478 1.44210 4.69608
C 7.49961 2.83038 4.20597
C 7.45836 2.62901 2.78009
C 7.11633 0.95699 6.10439
C 7.70668 4.13362 4.91082
O 7.65171 5.25446 4.29823
C 7.89011 4.06830 6.37203
N 7.33068 2.52020 -0.28123
C 7.18059 3.62741 0.45400
C 7.06460 4.84648 -0.41222
C 7.41166 4.36915 -1.89596
C 7.59731 2.85667 -1.61992
C 5.69705 5.54347 -0.40711
C 8.54342 5.12887 -2.63241
C 9.86909 4.85374 -1.95862
N 8.08694 -0.07856 -1.41317
C 7.97226 0.63609 -2.61433
C 8.07911 -0.34313 -3.71150
C 8.23293 -1.56950 -3.06792
C 8.19648 -1.37231 -1.65793
C 7.97195 -0.05347 -5.10040
C 8.39489 -3.00367 -3.24337
O 8.58461 -3.74306 -4.21022
C 8.18300 -3.70832 -1.83114
C 9.31047 -4.68526 -1.63693
O 10.48473 -4.28713 -1.49562
O 8.80546 -5.90780 -1.41129
C 9.87124 -6.91935 -1.18097
H 6.38596 -1.17101 4.37781
H 7.15327 4.60721 2.15128
H 7.80118 2.34314 -3.67052
H 7.09034 -4.66586 0.95630
H 6.97719 -3.54953 3.54251
H 5.00976 -3.68352 1.28925
H 4.81524 -2.28121 2.38558
H 4.71920 -3.88065 3.06613
H 9.25501 -3.69804 2.83483
H 9.75280 -4.26668 1.19126
H 8.07489 -6.24305 2.35984
H 8.93409 -5.56835 3.69191
H 6.80427 -0.08616 6.13593
H 6.27916 1.50417 6.53734
H 8.01349 1.12611 6.70007
H 7.01547 3.59999 6.82395
H 8.11339 5.08520 6.69282
H 8.73557 3.41612 6.59295
H 7.77701 5.61199 -0.10744
H 6.55469 4.45558 -2.56439
H 5.74186 6.59355 -0.11724
H 5.03579 4.98333 0.25338
H 5.15459 5.49265 -1.35081
H 8.37441 6.20391 -2.58082
H 8.63055 4.85695 -3.68442
H 9.87997 5.57260 -1.14012
H 10.69239 5.03675 -2.64993
H 9.89211 3.85713 -1.51734
H 8.76350 -0.61901 -5.59190
H 8.07152 1.01489 -5.29092
H 6.96744 -0.42258 -5.30673
H 7.21372 -4.20437 -1.87062
H 9.71614 -7.71952 -1.90478
H 9.82878 -7.17883 -0.12301
H 10.88828 -6.61277 -1.42791
