79

Mg 31.53256 2.83880 2.39533
C 31.74915 0.20570 -0.01964
C 30.69087 0.46068 4.69297
C 30.89348 5.18597 4.42979
C 31.27188 5.06503 -0.27331
N 31.28588 0.64462 2.23603
C 31.45642 -0.25005 1.26770
C 31.36930 -1.72372 1.76577
C 30.49103 -1.49490 3.07660
C 30.87088 -0.05530 3.37524
C 28.98855 -1.56396 2.82303
C 32.77551 -2.31745 2.11478
C 32.81664 -3.83782 2.29405
H 33.99852 -4.56321 1.85324
N 31.36490 2.81804 4.36365
C 31.02978 1.75724 5.13675
C 31.04025 2.24958 6.53108
C 31.22290 3.72711 6.49055
C 31.14041 3.97595 5.07398
C 30.93574 1.34813 7.72280
C 31.42722 4.75341 7.55971
O 31.33150 6.00682 7.32657
C 31.65801 4.24413 8.92368
N 30.91804 4.81660 2.13397
C 30.77015 5.63718 3.17981
C 30.60355 7.06077 2.73758
C 30.91254 7.07609 1.17105
C 31.13570 5.55826 0.95968
C 29.22378 7.68340 2.99171
C 32.00572 8.05781 0.67950
C 33.35706 7.62481 1.20246
N 31.68762 2.71810 0.23375
C 31.52136 3.76598 -0.68331
C 31.61214 3.17788 -2.03237
C 31.80964 1.81733 -1.80491
C 31.81406 1.56726 -0.40286
C 31.45556 3.88013 -3.25987
C 31.99335 0.51304 -2.42048
O 32.16647 0.11487 -3.57330
C 31.83974 -0.59980 -1.29184
C 32.99125 -1.55693 -1.43759
O 34.16158 -1.18942 -1.20815
O 32.51709 -2.80290 -1.59021
C 33.60876 -3.80582 -1.71089
H 30.19190 -0.16044 5.43942
H 30.77783 6.04228 5.09746
H 31.28436 5.71064 -1.15335
H 30.85432 -2.40334 1.08656
H 30.80174 -2.14604 3.89342
H 28.76693 -1.63092 1.75799
H 28.58043 -0.64288 3.23963
H 28.53655 -2.37646 3.39252
H 33.05845 -2.00441 3.11978
H 33.51476 -2.02219 1.36936
H 31.91274 -4.30934 1.90734
H 32.80061 -4.05638 3.36184
H 30.64482 0.33815 7.43670
H 30.10238 1.71076 8.32423
H 31.84790 1.34957 8.31971
H 30.80721 3.63465 9.22901
H 31.87186 5.11761 9.53862
H 32.52235 3.57951 8.91088
H 31.31049 7.71394 3.24751
H 30.03336 7.34118 0.58331
H 29.25767 8.59299 3.59187
H 28.59456 6.92804 3.46161
H 28.65280 7.91205 2.09219
H 31.81791 9.05890 1.06612
H 32.06470 8.12745 -0.40675
H 33.38009 8.05500 2.20308
H 34.15442 8.03578 0.58235
H 33.41306 6.54161 1.31210
H 32.24184 3.51689 -3.92154
H 31.52862 4.95734 -3.11190
H 30.45227 3.56508 -3.54620
H 30.87936 -1.08618 -1.45984
H 33.44615 -4.34664 -2.64325
H 33.60475 -4.38113 -0.78493
H 34.61143 -3.40953 -1.87503
