158

Mg 0.00000 0.00000 0.00000
C -0.21700 -2.21800 2.80100
C -1.25500 2.44200 2.02600
C -0.24500 1.85000 -2.56400
C 0.14600 -2.82400 -2.03700
N -0.61700 -0.00900 2.12600
C -0.59400 -0.90800 3.10500
C -0.93600 -0.30900 4.50200
C -1.77300 0.96400 4.03200
C -1.15500 1.16800 2.66000
C -3.26300 0.68500 3.86300
C 0.34500 0.11000 5.29900
C 0.12400 0.39700 6.78700
H 1.16800 0.03300 7.73300
N -0.18500 1.96100 -0.15200
C -0.70300 2.80000 0.77700
C -0.62000 4.15600 0.19300
C -0.18700 4.01500 -1.22500
C -0.21400 2.58300 -1.38000
C -0.88700 5.40600 0.97400
C 0.18100 5.01300 -2.27700
O 0.30300 4.69000 -3.50800
C 0.31000 6.41400 -1.83700
N -0.26500 -0.41300 -2.02900
C -0.27900 0.56900 -2.93700
C -0.19600 0.02400 -4.33200
C 0.12400 -1.53300 -4.18000
C 0.08600 -1.63200 -2.63500
C -1.45100 0.20500 -5.19700
C 1.37300 -2.07000 -4.92300
C 2.62600 -1.49000 -4.30600
N 0.15000 -2.14400 0.30300
C 0.17300 -3.13600 -0.68800
C 0.17300 -4.43800 0.00400
C 0.13300 -4.11100 1.35800
C 0.08300 -2.69500 1.50200
C 0.14900 -5.71500 -0.62300
C 0.09600 -4.62900 2.71600
O 0.20800 -5.74700 3.22100
C -0.25500 -3.42800 3.70100
C 0.71700 -3.48200 4.84800
O 1.93100 -3.25500 4.66900
O 0.03800 -3.55600 6.00300
C 0.94300 -3.58300 7.18300
H -1.85900 3.22000 2.49700
H -0.21800 2.45300 -3.47400
H 0.27600 -3.74700 -2.60500
H -1.55400 -0.94900 5.13200
H -1.58500 1.83100 4.66500
H -3.48400 -0.37700 3.96900
H -3.51100 1.02700 2.85800
H -3.85200 1.30100 4.54300
H 0.66900 1.09600 4.96600
H 1.13000 -0.63900 5.18900
H -0.84400 0.02600 7.12500
H 0.06200 1.47700 6.92100
H -1.34400 5.18600 1.93800
H -1.65100 5.96300 0.43200
H 0.00700 6.02000 1.08400
H -0.63500 6.74400 -1.40500
H 0.66500 6.97000 -2.70400
H 1.04800 6.46600 -1.03600
H 0.60800 0.50100 -4.89100
H -0.69200 -2.15600 -4.54700
H -1.26700 0.74000 -6.12900
H -2.20400 0.71400 -4.59600
H -1.96700 -0.72000 -5.45300
H 1.35600 -1.75900 -5.96700
H 1.45200 -3.15700 -4.90200
H 2.71400 -0.52200 -4.79800
H 3.48700 -2.12100 -4.52900
H 2.49500 -1.30300 -3.24000
H 0.86700 -6.33300 -0.08400
H 0.40400 -5.64200 -1.68000
H -0.89100 -5.99900 -0.46300
H -1.28300 -3.58100 4.02800
H 0.69800 -4.47800 7.75500
H 0.83300 -2.61900 7.68000
H 2.00000 -3.75400 6.97600
Mg 10.50688 0.94851 0.78888
C 11.97351 -1.66645 -1.18344
C 12.10466 3.17346 -1.24368
C 9.60063 3.25633 2.76880
C 9.98171 -1.42179 3.28920
N 11.83827 0.66776 -0.95492
C 12.27548 -0.37058 -1.65138
C 13.01386 0.00112 -2.96522
C 13.47823 1.48625 -2.56819
C 12.38947 1.81879 -1.55001
C 14.82250 1.52752 -1.86067
C 12.05505 0.01185 -4.20723
C 12.76083 0.06236 -5.56409
H 12.16819 -0.66309 -6.68435
N 10.39313 2.90991 0.50865
C 11.09746 3.64787 -0.37487
C 10.66300 5.03891 -0.17389
C 9.76577 5.08333 1.01259
C 9.90466 3.72535 1.49909
C 11.03569 6.15119 -1.11056
C 8.93199 6.17191 1.61757
O 8.41701 6.05544 2.78550
C 8.81366 7.41508 0.84167
N 10.07450 0.97271 2.82230
C 9.65230 2.09755 3.42596
C 9.14149 1.81090 4.81783
C 9.08379 0.21696 4.93451
C 9.68188 -0.15912 3.56110
C 9.98119 2.37475 5.96386
C 7.72313 -0.40986 5.34483
C 6.70598 -0.19992 4.24632
N 10.72344 -1.19338 0.97181
C 10.47194 -1.98148 2.11625
C 10.87365 -3.36495 1.78902
C 11.35627 -3.28072 0.47431
C 11.28078 -1.93575 0.02169
C 10.81391 -4.47953 2.67235
C 11.92231 -4.02184 -0.62979
O 12.13641 -5.21163 -0.85846
C 12.46474 -2.98725 -1.70765
C 11.97850 -3.42857 -3.06091
O 10.76437 -3.41977 -3.33005
O 13.03453 -3.57958 -3.88088
C 12.60225 -4.00595 -5.23852
H 12.73891 3.94765 -1.67639
H 9.17892 3.99398 3.45546
H 9.75841 -2.23680 3.98098
H 13.87889 -0.61156 -3.18911
H 13.42177 2.15878 -3.42018
H 15.18987 0.53732 -1.63556
H 14.65791 2.08639 -0.94874
H 15.53898 2.11062 -2.44633
H 11.51979 0.96961 -4.23810
H 11.38567 -0.82586 -4.17906
H 13.83039 -0.16592 -5.48112
H 12.73406 1.09125 -5.93108
H 11.83732 5.84861 -1.79557
H 11.48316 6.94486 -0.50250
H 10.17459 6.55826 -1.64484
H 9.80433 7.82929 0.66997
H 8.10762 8.03821 1.39402
H 8.39808 7.17455 -0.14324
H 8.14357 2.20953 4.95326
H 9.78198 -0.16141 5.69555
H 9.40835 3.03750 6.63965
H 10.82613 2.90166 5.54079
H 10.46508 1.62893 6.59220
H 7.32843 0.08982 6.23291
H 7.78649 -1.46870 5.57248
H 6.33951 0.81272 4.43957
H 5.90376 -0.93118 4.32219
H 7.18636 -0.19419 3.26100
H 10.41775 -5.30857 2.10118
H 10.19724 -4.26456 3.54256
H 11.87106 -4.57884 2.93281
H 13.55354 -2.98806 -1.64357
H 13.14304 -4.92856 -5.47095
H 12.78428 -3.13587 -5.89698
H 11.57431 -4.32716 -5.35937
