79

Mg 13.14573 1.18588 1.00524
C 12.30332 -0.96185 3.75418
C 12.48215 3.82678 3.05949
C 13.44294 3.09218 -1.51371
C 12.63458 -1.54227 -1.10226
N 12.48628 1.29105 3.11387
C 12.25769 0.41052 4.07656
C 12.04258 1.03479 5.48140
C 11.55649 2.49529 5.02367
C 12.24289 2.56547 3.66110
C 10.05523 2.58965 4.80764
C 13.37091 1.10611 6.31355
C 13.18257 1.41626 7.80019
H 14.08317 0.78680 8.76206
N 13.46302 3.14241 0.90566
C 13.15211 4.06575 1.83950
C 13.57007 5.36048 1.27989
C 14.00215 5.14551 -0.12787
C 13.62492 3.75827 -0.31048
C 13.60980 6.62287 2.09120
C 14.63666 6.04392 -1.14594
O 14.70789 5.71531 -2.38278
C 15.08813 7.35926 -0.66893
N 12.84822 0.88867 -1.03080
C 13.09988 1.86851 -1.91653
C 13.07982 1.34270 -3.33198
C 13.00100 -0.24897 -3.19795
C 12.89449 -0.36860 -1.66181
C 11.92959 1.83690 -4.20898
C 14.09674 -1.07193 -3.92922
C 15.44158 -0.83018 -3.28243
N 12.75536 -0.92392 1.25902
C 12.54904 -1.88158 0.24196
C 12.20588 -3.15551 0.90663
C 12.21388 -2.84251 2.27427
C 12.51925 -1.46562 2.44867
C 11.89142 -4.37836 0.24946
C 12.02299 -3.36134 3.60959
O 11.83262 -4.47855 4.08849
C 11.94814 -2.13770 4.62127
C 12.84624 -2.44428 5.78829
O 14.07680 -2.53382 5.63241
O 12.13242 -2.36594 6.92614
C 12.98236 -2.65123 8.11274
H 12.08291 4.71748 3.54544
H 13.64296 3.67964 -2.41280
H 12.55696 -2.46250 -1.68521
H 11.27452 0.55728 6.07792
H 11.94326 3.26577 5.68559
H 9.57586 1.62497 4.88347
H 9.92614 2.99924 3.81436
H 9.62085 3.32182 5.49436
H 13.93837 1.99416 6.00678
H 13.93936 0.20332 6.20195
H 12.13909 1.29868 8.11682
H 13.39435 2.47579 7.96318
H 13.07870 6.50566 3.04387
H 13.02638 7.37225 1.54538
H 14.62468 7.00021 2.23371
H 14.24394 7.89985 -0.24755
H 15.59425 7.82053 -1.51919
H 15.80422 7.20874 0.14665
H 13.99053 1.60661 -3.85550
H 12.06186 -0.64655 -3.60998
H 12.27054 2.33534 -5.13601
H 11.31539 2.50611 -3.62123
H 11.21573 1.07160 -4.50886
H 14.18795 -0.74288 -4.96728
H 13.89719 -2.13819 -3.94573
H 15.77661 0.10048 -3.75010
H 16.12409 -1.64924 -3.50004
H 15.33312 -0.63899 -2.20850
H 12.41198 -5.16185 0.78393
H 12.18015 -4.35184 -0.79921
H 10.80560 -4.39416 0.37598
H 10.90637 -2.02660 4.92451
H 12.50289 -3.46868 8.66007
H 13.09029 -1.68583 8.64197
H 13.96812 -3.06507 7.93533
