79

Mg 15.76628 1.41940 1.19766
C 15.14821 3.93836 3.66445
C 14.85739 3.71428 -1.15829
C 15.86605 -0.90946 -0.95247
C 15.52110 -0.93586 3.75467
N 15.10812 3.52703 1.35696
C 14.97069 4.39325 2.35594
C 14.69398 5.84977 1.87705
C 14.07358 5.52988 0.44360
C 14.74597 4.19398 0.18055
C 12.56252 5.32322 0.46606
C 16.00617 6.69572 1.75754
C 15.79894 8.20629 1.61408
H 16.75317 9.10690 2.24313
N 15.88877 1.49902 -0.77249
C 15.48556 2.51843 -1.56843
C 15.78927 2.09877 -2.95347
C 16.22683 0.67577 -2.91217
C 15.98318 0.35285 -1.52952
C 15.70056 3.02068 -4.13074
C 16.76737 -0.24970 -3.95593
O 16.86554 -1.50971 -3.76277
C 17.10067 0.35298 -5.25929
N 15.48605 -0.64519 1.32646
C 15.64358 -1.43107 0.25569
C 15.67270 -2.88028 0.64157
C 15.74575 -2.91171 2.23638
C 15.65862 -1.38933 2.50666
C 14.48007 -3.72287 0.16863
C 16.91342 -3.70789 2.87127
C 18.22673 -3.02181 2.56860
N 15.57769 1.46800 3.35940
C 15.46975 0.36702 4.22129
C 15.25394 0.90062 5.57878
C 15.23465 2.28356 5.40869
C 15.40002 2.59337 4.02849
C 15.04761 0.12728 6.75514
C 15.08816 3.57083 6.06850
O 15.01548 3.94088 7.24122
C 14.90440 4.68920 4.94988
C 15.83075 5.82569 5.28692
O 17.06890 5.67954 5.23223
O 15.12294 6.96119 5.38781
C 15.98653 8.13335 5.69176
H 14.37003 4.27135 -1.96085
H 16.00578 -1.74187 -1.64530
H 15.52007 -1.60824 4.61453
H 13.97098 6.39743 2.48183
H 14.37867 6.26146 -0.30434
H 12.17838 5.30235 1.48582
H 12.39253 4.36460 -0.02449
H 12.06038 6.06879 -0.15101
H 16.48541 6.48263 0.80204
H 16.66877 6.50127 2.60162
H 14.77810 8.49432 1.86671
H 15.90096 8.46649 0.56048
H 15.19382 3.95018 -3.87424
H 15.04365 2.54513 -4.85877
H 16.67575 3.20589 -4.58133
H 16.20836 0.81712 -5.67988
H 17.55622 -0.44097 -5.85002
H 17.81988 1.15745 -5.10272
H 16.55277 -3.37591 0.23384
H 14.85195 -3.35287 2.67815
H 14.76491 -4.58453 -0.43562
H 13.80122 -3.06903 -0.37813
H 13.83365 -4.08824 0.96617
H 16.96771 -4.70798 2.44253
H 16.82367 -3.81493 3.95235
H 18.47360 -3.39585 1.57564
H 18.98508 -3.31425 3.29565
H 18.10240 -1.94172 2.48833
H 15.64975 0.59248 7.53551
H 15.33425 -0.91271 6.60066
H 13.97299 0.24853 6.89059
H 13.85809 4.99179 4.97805
H 15.59402 8.59482 6.59798
H 16.01520 8.74014 4.78656
H 17.00895 7.91184 5.99987
