158

Mg 0.00000 0.00000 0.00000
C -0.21700 -2.21800 2.80100
C -1.25500 2.44200 2.02600
C -0.24500 1.85000 -2.56400
C 0.14600 -2.82400 -2.03700
N -0.61700 -0.00900 2.12600
C -0.59400 -0.90800 3.10500
C -0.93600 -0.30900 4.50200
C -1.77300 0.96400 4.03200
C -1.15500 1.16800 2.66000
C -3.26300 0.68500 3.86300
C 0.34500 0.11000 5.29900
C 0.12400 0.39700 6.78700
H 1.16800 0.03300 7.73300
N -0.18500 1.96100 -0.15200
C -0.70300 2.80000 0.77700
C -0.62000 4.15600 0.19300
C -0.18700 4.01500 -1.22500
C -0.21400 2.58300 -1.38000
C -0.88700 5.40600 0.97400
C 0.18100 5.01300 -2.27700
O 0.30300 4.69000 -3.50800
C 0.31000 6.41400 -1.83700
N -0.26500 -0.41300 -2.02900
C -0.27900 0.56900 -2.93700
C -0.19600 0.02400 -4.33200
C 0.12400 -1.53300 -4.18000
C 0.08600 -1.63200 -2.63500
C -1.45100 0.20500 -5.19700
C 1.37300 -2.07000 -4.92300
C 2.62600 -1.49000 -4.30600
N 0.15000 -2.14400 0.30300
C 0.17300 -3.13600 -0.68800
C 0.17300 -4.43800 0.00400
C 0.13300 -4.11100 1.35800
C 0.08300 -2.69500 1.50200
C 0.14900 -5.71500 -0.62300
C 0.09600 -4.62900 2.71600
O 0.20800 -5.74700 3.22100
C -0.25500 -3.42800 3.70100
C 0.71700 -3.48200 4.84800
O 1.93100 -3.25500 4.66900
O 0.03800 -3.55600 6.00300
C 0.94300 -3.58300 7.18300
H -1.85900 3.22000 2.49700
H -0.21800 2.45300 -3.47400
H 0.27600 -3.74700 -2.60500
H -1.55400 -0.94900 5.13200
H -1.58500 1.83100 4.66500
H -3.48400 -0.37700 3.96900
H -3.51100 1.02700 2.85800
H -3.85200 1.30100 4.54300
H 0.66900 1.09600 4.96600
H 1.13000 -0.63900 5.18900
H -0.84400 0.02600 7.12500
H 0.06200 1.47700 6.92100
H -1.34400 5.18600 1.93800
H -1.65100 5.96300 0.43200
H 0.00700 6.02000 1.08400
H -0.63500 6.74400 -1.40500
H 0.66500 6.97000 -2.70400
H 1.04800 6.46600 -1.03600
H 0.60800 0.50100 -4.89100
H -0.69200 -2.15600 -4.54700
H -1.26700 0.74000 -6.12900
H -2.20400 0.71400 -4.59600
H -1.96700 -0.72000 -5.45300
H 1.35600 -1.75900 -5.96700
H 1.45200 -3.15700 -4.90200
H 2.71400 -0.52200 -4.79800
H 3.48700 -2.12100 -4.52900
H 2.49500 -1.30300 -3.24000
H 0.86700 -6.33300 -0.08400
H 0.40400 -5.64200 -1.68000
H -0.89100 -5.99900 -0.46300
H -1.28300 -3.58100 4.02800
H 0.69800 -4.47800 7.75500
H 0.83300 -2.61900 7.68000
H 2.00000 -3.75400 6.97600
Mg 8.94227 0.80134 0.67245
C 8.71375 3.24397 -1.94679
C 8.45534 -1.58564 -1.71498
C 8.68873 -1.33668 3.00312
C 8.27043 3.36663 2.93379
N 8.63726 0.93616 -1.51411
C 8.63114 1.91358 -2.40796
C 8.61165 1.43482 -3.88443
C 7.96004 -0.01542 -3.65839
C 8.40400 -0.26101 -2.21781
C 6.44086 -0.00492 -3.69480
C 10.05216 1.32812 -4.49726
C 10.09353 1.16620 -6.01838
H 11.18146 1.80167 -6.75666
N 9.10761 -1.17577 0.62510
C 8.89560 -1.98494 -0.43394
C 9.12751 -3.35370 0.05275
C 9.33273 -3.29933 1.52572
C 9.02358 -1.90723 1.78373
C 9.21752 -4.53897 -0.86401
C 9.72780 -4.33266 2.53683
O 9.61401 -4.12087 3.79581
C 10.16376 -5.63362 2.00869
N 8.33065 0.94204 2.65449
C 8.36567 -0.12910 3.46649
C 8.14548 0.27027 4.90607
C 8.19620 1.86864 4.92108
C 8.35491 2.13101 3.40735
C 6.83507 -0.20300 5.53475
C 9.20734 2.53156 5.89616
C 10.62192 2.23804 5.45097
N 8.74088 2.95016 0.57205
C 8.43247 3.82851 1.63387
C 8.29024 5.17971 1.05382
C 8.50478 4.98841 -0.31945
C 8.74256 3.61175 -0.57980
C 7.95296 6.36180 1.77147
C 8.57365 5.63637 -1.60945
O 8.54041 6.80315 -1.99837
C 8.58685 4.51656 -2.73738
C 9.68496 4.84971 -3.70984
O 10.87564 4.82399 -3.35175
O 9.16675 4.93039 -4.94892
C 10.21933 5.24809 -5.95041
H 8.08411 -2.39447 -2.34495
H 8.69684 -2.01523 3.85926
H 8.15835 4.23537 3.58601
H 7.98703 2.02425 -4.54489
H 8.39937 -0.75392 -4.32394
H 6.04609 0.99875 -3.74916
H 6.12136 -0.48816 -2.78078
H 6.07901 -0.63586 -4.51169
H 10.50028 0.37304 -4.19439
H 10.65294 2.16795 -4.20679
H 9.12742 1.39632 -6.48383
H 10.25845 0.11129 -6.25070
H 8.86129 -4.29541 -1.87256
H 8.50286 -5.28299 -0.49583
H 10.21456 -4.98431 -0.88005
H 9.36733 -6.06405 1.40628
H 10.48953 -6.20772 2.87827
H 11.01395 -5.47132 1.33680
H 8.93680 -0.11239 5.53893
H 7.23018 2.30420 5.21591
H 6.98311 -0.80719 6.44969
H 6.28404 -0.76538 4.79271
H 6.13383 0.58898 5.79210
H 9.10248 2.10627 6.89731
H 9.07926 3.60501 5.98724
H 10.81177 1.24558 5.87058
H 11.31171 2.97608 5.85534
H 10.68113 2.15142 4.35981
H 8.60616 7.14385 1.40784
H 8.06080 6.21972 2.84477
H 6.90681 6.47766 1.47582
H 7.60499 4.51834 -3.21227
H 9.89309 6.14700 -6.48259
H 10.34928 4.32729 -6.54956
H 11.18717 5.56249 -5.57774
