158

Mg 0.00000 0.00000 0.00000
C -0.21700 -2.21800 2.80100
C -1.25500 2.44200 2.02600
C -0.24500 1.85000 -2.56400
C 0.14600 -2.82400 -2.03700
N -0.61700 -0.00900 2.12600
C -0.59400 -0.90800 3.10500
C -0.93600 -0.30900 4.50200
C -1.77300 0.96400 4.03200
C -1.15500 1.16800 2.66000
C -3.26300 0.68500 3.86300
C 0.34500 0.11000 5.29900
C 0.12400 0.39700 6.78700
H 1.16800 0.03300 7.73300
N -0.18500 1.96100 -0.15200
C -0.70300 2.80000 0.77700
C -0.62000 4.15600 0.19300
C -0.18700 4.01500 -1.22500
C -0.21400 2.58300 -1.38000
C -0.88700 5.40600 0.97400
C 0.18100 5.01300 -2.27700
O 0.30300 4.69000 -3.50800
C 0.31000 6.41400 -1.83700
N -0.26500 -0.41300 -2.02900
C -0.27900 0.56900 -2.93700
C -0.19600 0.02400 -4.33200
C 0.12400 -1.53300 -4.18000
C 0.08600 -1.63200 -2.63500
C -1.45100 0.20500 -5.19700
C 1.37300 -2.07000 -4.92300
C 2.62600 -1.49000 -4.30600
N 0.15000 -2.14400 0.30300
C 0.17300 -3.13600 -0.68800
C 0.17300 -4.43800 0.00400
C 0.13300 -4.11100 1.35800
C 0.08300 -2.69500 1.50200
C 0.14900 -5.71500 -0.62300
C 0.09600 -4.62900 2.71600
O 0.20800 -5.74700 3.22100
C -0.25500 -3.42800 3.70100
C 0.71700 -3.48200 4.84800
O 1.93100 -3.25500 4.66900
O 0.03800 -3.55600 6.00300
C 0.94300 -3.58300 7.18300
H -1.85900 3.22000 2.49700
H -0.21800 2.45300 -3.47400
H 0.27600 -3.74700 -2.60500
H -1.55400 -0.94900 5.13200
H -1.58500 1.83100 4.66500
H -3.48400 -0.37700 3.96900
H -3.51100 1.02700 2.85800
H -3.85200 1.30100 4.54300
H 0.66900 1.09600 4.96600
H 1.13000 -0.63900 5.18900
H -0.84400 0.02600 7.12500
H 0.06200 1.47700 6.92100
H -1.34400 5.18600 1.93800
H -1.65100 5.96300 0.43200
H 0.00700 6.02000 1.08400
H -0.63500 6.74400 -1.40500
H 0.66500 6.97000 -2.70400
H 1.04800 6.46600 -1.03600
H 0.60800 0.50100 -4.89100
H -0.69200 -2.15600 -4.54700
H -1.26700 0.74000 -6.12900
H -2.20400 0.71400 -4.59600
H -1.96700 -0.72000 -5.45300
H 1.35600 -1.75900 -5.96700
H 1.45200 -3.15700 -4.90200
H 2.71400 -0.52200 -4.79800
H 3.48700 -2.12100 -4.52900
H 2.49500 -1.30300 -3.24000
H 0.86700 -6.33300 -0.08400
H 0.40400 -5.64200 -1.68000
H -0.89100 -5.99900 -0.46300
H -1.28300 -3.58100 4.02800
H 0.69800 -4.47800 7.75500
H 0.83300 -2.61900 7.68000
H 2.00000 -3.75400 6.97600
Mg 31.53256 2.83880 2.39533
C 31.52068 -0.46213 3.77951
C 30.32473 3.93857 5.39111
C 31.10515 5.68142 1.05613
C 31.64245 1.35704 -0.75713
N 31.02936 1.77664 4.27129
C 31.12704 0.51936 4.69186
C 30.84430 0.35366 6.21500
C 29.95144 1.65382 6.44819
C 30.49057 2.52319 5.32594
C 28.46218 1.41985 6.21613
C 32.15459 0.39740 7.07113
C 32.00541 -0.07933 8.51883
H 33.10695 -0.80377 9.13458
N 31.28987 4.61880 3.21724
C 30.80055 4.88022 4.45317
C 30.81795 6.35200 4.59551
C 31.17876 6.93286 3.27244
C 31.18008 5.75348 2.44513
C 30.56090 7.05634 5.89226
C 31.46502 8.33066 2.82261
O 31.52989 8.64727 1.58563
C 31.58139 9.35043 3.88071
N 31.17116 3.44279 0.43007
C 31.08411 4.73889 0.11144
C 31.10702 4.93847 -1.37502
C 31.47419 3.51837 -2.00611
C 31.52054 2.68524 -0.70150
C 29.80380 5.45366 -2.00128
C 32.69539 3.46651 -2.95815
C 33.96410 3.73652 -2.18062
N 31.75296 0.82424 1.61815
C 31.74875 0.43515 0.27083
C 31.81854 -1.03746 0.24624
C 31.84194 -1.40594 1.58994
C 31.76357 -0.23894 2.40251
C 31.79394 -1.85359 -0.91900
C 31.89007 -2.51545 2.52830
O 32.05708 -3.73159 2.42536
C 31.56120 -1.95633 3.98262
C 32.59360 -2.50989 4.92656
O 33.79025 -2.16689 4.83852
O 31.97878 -3.16386 5.92399
C 32.94536 -3.71292 6.91213
H 29.72687 4.36326 6.19991
H 31.06858 6.64888 0.55104
H 31.76568 0.82955 -1.70477
H 30.27702 -0.53951 6.47743
H 30.15053 2.11621 7.41478
H 28.27423 0.42907 5.80265
H 28.15270 2.19159 5.51105
H 27.89449 1.60279 7.12883
H 32.43529 1.43603 7.24582
H 32.95150 -0.16726 6.58593
H 31.06642 -0.61317 8.66791
H 31.92309 0.79796 9.16054
H 30.16131 6.37733 6.64448
H 29.75534 7.76830 5.71366
H 31.44353 7.58328 6.25505
H 30.65247 9.38566 4.45030
H 31.87573 10.27175 3.37933
H 32.35918 9.04517 4.58129
H 31.86790 5.66372 -1.66053
H 30.65604 3.11116 -2.60067
H 29.92453 6.37975 -2.56385
H 29.07094 5.57323 -1.20384
H 29.29871 4.74311 -2.65504
H 32.61524 4.24099 -3.72019
H 32.80306 2.50920 -3.46827
H 34.00125 4.82475 -2.14567
H 34.82789 3.33320 -2.71016
H 33.88498 3.38003 -1.15342
H 32.55497 -2.61967 -0.77096
H 31.99070 -1.26803 -1.81678
H 30.77144 -2.22896 -0.88106
H 30.55618 -2.29702 4.22957
H 32.75386 -4.78336 6.98780
H 32.83729 -3.11438 7.81683
H 33.99393 -3.71214 6.61243
