79

Mg 10.51837 0.94018 0.80278
C 10.73242 -1.70099 -1.61744
C 9.67456 -1.43562 3.10020
C 9.88326 3.28334 2.84574
C 10.25073 3.17141 -1.86099
N 10.26898 -1.25162 0.64140
C 10.43672 -2.15300 -0.31449
C 10.35781 -3.62585 0.16930
C 9.47205 -3.39824 1.48933
C 9.85002 -1.94940 1.79048
C 7.97622 -3.45717 1.22791
C 11.76877 -4.21649 0.51912
C 11.80295 -5.73554 0.70099
H 12.99082 -6.46256 0.26182
N 10.35456 0.91060 2.78037
C 10.02554 -0.14517 3.55392
C 10.02105 0.35549 4.93721
C 10.21285 1.83086 4.90271
C 10.13515 2.07349 3.47611
C 9.92566 -0.55063 6.13022
C 10.41784 2.85568 5.97692
O 10.32398 4.11116 5.73653
C 10.63926 2.34412 7.33736
N 9.91223 2.91182 0.54281
C 9.75856 3.73252 1.59674
C 9.58845 5.16556 1.15193
C 9.90301 5.16893 -0.41607
C 10.12309 3.65573 -0.63327
C 8.20952 5.77846 1.39542
C 10.99695 6.15369 -0.91229
C 12.34916 5.73173 -0.38421
N 10.67704 0.82018 -1.34861
C 10.50430 1.87049 -2.27656
C 10.59556 1.27796 -3.62674
C 10.79368 -0.09047 -3.38873
C 10.80358 -0.33661 -1.98915
C 10.44923 1.98138 -4.85553
C 10.98606 -1.38429 -4.00331
O 11.15170 -1.78268 -5.15552
C 10.82857 -2.50320 -2.88544
C 11.97952 -3.46188 -3.02243
O 13.14462 -3.08605 -2.80360
O 11.49834 -4.70907 -3.17527
C 12.60221 -5.69733 -3.30425
H 9.18289 -2.06472 3.84274
H 9.76749 4.14474 3.50760
H 10.27544 3.81516 -2.74284
H 9.84829 -4.30001 -0.50869
H 9.79179 -4.05148 2.29704
H 7.75390 -3.52512 0.17335
H 7.56897 -2.54425 1.64237
H 7.52574 -4.27440 1.79846
H 12.04844 -3.89964 1.53210
H 12.49645 -3.92369 -0.21257
H 10.89458 -6.21697 0.31885
H 11.79394 -5.95722 1.77094
H 9.62813 -1.56619 5.84123
H 9.09280 -0.18730 6.74194
H 10.83529 -0.54849 6.73457
H 9.79061 1.73336 7.63609
H 10.85386 3.22284 7.94865
H 11.51344 1.68363 7.32479
H 10.29698 5.81298 1.65388
H 9.01865 5.44609 -1.00846
H 8.24327 6.70014 2.00652
H 7.58285 5.03274 1.86630
H 7.64579 6.01928 0.49575
H 10.80981 7.15644 -0.52034
H 11.04724 6.23454 -1.99300
H 12.36640 6.16176 0.62170
H 13.14623 6.14051 -1.00195
H 12.40770 4.64226 -0.27799
H 11.22772 1.62138 -5.51497
H 10.51778 3.05721 -4.70839
H 9.44074 1.66941 -5.13995
H 9.86696 -2.99254 -3.04492
H 12.43647 -6.24121 -4.23935
H 12.58580 -6.28735 -2.36865
H 13.60372 -5.31285 -3.45788
