79

Mg 13.13984 1.18760 1.00743
C 11.61358 -1.21014 3.19843
C 10.82450 3.43996 2.10319
C 14.16966 3.18577 -1.23181
C 14.55254 -1.49259 -0.71493
N 11.48480 1.01797 2.46495
C 11.03892 0.07528 3.28157
C 9.96861 0.55757 4.29714
C 9.41622 1.82520 3.48053
C 10.65969 2.14346 2.65277
C 8.28363 1.48033 2.52782
C 10.59720 0.98757 5.66900
C 9.59117 1.17488 6.80679
H 9.99467 0.80495 8.16060
N 12.92038 3.15294 0.84051
C 11.93522 3.90944 1.36820
C 12.21436 5.28903 0.94045
C 13.35176 5.26165 -0.01886
C 13.51478 3.83233 -0.19371
C 11.48570 6.47707 1.49816
C 14.15104 6.34311 -0.68053
O 14.93771 6.09467 -1.66148
C 13.91537 7.71511 -0.20771
N 14.03222 0.88905 -0.84644
C 14.43018 1.93062 -1.59790
C 15.28845 1.47337 -2.75319
C 15.58512 -0.07450 -2.48173
C 14.73602 -0.27520 -1.20731
C 14.67488 1.63749 -4.14351
C 17.07554 -0.51097 -2.45323
C 17.76741 0.09328 -1.25257
N 13.26158 -0.95117 1.28829
C 13.87913 -1.88999 0.43310
C 13.60074 -3.23143 0.98580
C 12.81492 -2.97922 2.12042
C 12.60060 -1.58069 2.25332
C 14.01589 -4.46825 0.41656
C 12.10909 -3.57879 3.22994
O 12.00855 -4.71886 3.68143
C 11.19418 -2.46872 3.90602
C 11.40226 -2.53844 5.39409
O 12.50624 -2.25546 5.89186
O 10.21271 -2.71493 5.99756
C 10.36581 -2.77923 7.47548
H 10.00823 4.15530 2.20751
H 14.63861 3.83793 -1.97225
H 15.03981 -2.37327 -1.13877
H 9.16533 -0.14627 4.47914
H 9.17955 2.65123 4.14612
H 8.11582 0.41512 2.47028
H 8.58218 1.86896 1.56300
H 7.37777 2.02673 2.80565
H 10.97675 2.01386 5.58294
H 11.36040 0.29716 5.97148
H 8.61186 0.74354 6.56628
H 9.39250 2.24319 6.92197
H 10.59315 6.17438 2.05953
H 11.09201 7.04013 0.64503
H 12.13400 7.13155 2.08471
H 12.86584 7.96724 -0.33954
H 14.64168 8.33528 -0.73661
H 14.11539 7.75332 0.86893
H 16.22748 2.01269 -2.77453
H 15.14326 -0.71631 -3.25805
H 15.29676 2.24720 -4.82584
H 13.69124 2.07430 -4.03311
H 14.45723 0.70697 -4.66502
H 17.59788 -0.13267 -3.33539
H 17.21014 -1.58734 -2.43619
H 18.03000 1.09749 -1.59855
H 18.65545 -0.47974 -0.99359
H 17.07194 0.20535 -0.41268
H 14.37364 -5.08202 1.23253
H 14.78582 -4.32020 -0.33779
H 13.07309 -4.80808 -0.02037
H 10.16141 -2.68072 3.62669
H 9.91414 -3.72079 7.80281
H 9.91873 -1.84455 7.86309
H 11.36978 -2.87733 7.87156
