158

Mg 0.00000 0.00000 0.00000
C -0.21700 -2.21800 2.80100
C -1.25500 2.44200 2.02600
C -0.24500 1.85000 -2.56400
C 0.14600 -2.82400 -2.03700
N -0.61700 -0.00900 2.12600
C -0.59400 -0.90800 3.10500
C -0.93600 -0.30900 4.50200
C -1.77300 0.96400 4.03200
C -1.15500 1.16800 2.66000
C -3.26300 0.68500 3.86300
C 0.34500 0.11000 5.29900
C 0.12400 0.39700 6.78700
H 1.16800 0.03300 7.73300
N -0.18500 1.96100 -0.15200
C -0.70300 2.80000 0.77700
C -0.62000 4.15600 0.19300
C -0.18700 4.01500 -1.22500
C -0.21400 2.58300 -1.38000
C -0.88700 5.40600 0.97400
C 0.18100 5.01300 -2.27700
O 0.30300 4.69000 -3.50800
C 0.31000 6.41400 -1.83700
N -0.26500 -0.41300 -2.02900
C -0.27900 0.56900 -2.93700
C -0.19600 0.02400 -4.33200
C 0.12400 -1.53300 -4.18000
C 0.08600 -1.63200 -2.63500
C -1.45100 0.20500 -5.19700
C 1.37300 -2.07000 -4.92300
C 2.62600 -1.49000 -4.30600
N 0.15000 -2.14400 0.30300
C 0.17300 -3.13600 -0.68800
C 0.17300 -4.43800 0.00400
C 0.13300 -4.11100 1.35800
C 0.08300 -2.69500 1.50200
C 0.14900 -5.71500 -0.62300
C 0.09600 -4.62900 2.71600
O 0.20800 -5.74700 3.22100
C -0.25500 -3.42800 3.70100
C 0.71700 -3.48200 4.84800
O 1.93100 -3.25500 4.66900
O 0.03800 -3.55600 6.00300
C 0.94300 -3.58300 7.18300
H -1.85900 3.22000 2.49700
H -0.21800 2.45300 -3.47400
H 0.27600 -3.74700 -2.60500
H -1.55400 -0.94900 5.13200
H -1.58500 1.83100 4.66500
H -3.48400 -0.37700 3.96900
H -3.51100 1.02700 2.85800
H -3.85200 1.30100 4.54300
H 0.66900 1.09600 4.96600
H 1.13000 -0.63900 5.18900
H -0.84400 0.02600 7.12500
H 0.06200 1.47700 6.92100
H -1.34400 5.18600 1.93800
H -1.65100 5.96300 0.43200
H 0.00700 6.02000 1.08400
H -0.63500 6.74400 -1.40500
H 0.66500 6.97000 -2.70400
H 1.04800 6.46600 -1.03600
H 0.60800 0.50100 -4.89100
H -0.69200 -2.15600 -4.54700
H -1.26700 0.74000 -6.12900
H -2.20400 0.71400 -4.59600
H -1.96700 -0.72000 -5.45300
H 1.35600 -1.75900 -5.96700
H 1.45200 -3.15700 -4.90200
H 2.71400 -0.52200 -4.79800
H 3.48700 -2.12100 -4.52900
H 2.49500 -1.30300 -3.24000
H 0.86700 -6.33300 -0.08400
H 0.40400 -5.64200 -1.68000
H -0.89100 -5.99900 -0.46300
H -1.28300 -3.58100 4.02800
H 0.69800 -4.47800 7.75500
H 0.83300 -2.61900 7.68000
H 2.00000 -3.75400 6.97600
Mg 10.51749 0.94334 0.80617
C 8.19482 -0.12488 3.32473
C 11.65349 3.25225 3.04515
C 12.25921 2.20330 -1.52757
C 8.47425 -0.62064 -1.54433
N 9.92181 1.40599 2.88544
C 9.06903 0.89303 3.75951
C 9.21296 1.44981 5.20133
C 9.89752 2.85880 4.84779
C 10.56554 2.48145 3.52717
C 8.89180 3.96499 4.57535
C 10.15102 0.56325 6.09356
C 10.09277 0.87092 7.59146
H 10.23076 -0.23501 8.53505
N 12.09135 2.14964 0.88599
C 12.41196 3.00429 1.88000
C 13.64862 3.67532 1.45040
C 13.94162 3.26692 0.04966
C 12.73789 2.52415 -0.26563
C 14.46595 4.53931 2.36632
C 15.10613 3.51589 -0.86036
O 15.04444 3.26734 -2.11625
C 16.28832 4.14616 -0.25483
N 10.28120 0.99601 -1.25871
C 11.21158 1.56282 -2.04678
C 10.96512 1.23937 -3.50109
C 9.81012 0.13323 -3.50543
C 9.51363 0.07099 -1.99097
C 10.54609 2.41579 -4.38247
C 10.10937 -1.19381 -4.25517
C 11.19229 -1.96207 -3.53236
N 8.77222 -0.32898 0.86373
C 8.06031 -0.85077 -0.23854
C 6.88271 -1.56137 0.30066
C 6.97953 -1.38269 1.68889
C 8.12479 -0.59784 1.99201
C 5.87917 -2.21287 -0.47044
C 6.36748 -1.67059 2.96608
O 5.42430 -2.36642 3.34022
C 7.05728 -0.76238 4.07321
C 7.39534 -1.63856 5.24817
O 8.24123 -2.54365 5.13899
O 6.82886 -1.12743 6.35641
C 7.14475 -1.95570 7.55057
H 11.92786 4.15796 3.58671
H 12.88564 2.52100 -2.36430
H 7.84238 -1.21731 -2.20569
H 8.27641 1.61155 5.72142
H 10.64450 3.13194 5.58857
H 7.87906 3.59110 4.54855
H 9.16650 4.38247 3.61551
H 9.01453 4.77336 5.30186
H 11.19610 0.82828 5.88782
H 9.95767 -0.47925 5.93100
H 9.22695 1.49204 7.85131
H 10.95463 1.48990 7.85236
H 13.91525 4.78880 3.28167
H 14.60267 5.50142 1.86082
H 15.44708 4.11201 2.58420
H 16.00673 5.10516 0.17353
H 17.04642 4.16050 -1.04030
H 16.63225 3.51940 0.57552
H 11.85292 0.82223 -3.96032
H 8.89428 0.50233 -3.99004
H 11.21657 2.57295 -5.24840
H 10.50425 3.30503 -3.76763
H 9.53284 2.35958 -4.77666
H 10.49301 -0.98468 -5.25679
H 9.23867 -1.83069 -4.37028
H 12.11217 -1.50141 -3.90479
H 11.14832 -3.01873 -3.78841
H 11.14781 -1.78263 -2.45187
H 5.67459 -3.15623 0.01814
H 6.20072 -2.35877 -1.49956
H 5.06910 -1.48276 -0.39308
H 6.34991 0.02407 4.33911
H 6.19014 -2.23746 8.00556
H 7.83424 -1.34533 8.16359
H 7.59368 -2.92754 7.38193
