158

Mg 0.00000 0.00000 0.00000
C -0.21700 -2.21800 2.80100
C -1.25500 2.44200 2.02600
C -0.24500 1.85000 -2.56400
C 0.14600 -2.82400 -2.03700
N -0.61700 -0.00900 2.12600
C -0.59400 -0.90800 3.10500
C -0.93600 -0.30900 4.50200
C -1.77300 0.96400 4.03200
C -1.15500 1.16800 2.66000
C -3.26300 0.68500 3.86300
C 0.34500 0.11000 5.29900
C 0.12400 0.39700 6.78700
H 1.16800 0.03300 7.73300
N -0.18500 1.96100 -0.15200
C -0.70300 2.80000 0.77700
C -0.62000 4.15600 0.19300
C -0.18700 4.01500 -1.22500
C -0.21400 2.58300 -1.38000
C -0.88700 5.40600 0.97400
C 0.18100 5.01300 -2.27700
O 0.30300 4.69000 -3.50800
C 0.31000 6.41400 -1.83700
N -0.26500 -0.41300 -2.02900
C -0.27900 0.56900 -2.93700
C -0.19600 0.02400 -4.33200
C 0.12400 -1.53300 -4.18000
C 0.08600 -1.63200 -2.63500
C -1.45100 0.20500 -5.19700
C 1.37300 -2.07000 -4.92300
C 2.62600 -1.49000 -4.30600
N 0.15000 -2.14400 0.30300
C 0.17300 -3.13600 -0.68800
C 0.17300 -4.43800 0.00400
C 0.13300 -4.11100 1.35800
C 0.08300 -2.69500 1.50200
C 0.14900 -5.71500 -0.62300
C 0.09600 -4.62900 2.71600
O 0.20800 -5.74700 3.22100
C -0.25500 -3.42800 3.70100
C 0.71700 -3.48200 4.84800
O 1.93100 -3.25500 4.66900
O 0.03800 -3.55600 6.00300
C 0.94300 -3.58300 7.18300
H -1.85900 3.22000 2.49700
H -0.21800 2.45300 -3.47400
H 0.27600 -3.74700 -2.60500
H -1.55400 -0.94900 5.13200
H -1.58500 1.83100 4.66500
H -3.48400 -0.37700 3.96900
H -3.51100 1.02700 2.85800
H -3.85200 1.30100 4.54300
H 0.66900 1.09600 4.96600
H 1.13000 -0.63900 5.18900
H -0.84400 0.02600 7.12500
H 0.06200 1.47700 6.92100
H -1.34400 5.18600 1.93800
H -1.65100 5.96300 0.43200
H 0.00700 6.02000 1.08400
H -0.63500 6.74400 -1.40500
H 0.66500 6.97000 -2.70400
H 1.04800 6.46600 -1.03600
H 0.60800 0.50100 -4.89100
H -0.69200 -2.15600 -4.54700
H -1.26700 0.74000 -6.12900
H -2.20400 0.71400 -4.59600
H -1.96700 -0.72000 -5.45300
H 1.35600 -1.75900 -5.96700
H 1.45200 -3.15700 -4.90200
H 2.71400 -0.52200 -4.79800
H 3.48700 -2.12100 -4.52900
H 2.49500 -1.30300 -3.24000
H 0.86700 -6.33300 -0.08400
H 0.40400 -5.64200 -1.68000
H -0.89100 -5.99900 -0.46300
H -1.28300 -3.58100 4.02800
H 0.69800 -4.47800 7.75500
H 0.83300 -2.61900 7.68000
H 2.00000 -3.75400 6.97600
Mg 7.88314 0.70970 0.59883
C 7.66614 -1.50830 3.39983
C 6.62814 3.15170 2.62483
C 7.63814 2.55970 -1.96517
C 8.02914 -2.11430 -1.43817
N 7.26614 0.70070 2.72483
C 7.28914 -0.19830 3.70383
C 6.94714 0.40070 5.10083
C 6.11014 1.67370 4.63083
C 6.72814 1.87770 3.25883
C 4.62014 1.39470 4.46183
C 8.22814 0.81970 5.89783
C 8.00714 1.10670 7.38583
H 9.05114 0.74270 8.33183
N 7.69814 2.67070 0.44683
C 7.18014 3.50970 1.37583
C 7.26314 4.86570 0.79183
C 7.69614 4.72470 -0.62617
C 7.66914 3.29270 -0.78117
C 6.99614 6.11570 1.57283
C 8.06414 5.72270 -1.67817
O 8.18614 5.39970 -2.90917
C 8.19314 7.12370 -1.23817
N 7.61814 0.29670 -1.43017
C 7.60414 1.27870 -2.33817
C 7.68714 0.73370 -3.73317
C 8.00714 -0.82330 -3.58117
C 7.96914 -0.92230 -2.03617
C 6.43214 0.91470 -4.59817
C 9.25614 -1.36030 -4.32417
C 10.50914 -0.78030 -3.70717
N 8.03314 -1.43430 0.90183
C 8.05614 -2.42630 -0.08917
C 8.05614 -3.72830 0.60283
C 8.01614 -3.40130 1.95683
C 7.96614 -1.98530 2.10083
C 8.03214 -5.00530 -0.02417
C 7.97914 -3.91930 3.31483
O 8.09114 -5.03730 3.81983
C 7.62814 -2.71830 4.29983
C 8.60014 -2.77230 5.44683
O 9.81414 -2.54530 5.26783
O 7.92114 -2.84630 6.60183
C 8.82614 -2.87330 7.78183
H 6.02414 3.92970 3.09583
H 7.66514 3.16270 -2.87517
H 8.15914 -3.03730 -2.00617
H 6.32914 -0.23930 5.73083
H 6.29814 2.54070 5.26383
H 4.39914 0.33270 4.56783
H 4.37214 1.73670 3.45683
H 4.03114 2.01070 5.14183
H 8.55214 1.80570 5.56483
H 9.01314 0.07070 5.78783
H 7.03914 0.73570 7.72383
H 7.94514 2.18670 7.51983
H 6.53914 5.89570 2.53683
H 6.23214 6.67270 1.03083
H 7.89014 6.72970 1.68283
H 7.24814 7.45370 -0.80617
H 8.54814 7.67970 -2.10517
H 8.93114 7.17570 -0.43717
H 8.49114 1.21070 -4.29217
H 7.19114 -1.44630 -3.94817
H 6.61614 1.44970 -5.53017
H 5.67914 1.42370 -3.99717
H 5.91614 -0.01030 -4.85417
H 9.23914 -1.04930 -5.36817
H 9.33514 -2.44730 -4.30317
H 10.59714 0.18770 -4.19917
H 11.37014 -1.41130 -3.93017
H 10.37814 -0.59330 -2.64117
H 8.75014 -5.62330 0.51483
H 8.28714 -4.93230 -1.08117
H 6.99214 -5.28930 0.13583
H 6.60014 -2.87130 4.62683
H 8.58114 -3.76830 8.35383
H 8.71614 -1.90930 8.27883
H 9.88314 -3.04430 7.57483
