158

Mg 0.00000 0.00000 0.00000
C -0.21700 -2.21800 2.80100
C -1.25500 2.44200 2.02600
C -0.24500 1.85000 -2.56400
C 0.14600 -2.82400 -2.03700
N -0.61700 -0.00900 2.12600
C -0.59400 -0.90800 3.10500
C -0.93600 -0.30900 4.50200
C -1.77300 0.96400 4.03200
C -1.15500 1.16800 2.66000
C -3.26300 0.68500 3.86300
C 0.34500 0.11000 5.29900
C 0.12400 0.39700 6.78700
H 1.16800 0.03300 7.73300
N -0.18500 1.96100 -0.15200
C -0.70300 2.80000 0.77700
C -0.62000 4.15600 0.19300
C -0.18700 4.01500 -1.22500
C -0.21400 2.58300 -1.38000
C -0.88700 5.40600 0.97400
C 0.18100 5.01300 -2.27700
O 0.30300 4.69000 -3.50800
C 0.31000 6.41400 -1.83700
N -0.26500 -0.41300 -2.02900
C -0.27900 0.56900 -2.93700
C -0.19600 0.02400 -4.33200
C 0.12400 -1.53300 -4.18000
C 0.08600 -1.63200 -2.63500
C -1.45100 0.20500 -5.19700
C 1.37300 -2.07000 -4.92300
C 2.62600 -1.49000 -4.30600
N 0.15000 -2.14400 0.30300
C 0.17300 -3.13600 -0.68800
C 0.17300 -4.43800 0.00400
C 0.13300 -4.11100 1.35800
C 0.08300 -2.69500 1.50200
C 0.14900 -5.71500 -0.62300
C 0.09600 -4.62900 2.71600
O 0.20800 -5.74700 3.22100
C -0.25500 -3.42800 3.70100
C 0.71700 -3.48200 4.84800
O 1.93100 -3.25500 4.66900
O 0.03800 -3.55600 6.00300
C 0.94300 -3.58300 7.18300
H -1.85900 3.22000 2.49700
H -0.21800 2.45300 -3.47400
H 0.27600 -3.74700 -2.60500
H -1.55400 -0.94900 5.13200
H -1.58500 1.83100 4.66500
H -3.48400 -0.37700 3.96900
H -3.51100 1.02700 2.85800
H -3.85200 1.30100 4.54300
H 0.66900 1.09600 4.96600
H 1.13000 -0.63900 5.18900
H -0.84400 0.02600 7.12500
H 0.06200 1.47700 6.92100
H -1.34400 5.18600 1.93800
H -1.65100 5.96300 0.43200
H 0.00700 6.02000 1.08400
H -0.63500 6.74400 -1.40500
H 0.66500 6.97000 -2.70400
H 1.04800 6.46600 -1.03600
H 0.60800 0.50100 -4.89100
H -0.69200 -2.15600 -4.54700
H -1.26700 0.74000 -6.12900
H -2.20400 0.71400 -4.59600
H -1.96700 -0.72000 -5.45300
H 1.35600 -1.75900 -5.96700
H 1.45200 -3.15700 -4.90200
H 2.71400 -0.52200 -4.79800
H 3.48700 -2.12100 -4.52900
H 2.49500 -1.30300 -3.24000
H 0.86700 -6.33300 -0.08400
H 0.40400 -5.64200 -1.68000
H -0.89100 -5.99900 -0.46300
H -1.28300 -3.58100 4.02800
H 0.69800 -4.47800 7.75500
H 0.83300 -2.61900 7.68000
H 2.00000 -3.75400 6.97600
Mg 10.50195 0.94968 0.80307
C 8.30519 -1.81608 0.16751
C 8.31107 2.89746 -0.94072
C 12.62539 3.30231 0.95657
C 13.00911 -1.37576 1.47553
N 8.58998 0.48552 -0.20746
C 7.82317 -0.58747 -0.33010
C 6.42834 -0.31335 -0.95370
C 6.78461 1.02971 -1.75877
C 7.94587 1.52809 -0.90100
C 7.30500 0.76972 -3.16267
C 5.32734 -0.05597 0.13422
C 3.88877 -0.08779 -0.38660
H 2.84636 -0.62965 0.48072
N 10.27340 2.90459 0.54880
C 9.31579 3.52497 -0.17189
C 9.59742 4.96455 -0.06028
C 10.89464 5.13514 0.64884
C 11.33454 3.75667 0.72893
C 8.63832 6.02004 -0.52877
C 11.62516 6.34074 1.15782
O 12.84969 6.27815 1.53124
C 10.89380 7.61551 1.11843
N 12.57522 0.96997 0.95634
C 13.24956 2.12873 1.05868
C 14.69246 1.88884 1.43403
C 14.78842 0.33515 1.80064
C 13.34064 -0.09192 1.47360
C 15.72431 2.22193 0.35666
C 15.36763 -0.02414 3.19638
C 14.42009 0.43354 4.28178
N 10.61715 -1.19816 1.00695
C 11.77132 -1.96981 1.26490
C 11.36917 -3.38983 1.19975
C 10.00303 -3.34583 0.88318
C 9.58792 -1.99430 0.73987
C 12.23318 -4.50785 1.37187
C 8.82010 -4.13568 0.62721
O 8.54422 -5.33294 0.69188
C 7.69689 -3.18397 0.02801
C 6.41417 -3.45871 0.76398
O 6.31141 -3.19516 1.97501
O 5.45681 -3.78163 -0.12458
C 4.16274 -4.05235 0.55653
H 7.81017 3.54738 -1.65876
H 13.37523 4.07833 1.12686
H 13.71057 -2.15936 1.76979
H 6.07935 -1.07627 -1.63921
H 5.95971 1.73695 -1.73184
H 7.46145 -0.28295 -3.34583
H 8.24028 1.30932 -3.23434
H 6.63819 1.22292 -3.90180
H 5.38541 0.98995 0.46197
H 5.43111 -0.74315 0.95132
H 3.82282 -0.52900 -1.38856
H 3.54650 0.94084 -0.52363
H 7.84637 5.59372 -1.15684
H 9.19404 6.68037 -1.20331
H 8.23211 6.61447 0.29240
H 10.59722 7.83021 0.09451
H 11.54694 8.34231 1.60530
H 9.96994 7.50685 1.69747
H 14.96805 2.47277 2.30361
H 15.44174 -0.20862 1.10256
H 16.48247 2.95538 0.69030
H 15.20029 2.58722 -0.51655
H 16.26874 1.36729 -0.04134
H 16.30929 0.50465 3.36318
H 15.56641 -1.08325 3.32194
H 14.67838 1.48948 4.40571
H 14.59086 -0.12495 5.19991
H 13.37924 0.38657 3.94108
H 11.70647 -5.21472 1.99910
H 13.18217 -4.21250 1.81454
H 12.34696 -4.82820 0.33278
H 7.61354 -3.40554 -1.03667
H 3.84367 -5.05334 0.25008
H 3.50080 -3.20806 0.28678
H 4.17610 -4.15563 1.63523
