79

Mg 15.76628 1.41940 1.19766
C 15.73037 -1.78767 2.78688
C 14.54740 2.71127 4.11116
C 15.36039 4.17394 -0.32035
C 15.88622 -0.25852 -1.85453
N 15.24747 0.47987 3.13383
C 15.33658 -0.74886 3.63330
C 15.04462 -0.81696 5.16219
C 14.15695 0.49940 5.30784
C 14.70657 1.29386 4.13622
C 12.66785 0.25814 5.08230
C 16.35037 -0.72541 6.02148
C 16.19084 -1.10928 7.49543
H 17.28535 -1.79856 8.16199
N 15.52790 3.24875 1.90442
C 15.03307 3.58976 3.11856
C 15.05699 5.06749 3.16803
C 15.42797 5.56217 1.81313
C 15.42801 4.33302 1.06176
C 14.79628 5.85330 4.41634
C 15.72364 6.92752 1.27785
O 15.79691 7.16527 0.02379
C 15.83923 8.01138 2.27029
N 15.41873 1.90003 -0.80380
C 15.33988 3.17387 -1.20392
C 15.37199 3.27930 -2.69984
C 15.73558 1.82058 -3.23810
C 15.77059 1.07110 -1.88336
C 14.07482 3.76001 -3.36487
C 16.96175 1.70322 -4.17786
C 18.22747 2.01584 -3.41150
N 15.98096 -0.64112 0.55019
C 15.98226 -1.11429 -0.76996
C 16.04488 -2.58584 -0.70135
C 16.05903 -2.86903 0.66300
C 15.98197 -1.65281 1.39999
C 16.02265 -3.47363 -1.81300
C 16.09647 -3.91743 1.66963
O 16.25801 -5.13840 1.64446
C 15.76236 -3.26628 3.08392
C 16.78677 -3.76403 4.06684
O 17.98558 -3.43277 3.96434
O 16.16322 -4.35102 5.09988
C 17.12159 -4.84118 6.12625
H 13.94721 3.18883 4.88811
H 15.33141 5.10782 -0.88558
H 16.01206 -0.84522 -2.76634
H 14.47147 -1.68920 5.47704
H 14.35299 1.02085 6.24452
H 12.47727 -0.75584 4.73095
H 12.36611 0.98535 4.32823
H 12.09604 0.50084 5.97835
H 16.63525 0.32086 6.13204
H 17.14713 -1.32318 5.57744
H 15.24840 -1.62834 7.67236
H 16.10933 -0.19294 8.08013
H 14.38918 5.22488 5.20749
H 13.99527 6.55630 4.18858
H 15.67950 6.39799 4.75036
H 14.90737 8.08670 2.83111
H 16.14090 8.89792 1.71360
H 16.61162 7.74729 2.99322
H 16.13802 3.98160 -3.02602
H 14.91872 1.38050 -3.81058
H 14.20325 4.64825 -3.98394
H 13.33817 3.93295 -2.58083
H 13.56982 3.01201 -3.97553
H 16.88965 2.42851 -4.98761
H 17.06748 0.71519 -4.62604
H 18.26983 3.10392 -3.44494
H 19.09216 1.57598 -3.90955
H 18.14091 1.72513 -2.36437
H 16.77904 -4.23236 -1.61259
H 16.22727 -2.94671 -2.74471
H 14.99811 -3.84116 -1.75745
H 14.75431 -3.58611 3.34598
H 16.92436 -5.90383 6.26806
H 17.01150 -4.18634 6.99081
H 18.17179 -4.86410 5.83319
