79

Mg 31.54054 2.83189 2.39446
C 31.64561 2.35971 -1.16153
C 30.93760 -0.51396 2.67075
C 30.99574 3.28629 5.48705
C 31.01213 6.22302 1.78891
N 31.34061 1.23426 0.87793
C 31.46110 1.16240 -0.43914
C 31.45956 -0.28216 -1.00729
C 30.66933 -1.00932 0.18672
C 31.02851 -0.06233 1.32990
C 29.16031 -0.99171 0.00814
C 32.90860 -0.86075 -1.17318
C 32.99842 -2.14070 -2.00710
H 34.16970 -2.33705 -2.85681
N 31.52640 1.53850 3.89963
C 31.28571 0.21238 3.83074
C 31.37110 -0.28434 5.21281
C 31.51881 0.88388 6.12284
C 31.32764 1.97326 5.18648
C 31.39062 -1.74648 5.55223
C 31.77530 1.00099 7.59481
O 31.62891 2.11167 8.21754
C 32.11222 -0.24282 8.30256
N 30.86220 4.46950 3.48093
C 30.76531 4.41795 4.82104
C 30.52267 5.78987 5.40358
C 30.71853 6.81274 4.18993
C 30.96355 5.80429 3.04608
C 29.14942 6.00995 6.03773
C 31.74445 7.96071 4.39563
C 33.14363 7.39407 4.47682
N 31.54068 4.12072 0.66040
C 31.26978 5.50622 0.62737
C 31.27591 5.91732 -0.79157
C 31.52917 4.72864 -1.49256
C 31.65084 3.64906 -0.57648
C 31.01839 7.22983 -1.27851
C 31.71071 4.13979 -2.79985
O 31.80045 4.57905 -3.94559
C 31.66858 2.55780 -2.65178
C 32.83214 1.98857 -3.41638
O 33.99951 2.21853 -3.05448
O 32.37562 1.09483 -4.31259
C 33.49367 0.49453 -5.08810
H 30.52063 -1.50397 2.85760
H 30.90610 3.51828 6.55083
H 30.95278 7.28063 1.52319
H 30.91950 -0.40341 -1.93864
H 31.06673 -2.00316 0.37572
H 28.86149 -0.38775 -0.83571
H 28.76014 -0.58280 0.92667
H 28.77671 -2.01381 -0.05903
H 33.25457 -1.24313 -0.20424
H 33.57096 -0.11956 -1.57635
H 32.07764 -2.32997 -2.57215
H 33.07583 -2.99289 -1.32755
H 31.10051 -2.36293 4.69245
H 30.59623 -1.91470 6.28744
H 32.34260 -2.06668 5.98104
H 31.30563 -0.96085 8.17484
H 32.34763 0.05755 9.32542
H 33.00098 -0.68148 7.83532
H 31.24862 6.01647 6.17478
H 29.78488 7.34154 3.94803
H 29.20335 6.33091 7.09516
H 28.58075 5.09404 5.94688
H 28.51334 6.72874 5.52397
H 31.55950 8.46819 5.34559
H 31.71128 8.71447 3.61606
H 33.22434 7.08494 5.52325
H 33.88049 8.15657 4.23255
H 33.24015 6.49387 3.85879
H 31.75491 7.42724 -2.04602
H 31.06794 7.96703 -0.47985
H 30.00045 7.10153 -1.65613
H 30.71166 2.21697 -3.04891
H 33.27340 0.66086 -6.14711
H 33.56383 -0.55548 -4.74707
H 34.46980 0.95697 -4.99994
