79

Mg 31.53256 2.83880 2.39533
C 31.13047 6.14551 1.08528
C 30.99597 1.68042 -0.76905
C 31.43152 -0.09207 3.60213
C 30.90949 4.17353 5.55380
N 31.12773 3.87973 0.48399
C 31.05831 5.15232 0.10599
C 30.97735 5.33430 -1.43923
C 30.37714 3.90968 -1.82937
C 30.89301 3.09857 -0.65383
C 28.85242 3.86850 -1.82318
C 32.38549 5.55930 -2.08596
C 32.36738 6.06718 -3.53063
H 33.39891 7.00032 -3.95787
N 31.73760 1.08262 1.51405
C 31.49037 0.79542 0.21341
C 31.79304 -0.64263 0.04889
C 32.05403 -1.21026 1.40085
C 31.72152 -0.08732 2.23979
C 31.86035 -1.32203 -1.28439
C 32.51787 -2.55511 1.86383
O 32.45614 -2.91081 3.09031
C 32.97007 -3.49008 0.81769
N 31.00089 2.09304 4.27117
C 31.10261 0.78872 4.54937
C 30.94234 0.52956 6.01807
C 30.95117 1.96216 6.72330
C 31.03808 2.84838 5.45628
C 29.67544 -0.23358 6.42867
C 31.98970 2.18423 7.85138
C 33.38656 2.17587 7.27188
N 31.27020 4.82378 3.23323
C 30.99807 5.14509 4.57090
C 30.79736 6.60454 4.63239
C 30.95130 7.03150 3.31488
C 31.20449 5.90659 2.47897
C 30.45532 7.35047 5.79473
C 30.93638 8.17338 2.41501
O 30.86487 9.39409 2.56414
C 30.93087 7.63131 0.91769
C 31.97415 8.39905 0.15254
O 33.18683 8.26734 0.41602
O 31.40507 8.97944 -0.91510
C 32.39163 9.73320 -1.73406
H 30.60977 1.19440 -1.66715
H 31.49580 -1.07272 4.07821
H 30.79516 4.67126 6.51850
H 30.30344 6.12518 -1.76904
H 30.79605 3.53327 -2.76241
H 28.43057 4.79141 -1.42545
H 28.58666 3.02355 -1.18763
H 28.46733 3.63021 -2.81499
H 32.87107 4.59482 -2.23444
H 32.98767 6.23240 -1.47470
H 31.37993 6.43446 -3.81165
H 32.53949 5.21881 -4.19309
H 31.46007 -0.69036 -2.07642
H 31.17870 -2.17139 -1.24371
H 32.86697 -1.66937 -1.51763
H 32.15662 -3.66180 0.11244
H 33.34844 -4.36721 1.34144
H 33.77461 -3.02209 0.24967
H 31.77094 -0.06330 6.40326
H 29.99476 2.19260 7.19324
H 29.87682 -1.14857 6.98629
H 29.10135 -0.44365 5.52668
H 28.96023 0.34738 7.01037
H 31.93911 1.37418 8.57817
H 31.84719 3.12166 8.38912
H 33.62364 1.11367 7.22341
H 34.07631 2.70001 7.93425
H 33.39642 2.55885 6.25124
H 31.07943 8.24388 5.77844
H 30.62011 6.76863 6.70133
H 29.39883 7.54227 5.60793
H 29.92834 7.80147 0.52641
H 32.02388 10.75585 -1.81877
H 32.52719 9.16631 -2.65529
H 33.36761 9.90260 -1.27787
