79

Mg 8.94124 0.81103 0.67442
C 8.32028 3.76472 2.61586
C 8.10399 2.63058 -2.08653
C 9.04206 -1.87830 -1.00628
C 8.61376 -1.02486 3.61856
N 8.31165 2.91666 0.42502
C 8.17066 3.96118 1.22718
C 7.93041 5.30783 0.49344
C 7.32140 4.73038 -0.87570
C 7.97660 3.35075 -0.87195
C 5.81394 4.54334 -0.83216
C 9.26282 6.09728 0.24154
C 9.07576 7.55345 -0.19011
H 10.04009 8.54661 0.27485
N 9.09943 0.52511 -1.28308
C 8.73174 1.37784 -2.26233
C 9.03528 0.69206 -3.52793
C 9.45903 -0.70025 -3.21711
C 9.19078 -0.74588 -1.79371
C 8.98788 1.38323 -4.85964
C 10.00221 -1.81145 -4.06350
O 10.07831 -3.01440 -3.62766
C 10.35523 -1.46797 -5.44874
N 8.63366 -1.18140 1.18230
C 8.79103 -2.15895 0.27261
C 8.78885 -3.51944 0.92794
C 8.83977 -3.23843 2.50148
C 8.76945 -1.69564 2.48543
C 7.58798 -4.40963 0.60880
C 9.98510 -3.91786 3.30102
C 11.31719 -3.32894 2.89593
N 8.72511 1.26627 2.77540
C 8.57861 0.34646 3.83680
C 8.34976 1.13309 5.06613
C 8.35611 2.46575 4.62743
C 8.55342 2.50591 3.22067
C 8.12282 0.59846 6.36567
C 8.23015 3.84721 5.03290
O 8.13788 4.43083 6.11207
C 8.07507 4.74419 3.72992
C 9.01463 5.91209 3.85548
O 10.24556 5.73505 3.86292
O 8.31639 7.05508 3.72739
C 9.20658 8.24170 3.83375
H 7.64323 3.04259 -2.98477
H 9.17909 -2.83199 -1.52123
H 8.59996 -1.51909 4.59233
H 7.21327 5.96412 0.97174
H 7.65664 5.30937 -1.73229
H 5.41455 4.71882 0.15569
H 5.63556 3.52019 -1.13612
H 5.33425 5.17058 -1.58900
H 9.75218 5.69676 -0.65560
H 9.89960 6.05491 1.10371
H 8.05057 7.90490 -0.02152
H 9.20495 7.61358 -1.27349
H 8.48421 2.35531 -4.79063
H 8.33720 0.78553 -5.50713
H 9.97165 1.46578 -5.32661
H 9.47787 -1.07734 -5.95875
H 10.80825 -2.36899 -5.86686
H 11.09490 -0.65977 -5.43115
H 9.66648 -4.08699 0.64374
H 7.92849 -3.58929 3.00774
H 7.87211 -5.38643 0.17382
H 6.93241 -3.87076 -0.06231
H 6.93253 -4.62069 1.45204
H 10.03196 -4.98359 3.06400
H 9.87114 -3.83185 4.37648
H 11.56873 -3.88785 1.98961
H 12.05914 -3.48728 3.67598
H 11.21218 -2.27468 2.61458
H 8.71339 1.18951 7.05297
H 8.39054 -0.45497 6.41452
H 7.04406 0.75238 6.45424
H 7.03310 5.06134 3.67264
H 8.80339 8.87309 4.63155
H 9.24606 8.67758 2.81778
H 10.21907 8.07889 4.18418
