79

Mg 31.53975 2.83730 2.40296
C 29.50159 1.39699 4.98181
C 32.25915 5.35741 4.58612
C 32.97447 4.36023 0.01765
C 29.78760 0.87667 0.11569
N 30.90267 3.21661 4.48683
C 30.17619 2.56831 5.38476
C 30.23709 3.16753 6.81542
C 30.63877 4.67345 6.42848
C 31.34358 4.40486 5.10041
C 29.43875 5.56641 6.16032
C 31.33979 2.48851 7.70141
C 31.24987 2.80614 9.19566
H 31.60893 1.76254 10.15192
N 32.86011 4.31860 2.43457
C 33.03108 5.23560 3.40984
C 34.11230 6.11897 2.94642
C 34.45331 5.74815 1.54610
C 33.40542 4.78736 1.26520
C 34.76801 7.13694 3.83368
C 35.53492 6.19502 0.60981
O 35.49999 5.91721 -0.64096
C 36.58764 7.04641 1.18287
N 31.26324 2.80832 0.34261
C 32.05726 3.52558 -0.47163
C 31.85162 3.13605 -1.91606
C 30.92506 1.83302 -1.88191
C 30.67093 1.74299 -0.36115
C 31.20437 4.19728 -2.80558
C 31.45566 0.57265 -2.61853
C 32.67556 0.03399 -1.90644
N 30.06576 1.26146 2.51302
C 29.44618 0.59606 1.43254
C 28.43222 -0.31318 2.00491
C 28.51699 -0.09507 3.38829
C 29.49935 0.89588 3.65756
C 27.55616 -1.15482 1.26310
C 27.99138 -0.47008 4.68127
O 27.20211 -1.32375 5.08380
C 28.51674 0.57075 5.76157
C 29.03300 -0.20562 6.94192
O 30.03189 -0.93778 6.82889
O 28.39923 0.20965 8.05379
C 28.88503 -0.52349 9.25308
H 32.36753 6.30791 5.10926
H 33.51597 4.77498 -0.83572
H 29.26808 0.16052 -0.52454
H 29.29567 3.15990 7.35156
H 31.33345 5.09486 7.15043
H 28.51397 5.00881 6.15884
H 29.61403 6.01101 5.18942
H 29.41960 6.39613 6.87273
H 32.31289 2.94117 7.47134
H 31.34302 1.42554 7.55750
H 30.28727 3.25834 9.46374
H 31.98437 3.58029 9.43068
H 34.19565 7.29481 4.75611
H 34.71308 8.09855 3.31199
H 35.81545 6.90514 4.03817
H 36.13814 7.94298 1.60308
H 37.31630 7.18882 0.38246
H 37.05703 6.51000 2.01507
H 32.79416 2.88479 -2.38679
H 29.94820 2.01520 -2.35351
H 31.81880 4.46211 -3.68672
H 31.00654 5.07360 -2.20269
H 30.21327 3.94510 -3.17883
H 31.77636 0.83232 -3.63040
H 30.71829 -0.21816 -2.70738
H 33.48617 0.65236 -2.30346
H 32.82659 -1.01652 -2.14657
H 32.61627 0.22093 -0.82793
H 27.54063 -2.11105 1.76895
H 27.88212 -1.25594 0.23000
H 26.62477 -0.58834 1.34609
H 27.67879 1.21514 6.03022
H 28.00809 -0.97122 9.73079
H 29.45776 0.21607 9.84365
H 29.50563 -1.39671 9.08941
