158

Mg 0.00000 0.00000 0.00000
C -0.21700 -2.21800 2.80100
C -1.25500 2.44200 2.02600
C -0.24500 1.85000 -2.56400
C 0.14600 -2.82400 -2.03700
N -0.61700 -0.00900 2.12600
C -0.59400 -0.90800 3.10500
C -0.93600 -0.30900 4.50200
C -1.77300 0.96400 4.03200
C -1.15500 1.16800 2.66000
C -3.26300 0.68500 3.86300
C 0.34500 0.11000 5.29900
C 0.12400 0.39700 6.78700
H 1.16800 0.03300 7.73300
N -0.18500 1.96100 -0.15200
C -0.70300 2.80000 0.77700
C -0.62000 4.15600 0.19300
C -0.18700 4.01500 -1.22500
C -0.21400 2.58300 -1.38000
C -0.88700 5.40600 0.97400
C 0.18100 5.01300 -2.27700
O 0.30300 4.69000 -3.50800
C 0.31000 6.41400 -1.83700
N -0.26500 -0.41300 -2.02900
C -0.27900 0.56900 -2.93700
C -0.19600 0.02400 -4.33200
C 0.12400 -1.53300 -4.18000
C 0.08600 -1.63200 -2.63500
C -1.45100 0.20500 -5.19700
C 1.37300 -2.07000 -4.92300
C 2.62600 -1.49000 -4.30600
N 0.15000 -2.14400 0.30300
C 0.17300 -3.13600 -0.68800
C 0.17300 -4.43800 0.00400
C 0.13300 -4.11100 1.35800
C 0.08300 -2.69500 1.50200
C 0.14900 -5.71500 -0.62300
C 0.09600 -4.62900 2.71600
O 0.20800 -5.74700 3.22100
C -0.25500 -3.42800 3.70100
C 0.71700 -3.48200 4.84800
O 1.93100 -3.25500 4.66900
O 0.03800 -3.55600 6.00300
C 0.94300 -3.58300 7.18300
H -1.85900 3.22000 2.49700
H -0.21800 2.45300 -3.47400
H 0.27600 -3.74700 -2.60500
H -1.55400 -0.94900 5.13200
H -1.58500 1.83100 4.66500
H -3.48400 -0.37700 3.96900
H -3.51100 1.02700 2.85800
H -3.85200 1.30100 4.54300
H 0.66900 1.09600 4.96600
H 1.13000 -0.63900 5.18900
H -0.84400 0.02600 7.12500
H 0.06200 1.47700 6.92100
H -1.34400 5.18600 1.93800
H -1.65100 5.96300 0.43200
H 0.00700 6.02000 1.08400
H -0.63500 6.74400 -1.40500
H 0.66500 6.97000 -2.70400
H 1.04800 6.46600 -1.03600
H 0.60800 0.50100 -4.89100
H -0.69200 -2.15600 -4.54700
H -1.26700 0.74000 -6.12900
H -2.20400 0.71400 -4.59600
H -1.96700 -0.72000 -5.45300
H 1.35600 -1.75900 -5.96700
H 1.45200 -3.15700 -4.90200
H 2.71400 -0.52200 -4.79800
H 3.48700 -2.12100 -4.52900
H 2.49500 -1.30300 -3.24000
H 0.86700 -6.33300 -0.08400
H 0.40400 -5.64200 -1.68000
H -0.89100 -5.99900 -0.46300
H -1.28300 -3.58100 4.02800
H 0.69800 -4.47800 7.75500
H 0.83300 -2.61900 7.68000
H 2.00000 -3.75400 6.97600
Mg 8.94124 0.81103 0.67442
C 8.32028 3.76472 2.61586
C 8.10399 2.63058 -2.08653
C 9.04206 -1.87830 -1.00628
C 8.61376 -1.02486 3.61856
N 8.31165 2.91666 0.42502
C 8.17066 3.96118 1.22718
C 7.93041 5.30783 0.49344
C 7.32140 4.73038 -0.87570
C 7.97660 3.35075 -0.87195
C 5.81394 4.54334 -0.83216
C 9.26282 6.09728 0.24154
C 9.07576 7.55345 -0.19011
H 10.04009 8.54661 0.27485
N 9.09943 0.52511 -1.28308
C 8.73174 1.37784 -2.26233
C 9.03528 0.69206 -3.52793
C 9.45903 -0.70025 -3.21711
C 9.19078 -0.74588 -1.79371
C 8.98788 1.38323 -4.85964
C 10.00221 -1.81145 -4.06350
O 10.07831 -3.01440 -3.62766
C 10.35523 -1.46797 -5.44874
N 8.63366 -1.18140 1.18230
C 8.79103 -2.15895 0.27261
C 8.78885 -3.51944 0.92794
C 8.83977 -3.23843 2.50148
C 8.76945 -1.69564 2.48543
C 7.58798 -4.40963 0.60880
C 9.98510 -3.91786 3.30102
C 11.31719 -3.32894 2.89593
N 8.72511 1.26627 2.77540
C 8.57861 0.34646 3.83680
C 8.34976 1.13309 5.06613
C 8.35611 2.46575 4.62743
C 8.55342 2.50591 3.22067
C 8.12282 0.59846 6.36567
C 8.23015 3.84721 5.03290
O 8.13788 4.43083 6.11207
C 8.07507 4.74419 3.72992
C 9.01463 5.91209 3.85548
O 10.24556 5.73505 3.86292
O 8.31639 7.05508 3.72739
C 9.20658 8.24170 3.83375
H 7.64323 3.04259 -2.98477
H 9.17909 -2.83199 -1.52123
H 8.59996 -1.51909 4.59233
H 7.21327 5.96412 0.97174
H 7.65664 5.30937 -1.73229
H 5.41455 4.71882 0.15569
H 5.63556 3.52019 -1.13612
H 5.33425 5.17058 -1.58900
H 9.75218 5.69676 -0.65560
H 9.89960 6.05491 1.10371
H 8.05057 7.90490 -0.02152
H 9.20495 7.61358 -1.27349
H 8.48421 2.35531 -4.79063
H 8.33720 0.78553 -5.50713
H 9.97165 1.46578 -5.32661
H 9.47787 -1.07734 -5.95875
H 10.80825 -2.36899 -5.86686
H 11.09490 -0.65977 -5.43115
H 9.66648 -4.08699 0.64374
H 7.92849 -3.58929 3.00774
H 7.87211 -5.38643 0.17382
H 6.93241 -3.87076 -0.06231
H 6.93253 -4.62069 1.45204
H 10.03196 -4.98359 3.06400
H 9.87114 -3.83185 4.37648
H 11.56873 -3.88785 1.98961
H 12.05914 -3.48728 3.67598
H 11.21218 -2.27468 2.61458
H 8.71339 1.18951 7.05297
H 8.39054 -0.45497 6.41452
H 7.04406 0.75238 6.45424
H 7.03310 5.06134 3.67264
H 8.80339 8.87309 4.63155
H 9.24606 8.67758 2.81778
H 10.21907 8.07889 4.18418
