79

Mg 7.89234 0.71370 0.59542
C 10.22758 -1.42452 2.28473
C 9.32889 3.33322 2.24134
C 5.56938 2.56234 -0.52431
C 5.94937 -2.11617 -0.00660
N 9.55659 0.81449 2.04883
C 10.40954 -0.05505 2.56913
C 11.56831 0.58632 3.37873
C 10.85557 1.97373 3.76080
C 9.87329 2.07294 2.59548
C 10.05851 1.90504 5.05282
C 12.85007 0.82067 2.50454
C 14.11618 1.15506 3.29631
H 15.39665 0.65232 2.80629
N 7.79037 2.68861 0.42836
C 8.45901 3.60290 1.16202
C 8.02132 4.91624 0.66430
C 6.91706 4.70419 -0.31058
C 6.69728 3.28034 -0.15432
C 8.69255 6.20023 1.05702
C 6.17236 5.63196 -1.22210
O 5.09016 5.27472 -1.80867
C 6.69617 7.00107 -1.33445
N 5.93021 0.32486 0.02870
C 5.14997 1.29789 -0.47367
C 3.88181 0.72965 -1.06465
C 4.08412 -0.85673 -1.07124
C 5.45775 -0.93957 -0.37006
C 2.58996 1.07461 -0.32403
C 3.90386 -1.58354 -2.43210
C 5.01048 -1.18373 -3.38129
N 8.11739 -1.41645 0.87809
C 7.17072 -2.42111 0.58051
C 7.73275 -3.70278 1.05366
C 8.96715 -3.34882 1.61888
C 9.15176 -1.94297 1.52408
C 7.09155 -4.97126 0.97662
C 10.15124 -3.84344 2.28370
O 10.59249 -4.95916 2.55613
C 10.96351 -2.60372 2.85789
C 12.40850 -2.77944 2.47892
O 12.75765 -2.74549 1.28579
O 13.16375 -2.74076 3.59179
C 14.60620 -2.89972 3.26638
H 9.55461 4.19215 2.87393
H 4.78379 3.13953 -1.01745
H 5.44861 -3.05693 -0.24508
H 11.84483 0.05018 4.27865
H 11.56111 2.80015 3.73618
H 10.00581 0.89859 5.44067
H 9.06907 2.26834 4.80773
H 10.46530 2.60888 5.78457
H 12.73128 1.75299 1.93762
H 13.03495 -0.02123 1.86606
H 14.00254 0.93955 4.36570
H 14.27546 2.23535 3.25606
H 9.36386 6.05780 1.91286
H 7.91011 6.86788 1.43371
H 9.19748 6.68509 0.21880
H 6.71143 7.46377 -0.35051
H 6.08490 7.48609 -2.09799
H 7.73650 6.95081 -1.67475
H 3.74332 1.07049 -2.08335
H 3.36356 -1.36212 -0.41154
H 1.84058 1.57708 -0.96438
H 2.83948 1.69416 0.52710
H 2.08663 0.23050 0.14430
H 2.96596 -1.27881 -2.90288
H 3.88408 -2.66475 -2.34503
H 4.64957 -0.23811 -3.79678
H 5.13745 -1.93381 -4.15931
H 5.93828 -0.97198 -2.83723
H 7.84114 -5.67970 0.64994
H 6.24292 -4.94710 0.29616
H 6.77996 -5.09581 2.01713
H 10.82239 -2.59213 3.93934
H 14.97520 -3.74535 3.85497
H 15.06657 -1.91254 3.45947
H 14.86153 -3.21423 2.26122
