158

Mg 0.00000 0.00000 0.00000
C -0.21700 -2.21800 2.80100
C -1.25500 2.44200 2.02600
C -0.24500 1.85000 -2.56400
C 0.14600 -2.82400 -2.03700
N -0.61700 -0.00900 2.12600
C -0.59400 -0.90800 3.10500
C -0.93600 -0.30900 4.50200
C -1.77300 0.96400 4.03200
C -1.15500 1.16800 2.66000
C -3.26300 0.68500 3.86300
C 0.34500 0.11000 5.29900
C 0.12400 0.39700 6.78700
H 1.16800 0.03300 7.73300
N -0.18500 1.96100 -0.15200
C -0.70300 2.80000 0.77700
C -0.62000 4.15600 0.19300
C -0.18700 4.01500 -1.22500
C -0.21400 2.58300 -1.38000
C -0.88700 5.40600 0.97400
C 0.18100 5.01300 -2.27700
O 0.30300 4.69000 -3.50800
C 0.31000 6.41400 -1.83700
N -0.26500 -0.41300 -2.02900
C -0.27900 0.56900 -2.93700
C -0.19600 0.02400 -4.33200
C 0.12400 -1.53300 -4.18000
C 0.08600 -1.63200 -2.63500
C -1.45100 0.20500 -5.19700
C 1.37300 -2.07000 -4.92300
C 2.62600 -1.49000 -4.30600
N 0.15000 -2.14400 0.30300
C 0.17300 -3.13600 -0.68800
C 0.17300 -4.43800 0.00400
C 0.13300 -4.11100 1.35800
C 0.08300 -2.69500 1.50200
C 0.14900 -5.71500 -0.62300
C 0.09600 -4.62900 2.71600
O 0.20800 -5.74700 3.22100
C -0.25500 -3.42800 3.70100
C 0.71700 -3.48200 4.84800
O 1.93100 -3.25500 4.66900
O 0.03800 -3.55600 6.00300
C 0.94300 -3.58300 7.18300
H -1.85900 3.22000 2.49700
H -0.21800 2.45300 -3.47400
H 0.27600 -3.74700 -2.60500
H -1.55400 -0.94900 5.13200
H -1.58500 1.83100 4.66500
H -3.48400 -0.37700 3.96900
H -3.51100 1.02700 2.85800
H -3.85200 1.30100 4.54300
H 0.66900 1.09600 4.96600
H 1.13000 -0.63900 5.18900
H -0.84400 0.02600 7.12500
H 0.06200 1.47700 6.92100
H -1.34400 5.18600 1.93800
H -1.65100 5.96300 0.43200
H 0.00700 6.02000 1.08400
H -0.63500 6.74400 -1.40500
H 0.66500 6.97000 -2.70400
H 1.04800 6.46600 -1.03600
H 0.60800 0.50100 -4.89100
H -0.69200 -2.15600 -4.54700
H -1.26700 0.74000 -6.12900
H -2.20400 0.71400 -4.59600
H -1.96700 -0.72000 -5.45300
H 1.35600 -1.75900 -5.96700
H 1.45200 -3.15700 -4.90200
H 2.71400 -0.52200 -4.79800
H 3.48700 -2.12100 -4.52900
H 2.49500 -1.30300 -3.24000
H 0.86700 -6.33300 -0.08400
H 0.40400 -5.64200 -1.68000
H -0.89100 -5.99900 -0.46300
H -1.28300 -3.58100 4.02800
H 0.69800 -4.47800 7.75500
H 0.83300 -2.61900 7.68000
H 2.00000 -3.75400 6.97600
Mg 8.92711 0.80967 0.68443
C 10.99387 2.03033 3.35231
C 7.08562 -0.81253 3.05340
C 7.36492 -0.64087 -1.66565
C 11.53975 1.55983 -1.49664
N 9.11432 0.70047 2.88564
C 9.90162 1.25534 3.79482
C 9.44849 1.02929 5.26217
C 8.59181 -0.31161 5.04544
C 8.20535 -0.12060 3.58023
C 9.42060 -1.58026 5.15933
C 8.55440 2.20166 5.79899
C 8.33269 2.19997 7.31312
H 8.24757 3.48285 8.00554
N 7.17464 -0.12167 0.69030
C 6.56539 -0.70257 1.74512
C 5.31026 -1.26625 1.22448
C 5.30626 -1.11419 -0.25592
C 6.65375 -0.62784 -0.47459
C 4.22762 -1.80225 2.11556
C 4.26654 -1.37675 -1.30294
O 4.55841 -1.39999 -2.55078
C 2.91582 -1.69811 -0.81946
N 9.45852 0.30550 -1.26127
C 8.57345 -0.27316 -2.09176
C 9.08795 -0.29014 -3.51140
C 10.40404 0.61838 -3.50229
C 10.47565 0.94497 -1.99445
C 9.42509 -1.66820 -4.08035
C 10.45481 1.79383 -4.51640
C 9.42475 2.83749 -4.14878
N 10.83717 1.80881 0.83080
C 11.78609 1.99015 -0.19913
C 12.97408 2.62277 0.40987
C 12.64020 2.74556 1.76705
C 11.34418 2.20774 1.99195
C 14.17947 2.95614 -0.26985
C 13.09367 3.19819 3.06250
O 14.07574 3.81590 3.47203
C 12.09878 2.64031 4.16946
C 11.74442 3.77576 5.09016
O 11.09385 4.74947 4.67153
O 12.04085 3.42621 6.35520
C 11.69692 4.51603 7.30695
H 6.58060 -1.54142 3.68787
H 6.82607 -1.03080 -2.53230
H 12.35738 1.91464 -2.12772
H 10.25397 0.84665 5.96332
H 7.70609 -0.32059 5.67534
H 10.47505 -1.36582 5.25045
H 9.22541 -2.14135 4.25483
H 9.05219 -2.19854 5.98294
H 7.52225 2.04996 5.45780
H 8.94720 3.15156 5.49236
H 9.02906 1.52924 7.83093
H 7.34754 1.77444 7.51911
H 4.58291 -1.93527 3.14486
H 4.00430 -2.81806 1.77188
H 3.31365 -1.20596 2.07337
H 2.95977 -2.57982 -0.18455
H 2.29351 -1.76514 -1.71396
H 2.56448 -0.87358 -0.18912
H 8.36490 0.14548 -4.19002
H 11.30461 0.03342 -3.74025
H 8.87549 -1.90230 -5.01159
H 9.21968 -2.41068 -3.32070
H 10.48037 -1.83636 -4.28841
H 10.19586 1.44145 -5.51787
H 11.42972 2.26511 -4.58291
H 8.50573 2.44473 -4.59401
H 9.68865 3.80310 -4.57537
H 9.27455 2.87709 -3.06364
H 14.46817 3.94081 0.07305
H 14.04645 2.93344 -1.34946
H 14.83020 2.15053 0.08058
H 12.61144 1.83289 4.69369
H 12.60641 4.74735 7.86998
H 10.82810 4.14621 7.88326
H 11.45323 5.48653 6.89078
