158

Mg 0.00000 0.00000 0.00000
C -0.21700 -2.21800 2.80100
C -1.25500 2.44200 2.02600
C -0.24500 1.85000 -2.56400
C 0.14600 -2.82400 -2.03700
N -0.61700 -0.00900 2.12600
C -0.59400 -0.90800 3.10500
C -0.93600 -0.30900 4.50200
C -1.77300 0.96400 4.03200
C -1.15500 1.16800 2.66000
C -3.26300 0.68500 3.86300
C 0.34500 0.11000 5.29900
C 0.12400 0.39700 6.78700
H 1.16800 0.03300 7.73300
N -0.18500 1.96100 -0.15200
C -0.70300 2.80000 0.77700
C -0.62000 4.15600 0.19300
C -0.18700 4.01500 -1.22500
C -0.21400 2.58300 -1.38000
C -0.88700 5.40600 0.97400
C 0.18100 5.01300 -2.27700
O 0.30300 4.69000 -3.50800
C 0.31000 6.41400 -1.83700
N -0.26500 -0.41300 -2.02900
C -0.27900 0.56900 -2.93700
C -0.19600 0.02400 -4.33200
C 0.12400 -1.53300 -4.18000
C 0.08600 -1.63200 -2.63500
C -1.45100 0.20500 -5.19700
C 1.37300 -2.07000 -4.92300
C 2.62600 -1.49000 -4.30600
N 0.15000 -2.14400 0.30300
C 0.17300 -3.13600 -0.68800
C 0.17300 -4.43800 0.00400
C 0.13300 -4.11100 1.35800
C 0.08300 -2.69500 1.50200
C 0.14900 -5.71500 -0.62300
C 0.09600 -4.62900 2.71600
O 0.20800 -5.74700 3.22100
C -0.25500 -3.42800 3.70100
C 0.71700 -3.48200 4.84800
O 1.93100 -3.25500 4.66900
O 0.03800 -3.55600 6.00300
C 0.94300 -3.58300 7.18300
H -1.85900 3.22000 2.49700
H -0.21800 2.45300 -3.47400
H 0.27600 -3.74700 -2.60500
H -1.55400 -0.94900 5.13200
H -1.58500 1.83100 4.66500
H -3.48400 -0.37700 3.96900
H -3.51100 1.02700 2.85800
H -3.85200 1.30100 4.54300
H 0.66900 1.09600 4.96600
H 1.13000 -0.63900 5.18900
H -0.84400 0.02600 7.12500
H 0.06200 1.47700 6.92100
H -1.34400 5.18600 1.93800
H -1.65100 5.96300 0.43200
H 0.00700 6.02000 1.08400
H -0.63500 6.74400 -1.40500
H 0.66500 6.97000 -2.70400
H 1.04800 6.46600 -1.03600
H 0.60800 0.50100 -4.89100
H -0.69200 -2.15600 -4.54700
H -1.26700 0.74000 -6.12900
H -2.20400 0.71400 -4.59600
H -1.96700 -0.72000 -5.45300
H 1.35600 -1.75900 -5.96700
H 1.45200 -3.15700 -4.90200
H 2.71400 -0.52200 -4.79800
H 3.48700 -2.12100 -4.52900
H 2.49500 -1.30300 -3.24000
H 0.86700 -6.33300 -0.08400
H 0.40400 -5.64200 -1.68000
H -0.89100 -5.99900 -0.46300
H -1.28300 -3.58100 4.02800
H 0.69800 -4.47800 7.75500
H 0.83300 -2.61900 7.68000
H 2.00000 -3.75400 6.97600
Mg 31.53256 2.83880 2.39533
C 31.31556 0.62080 5.19633
C 30.27756 5.28080 4.42133
C 31.28756 4.68880 -0.16867
C 31.67856 0.01480 0.35833
N 30.91556 2.82980 4.52133
C 30.93856 1.93080 5.50033
C 30.59656 2.52980 6.89733
C 29.75956 3.80280 6.42733
C 30.37756 4.00680 5.05533
C 28.26956 3.52380 6.25833
C 31.87756 2.94880 7.69433
C 31.65656 3.23580 9.18233
H 32.70056 2.87180 10.12833
N 31.34756 4.79980 2.24333
C 30.82956 5.63880 3.17233
C 30.91256 6.99480 2.58833
C 31.34556 6.85380 1.17033
C 31.31856 5.42180 1.01533
C 30.64556 8.24480 3.36933
C 31.71356 7.85180 0.11833
O 31.83556 7.52880 -1.11267
C 31.84256 9.25280 0.55833
N 31.26756 2.42580 0.36633
C 31.25356 3.40780 -0.54167
C 31.33656 2.86280 -1.93667
C 31.65656 1.30580 -1.78467
C 31.61856 1.20680 -0.23967
C 30.08156 3.04380 -2.80167
C 32.90556 0.76880 -2.52767
C 34.15856 1.34880 -1.91067
N 31.68256 0.69480 2.69833
C 31.70556 -0.29720 1.70733
C 31.70556 -1.59920 2.39933
C 31.66556 -1.27220 3.75333
C 31.61556 0.14380 3.89733
C 31.68156 -2.87620 1.77233
C 31.62856 -1.79020 5.11133
O 31.74056 -2.90820 5.61633
C 31.27756 -0.58920 6.09633
C 32.24956 -0.64320 7.24333
O 33.46356 -0.41620 7.06433
O 31.57056 -0.71720 8.39833
C 32.47556 -0.74420 9.57833
H 29.67356 6.05880 4.89233
H 31.31456 5.29180 -1.07867
H 31.80856 -0.90820 -0.20967
H 29.97856 1.88980 7.52733
H 29.94756 4.66980 7.06033
H 28.04856 2.46180 6.36433
H 28.02156 3.86580 5.25333
H 27.68056 4.13980 6.93833
H 32.20156 3.93480 7.36133
H 32.66256 2.19980 7.58433
H 30.68856 2.86480 9.52033
H 31.59456 4.31580 9.31633
H 30.18856 8.02480 4.33333
H 29.88156 8.80180 2.82733
H 31.53956 8.85880 3.47933
H 30.89756 9.58280 0.99033
H 32.19756 9.80880 -0.30867
H 32.58056 9.30480 1.35933
H 32.14056 3.33980 -2.49567
H 30.84056 0.68280 -2.15167
H 30.26556 3.57880 -3.73367
H 29.32856 3.55280 -2.20067
H 29.56556 2.11880 -3.05767
H 32.88856 1.07980 -3.57167
H 32.98456 -0.31820 -2.50667
H 34.24656 2.31680 -2.40267
H 35.01956 0.71780 -2.13367
H 34.02756 1.53580 -0.84467
H 32.39956 -3.49420 2.31133
H 31.93656 -2.80320 0.71533
H 30.64156 -3.16020 1.93233
H 30.24956 -0.74220 6.42333
H 32.23056 -1.63920 10.15033
H 32.36556 0.21980 10.07533
H 33.53256 -0.91520 9.37133
