158

Mg 0.00000 0.00000 0.00000
C -0.21700 -2.21800 2.80100
C -1.25500 2.44200 2.02600
C -0.24500 1.85000 -2.56400
C 0.14600 -2.82400 -2.03700
N -0.61700 -0.00900 2.12600
C -0.59400 -0.90800 3.10500
C -0.93600 -0.30900 4.50200
C -1.77300 0.96400 4.03200
C -1.15500 1.16800 2.66000
C -3.26300 0.68500 3.86300
C 0.34500 0.11000 5.29900
C 0.12400 0.39700 6.78700
H 1.16800 0.03300 7.73300
N -0.18500 1.96100 -0.15200
C -0.70300 2.80000 0.77700
C -0.62000 4.15600 0.19300
C -0.18700 4.01500 -1.22500
C -0.21400 2.58300 -1.38000
C -0.88700 5.40600 0.97400
C 0.18100 5.01300 -2.27700
O 0.30300 4.69000 -3.50800
C 0.31000 6.41400 -1.83700
N -0.26500 -0.41300 -2.02900
C -0.27900 0.56900 -2.93700
C -0.19600 0.02400 -4.33200
C 0.12400 -1.53300 -4.18000
C 0.08600 -1.63200 -2.63500
C -1.45100 0.20500 -5.19700
C 1.37300 -2.07000 -4.92300
C 2.62600 -1.49000 -4.30600
N 0.15000 -2.14400 0.30300
C 0.17300 -3.13600 -0.68800
C 0.17300 -4.43800 0.00400
C 0.13300 -4.11100 1.35800
C 0.08300 -2.69500 1.50200
C 0.14900 -5.71500 -0.62300
C 0.09600 -4.62900 2.71600
O 0.20800 -5.74700 3.22100
C -0.25500 -3.42800 3.70100
C 0.71700 -3.48200 4.84800
O 1.93100 -3.25500 4.66900
O 0.03800 -3.55600 6.00300
C 0.94300 -3.58300 7.18300
H -1.85900 3.22000 2.49700
H -0.21800 2.45300 -3.47400
H 0.27600 -3.74700 -2.60500
H -1.55400 -0.94900 5.13200
H -1.58500 1.83100 4.66500
H -3.48400 -0.37700 3.96900
H -3.51100 1.02700 2.85800
H -3.85200 1.30100 4.54300
H 0.66900 1.09600 4.96600
H 1.13000 -0.63900 5.18900
H -0.84400 0.02600 7.12500
H 0.06200 1.47700 6.92100
H -1.34400 5.18600 1.93800
H -1.65100 5.96300 0.43200
H 0.00700 6.02000 1.08400
H -0.63500 6.74400 -1.40500
H 0.66500 6.97000 -2.70400
H 1.04800 6.46600 -1.03600
H 0.60800 0.50100 -4.89100
H -0.69200 -2.15600 -4.54700
H -1.26700 0.74000 -6.12900
H -2.20400 0.71400 -4.59600
H -1.96700 -0.72000 -5.45300
H 1.35600 -1.75900 -5.96700
H 1.45200 -3.15700 -4.90200
H 2.71400 -0.52200 -4.79800
H 3.48700 -2.12100 -4.52900
H 2.49500 -1.30300 -3.24000
H 0.86700 -6.33300 -0.08400
H 0.40400 -5.64200 -1.68000
H -0.89100 -5.99900 -0.46300
H -1.28300 -3.58100 4.02800
H 0.69800 -4.47800 7.75500
H 0.83300 -2.61900 7.68000
H 2.00000 -3.75400 6.97600
Mg 13.12899 1.18525 0.99420
C 12.54266 -1.61830 -1.16807
C 12.85369 3.17726 -1.76093
C 14.08543 3.62406 2.78441
C 14.46810 -1.05394 3.30472
N 12.74575 0.72193 -1.13435
C 12.47748 -0.37373 -1.82855
C 12.04056 -0.11490 -3.29541
C 12.72824 1.32163 -3.50123
C 12.74934 1.79289 -2.04860
C 14.16233 1.23689 -3.99675
C 10.48118 -0.03253 -3.44893
C 9.97302 -0.09056 -4.89120
H 8.71138 -0.77597 -5.15760
N 12.95456 3.14019 0.70035
C 12.82896 3.77722 -0.48274
C 12.75649 5.21109 -0.16192
C 13.01508 5.37968 1.29391
C 13.39048 4.02692 1.65335
C 12.38691 6.25419 -1.17620
C 12.94938 6.56525 2.20840
O 13.44575 6.53279 3.38967
C 12.37025 7.79463 1.64741
N 14.32163 1.30497 2.69291
C 14.53707 2.48275 3.30474
C 15.19055 2.28616 4.65185
C 15.14899 0.71073 4.92371
C 14.53201 0.23972 3.58846
C 16.63029 2.78526 4.77201
C 14.48826 0.24247 6.24916
C 13.00495 0.53256 6.21705
N 13.29242 -0.96241 1.16416
C 13.91408 -1.69110 2.20177
C 13.87244 -3.11703 1.81784
C 13.24504 -3.11676 0.56290
C 12.93685 -1.78285 0.18185
C 14.41593 -4.19702 2.56908
C 12.78296 -3.94064 -0.53089
O 12.69628 -5.15169 -0.72986
C 12.42149 -2.99628 -1.75723
C 11.07764 -3.41626 -2.28656
O 10.05515 -3.28489 -1.59096
O 11.18903 -3.69876 -3.59735
C 9.87954 -4.10973 -4.17020
H 13.01175 3.86876 -2.58901
H 14.34058 4.41894 3.48907
H 14.77677 -1.82343 4.01555
H 12.43210 -0.82143 -4.01741
H 12.10429 1.97534 -4.10514
H 14.52245 0.21901 -4.01600
H 14.74725 1.83219 -3.30789
H 14.25412 1.72595 -4.97077
H 10.14692 0.97570 -3.17237
H 10.00018 -0.79333 -2.86544
H 10.74905 -0.42927 -5.58834
H 9.74318 0.92606 -5.21931
H 12.41544 5.85139 -2.19617
H 13.17928 7.01034 -1.16053
H 11.43285 6.73741 -0.95501
H 12.94181 8.09676 0.77304
H 12.32746 8.50266 2.47731
H 11.35463 7.57572 1.29926
H 14.63218 2.79190 5.43003
H 16.15942 0.27891 4.97263
H 16.77052 3.52151 5.58585
H 16.92521 3.20878 3.82111
H 17.37773 2.00776 4.92039
H 14.89588 0.80284 7.09414
H 14.63955 -0.81123 6.45849
H 12.95232 1.58286 6.51901
H 12.47423 -0.10711 6.91933
H 12.61236 0.46308 5.19593
H 13.68348 -4.99290 2.54472
H 14.64378 -3.89647 3.58963
H 15.32027 -4.40188 1.98988
H 13.20931 -3.11137 -2.50267
H 10.02713 -5.09004 -4.63375
H 9.57015 -3.28030 -4.83358
H 9.07398 -4.32259 -3.47723
