79

Mg 15.76628 1.41940 1.19766
C 15.44487 -0.02534 4.45675
C 14.52442 4.30973 2.51934
C 15.61312 2.57445 -1.75175
C 15.89152 -1.82568 -0.06703
N 15.10672 1.95136 3.24282
C 15.09048 1.32497 4.41523
C 14.73367 2.25917 5.60993
C 13.93421 3.38784 4.81686
C 14.58390 3.23290 3.45311
C 12.44217 3.09952 4.68574
C 16.00726 2.84319 6.30895
C 15.76277 3.49609 7.67252
H 16.77941 3.36301 8.70503
N 15.62714 3.28308 0.55721
C 15.10903 4.33566 1.23465
C 15.23325 5.50142 0.33340
C 15.69143 5.00395 -0.99351
C 15.63634 3.57922 -0.78738
C 14.97795 6.91095 0.77136
C 16.10211 5.70167 -2.25155
O 16.24170 5.07967 -3.35979
C 16.25276 7.16589 -2.17150
N 15.53308 0.51728 -0.67034
C 15.55870 1.24161 -1.79447
C 15.65776 0.36435 -3.00713
C 15.94064 -1.11035 -2.46401
C 15.86952 -0.81989 -0.94452
C 14.42460 0.34387 -3.92087
C 17.19229 -1.83587 -3.01846
C 18.44501 -1.14045 -2.53452
N 15.86341 -0.58320 2.02904
C 15.88466 -1.79143 1.31740
C 15.84240 -2.87928 2.31182
C 15.78240 -2.22402 3.54018
C 15.76039 -0.81629 3.32547
C 15.80316 -4.27181 2.02244
C 15.70689 -2.38594 4.98307
O 15.78435 -3.34413 5.75338
C 15.36247 -0.97158 5.62866
C 16.30986 -0.75318 6.77673
O 17.53186 -0.59763 6.57704
O 15.60638 -0.52556 7.89648
C 16.48674 -0.27170 9.06810
H 13.92819 5.19030 2.76643
H 15.67150 2.93067 -2.78235
H 16.01274 -2.86322 -0.38368
H 14.08936 1.80675 6.36398
H 14.12833 4.38227 5.21830
H 12.19600 2.10130 5.04753
H 12.22189 3.18375 3.62138
H 11.85322 3.87517 5.17592
H 16.35928 3.70949 5.74890
H 16.77780 2.07790 6.40863
H 14.78033 3.23685 8.06814
H 15.72165 4.57620 7.53156
H 14.49702 6.94595 1.74811
H 14.23729 7.32723 0.08883
H 15.88273 7.51849 0.74706
H 15.30671 7.60846 -1.85900
H 16.63711 7.48206 -3.14061
H 16.97551 7.40431 -1.39065
H 16.48301 0.67369 -3.64721
H 15.11878 -1.79202 -2.68434
H 14.63887 0.62623 -4.95192
H 13.67097 0.99884 -3.48458
H 13.89380 -0.60732 -3.95102
H 17.20301 -1.79510 -4.10711
H 17.24714 -2.88433 -2.72528
H 18.56393 -0.32747 -3.24988
H 19.29635 -1.82092 -2.57176
H 18.29676 -0.69118 -1.55235
H 16.49657 -4.74717 2.71612
H 16.08083 -4.46911 0.98727
H 14.75422 -4.49010 2.22227
H 14.32502 -1.02153 5.95782
H 16.21087 -0.99150 9.83882
H 16.38783 0.78749 9.30629
H 17.54370 -0.50596 8.93658
