79

Mg 15.76628 1.41940 1.19766
C 15.96741 -1.83661 -0.27547
C 14.80313 -0.11206 4.09077
C 15.14415 4.29367 2.38433
C 15.63252 2.71246 -2.03587
N 15.46224 -0.71081 1.71768
C 15.63103 -1.86482 1.07977
C 15.49071 -3.10932 2.00654
C 14.58777 -2.46840 3.15368
C 15.00042 -1.01471 3.00388
C 13.09052 -2.58400 2.88653
C 16.87092 -3.59224 2.56651
C 16.86516 -4.98248 3.20881
H 18.03659 -5.83128 3.05184
N 15.55061 2.01350 3.06939
C 15.16736 1.25148 4.12188
C 15.15792 2.15180 5.29492
C 15.38275 3.54008 4.80480
C 15.34150 3.33871 3.37892
C 14.99947 1.66669 6.70322
C 15.58982 4.84332 5.50966
O 15.53485 5.96416 4.89706
C 15.77325 4.77800 6.97086
N 15.21382 3.22990 0.31760
C 15.06373 4.33711 1.05283
C 14.94774 5.55618 0.18661
C 15.29480 5.07885 -1.29712
C 15.48045 3.56637 -1.02109
C 13.58019 6.25317 0.19172
C 16.42656 5.83857 -2.03358
C 17.75223 5.56344 -1.35979
N 15.97008 0.63114 -0.81434
C 15.85540 1.34579 -2.01550
C 15.96225 0.36657 -3.11267
C 16.11606 -0.85980 -2.46909
C 16.07962 -0.66261 -1.05909
C 15.85509 0.65623 -4.50157
C 16.27803 -2.29397 -2.64454
O 16.46775 -3.03336 -3.61139
C 16.06614 -2.99862 -1.23231
C 17.19361 -3.97556 -1.03810
O 18.36787 -3.57743 -0.89679
O 16.68860 -5.19810 -0.81245
C 17.75438 -6.20965 -0.58214
H 14.26910 -0.46131 4.97664
H 15.03641 5.31691 2.75012
H 15.68432 3.05284 -3.07169
H 14.97348 -3.95616 1.55514
H 14.86033 -2.83983 4.14134
H 12.89290 -2.97382 1.88808
H 12.69838 -1.57151 2.98441
H 12.60234 -3.17095 3.66496
H 17.13815 -2.98834 3.43366
H 17.63594 -3.55698 1.79009
H 15.95803 -5.53335 2.95867
H 16.81723 -4.85865 4.29074
H 14.68741 0.62354 6.73476
H 14.16230 2.21387 7.13617
H 15.89663 1.83581 7.29890
H 14.89861 4.30969 7.42279
H 15.99653 5.79490 7.29165
H 16.61871 4.12582 7.19178
H 15.66015 6.32169 0.49139
H 14.43783 5.16528 -1.96556
H 13.62500 7.30325 0.48160
H 12.91893 5.69303 0.85222
H 13.03773 6.20235 -0.75198
H 16.25755 6.91361 -1.98199
H 16.51369 5.56665 -3.08559
H 17.76311 6.28230 -0.54128
H 18.57552 5.74645 -2.05110
H 17.77525 4.56683 -0.91851
H 16.64664 0.09069 -4.99306
H 15.95466 1.72459 -4.69209
H 14.85058 0.28712 -4.70790
H 15.09686 -3.49467 -1.27179
H 17.59928 -7.00982 -1.30595
H 17.71192 -6.46913 0.47582
H 18.77142 -5.90307 -0.82908
