79

Mg 7.89071 0.70339 0.60274
C 8.10283 -1.77903 -1.98022
C 7.07124 -1.81654 2.75053
C 7.25672 2.91006 2.79273
C 7.59730 3.09659 -1.91366
N 7.65049 -1.47511 0.30496
C 7.81680 -2.31366 -0.70673
C 7.74750 -3.81443 -0.31626
C 6.86840 -3.67479 1.02036
C 7.24144 -2.24594 1.41010
C 5.37136 -3.72457 0.76400
C 9.16317 -4.41891 -0.01214
C 9.20541 -5.94621 0.07348
H 10.39404 -6.63823 -0.41717
N 7.73855 0.54852 2.57541
C 7.41891 -0.55549 3.28271
C 7.42016 -0.14297 4.69480
C 7.60496 1.33259 4.75225
C 7.51784 1.66418 3.34423
C 7.33590 -1.12288 5.82886
C 7.81148 2.28872 5.88776
O 7.71044 3.55637 5.72746
C 8.04317 1.69361 7.21201
N 7.27400 2.68446 0.47085
C 7.12268 3.43638 1.57522
C 6.94339 4.89373 1.22253
C 7.24879 4.99740 -0.34385
C 7.47457 3.50199 -0.65717
C 5.56309 5.48323 1.51176
C 8.33528 6.01687 -0.78308
C 9.69247 5.56920 -0.29011
N 8.03741 0.71990 -1.55278
C 7.85443 1.82569 -2.41175
C 7.94056 1.31983 -3.79707
C 8.14636 -0.05987 -3.64683
C 8.16554 -0.39362 -2.26562
C 7.78384 2.09849 -4.97827
C 8.34111 -1.31145 -4.34276
O 8.50188 -1.63567 -5.51868
C 8.19529 -2.49930 -3.29676
C 9.34982 -3.44173 -3.50022
O 10.51444 -3.07465 -3.26458
O 8.87352 -4.67919 -3.72867
C 9.98116 -5.65188 -3.92575
H 6.58680 -2.49358 3.45467
H 7.14084 3.72749 3.50818
H 7.61391 3.79471 -2.75332
H 7.23715 -4.44707 -1.03255
H 7.19584 -4.37601 1.78353
H 5.14322 -3.72707 -0.29150
H 4.96232 -2.84160 1.23739
H 4.92798 -4.57833 1.28442
H 9.44728 -4.16510 1.01724
H 9.88522 -4.07701 -0.72794
H 8.29706 -6.40712 -0.33321
H 9.20365 -6.23487 1.12737
H 7.04137 -2.11969 5.47811
H 6.50495 -0.80293 6.46684
H 8.24901 -1.15429 6.42712
H 7.19910 1.06105 7.47635
H 8.25727 2.53314 7.87626
H 8.92030 1.03957 7.15304
H 7.65183 5.51176 1.76035
H 6.35973 5.30691 -0.91271
H 5.59615 6.36475 2.17952
H 4.94261 4.70623 1.93817
H 4.99302 5.77743 0.63217
H 8.14580 6.99200 -0.32771
H 8.37890 6.16586 -1.85681
H 9.71359 5.93512 0.74079
H 10.48404 6.02003 -0.88526
H 9.75664 4.47551 -0.25306
H 8.56012 1.78461 -5.66336
H 7.84829 3.16325 -4.76402
H 6.77516 1.80005 -5.27620
H 7.23504 -2.98240 -3.48144
H 9.81248 -6.13661 -4.89233
H 9.97291 -6.29972 -3.02910
H 10.97998 -5.25352 -4.06038
