79

Mg 15.77389 1.42426 1.20321
C 16.04111 -0.75535 4.04169
C 14.96664 3.91992 3.38372
C 15.09195 3.25372 -1.29789
C 15.47338 -1.42480 -0.78129
N 15.56398 1.45504 3.40485
C 15.75017 0.58186 4.38324
C 15.69627 1.19260 5.80930
C 14.80322 2.48678 5.48303
C 15.15457 2.66037 4.00685
C 13.30935 2.23004 5.59146
C 17.11661 1.59416 6.34164
C 17.17737 1.90829 7.83810
H 18.37911 1.53560 8.57930
N 15.60558 3.39669 1.06263
C 15.29343 4.25933 2.05242
C 15.27649 5.59350 1.43285
C 15.44209 5.43022 -0.03706
C 15.36373 3.98778 -0.15253
C 15.19420 6.86113 2.23271
C 15.62605 6.41084 -1.15542
O 15.51048 6.06142 -2.38317
C 15.85307 7.81104 -0.76889
N 15.13342 0.99216 -0.72693
C 14.96246 1.97008 -1.63378
C 14.76801 1.40142 -3.01913
C 15.08647 -0.16055 -2.89098
C 15.33400 -0.24429 -1.36878
C 13.37777 1.58898 -3.62612
C 16.16396 -0.73996 -3.84804
C 17.52212 -0.17565 -3.49824
N 15.94017 -0.70822 1.50808
C 15.75113 -1.72468 0.54623
C 15.85638 -3.01775 1.25286
C 16.07821 -2.66071 2.59144
C 16.08892 -1.24495 2.71400
C 15.70069 -4.30352 0.66237
C 16.29517 -3.15953 3.93040
O 16.47082 -4.27229 4.42501
C 16.15477 -1.94820 4.94988
C 17.32294 -1.99963 5.89605
O 18.48061 -1.81338 5.48166
O 16.86444 -2.04322 7.16026
C 17.98605 -2.08414 8.13604
H 14.48435 4.71419 3.95418
H 14.95917 3.83755 -2.21166
H 15.48888 -2.35957 -1.34577
H 15.20056 0.57570 6.54922
H 15.13248 3.34887 6.05728
H 13.09097 1.18525 5.75537
H 12.88485 2.56262 4.65325
H 12.87203 2.86947 6.36361
H 17.38801 2.57581 5.93243
H 17.84083 0.84037 6.10095
H 16.27869 1.56885 8.36734
H 17.16957 2.99352 7.96546
H 14.91554 6.66182 3.27483
H 14.35345 7.43788 1.83227
H 16.10210 7.46388 2.16138
H 15.01467 8.16123 -0.17146
H 16.05043 8.34331 -1.70142
H 16.73891 7.85718 -0.12563
H 15.46361 1.84549 -3.72059
H 14.19883 -0.77579 -3.09933
H 13.39354 2.11712 -4.59818
H 12.76328 2.12269 -2.91331
H 12.81214 0.67113 -3.77716
H 15.95800 -0.43745 -4.87771
H 16.21557 -1.82355 -3.83494
H 17.52913 0.78879 -4.01486
H 18.31337 -0.82600 -3.86567
H 17.59977 0.02555 -2.42346
H 16.48714 -4.92816 1.06462
H 15.74970 -4.25101 -0.42327
H 14.69864 -4.56054 1.01608
H 15.20243 -2.06519 5.46849
H 17.83241 -2.96822 8.76252
H 17.97775 -1.10052 8.64215
H 18.98095 -2.26983 7.74855
