158

Mg 0.00000 0.00000 0.00000
C -0.21700 -2.21800 2.80100
C -1.25500 2.44200 2.02600
C -0.24500 1.85000 -2.56400
C 0.14600 -2.82400 -2.03700
N -0.61700 -0.00900 2.12600
C -0.59400 -0.90800 3.10500
C -0.93600 -0.30900 4.50200
C -1.77300 0.96400 4.03200
C -1.15500 1.16800 2.66000
C -3.26300 0.68500 3.86300
C 0.34500 0.11000 5.29900
C 0.12400 0.39700 6.78700
H 1.16800 0.03300 7.73300
N -0.18500 1.96100 -0.15200
C -0.70300 2.80000 0.77700
C -0.62000 4.15600 0.19300
C -0.18700 4.01500 -1.22500
C -0.21400 2.58300 -1.38000
C -0.88700 5.40600 0.97400
C 0.18100 5.01300 -2.27700
O 0.30300 4.69000 -3.50800
C 0.31000 6.41400 -1.83700
N -0.26500 -0.41300 -2.02900
C -0.27900 0.56900 -2.93700
C -0.19600 0.02400 -4.33200
C 0.12400 -1.53300 -4.18000
C 0.08600 -1.63200 -2.63500
C -1.45100 0.20500 -5.19700
C 1.37300 -2.07000 -4.92300
C 2.62600 -1.49000 -4.30600
N 0.15000 -2.14400 0.30300
C 0.17300 -3.13600 -0.68800
C 0.17300 -4.43800 0.00400
C 0.13300 -4.11100 1.35800
C 0.08300 -2.69500 1.50200
C 0.14900 -5.71500 -0.62300
C 0.09600 -4.62900 2.71600
O 0.20800 -5.74700 3.22100
C -0.25500 -3.42800 3.70100
C 0.71700 -3.48200 4.84800
O 1.93100 -3.25500 4.66900
O 0.03800 -3.55600 6.00300
C 0.94300 -3.58300 7.18300
H -1.85900 3.22000 2.49700
H -0.21800 2.45300 -3.47400
H 0.27600 -3.74700 -2.60500
H -1.55400 -0.94900 5.13200
H -1.58500 1.83100 4.66500
H -3.48400 -0.37700 3.96900
H -3.51100 1.02700 2.85800
H -3.85200 1.30100 4.54300
H 0.66900 1.09600 4.96600
H 1.13000 -0.63900 5.18900
H -0.84400 0.02600 7.12500
H 0.06200 1.47700 6.92100
H -1.34400 5.18600 1.93800
H -1.65100 5.96300 0.43200
H 0.00700 6.02000 1.08400
H -0.63500 6.74400 -1.40500
H 0.66500 6.97000 -2.70400
H 1.04800 6.46600 -1.03600
H 0.60800 0.50100 -4.89100
H -0.69200 -2.15600 -4.54700
H -1.26700 0.74000 -6.12900
H -2.20400 0.71400 -4.59600
H -1.96700 -0.72000 -5.45300
H 1.35600 -1.75900 -5.96700
H 1.45200 -3.15700 -4.90200
H 2.71400 -0.52200 -4.79800
H 3.48700 -2.12100 -4.52900
H 2.49500 -1.30300 -3.24000
H 0.86700 -6.33300 -0.08400
H 0.40400 -5.64200 -1.68000
H -0.89100 -5.99900 -0.46300
H -1.28300 -3.58100 4.02800
H 0.69800 -4.47800 7.75500
H 0.83300 -2.61900 7.68000
H 2.00000 -3.75400 6.97600
Mg 7.88314 0.70970 0.59883
C 8.05544 -2.76755 -0.23258
C 6.85087 -0.23798 3.71000
C 7.28834 3.76350 1.21293
C 7.82029 1.37313 -2.82192
N 7.53725 -1.28067 1.50407
C 7.69760 -2.53611 1.09746
C 7.52312 -3.58222 2.23877
C 6.61273 -2.72559 3.22841
C 7.05070 -1.33137 2.81579
C 5.11817 -2.87039 2.96041
C 8.88660 -3.96865 2.90460
C 8.84876 -5.21310 3.79639
H 10.00887 -6.09105 3.82307
N 7.64782 1.64791 2.32140
C 7.23618 1.10235 3.49110
C 7.22278 2.20726 4.47378
C 7.47724 3.47563 3.73582
C 7.45500 3.01023 2.37263
C 7.03475 1.99773 5.94500
C 7.69398 4.88545 4.18700
O 7.66636 5.87168 3.37389
C 7.85358 5.09379 5.63758
N 7.37328 2.32923 -0.61558
C 7.22936 3.55677 -0.10427
C 7.14625 4.59255 -1.18603
C 7.50873 3.84032 -2.54710
C 7.66602 2.40451 -1.98854
C 5.79002 5.29533 -1.33691
C 8.66375 4.43357 -3.39234
C 9.97423 4.27329 -2.65475
N 8.10569 -0.44542 -1.22523
C 8.02109 0.03197 -2.54114
C 8.12944 -1.13740 -3.43271
C 8.25372 -2.22269 -2.56754
C 8.19847 -1.76340 -1.22058
C 8.04852 -1.11279 -4.85302
C 8.39560 -3.66620 -2.46749
O 8.58858 -4.57658 -3.27463
C 8.15058 -4.08994 -0.95216
C 9.25923 -5.02712 -0.55734
O 10.43733 -4.62444 -0.47189
O 8.73143 -6.17891 -0.11535
C 9.77729 -7.14251 0.32030
H 6.29763 -0.40760 4.63580
H 7.19118 4.83857 1.37798
H 7.89360 1.51195 -3.90211
H 6.99960 -4.49221 1.94508
H 6.86394 -2.90806 4.27307
H 4.92995 -3.43850 2.04951
H 4.74068 -1.85267 2.85919
H 4.60867 -3.29423 3.82618
H 9.14986 -3.21588 3.64763
H 9.66408 -4.08974 2.14949
H 7.93700 -5.78964 3.63764
H 8.78597 -4.88740 4.83474
H 6.70570 0.98316 6.16620
H 6.19973 2.62713 6.25210
H 7.92509 2.26448 6.51461
H 6.96468 4.72995 6.15336
H 8.08796 6.14996 5.76568
H 8.68504 4.48413 5.99247
H 7.86589 5.39262 -1.01748
H 6.66375 3.81035 -3.23542
H 5.84699 6.38054 -1.24866
H 5.10974 4.87783 -0.59516
H 5.26158 5.07481 -2.26402
H 8.51105 5.50118 -3.54669
H 8.76291 3.96757 -4.37277
H 9.98378 5.13307 -1.98578
H 10.81099 4.31257 -3.35297
H 9.97454 3.37725 -2.03378
H 8.83855 -1.77066 -5.21500
H 8.16800 -0.10068 -5.23897
H 7.04161 -1.50136 -5.00467
H 7.17428 -4.57224 -0.91547
H 9.62079 -8.06250 -0.24304
H 9.71425 -7.19783 1.40721
H 10.80279 -6.90076 0.03880
