158

Mg 0.00000 0.00000 0.00000
C -0.21700 -2.21800 2.80100
C -1.25500 2.44200 2.02600
C -0.24500 1.85000 -2.56400
C 0.14600 -2.82400 -2.03700
N -0.61700 -0.00900 2.12600
C -0.59400 -0.90800 3.10500
C -0.93600 -0.30900 4.50200
C -1.77300 0.96400 4.03200
C -1.15500 1.16800 2.66000
C -3.26300 0.68500 3.86300
C 0.34500 0.11000 5.29900
C 0.12400 0.39700 6.78700
H 1.16800 0.03300 7.73300
N -0.18500 1.96100 -0.15200
C -0.70300 2.80000 0.77700
C -0.62000 4.15600 0.19300
C -0.18700 4.01500 -1.22500
C -0.21400 2.58300 -1.38000
C -0.88700 5.40600 0.97400
C 0.18100 5.01300 -2.27700
O 0.30300 4.69000 -3.50800
C 0.31000 6.41400 -1.83700
N -0.26500 -0.41300 -2.02900
C -0.27900 0.56900 -2.93700
C -0.19600 0.02400 -4.33200
C 0.12400 -1.53300 -4.18000
C 0.08600 -1.63200 -2.63500
C -1.45100 0.20500 -5.19700
C 1.37300 -2.07000 -4.92300
C 2.62600 -1.49000 -4.30600
N 0.15000 -2.14400 0.30300
C 0.17300 -3.13600 -0.68800
C 0.17300 -4.43800 0.00400
C 0.13300 -4.11100 1.35800
C 0.08300 -2.69500 1.50200
C 0.14900 -5.71500 -0.62300
C 0.09600 -4.62900 2.71600
O 0.20800 -5.74700 3.22100
C -0.25500 -3.42800 3.70100
C 0.71700 -3.48200 4.84800
O 1.93100 -3.25500 4.66900
O 0.03800 -3.55600 6.00300
C 0.94300 -3.58300 7.18300
H -1.85900 3.22000 2.49700
H -0.21800 2.45300 -3.47400
H 0.27600 -3.74700 -2.60500
H -1.55400 -0.94900 5.13200
H -1.58500 1.83100 4.66500
H -3.48400 -0.37700 3.96900
H -3.51100 1.02700 2.85800
H -3.85200 1.30100 4.54300
H 0.66900 1.09600 4.96600
H 1.13000 -0.63900 5.18900
H -0.84400 0.02600 7.12500
H 0.06200 1.47700 6.92100
H -1.34400 5.18600 1.93800
H -1.65100 5.96300 0.43200
H 0.00700 6.02000 1.08400
H -0.63500 6.74400 -1.40500
H 0.66500 6.97000 -2.70400
H 1.04800 6.46600 -1.03600
H 0.60800 0.50100 -4.89100
H -0.69200 -2.15600 -4.54700
H -1.26700 0.74000 -6.12900
H -2.20400 0.71400 -4.59600
H -1.96700 -0.72000 -5.45300
H 1.35600 -1.75900 -5.96700
H 1.45200 -3.15700 -4.90200
H 2.71400 -0.52200 -4.79800
H 3.48700 -2.12100 -4.52900
H 2.49500 -1.30300 -3.24000
H 0.86700 -6.33300 -0.08400
H 0.40400 -5.64200 -1.68000
H -0.89100 -5.99900 -0.46300
H -1.28300 -3.58100 4.02800
H 0.69800 -4.47800 7.75500
H 0.83300 -2.61900 7.68000
H 2.00000 -3.75400 6.97600
Mg 7.88972 0.71417 0.60584
C 7.51189 -1.50465 3.40104
C 6.77637 3.21954 2.63516
C 7.78134 2.59767 -1.94526
C 7.86492 -2.09817 -1.45228
N 7.25766 0.73095 2.72538
C 7.21469 -0.15972 3.70478
C 6.90970 0.43780 5.10461
C 6.15032 1.77291 4.63592
C 6.78841 1.94654 3.25919
C 4.65466 1.58021 4.44827
C 8.21473 0.77164 5.90926
C 7.99641 1.06712 7.39478
H 9.01519 0.63480 8.34750
N 7.83213 2.69341 0.47229
C 7.36899 3.55838 1.39890
C 7.52688 4.89845 0.81286
C 7.96802 4.74355 -0.59998
C 7.85508 3.30717 -0.75543
C 7.34235 6.15999 1.60524
C 8.40533 5.72693 -1.64302
O 8.51630 5.39576 -2.87624
C 8.60961 7.11180 -1.19371
N 7.61928 0.33058 -1.41952
C 7.66754 1.32446 -2.32384
C 7.72292 0.77935 -3.73103
C 7.94674 -0.79624 -3.57292
C 7.89033 -0.90662 -2.03343
C 6.48581 1.03351 -4.59205
C 9.16516 -1.41186 -4.31396
C 10.45129 -0.91080 -3.69736
N 7.90692 -1.42660 0.89715
C 7.86716 -2.42375 -0.10196
C 7.78059 -3.72751 0.58735
C 7.75255 -3.39450 1.94999
C 7.79672 -1.98192 2.09879
C 7.69047 -4.99903 -0.04608
C 7.68490 -3.91630 3.29604
O 7.71583 -5.04077 3.79439
C 7.39848 -2.71077 4.29156
C 8.35760 -2.82285 5.44484
O 9.58029 -2.68274 5.26596
O 7.66092 -2.85973 6.59534
C 8.56907 -2.95959 7.76884
H 6.22512 4.02799 3.11623
H 7.85236 3.19627 -2.85636
H 7.95179 -3.02676 -2.02049
H 6.25511 -0.16470 5.72289
H 6.39650 2.61381 5.27907
H 4.36637 0.54424 4.54722
H 4.43431 1.94075 3.45203
H 4.10204 2.22991 5.13299
H 8.60006 1.74480 5.57878
H 8.94069 -0.01035 5.79925
H 6.99903 0.76152 7.73360
H 8.00809 2.15027 7.53852
H 6.85874 5.96207 2.56979
H 6.61949 6.77691 1.06049
H 8.27052 6.72343 1.72231
H 7.68607 7.49181 -0.76344
H 9.00576 7.64475 -2.06026
H 9.35479 7.11266 -0.39038
H 8.55894 1.20011 -4.27612
H 7.09223 -1.37011 -3.96064
H 6.71149 1.57063 -5.53260
H 5.76677 1.58591 -4.00182
H 5.92349 0.14274 -4.86688
H 9.17554 -1.08989 -5.35818
H 9.16920 -2.49674 -4.31141
H 10.59765 0.05779 -4.18470
H 11.27176 -1.59104 -3.91677
H 10.32684 -0.72445 -2.62430
H 8.35781 -5.66144 0.48905
H 7.95148 -4.93732 -1.10052
H 6.62922 -5.21596 0.10208
H 6.35962 -2.79170 4.61372
H 8.26092 -3.84268 8.33707
H 8.50258 -1.98190 8.28210
H 9.61191 -3.18427 7.57787
