158

Mg 0.00000 0.00000 0.00000
C -0.21700 -2.21800 2.80100
C -1.25500 2.44200 2.02600
C -0.24500 1.85000 -2.56400
C 0.14600 -2.82400 -2.03700
N -0.61700 -0.00900 2.12600
C -0.59400 -0.90800 3.10500
C -0.93600 -0.30900 4.50200
C -1.77300 0.96400 4.03200
C -1.15500 1.16800 2.66000
C -3.26300 0.68500 3.86300
C 0.34500 0.11000 5.29900
C 0.12400 0.39700 6.78700
H 1.16800 0.03300 7.73300
N -0.18500 1.96100 -0.15200
C -0.70300 2.80000 0.77700
C -0.62000 4.15600 0.19300
C -0.18700 4.01500 -1.22500
C -0.21400 2.58300 -1.38000
C -0.88700 5.40600 0.97400
C 0.18100 5.01300 -2.27700
O 0.30300 4.69000 -3.50800
C 0.31000 6.41400 -1.83700
N -0.26500 -0.41300 -2.02900
C -0.27900 0.56900 -2.93700
C -0.19600 0.02400 -4.33200
C 0.12400 -1.53300 -4.18000
C 0.08600 -1.63200 -2.63500
C -1.45100 0.20500 -5.19700
C 1.37300 -2.07000 -4.92300
C 2.62600 -1.49000 -4.30600
N 0.15000 -2.14400 0.30300
C 0.17300 -3.13600 -0.68800
C 0.17300 -4.43800 0.00400
C 0.13300 -4.11100 1.35800
C 0.08300 -2.69500 1.50200
C 0.14900 -5.71500 -0.62300
C 0.09600 -4.62900 2.71600
O 0.20800 -5.74700 3.22100
C -0.25500 -3.42800 3.70100
C 0.71700 -3.48200 4.84800
O 1.93100 -3.25500 4.66900
O 0.03800 -3.55600 6.00300
C 0.94300 -3.58300 7.18300
H -1.85900 3.22000 2.49700
H -0.21800 2.45300 -3.47400
H 0.27600 -3.74700 -2.60500
H -1.55400 -0.94900 5.13200
H -1.58500 1.83100 4.66500
H -3.48400 -0.37700 3.96900
H -3.51100 1.02700 2.85800
H -3.85200 1.30100 4.54300
H 0.66900 1.09600 4.96600
H 1.13000 -0.63900 5.18900
H -0.84400 0.02600 7.12500
H 0.06200 1.47700 6.92100
H -1.34400 5.18600 1.93800
H -1.65100 5.96300 0.43200
H 0.00700 6.02000 1.08400
H -0.63500 6.74400 -1.40500
H 0.66500 6.97000 -2.70400
H 1.04800 6.46600 -1.03600
H 0.60800 0.50100 -4.89100
H -0.69200 -2.15600 -4.54700
H -1.26700 0.74000 -6.12900
H -2.20400 0.71400 -4.59600
H -1.96700 -0.72000 -5.45300
H 1.35600 -1.75900 -5.96700
H 1.45200 -3.15700 -4.90200
H 2.71400 -0.52200 -4.79800
H 3.48700 -2.12100 -4.52900
H 2.49500 -1.30300 -3.24000
H 0.86700 -6.33300 -0.08400
H 0.40400 -5.64200 -1.68000
H -0.89100 -5.99900 -0.46300
H -1.28300 -3.58100 4.02800
H 0.69800 -4.47800 7.75500
H 0.83300 -2.61900 7.68000
H 2.00000 -3.75400 6.97600
Mg 31.52684 2.84565 2.40106
C 33.75982 3.46409 5.14157
C 29.27662 1.69140 4.68990
C 29.71663 1.87307 -0.01651
C 34.30164 2.95987 0.29556
N 31.62173 2.65353 4.60250
C 32.49760 2.97808 5.54158
C 31.96318 2.84572 6.99294
C 30.80595 1.76492 6.72545
C 30.51871 2.07265 5.25730
C 31.28962 0.32784 6.82648
C 31.37482 4.19412 7.53854
C 31.11903 4.22045 9.04706
H 31.33722 5.47133 9.76829
N 29.59825 2.38074 2.34665
C 28.83548 1.95118 3.37375
C 27.49403 1.72774 2.81271
C 27.56781 1.90268 1.33668
C 28.99931 2.04153 1.15891
C 26.28852 1.46265 3.66704
C 26.52400 1.92658 0.26146
O 26.83435 1.85381 -0.98000
C 25.12330 1.94350 0.70781
N 31.96822 2.26007 0.45564
C 30.98965 1.93545 -0.40747
C 31.52173 1.81633 -1.81569
C 33.02175 2.36768 -1.75627
C 33.13181 2.63885 -0.23978
C 31.52054 0.40823 -2.41038
C 33.39065 3.51143 -2.74035
C 32.64318 4.77216 -2.36989
N 33.62080 3.33416 2.61266
C 34.61233 3.29171 1.60809
C 35.90355 3.59704 2.25766
C 35.57435 3.77470 3.60990
C 34.17971 3.57305 3.79376
C 37.17181 3.63152 1.61233
C 36.09118 4.07652 4.92538
O 37.18468 4.42235 5.37079
C 34.95937 3.76446 5.99684
C 34.87406 4.93561 6.93687
O 34.49774 6.04817 6.52797
O 35.04007 4.50043 8.19918
C 34.95266 5.62423 9.16936
H 28.58924 1.10013 5.29554
H 29.12121 1.64552 -0.90374
H 35.19851 3.11093 -0.30900
H 32.67873 2.45540 7.70667
H 29.92924 1.96571 7.33572
H 32.36142 0.27091 6.94546
H 30.98535 -0.15044 5.90469
H 30.75695 -0.19380 7.62678
H 30.34696 4.31075 7.17162
H 31.99973 5.02144 7.26350
H 31.61243 3.38804 9.56339
H 30.05382 4.05036 9.22143
H 26.57173 1.22669 4.70025
H 25.82879 0.54097 3.29418
H 25.55315 2.26866 3.61960
H 24.92939 1.06738 1.32203
H 24.52817 2.04991 -0.20125
H 24.97135 2.81809 1.35018
H 30.94833 2.43065 -2.49901
H 33.75451 1.58103 -1.98883
H 30.95523 0.33539 -3.35863
H 31.11650 -0.27316 -1.67350
H 32.50599 -0.01397 -2.59965
H 33.07920 3.25287 -3.75538
H 34.45360 3.72586 -2.77442
H 31.66766 4.62906 -2.84418
H 33.15043 5.64901 -2.76724
H 32.47844 4.82839 -1.28760
H 37.68710 4.50675 1.98507
H 37.06640 3.66218 0.52987
H 37.59195 2.68291 1.95713
H 35.24072 2.84539 6.51233
H 35.87563 5.61127 9.75728
H 34.00397 5.47240 9.71771
H 34.96940 6.63218 8.77161
