158

Mg 0.00000 0.00000 0.00000
C -0.21700 -2.21800 2.80100
C -1.25500 2.44200 2.02600
C -0.24500 1.85000 -2.56400
C 0.14600 -2.82400 -2.03700
N -0.61700 -0.00900 2.12600
C -0.59400 -0.90800 3.10500
C -0.93600 -0.30900 4.50200
C -1.77300 0.96400 4.03200
C -1.15500 1.16800 2.66000
C -3.26300 0.68500 3.86300
C 0.34500 0.11000 5.29900
C 0.12400 0.39700 6.78700
H 1.16800 0.03300 7.73300
N -0.18500 1.96100 -0.15200
C -0.70300 2.80000 0.77700
C -0.62000 4.15600 0.19300
C -0.18700 4.01500 -1.22500
C -0.21400 2.58300 -1.38000
C -0.88700 5.40600 0.97400
C 0.18100 5.01300 -2.27700
O 0.30300 4.69000 -3.50800
C 0.31000 6.41400 -1.83700
N -0.26500 -0.41300 -2.02900
C -0.27900 0.56900 -2.93700
C -0.19600 0.02400 -4.33200
C 0.12400 -1.53300 -4.18000
C 0.08600 -1.63200 -2.63500
C -1.45100 0.20500 -5.19700
C 1.37300 -2.07000 -4.92300
C 2.62600 -1.49000 -4.30600
N 0.15000 -2.14400 0.30300
C 0.17300 -3.13600 -0.68800
C 0.17300 -4.43800 0.00400
C 0.13300 -4.11100 1.35800
C 0.08300 -2.69500 1.50200
C 0.14900 -5.71500 -0.62300
C 0.09600 -4.62900 2.71600
O 0.20800 -5.74700 3.22100
C -0.25500 -3.42800 3.70100
C 0.71700 -3.48200 4.84800
O 1.93100 -3.25500 4.66900
O 0.03800 -3.55600 6.00300
C 0.94300 -3.58300 7.18300
H -1.85900 3.22000 2.49700
H -0.21800 2.45300 -3.47400
H 0.27600 -3.74700 -2.60500
H -1.55400 -0.94900 5.13200
H -1.58500 1.83100 4.66500
H -3.48400 -0.37700 3.96900
H -3.51100 1.02700 2.85800
H -3.85200 1.30100 4.54300
H 0.66900 1.09600 4.96600
H 1.13000 -0.63900 5.18900
H -0.84400 0.02600 7.12500
H 0.06200 1.47700 6.92100
H -1.34400 5.18600 1.93800
H -1.65100 5.96300 0.43200
H 0.00700 6.02000 1.08400
H -0.63500 6.74400 -1.40500
H 0.66500 6.97000 -2.70400
H 1.04800 6.46600 -1.03600
H 0.60800 0.50100 -4.89100
H -0.69200 -2.15600 -4.54700
H -1.26700 0.74000 -6.12900
H -2.20400 0.71400 -4.59600
H -1.96700 -0.72000 -5.45300
H 1.35600 -1.75900 -5.96700
H 1.45200 -3.15700 -4.90200
H 2.71400 -0.52200 -4.79800
H 3.48700 -2.12100 -4.52900
H 2.49500 -1.30300 -3.24000
H 0.86700 -6.33300 -0.08400
H 0.40400 -5.64200 -1.68000
H -0.89100 -5.99900 -0.46300
H -1.28300 -3.58100 4.02800
H 0.69800 -4.47800 7.75500
H 0.83300 -2.61900 7.68000
H 2.00000 -3.75400 6.97600
Mg 31.53256 2.83880 2.39533
C 31.73369 -0.41721 0.92219
C 30.56941 1.30734 5.28843
C 30.91043 5.71307 3.58199
C 31.39880 4.13186 -0.83821
N 31.22852 0.70859 2.91535
C 31.39731 -0.44542 2.27744
C 31.25699 -1.68992 3.20421
C 30.35405 -1.04900 4.35134
C 30.76670 0.40469 4.20154
C 28.85680 -1.16460 4.08420
C 32.63720 -2.17284 3.76417
C 32.63144 -3.56308 4.40648
H 33.80287 -4.41188 4.24950
N 31.31689 3.43291 4.26706
C 30.93364 2.67088 5.31954
C 30.92419 3.57120 6.49258
C 31.14903 4.95948 6.00246
C 31.10778 4.75811 4.57659
C 30.76575 3.08609 7.90088
C 31.35609 6.26272 6.70732
O 31.30113 7.38356 6.09473
C 31.53953 6.19740 8.16853
N 30.98010 4.64931 1.51527
C 30.83001 5.75651 2.25049
C 30.71402 6.97559 1.38427
C 31.06108 6.49826 -0.09946
C 31.24673 4.98577 0.17657
C 29.34647 7.67257 1.38938
C 32.19284 7.25797 -0.83592
C 33.51851 6.98284 -0.16212
N 31.73636 2.05054 0.38333
C 31.62168 2.76519 -0.81783
C 31.72853 1.78597 -1.91500
C 31.88234 0.55960 -1.27142
C 31.84590 0.75679 0.13857
C 31.62136 2.07563 -3.30390
C 32.04431 -0.87457 -1.44687
O 32.23403 -1.61396 -2.41372
C 31.83242 -1.57922 -0.03464
C 32.95988 -2.55616 0.15957
O 34.13415 -2.15803 0.30087
O 32.45488 -3.77870 0.38521
C 33.52066 -4.79025 0.61552
H 30.03538 0.95809 6.17430
H 30.80268 6.73631 3.94778
H 31.45060 4.47224 -1.87402
H 30.73976 -2.53676 2.75280
H 30.62660 -1.42043 5.33900
H 28.65918 -1.55442 3.08575
H 28.46466 -0.15210 4.18208
H 28.36862 -1.75155 4.86262
H 32.90443 -1.56894 4.63133
H 33.40221 -2.13758 2.98775
H 31.72431 -4.11395 4.15634
H 32.58351 -3.43925 5.48841
H 30.45369 2.04294 7.93242
H 29.92857 3.63327 8.33383
H 31.66291 3.25521 8.49657
H 30.66489 5.72909 8.62045
H 31.76281 7.21430 8.48932
H 32.38499 5.54522 8.38944
H 31.42643 7.74109 1.68906
H 30.20411 6.58469 -0.76790
H 29.39128 8.72265 1.67926
H 28.68520 7.11243 2.04988
H 28.80401 7.62175 0.44568
H 32.02383 8.33301 -0.78432
H 32.27997 6.98605 -1.88792
H 33.52939 7.70170 0.65638
H 34.34180 7.16585 -0.85343
H 33.54153 5.98623 0.27916
H 32.41292 1.51009 -3.79540
H 31.72093 3.14399 -3.49442
H 30.61685 1.70652 -3.51024
H 30.86314 -2.07527 -0.07412
H 33.36556 -5.59042 -0.10829
H 33.47819 -5.04973 1.67348
H 34.53770 -4.48367 0.36858
