79

Mg 13.14563 1.17942 1.00518
C 13.31519 -2.30737 0.17292
C 12.11137 0.23370 4.11492
C 12.55431 4.23373 1.62885
C 13.07591 1.84975 -2.41411
N 12.79722 -0.80981 1.90730
C 12.95402 -2.06504 1.51467
C 12.78828 -3.11754 2.64352
C 11.87004 -2.25733 3.64139
C 12.30648 -0.85377 3.22642
C 10.38285 -2.39723 3.36200
C 14.15661 -3.50100 3.30883
C 14.11181 -4.74285 4.20188
H 15.27776 -5.62159 4.23110
N 12.91341 2.11429 2.74030
C 12.50809 1.57320 3.90830
C 12.48052 2.68043 4.87652
C 12.74381 3.94959 4.14535
C 12.72639 3.47378 2.77664
C 12.30133 2.46720 6.35160
C 12.96097 5.36054 4.60171
O 12.93557 6.34502 3.78136
C 13.11123 5.56542 6.04979
N 12.64379 2.79401 -0.20461
C 12.49382 4.02572 0.31341
C 12.40776 5.06861 -0.77534
C 12.77528 4.30509 -2.13164
C 12.92991 2.87058 -1.58058
C 11.05227 5.75772 -0.93079
C 13.93136 4.89870 -2.98239
C 15.24306 4.75053 -2.24560
N 13.37147 0.02974 -0.81012
C 13.28088 0.50416 -2.13707
C 13.38955 -0.66964 -3.02746
C 13.51370 -1.75674 -2.14923
C 13.46420 -1.29535 -0.80604
C 13.31895 -0.64490 -4.44892
C 13.66471 -3.19083 -2.05291
O 13.85019 -4.10092 -2.85980
C 13.41589 -3.62498 -0.54427
C 14.52361 -4.55928 -0.14108
O 15.69725 -4.15431 -0.06918
O 13.98875 -5.71206 0.30095
C 15.04778 -6.66716 0.72291
H 11.56516 0.05504 5.04154
H 12.45747 5.31043 1.78637
H 13.16140 1.98575 -3.49432
H 12.27042 -4.02231 2.34856
H 12.13047 -2.44628 4.67958
H 10.19354 -2.96111 2.46070
H 10.00592 -1.38771 3.26289
H 9.87461 -2.82473 4.23106
H 14.41651 -2.74094 4.05683
H 14.92195 -3.61731 2.56629
H 13.19496 -5.32574 4.05166
H 14.05580 -4.41902 5.24400
H 11.96551 1.44652 6.57262
H 11.46650 3.10218 6.66738
H 13.18893 2.73823 6.92726
H 12.22465 5.19721 6.56053
H 13.34674 6.62439 6.17222
H 13.95271 4.95923 6.40343
H 13.12898 5.85975 -0.61092
H 11.92586 4.28354 -2.83012
H 11.10930 6.85879 -0.83881
H 10.37496 5.34905 -0.19270
H 10.53165 5.54758 -1.86353
H 13.77922 5.97033 -3.13284
H 14.02220 4.44541 -3.96385
H 15.24665 5.61288 -1.57223
H 16.07935 4.78905 -2.94070
H 15.24572 3.84729 -1.62447
H 14.10130 -1.29865 -4.81092
H 13.43389 0.36573 -4.83516
H 12.30695 -1.02971 -4.60066
H 12.43794 -4.10573 -0.49877
H 14.88809 -7.59108 0.15849
H 14.97131 -6.73037 1.82469
H 16.07120 -6.43063 0.45624
