158

Mg 0.00000 0.00000 0.00000
C -0.21700 -2.21800 2.80100
C -1.25500 2.44200 2.02600
C -0.24500 1.85000 -2.56400
C 0.14600 -2.82400 -2.03700
N -0.61700 -0.00900 2.12600
C -0.59400 -0.90800 3.10500
C -0.93600 -0.30900 4.50200
C -1.77300 0.96400 4.03200
C -1.15500 1.16800 2.66000
C -3.26300 0.68500 3.86300
C 0.34500 0.11000 5.29900
C 0.12400 0.39700 6.78700
H 1.16800 0.03300 7.73300
N -0.18500 1.96100 -0.15200
C -0.70300 2.80000 0.77700
C -0.62000 4.15600 0.19300
C -0.18700 4.01500 -1.22500
C -0.21400 2.58300 -1.38000
C -0.88700 5.40600 0.97400
C 0.18100 5.01300 -2.27700
O 0.30300 4.69000 -3.50800
C 0.31000 6.41400 -1.83700
N -0.26500 -0.41300 -2.02900
C -0.27900 0.56900 -2.93700
C -0.19600 0.02400 -4.33200
C 0.12400 -1.53300 -4.18000
C 0.08600 -1.63200 -2.63500
C -1.45100 0.20500 -5.19700
C 1.37300 -2.07000 -4.92300
C 2.62600 -1.49000 -4.30600
N 0.15000 -2.14400 0.30300
C 0.17300 -3.13600 -0.68800
C 0.17300 -4.43800 0.00400
C 0.13300 -4.11100 1.35800
C 0.08300 -2.69500 1.50200
C 0.14900 -5.71500 -0.62300
C 0.09600 -4.62900 2.71600
O 0.20800 -5.74700 3.22100
C -0.25500 -3.42800 3.70100
C 0.71700 -3.48200 4.84800
O 1.93100 -3.25500 4.66900
O 0.03800 -3.55600 6.00300
C 0.94300 -3.58300 7.18300
H -1.85900 3.22000 2.49700
H -0.21800 2.45300 -3.47400
H 0.27600 -3.74700 -2.60500
H -1.55400 -0.94900 5.13200
H -1.58500 1.83100 4.66500
H -3.48400 -0.37700 3.96900
H -3.51100 1.02700 2.85800
H -3.85200 1.30100 4.54300
H 0.66900 1.09600 4.96600
H 1.13000 -0.63900 5.18900
H -0.84400 0.02600 7.12500
H 0.06200 1.47700 6.92100
H -1.34400 5.18600 1.93800
H -1.65100 5.96300 0.43200
H 0.00700 6.02000 1.08400
H -0.63500 6.74400 -1.40500
H 0.66500 6.97000 -2.70400
H 1.04800 6.46600 -1.03600
H 0.60800 0.50100 -4.89100
H -0.69200 -2.15600 -4.54700
H -1.26700 0.74000 -6.12900
H -2.20400 0.71400 -4.59600
H -1.96700 -0.72000 -5.45300
H 1.35600 -1.75900 -5.96700
H 1.45200 -3.15700 -4.90200
H 2.71400 -0.52200 -4.79800
H 3.48700 -2.12100 -4.52900
H 2.49500 -1.30300 -3.24000
H 0.86700 -6.33300 -0.08400
H 0.40400 -5.64200 -1.68000
H -0.89100 -5.99900 -0.46300
H -1.28300 -3.58100 4.02800
H 0.69800 -4.47800 7.75500
H 0.83300 -2.61900 7.68000
H 2.00000 -3.75400 6.97600
Mg 8.94113 0.81159 0.67522
C 8.31728 3.49135 2.97930
C 8.05498 2.95498 -1.82582
C 9.04566 -1.64404 -1.33137
C 8.66501 -1.38301 3.36840
N 8.29003 2.92529 0.69941
C 8.14939 3.85922 1.62803
C 7.88852 5.28486 1.07212
C 7.26836 4.87783 -0.35217
C 7.93572 3.51546 -0.52900
C 5.76323 4.67134 -0.31635
C 9.21081 6.11335 0.90725
C 9.00575 7.61022 0.66421
H 9.96674 8.54692 1.24003
N 9.07850 0.77556 -1.30427
C 8.69164 1.74078 -2.16450
C 8.98612 1.22264 -3.50948
C 9.42582 -0.19328 -3.38081
C 9.17498 -0.42018 -1.97166
C 8.91674 2.07515 -4.74310
C 9.96867 -1.18367 -4.36602
O 10.06059 -2.43101 -4.08579
C 10.30210 -0.66523 -5.70076
N 8.65724 -1.23193 0.93173
C 8.81239 -2.08574 -0.09533
C 8.83005 -3.51775 0.38367
C 8.89724 -3.43620 1.97942
C 8.81310 -1.90444 2.15830
C 7.63337 -4.37306 -0.03201
C 10.05797 -4.19893 2.67484
C 11.37988 -3.55013 2.33279
N 8.74604 0.99694 2.81897
C 8.62034 -0.05042 3.75776
C 8.39922 0.57310 5.07865
C 8.38856 1.95032 4.81100
C 8.56873 2.16897 3.41844
C 8.19253 -0.12290 6.30298
C 8.25525 3.26851 5.38834
O 8.17070 3.71091 6.53328
C 8.07673 4.32048 4.21027
C 9.00736 5.47293 4.47165
O 10.23981 5.30900 4.44357
O 8.29757 6.61573 4.49583
C 9.17844 7.78865 4.74105
H 7.57992 3.47185 -2.66011
H 9.18497 -2.52400 -1.96362
H 8.66719 -1.99580 4.27237
H 7.17136 5.86845 1.63683
H 7.58823 5.56328 -1.13268
H 5.37412 4.71717 0.68994
H 5.59029 3.69272 -0.74466
H 5.26903 5.38375 -0.98311
H 9.69295 5.83379 -0.03833
H 9.85817 5.96950 1.75037
H 7.97958 7.92715 0.88664
H 9.12148 7.80734 -0.40432
H 8.40536 3.02564 -4.54698
H 8.26369 1.55692 -5.45361
H 9.89410 2.22583 -5.20649
H 9.41530 -0.22263 -6.14815
H 10.75805 -1.50186 -6.23371
H 11.03476 0.14191 -5.58958
H 9.70920 -4.03605 0.02096
H 7.99519 -3.85724 2.44727
H 7.92091 -5.28448 -0.58942
H 6.96511 -3.76088 -0.62295
H 6.98991 -4.69513 0.78495
H 10.11142 -5.22589 2.30517
H 9.95608 -4.24993 3.75373
H 11.62553 -3.98811 1.36072
H 12.13245 -3.79762 3.07873
H 11.26221 -2.47001 2.18741
H 8.78600 0.38312 7.05280
H 8.47010 -1.17132 6.21607
H 7.11358 0.00758 6.42176
H 7.03138 4.63160 4.20450
H 8.77923 8.31060 5.61620
H 9.20196 8.34912 3.78760
H 10.19644 7.59349 5.05734
