158

Mg 0.00000 0.00000 0.00000
C -0.21700 -2.21800 2.80100
C -1.25500 2.44200 2.02600
C -0.24500 1.85000 -2.56400
C 0.14600 -2.82400 -2.03700
N -0.61700 -0.00900 2.12600
C -0.59400 -0.90800 3.10500
C -0.93600 -0.30900 4.50200
C -1.77300 0.96400 4.03200
C -1.15500 1.16800 2.66000
C -3.26300 0.68500 3.86300
C 0.34500 0.11000 5.29900
C 0.12400 0.39700 6.78700
H 1.16800 0.03300 7.73300
N -0.18500 1.96100 -0.15200
C -0.70300 2.80000 0.77700
C -0.62000 4.15600 0.19300
C -0.18700 4.01500 -1.22500
C -0.21400 2.58300 -1.38000
C -0.88700 5.40600 0.97400
C 0.18100 5.01300 -2.27700
O 0.30300 4.69000 -3.50800
C 0.31000 6.41400 -1.83700
N -0.26500 -0.41300 -2.02900
C -0.27900 0.56900 -2.93700
C -0.19600 0.02400 -4.33200
C 0.12400 -1.53300 -4.18000
C 0.08600 -1.63200 -2.63500
C -1.45100 0.20500 -5.19700
C 1.37300 -2.07000 -4.92300
C 2.62600 -1.49000 -4.30600
N 0.15000 -2.14400 0.30300
C 0.17300 -3.13600 -0.68800
C 0.17300 -4.43800 0.00400
C 0.13300 -4.11100 1.35800
C 0.08300 -2.69500 1.50200
C 0.14900 -5.71500 -0.62300
C 0.09600 -4.62900 2.71600
O 0.20800 -5.74700 3.22100
C -0.25500 -3.42800 3.70100
C 0.71700 -3.48200 4.84800
O 1.93100 -3.25500 4.66900
O 0.03800 -3.55600 6.00300
C 0.94300 -3.58300 7.18300
H -1.85900 3.22000 2.49700
H -0.21800 2.45300 -3.47400
H 0.27600 -3.74700 -2.60500
H -1.55400 -0.94900 5.13200
H -1.58500 1.83100 4.66500
H -3.48400 -0.37700 3.96900
H -3.51100 1.02700 2.85800
H -3.85200 1.30100 4.54300
H 0.66900 1.09600 4.96600
H 1.13000 -0.63900 5.18900
H -0.84400 0.02600 7.12500
H 0.06200 1.47700 6.92100
H -1.34400 5.18600 1.93800
H -1.65100 5.96300 0.43200
H 0.00700 6.02000 1.08400
H -0.63500 6.74400 -1.40500
H 0.66500 6.97000 -2.70400
H 1.04800 6.46600 -1.03600
H 0.60800 0.50100 -4.89100
H -0.69200 -2.15600 -4.54700
H -1.26700 0.74000 -6.12900
H -2.20400 0.71400 -4.59600
H -1.96700 -0.72000 -5.45300
H 1.35600 -1.75900 -5.96700
H 1.45200 -3.15700 -4.90200
H 2.71400 -0.52200 -4.79800
H 3.48700 -2.12100 -4.52900
H 2.49500 -1.30300 -3.24000
H 0.86700 -6.33300 -0.08400
H 0.40400 -5.64200 -1.68000
H -0.89100 -5.99900 -0.46300
H -1.28300 -3.58100 4.02800
H 0.69800 -4.47800 7.75500
H 0.83300 -2.61900 7.68000
H 2.00000 -3.75400 6.97600
Mg 7.88412 0.71227 0.58860
C 10.28074 -1.72848 -0.49676
C 10.11710 3.10895 -0.36235
C 5.99350 2.87047 1.94329
C 6.37377 -1.80779 2.46312
N 9.90443 0.58228 -0.30229
C 10.68745 -0.39777 -0.72744
C 11.94104 0.07470 -1.51156
C 12.06213 1.55538 -0.90183
C 10.59944 1.78603 -0.52767
C 12.89532 1.61723 0.36755
C 11.69854 0.10976 -3.06139
C 12.96468 0.26265 -3.90712
H 13.03070 -0.42734 -5.19243
N 7.79475 2.67901 0.33856
C 8.78852 3.49258 -0.07594
C 8.22361 4.85090 -0.07416
C 6.86586 4.79345 0.53242
C 6.83979 3.41887 0.99061
C 8.92908 6.02637 -0.68571
C 5.77675 5.81131 0.68733
O 4.77248 5.61088 1.45810
C 5.96717 7.08759 -0.01719
N 6.52726 0.60987 2.16047
C 5.79648 1.68179 2.51385
C 4.69904 1.29989 3.47831
C 4.69370 -0.29899 3.51181
C 5.90068 -0.57548 2.58869
C 4.84700 1.83799 4.90132
C 3.34619 -1.00500 3.19806
C 2.97106 -0.78133 1.75078
N 8.12162 -1.42492 0.79849
C 7.40173 -2.28275 1.65871
C 7.99818 -3.62823 1.53080
C 9.04673 -3.45359 0.61510
C 9.11281 -2.09104 0.21686
C 7.59222 -4.78962 2.24669
C 10.11944 -4.10993 -0.09709
O 10.49214 -5.27553 -0.22434
C 11.04616 -2.99713 -0.75227
C 11.29916 -3.38669 -2.18291
O 10.36598 -3.41620 -3.00444
O 12.62647 -3.44816 -2.39473
C 12.92783 -3.82024 -3.80277
H 10.83065 3.93172 -0.41512
H 5.24784 3.55172 2.35966
H 5.89777 -2.66724 2.94004
H 12.84414 -0.48723 -1.30561
H 12.37946 2.26907 -1.65768
H 13.17134 0.63331 0.71663
H 12.27766 2.11930 1.10067
H 13.76642 2.26102 0.21570
H 11.18439 1.04374 -3.32232
H 11.15270 -0.75645 -3.38132
H 13.87482 0.07680 -3.32398
H 13.05230 1.30744 -4.21497
H 9.97863 5.79552 -0.90608
H 8.97789 6.80530 0.08290
H 8.40679 6.42355 -1.55871
H 6.88989 7.55281 0.32137
H 5.04463 7.64941 0.14140
H 6.09222 6.88187 -1.08614
H 3.73579 1.64721 3.12529
H 4.96270 -0.68662 4.50540
H 3.97913 2.43855 5.23329
H 5.75589 2.42266 4.95237
H 5.01566 1.08155 5.66588
H 2.54248 -0.57067 3.79770
H 3.35944 -2.07069 3.40084
H 2.49336 0.20283 1.76892
H 2.27935 -1.54961 1.41119
H 3.86436 -0.70257 1.12032
H 7.57281 -5.60358 1.53423
H 6.62102 -4.64800 2.71623
H 8.39803 -4.85676 2.98251
H 11.96776 -2.95420 -0.17056
H 13.57111 -4.70495 -3.76875
H 13.34822 -2.90940 -4.26903
H 12.10718 -4.17878 -4.41304
