79

Mg 15.77417 1.41235 1.19826
C 15.92706 0.27851 -2.20323
C 15.11393 -1.81392 2.08701
C 15.18857 2.44715 4.13997
C 15.30917 4.63550 -0.04302
N 15.57251 -0.43932 0.00540
C 15.71234 -0.75913 -1.27230
C 15.69670 -2.28463 -1.55893
C 14.87653 -2.76418 -0.26424
C 15.23286 -1.62371 0.68709
C 13.37094 -2.76135 -0.47050
C 17.13878 -2.90241 -1.58669
C 17.22123 -4.31739 -2.16357
H 18.40233 -4.68487 -2.93973
N 15.71605 0.42541 2.91906
C 15.45544 -0.88685 3.09609
C 15.51140 -1.11582 4.54819
C 15.66346 0.20074 5.22514
C 15.50421 1.09692 4.09749
C 15.50240 -2.48815 5.15650
C 15.89883 0.58934 6.65336
O 15.76043 1.79909 7.05360
C 16.20490 -0.50333 7.58817
N 15.10509 3.23354 1.94522
C 14.98654 3.43617 3.26915
C 14.75668 4.89613 3.57911
C 14.98763 5.66993 2.19872
C 15.23438 4.46133 1.26932
C 13.37740 5.24894 4.13543
C 16.02832 6.82301 2.20385
C 17.41690 6.26406 2.41559
N 15.82177 2.35194 -0.74672
C 15.57345 3.70982 -1.04435
C 15.60820 3.84661 -2.51490
C 15.85343 2.54419 -2.97540
C 15.94366 1.65472 -1.87077
C 15.37917 5.04728 -3.24433
C 16.04592 1.71773 -4.14527
O 16.16045 1.93249 -5.35130
C 15.97637 0.19248 -3.70349
C 17.14251 -0.52509 -4.32617
O 18.30761 -0.24598 -3.99263
O 16.68585 -1.56557 -5.04675
C 17.80617 -2.31513 -5.67513
H 14.67843 -2.74575 2.44884
H 15.08608 2.87618 5.13943
H 15.27077 5.62493 -0.50371
H 15.16935 -2.57203 -2.46064
H 15.25510 -3.70969 0.11529
H 13.09492 -2.32313 -1.41809
H 12.96306 -2.18195 0.34741
H 12.97225 -3.77289 -0.35149
H 17.46350 -3.10009 -0.55702
H 17.81902 -2.25873 -2.10973
H 16.30646 -4.59787 -2.69975
H 17.27450 -5.02748 -1.33475
H 15.21596 -3.25157 4.42265
H 14.69410 -2.50501 5.89557
H 16.44239 -2.73403 5.65515
H 15.38909 -1.22228 7.58287
H 16.42909 -0.01895 8.54053
H 17.09374 -1.03326 7.22796
H 15.47405 5.25451 4.30715
H 14.06638 6.15559 1.84478
H 13.41995 5.76234 5.11455
H 12.79573 4.33957 4.20785
H 12.76089 5.86629 3.48427
H 15.83670 7.50239 3.03804
H 16.01927 7.41706 1.29610
H 17.47639 6.15626 3.50275
H 18.16949 6.95761 2.04595
H 17.50872 5.26254 1.97950
H 16.13059 5.08747 -4.02167
H 15.42798 5.92084 -2.59758
H 14.36532 4.86316 -3.60966
H 15.02046 -0.20480 -4.04695
H 17.60508 -2.34817 -6.75038
H 17.85433 -3.28307 -5.14172
H 18.78802 -1.85677 -5.65758
