79

Mg 15.77438 1.41483 1.19258
C 15.65172 3.12960 -1.95759
C 15.28352 -1.48441 -0.53602
C 15.42762 -0.06931 3.97548
C 15.11339 4.47389 2.72586
N 15.51629 1.00442 -0.96548
C 15.54940 1.72772 -2.07457
C 15.54909 0.89591 -3.38516
C 14.86163 -0.44130 -2.82111
C 15.27115 -0.32661 -1.35421
C 13.34408 -0.41576 -2.89675
C 16.99893 0.61643 -3.91606
C 17.06726 0.07925 -5.34733
H 18.18337 0.49270 -6.19340
N 15.89751 -0.51391 1.64356
C 15.68919 -1.55831 0.81465
C 15.88142 -2.76579 1.63270
C 16.05819 -2.34874 3.05028
C 15.77434 -0.93151 2.94546
C 15.96394 -4.14369 1.04277
C 16.41029 -3.10316 4.29650
O 16.27592 -2.58198 5.45975
C 16.82830 -4.50162 4.12024
N 15.12635 2.05570 3.06119
C 15.12173 1.22075 4.11512
C 14.88147 1.97035 5.40383
C 14.96669 3.52083 5.02129
C 15.16141 3.39441 3.49436
C 13.54872 1.69017 6.09784
C 15.97229 4.38981 5.82523
C 17.38878 3.97171 5.50253
N 15.62192 3.47350 0.55487
C 15.31149 4.59396 1.35629
C 15.21041 5.75969 0.45447
C 15.44822 5.22819 -0.82203
C 15.66112 3.82648 -0.72511
C 14.88464 7.08878 0.84628
C 15.55706 5.53241 -2.23068
O 15.55705 6.56553 -2.89881
C 15.56846 4.16641 -3.04328
C 16.69285 4.22853 -4.04047
O 17.87526 4.27384 -3.65779
O 16.20148 4.00566 -5.27305
C 17.28060 4.04630 -6.29563
H 14.90746 -2.41882 -0.95357
H 15.40377 -0.51269 4.97364
H 15.00721 5.47964 3.13801
H 14.95084 1.31178 -4.18699
H 15.29802 -1.32954 -3.27049
H 12.97244 0.54878 -3.20930
H 12.99585 -0.65032 -1.89937
H 12.98501 -1.22475 -3.53936
H 17.41997 -0.23990 -3.37369
H 17.61193 1.49239 -3.82921
H 16.11593 0.20141 -5.87930
H 17.21378 -1.00277 -5.30526
H 15.63340 -4.15390 -0.00319
H 15.22599 -4.76063 1.56687
H 16.95116 -4.59492 1.16301
H 16.03492 -5.05593 3.62450
H 17.12398 -4.84563 5.11327
H 17.69513 -4.52590 3.45045
H 15.65141 1.74510 6.13154
H 14.00468 4.03169 5.17417
H 13.66517 1.33121 7.13787
H 13.00055 0.96930 5.50590
H 12.85988 2.53250 6.13219
H 15.83813 4.22966 6.89784
H 15.86583 5.45393 5.64270
H 17.54850 3.11250 6.16081
H 18.08624 4.77613 5.72723
H 17.46796 3.61449 4.46920
H 15.56189 7.74467 0.31558
H 14.96782 7.21741 1.92346
H 13.84740 7.14399 0.50517
H 14.59659 4.06539 -3.52788
H 16.98476 4.78903 -7.04298
H 17.40244 3.00311 -6.64299
H 18.24739 4.42816 -5.98914
