158

Mg 0.00000 0.00000 0.00000
C -0.21700 -2.21800 2.80100
C -1.25500 2.44200 2.02600
C -0.24500 1.85000 -2.56400
C 0.14600 -2.82400 -2.03700
N -0.61700 -0.00900 2.12600
C -0.59400 -0.90800 3.10500
C -0.93600 -0.30900 4.50200
C -1.77300 0.96400 4.03200
C -1.15500 1.16800 2.66000
C -3.26300 0.68500 3.86300
C 0.34500 0.11000 5.29900
C 0.12400 0.39700 6.78700
H 1.16800 0.03300 7.73300
N -0.18500 1.96100 -0.15200
C -0.70300 2.80000 0.77700
C -0.62000 4.15600 0.19300
C -0.18700 4.01500 -1.22500
C -0.21400 2.58300 -1.38000
C -0.88700 5.40600 0.97400
C 0.18100 5.01300 -2.27700
O 0.30300 4.69000 -3.50800
C 0.31000 6.41400 -1.83700
N -0.26500 -0.41300 -2.02900
C -0.27900 0.56900 -2.93700
C -0.19600 0.02400 -4.33200
C 0.12400 -1.53300 -4.18000
C 0.08600 -1.63200 -2.63500
C -1.45100 0.20500 -5.19700
C 1.37300 -2.07000 -4.92300
C 2.62600 -1.49000 -4.30600
N 0.15000 -2.14400 0.30300
C 0.17300 -3.13600 -0.68800
C 0.17300 -4.43800 0.00400
C 0.13300 -4.11100 1.35800
C 0.08300 -2.69500 1.50200
C 0.14900 -5.71500 -0.62300
C 0.09600 -4.62900 2.71600
O 0.20800 -5.74700 3.22100
C -0.25500 -3.42800 3.70100
C 0.71700 -3.48200 4.84800
O 1.93100 -3.25500 4.66900
O 0.03800 -3.55600 6.00300
C 0.94300 -3.58300 7.18300
H -1.85900 3.22000 2.49700
H -0.21800 2.45300 -3.47400
H 0.27600 -3.74700 -2.60500
H -1.55400 -0.94900 5.13200
H -1.58500 1.83100 4.66500
H -3.48400 -0.37700 3.96900
H -3.51100 1.02700 2.85800
H -3.85200 1.30100 4.54300
H 0.66900 1.09600 4.96600
H 1.13000 -0.63900 5.18900
H -0.84400 0.02600 7.12500
H 0.06200 1.47700 6.92100
H -1.34400 5.18600 1.93800
H -1.65100 5.96300 0.43200
H 0.00700 6.02000 1.08400
H -0.63500 6.74400 -1.40500
H 0.66500 6.97000 -2.70400
H 1.04800 6.46600 -1.03600
H 0.60800 0.50100 -4.89100
H -0.69200 -2.15600 -4.54700
H -1.26700 0.74000 -6.12900
H -2.20400 0.71400 -4.59600
H -1.96700 -0.72000 -5.45300
H 1.35600 -1.75900 -5.96700
H 1.45200 -3.15700 -4.90200
H 2.71400 -0.52200 -4.79800
H 3.48700 -2.12100 -4.52900
H 2.49500 -1.30300 -3.24000
H 0.86700 -6.33300 -0.08400
H 0.40400 -5.64200 -1.68000
H -0.89100 -5.99900 -0.46300
H -1.28300 -3.58100 4.02800
H 0.69800 -4.47800 7.75500
H 0.83300 -2.61900 7.68000
H 2.00000 -3.75400 6.97600
Mg 31.52858 2.84104 2.38576
C 32.99522 0.22608 0.41344
C 33.12636 5.06600 0.35321
C 30.62234 5.14887 4.36568
C 31.00342 0.47075 4.88608
N 32.85998 2.56029 0.64197
C 33.29718 1.52196 -0.05449
C 34.03556 1.89366 -1.36834
C 34.49994 3.37878 -0.97131
C 33.41117 3.71132 0.04687
C 35.84420 3.42006 -0.26379
C 33.07675 1.90439 -2.61035
C 33.78254 1.95489 -3.96721
H 33.18990 1.22944 -5.08746
N 31.41483 4.80245 2.10554
C 32.11916 5.54040 1.22201
C 31.68470 6.93145 1.42300
C 30.78747 6.97586 2.60947
C 30.92637 5.61788 3.09598
C 32.05740 8.04373 0.48633
C 29.95370 8.06445 3.21446
O 29.43872 7.94797 4.38239
C 29.83537 9.30762 2.43856
N 31.09620 2.86525 4.41918
C 30.67401 3.99009 5.02285
C 30.16320 3.70344 6.41472
C 30.10549 2.10950 6.53139
C 30.70358 1.73341 5.15799
C 31.00290 4.26728 7.56074
C 28.74483 1.48268 6.94171
C 27.72769 1.69261 5.84320
N 31.74515 0.69915 2.56870
C 31.49364 -0.08895 3.71313
C 31.89535 -1.47242 3.38591
C 32.37798 -1.38818 2.07120
C 32.30249 -0.04322 1.61858
C 31.83562 -2.58699 4.26923
C 32.94401 -2.12931 0.96710
O 33.15812 -3.31910 0.73843
C 33.48645 -1.09472 -0.11076
C 33.00020 -1.53604 -1.46402
O 31.78608 -1.52724 -1.73317
O 34.05623 -1.68705 -2.28400
C 33.62396 -2.11341 -3.64163
H 33.76062 5.84018 -0.07950
H 30.20063 5.88652 5.05235
H 30.78012 -0.34427 5.57787
H 34.90059 1.28098 -1.59223
H 34.44348 4.05131 -1.82329
H 36.21158 2.42985 -0.03868
H 35.67962 3.97892 0.64815
H 36.56069 4.00315 -0.84944
H 32.54150 2.86214 -2.64122
H 32.40738 1.06667 -2.58217
H 34.85209 1.72661 -3.88424
H 33.75577 2.98379 -4.33420
H 32.85903 7.74115 -0.19868
H 32.50487 8.83739 1.09438
H 31.19629 8.45080 -0.04796
H 30.82603 9.72182 2.26685
H 29.12932 9.93075 2.99090
H 29.41978 9.06709 1.45365
H 29.16527 4.10206 6.55015
H 30.80369 1.73112 7.29244
H 30.43006 4.93003 8.23653
H 31.84783 4.79419 7.13767
H 31.48679 3.52147 8.18908
H 28.35013 1.98235 7.82979
H 28.80819 0.42383 7.16936
H 27.36121 2.70525 6.03645
H 26.92547 0.96136 5.91907
H 28.20807 1.69834 4.85788
H 31.43945 -3.41604 3.69806
H 31.21894 -2.37203 5.13945
H 32.89276 -2.68631 4.52970
H 34.57524 -1.09552 -0.04668
H 34.16475 -3.03602 -3.87406
H 33.80599 -1.24333 -4.30010
H 32.59601 -2.43463 -3.76249
