158

Mg 0.00000 0.00000 0.00000
C -0.21700 -2.21800 2.80100
C -1.25500 2.44200 2.02600
C -0.24500 1.85000 -2.56400
C 0.14600 -2.82400 -2.03700
N -0.61700 -0.00900 2.12600
C -0.59400 -0.90800 3.10500
C -0.93600 -0.30900 4.50200
C -1.77300 0.96400 4.03200
C -1.15500 1.16800 2.66000
C -3.26300 0.68500 3.86300
C 0.34500 0.11000 5.29900
C 0.12400 0.39700 6.78700
H 1.16800 0.03300 7.73300
N -0.18500 1.96100 -0.15200
C -0.70300 2.80000 0.77700
C -0.62000 4.15600 0.19300
C -0.18700 4.01500 -1.22500
C -0.21400 2.58300 -1.38000
C -0.88700 5.40600 0.97400
C 0.18100 5.01300 -2.27700
O 0.30300 4.69000 -3.50800
C 0.31000 6.41400 -1.83700
N -0.26500 -0.41300 -2.02900
C -0.27900 0.56900 -2.93700
C -0.19600 0.02400 -4.33200
C 0.12400 -1.53300 -4.18000
C 0.08600 -1.63200 -2.63500
C -1.45100 0.20500 -5.19700
C 1.37300 -2.07000 -4.92300
C 2.62600 -1.49000 -4.30600
N 0.15000 -2.14400 0.30300
C 0.17300 -3.13600 -0.68800
C 0.17300 -4.43800 0.00400
C 0.13300 -4.11100 1.35800
C 0.08300 -2.69500 1.50200
C 0.14900 -5.71500 -0.62300
C 0.09600 -4.62900 2.71600
O 0.20800 -5.74700 3.22100
C -0.25500 -3.42800 3.70100
C 0.71700 -3.48200 4.84800
O 1.93100 -3.25500 4.66900
O 0.03800 -3.55600 6.00300
C 0.94300 -3.58300 7.18300
H -1.85900 3.22000 2.49700
H -0.21800 2.45300 -3.47400
H 0.27600 -3.74700 -2.60500
H -1.55400 -0.94900 5.13200
H -1.58500 1.83100 4.66500
H -3.48400 -0.37700 3.96900
H -3.51100 1.02700 2.85800
H -3.85200 1.30100 4.54300
H 0.66900 1.09600 4.96600
H 1.13000 -0.63900 5.18900
H -0.84400 0.02600 7.12500
H 0.06200 1.47700 6.92100
H -1.34400 5.18600 1.93800
H -1.65100 5.96300 0.43200
H 0.00700 6.02000 1.08400
H -0.63500 6.74400 -1.40500
H 0.66500 6.97000 -2.70400
H 1.04800 6.46600 -1.03600
H 0.60800 0.50100 -4.89100
H -0.69200 -2.15600 -4.54700
H -1.26700 0.74000 -6.12900
H -2.20400 0.71400 -4.59600
H -1.96700 -0.72000 -5.45300
H 1.35600 -1.75900 -5.96700
H 1.45200 -3.15700 -4.90200
H 2.71400 -0.52200 -4.79800
H 3.48700 -2.12100 -4.52900
H 2.49500 -1.30300 -3.24000
H 0.86700 -6.33300 -0.08400
H 0.40400 -5.64200 -1.68000
H -0.89100 -5.99900 -0.46300
H -1.28300 -3.58100 4.02800
H 0.69800 -4.47800 7.75500
H 0.83300 -2.61900 7.68000
H 2.00000 -3.75400 6.97600
Mg 31.53256 2.83880 2.39533
C 31.53699 3.49386 -1.12364
C 31.00487 -0.44492 1.63256
C 31.07232 2.30699 5.48757
C 30.92704 6.23681 2.87754
N 31.31828 1.78144 0.46227
C 31.39964 2.13853 -0.81563
C 31.40117 0.92803 -1.79648
C 30.66954 -0.14565 -0.87241
C 31.04835 0.40801 0.48990
C 29.15007 -0.12854 -1.00435
C 32.85029 0.46852 -2.17150
C 32.94476 -0.48515 -3.36604
H 34.08595 -0.37437 -4.26203
N 31.58571 1.15522 3.42759
C 31.36235 -0.09357 2.95227
C 31.51718 -1.00324 4.10778
C 31.66144 -0.16521 5.33048
C 31.41618 1.14908 4.79395
C 31.56604 -2.49488 3.97992
C 31.96084 -0.49742 6.75811
O 31.81203 0.35400 7.70020
C 32.35334 -1.89005 7.04014
N 30.84915 4.04355 3.95711
C 30.80056 3.58436 5.21240
C 30.55428 4.69440 6.19071
C 30.68643 6.05230 5.36102
C 30.91817 5.44770 3.95425
C 29.19797 4.66500 6.90874
C 31.69605 7.10282 5.88781
C 33.10648 6.57660 5.74335
N 31.44850 4.60841 1.14134
C 31.15797 5.91816 1.54976
C 31.11089 6.74967 0.33302
C 31.36256 5.85694 -0.70695
C 31.52867 4.54592 -0.17599
C 30.80306 8.13792 0.28376
C 31.50536 5.70135 -2.14544
O 31.55776 6.47746 -3.10064
C 31.50310 4.14529 -2.48380
C 32.65210 3.88173 -3.41849
O 33.83228 4.00815 -3.03305
O 32.19157 3.29813 -4.53557
C 33.28492 2.98283 -5.49334
H 30.60603 -1.45521 1.52221
H 31.01284 2.18812 6.57144
H 30.82712 7.32082 2.95757
H 30.82890 1.08353 -2.71122
H 31.08364 -1.14515 -1.00373
H 28.81272 0.70778 -1.61648
H 28.77061 -0.03297 0.01318
H 28.78241 -1.08670 -1.37249
H 33.23644 -0.18014 -1.38524
H 33.49520 1.33041 -2.34637
H 32.01407 -0.50632 -3.93373
H 33.05262 -1.50060 -2.98469
H 31.26748 -2.82152 2.98458
H 30.79705 -2.89636 4.63960
H 32.53876 -2.89917 4.26047
H 31.55554 -2.56064 6.72017
H 32.61498 -1.92053 8.09725
H 33.22536 -2.14051 6.43533
H 31.29900 4.68753 6.98555
H 29.74160 6.59391 5.30978
H 29.27837 4.64703 7.99590
H 28.64188 3.80210 6.54342
H 28.52542 5.48207 6.64891
H 31.53038 7.28945 6.94831
H 31.63211 8.05926 5.36879
H 33.23131 5.96625 6.63707
H 33.82051 7.40074 5.73054
H 33.19830 5.91517 4.88162
H 31.51857 8.58471 -0.40645
H 30.86830 8.59328 1.27169
H 29.78133 8.10491 -0.09417
H 30.54098 3.92637 -2.94587
H 33.03147 3.46225 -6.43894
H 33.39682 1.89846 -5.48983
H 34.25405 3.43763 -5.28530
