158

Mg 0.00000 0.00000 0.00000
C -0.21700 -2.21800 2.80100
C -1.25500 2.44200 2.02600
C -0.24500 1.85000 -2.56400
C 0.14600 -2.82400 -2.03700
N -0.61700 -0.00900 2.12600
C -0.59400 -0.90800 3.10500
C -0.93600 -0.30900 4.50200
C -1.77300 0.96400 4.03200
C -1.15500 1.16800 2.66000
C -3.26300 0.68500 3.86300
C 0.34500 0.11000 5.29900
C 0.12400 0.39700 6.78700
H 1.16800 0.03300 7.73300
N -0.18500 1.96100 -0.15200
C -0.70300 2.80000 0.77700
C -0.62000 4.15600 0.19300
C -0.18700 4.01500 -1.22500
C -0.21400 2.58300 -1.38000
C -0.88700 5.40600 0.97400
C 0.18100 5.01300 -2.27700
O 0.30300 4.69000 -3.50800
C 0.31000 6.41400 -1.83700
N -0.26500 -0.41300 -2.02900
C -0.27900 0.56900 -2.93700
C -0.19600 0.02400 -4.33200
C 0.12400 -1.53300 -4.18000
C 0.08600 -1.63200 -2.63500
C -1.45100 0.20500 -5.19700
C 1.37300 -2.07000 -4.92300
C 2.62600 -1.49000 -4.30600
N 0.15000 -2.14400 0.30300
C 0.17300 -3.13600 -0.68800
C 0.17300 -4.43800 0.00400
C 0.13300 -4.11100 1.35800
C 0.08300 -2.69500 1.50200
C 0.14900 -5.71500 -0.62300
C 0.09600 -4.62900 2.71600
O 0.20800 -5.74700 3.22100
C -0.25500 -3.42800 3.70100
C 0.71700 -3.48200 4.84800
O 1.93100 -3.25500 4.66900
O 0.03800 -3.55600 6.00300
C 0.94300 -3.58300 7.18300
H -1.85900 3.22000 2.49700
H -0.21800 2.45300 -3.47400
H 0.27600 -3.74700 -2.60500
H -1.55400 -0.94900 5.13200
H -1.58500 1.83100 4.66500
H -3.48400 -0.37700 3.96900
H -3.51100 1.02700 2.85800
H -3.85200 1.30100 4.54300
H 0.66900 1.09600 4.96600
H 1.13000 -0.63900 5.18900
H -0.84400 0.02600 7.12500
H 0.06200 1.47700 6.92100
H -1.34400 5.18600 1.93800
H -1.65100 5.96300 0.43200
H 0.00700 6.02000 1.08400
H -0.63500 6.74400 -1.40500
H 0.66500 6.97000 -2.70400
H 1.04800 6.46600 -1.03600
H 0.60800 0.50100 -4.89100
H -0.69200 -2.15600 -4.54700
H -1.26700 0.74000 -6.12900
H -2.20400 0.71400 -4.59600
H -1.96700 -0.72000 -5.45300
H 1.35600 -1.75900 -5.96700
H 1.45200 -3.15700 -4.90200
H 2.71400 -0.52200 -4.79800
H 3.48700 -2.12100 -4.52900
H 2.49500 -1.30300 -3.24000
H 0.86700 -6.33300 -0.08400
H 0.40400 -5.64200 -1.68000
H -0.89100 -5.99900 -0.46300
H -1.28300 -3.58100 4.02800
H 0.69800 -4.47800 7.75500
H 0.83300 -2.61900 7.68000
H 2.00000 -3.75400 6.97600
Mg 10.51427 0.95398 0.80486
C 11.49734 -0.94858 3.68460
C 8.30876 2.59278 2.82592
C 9.31136 2.32866 -1.78949
C 11.92490 -1.55407 -1.16124
N 10.05528 0.75848 2.95971
C 10.53592 0.04427 3.96631
C 10.01231 0.46951 5.36437
C 8.63678 1.16004 4.90615
C 9.02740 1.56424 3.48605
C 7.47315 0.18622 4.82259
C 10.96350 1.49769 6.07153
C 10.67857 1.71995 7.55853
H 11.80620 1.95832 8.45525
N 9.39674 2.58305 0.61557
C 8.57775 3.12040 1.54389
C 7.96768 4.29865 0.90852
C 8.36757 4.31845 -0.52480
C 9.03842 3.03815 -0.62902
C 7.16500 5.31111 1.67276
C 8.16681 5.31789 -1.62345
O 8.39031 5.02342 -2.85071
C 7.61203 6.62147 -1.23054
N 10.41383 0.36330 -1.18596
C 9.88510 1.17188 -2.12114
C 10.16998 0.65684 -3.51181
C 11.21154 -0.54165 -3.32109
C 11.28325 -0.57154 -1.77857
C 8.95777 0.15709 -4.29741
C 12.53996 -0.45362 -4.12123
C 13.37804 0.69398 -3.60545
N 11.69072 -0.82326 1.15904
C 12.15431 -1.74540 0.19528
C 12.80896 -2.84865 0.92788
C 12.65937 -2.50043 2.27875
C 11.94312 -1.27736 2.38156
C 13.39183 -4.00680 0.34044
C 12.93522 -2.89477 3.64151
O 13.58505 -3.79565 4.17055
C 12.08472 -1.97171 4.61670
C 12.99777 -1.48322 5.70769
O 13.94547 -0.72195 5.44511
O 12.47549 -1.81723 6.90185
C 13.33983 -1.34448 8.01597
H 7.42859 3.00836 3.31732
H 9.01400 2.81590 -2.72097
H 12.47507 -2.32459 -1.70556
H 9.80879 -0.35092 6.04205
H 8.41721 2.03935 5.50612
H 7.79097 -0.83504 4.97146
H 7.05499 0.31181 3.83243
H 6.68507 0.47963 5.52200
H 10.75217 2.50389 5.68729
H 11.99106 1.22035 5.93801
H 10.01585 0.94944 7.97090
H 10.11183 2.64772 7.66838
H 6.90154 4.94408 2.67239
H 6.20331 5.41132 1.15801
H 7.64858 6.28952 1.71181
H 6.64655 6.47378 -0.75252
H 7.62557 7.22998 -2.13686
H 8.27054 7.06948 -0.47804
H 10.62687 1.42558 -4.12286
H 10.78508 -1.50586 -3.63459
H 8.82259 0.67345 -5.26652
H 8.07812 0.27376 -3.67842
H 8.95217 -0.91103 -4.50784
H 12.33502 -0.24002 -5.17315
H 13.12657 -1.36556 -4.08614
H 12.96177 1.55899 -4.13038
H 14.42627 0.54631 -3.85735
H 13.21480 0.84949 -2.53268
H 14.33084 -4.17563 0.85060
H 13.53750 -3.87908 -0.73018
H 12.62022 -4.74831 0.56415
H 11.26564 -2.57609 5.00838
H 13.57701 -2.21908 8.62957
H 12.77829 -0.52500 8.50267
H 14.33161 -0.98757 7.76412
