79

Mg 8.94119 0.81132 0.67481
C 8.31794 3.63376 2.80188
C 8.07950 2.79695 -1.96136
C 9.04460 -1.76630 -1.17251
C 8.63931 -1.20794 3.49920
N 8.30047 2.92533 0.56205
C 8.15933 3.91654 1.42918
C 7.90861 5.30552 0.78308
C 7.29432 4.81242 -0.61633
C 7.95587 3.43856 -0.70313
C 5.78800 4.61553 -0.57635
C 9.23589 6.11587 0.57407
C 9.03961 7.59539 0.23606
H 10.00205 8.56207 0.75733
N 9.08929 0.65003 -1.29765
C 8.71199 1.56090 -2.21919
C 9.01131 0.95770 -3.52714
C 9.44326 -0.44931 -3.30700
C 9.18352 -0.58582 -1.88784
C 8.95298 1.73111 -4.81238
C 9.98662 -1.50229 -4.22470
O 10.07080 -2.72990 -3.86595
C 10.32998 -1.07051 -5.58748
N 8.64574 -1.21064 1.05785
C 8.80232 -2.12817 0.08752
C 8.81023 -3.52722 0.65584
C 8.86901 -3.34562 2.24365
C 8.79149 -1.80525 2.32522
C 7.61163 -4.40150 0.28788
C 10.02209 -4.06836 2.99247
C 11.34907 -3.44849 2.61794
N 8.73519 1.13226 2.80146
C 8.59911 0.14673 3.80359
C 8.37380 0.85324 5.08129
C 8.37146 2.21089 4.72739
C 8.56039 2.34054 3.32489
C 8.15690 0.23671 6.34579
C 8.24150 3.56343 5.21978
O 8.15283 4.07747 6.33407
C 8.07471 4.53991 3.97677
C 9.00959 5.70223 4.17047
O 10.24135 5.53119 4.15995
O 8.30536 6.84754 4.11851
C 9.19068 8.02951 4.29450
H 7.61162 3.26241 -2.82930
H 9.18303 -2.68498 -1.74727
H 8.63346 -1.76257 4.43996
H 7.19126 5.92682 1.30573
H 7.62188 5.44586 -1.43659
H 5.39358 4.72646 0.42278
H 5.61257 3.61268 -0.94318
H 5.30104 5.28679 -1.28951
H 9.72185 5.77508 -0.34921
H 9.87787 6.02245 1.42833
H 8.01381 7.93042 0.43211
H 9.16222 7.72426 -0.84208
H 8.44524 2.69441 -4.67948
H 8.30129 1.17216 -5.49263
H 9.93362 1.84780 -5.27864
H 9.44788 -0.65290 -6.06701
H 10.78471 -1.94114 -6.06403
H 11.06601 -0.26136 -5.52309
H 9.68878 -4.07139 0.33161
H 7.96232 -3.73218 2.73182
H 7.89771 -5.34754 -0.20933
H 6.94969 -3.82470 -0.34432
H 6.96208 -4.66850 1.11975
H 10.07247 -5.11680 2.68852
H 9.91399 -4.05080 4.07182
H 11.59790 -3.94796 1.67682
H 12.09628 -3.65195 3.38235
H 11.23757 -2.37913 2.40415
H 8.74873 0.78623 7.06570
H 8.42974 -0.81637 6.32670
H 7.07797 0.37938 6.44984
H 7.03097 4.85486 3.94534
H 8.78924 8.60739 5.13271
H 9.22224 8.52869 3.30780
H 10.20594 7.84998 4.62838
