79

Mg 8.93332 0.79692 0.68620
C 6.65660 2.40210 2.94872
C 11.17652 0.69245 3.25364
C 11.11317 -0.20451 -1.39054
C 6.99323 2.03995 -1.92849
N 8.81492 1.48918 2.78358
C 7.87756 2.02875 3.54814
C 8.24089 2.10296 5.05547
C 9.84079 2.08237 4.91847
C 9.96259 1.34483 3.58661
C 10.44874 3.46558 4.75581
C 7.71711 0.86082 5.85843
C 7.76440 1.01240 7.38045
H 6.70108 0.40246 8.17404
N 10.66530 -0.12438 0.98628
C 11.43117 -0.07585 2.09640
C 12.61082 -0.90616 1.80795
C 12.55835 -1.31502 0.37798
C 11.42977 -0.52948 -0.07954
C 13.60413 -1.30258 2.86132
C 13.39449 -2.24766 -0.44497
O 13.31690 -2.27054 -1.72414
C 14.37348 -3.06695 0.28429
N 9.16318 1.07574 -1.36118
C 10.16970 0.48669 -2.03041
C 9.97444 0.60393 -3.52323
C 8.49779 1.18596 -3.71897
C 8.11092 1.39758 -2.23879
C 10.97464 1.49712 -4.25684
C 7.53471 0.37146 -4.62548
C 7.20097 -0.94878 -3.96902
N 7.05145 1.84306 0.50676
C 6.43489 2.29171 -0.68179
C 5.22957 3.04955 -0.28772
C 5.24113 3.00846 1.11466
C 6.38461 2.29391 1.56341
C 4.32907 3.70129 -1.17680
C 4.55174 3.41616 2.31766
O 3.48054 3.97100 2.55935
C 5.50513 3.15009 3.56129
C 4.70036 2.45064 4.62225
O 4.25789 1.30485 4.42733
O 4.77019 3.15676 5.76545
C 3.99649 2.49720 6.85089
H 12.03056 0.81369 3.92058
H 11.77526 -0.62174 -2.15279
H 6.28290 2.37545 -2.68714
H 7.92217 3.00972 5.55546
H 10.29824 1.50468 5.71746
H 9.69198 4.22723 4.64029
H 11.06960 3.41185 3.87111
H 11.12656 3.67957 5.58713
H 8.42147 0.02880 5.73050
H 6.72260 0.60076 5.55192
H 7.92312 2.05367 7.68624
H 8.64588 0.48592 7.75439
H 13.47210 -0.71693 3.77947
H 14.59387 -1.01129 2.49332
H 13.60256 -2.37666 3.05885
H 15.05753 -2.41678 0.82449
H 14.81156 -3.73233 -0.46219
H 13.84201 -3.65967 1.03718
H 10.03522 -0.36735 -3.99865
H 8.51091 2.18181 -4.18582
H 11.51512 0.97298 -5.06754
H 11.67123 1.89669 -3.53183
H 10.55288 2.40047 -4.69422
H 8.01999 0.13211 -5.57489
H 6.61357 0.89543 -4.85774
H 8.05112 -1.58151 -4.24104
H 6.26918 -1.34836 -4.36417
H 7.19593 -0.85510 -2.87684
H 3.32998 3.47979 -0.82572
H 4.47345 3.36940 -2.20285
H 4.63388 4.74163 -1.03516
H 5.87786 4.11712 3.90114
H 3.28106 3.23502 7.22701
H 4.74988 2.11620 7.56572
H 3.33569 1.68453 6.57277
