79

Mg 15.76628 1.41940 1.19766
C 15.80007 -2.02925 2.15571
C 14.58458 2.12151 4.32075
C 15.29784 4.40325 0.23130
C 15.85167 0.34676 -2.11712
N 15.29489 0.12480 2.93042
C 15.40868 -1.17430 3.18843
C 15.14559 -1.53299 4.68159
C 14.24412 -0.28168 5.08601
C 14.76213 0.72733 4.07630
C 12.75432 -0.49990 4.84233
C 16.46556 -1.58374 5.52232
C 16.33787 -2.24012 6.90008
H 17.45302 -3.02485 7.40799
N 15.51769 3.07942 2.23949
C 15.04085 3.17841 3.50365
C 15.04694 4.62073 3.82978
C 15.38680 5.36693 2.58649
C 15.38868 4.30094 1.61744
C 14.79915 5.15385 5.20751
C 15.65532 6.81304 2.31301
O 15.70264 7.28324 1.12505
C 15.77527 7.69290 3.48966
N 15.37615 2.26183 -0.67203
C 15.27386 3.58674 -0.82416
C 15.27729 3.97176 -2.27387
C 15.64944 2.64607 -3.08246
C 15.71870 1.65612 -1.89357
C 13.96220 4.54817 -2.81636
C 16.85962 2.72680 -4.04650
C 18.13507 2.90997 -3.25482
N 15.99519 -0.47915 0.17095
C 15.97836 -0.69586 -1.21448
C 16.06086 -2.15292 -1.42484
C 16.10353 -2.68707 -0.13849
C 16.02454 -1.63231 0.81520
C 16.02958 -2.81635 -2.68314
C 16.17264 -3.90516 0.65229
O 16.34916 -5.09695 0.39542
C 15.85621 -3.53664 2.16883
C 16.90464 -4.19381 3.02454
O 18.09708 -3.83020 2.96751
O 16.30756 -4.97422 3.93832
C 17.29066 -5.63315 4.83914
H 13.99268 2.43504 5.18290
H 15.24670 5.42608 -0.14768
H 15.96826 -0.05616 -3.12485
H 14.58939 -2.45783 4.83565
H 14.45062 0.05760 6.10088
H 12.57022 -1.43274 4.30955
H 12.42966 0.35111 4.24328
H 12.19596 -0.43894 5.77683
H 16.73913 -0.57247 5.82324
H 17.26158 -2.07474 4.96144
H 15.40548 -2.79807 6.99088
H 16.25546 -1.45132 7.64788
H 14.41457 4.38163 5.87258
H 13.98526 5.87430 5.12852
H 15.68136 5.64006 5.62421
H 14.85294 7.64673 4.06907
H 16.05546 8.67289 3.10501
H 16.56403 7.31002 4.13790
H 16.02827 4.73491 -2.47403
H 14.82790 2.30843 -3.71472
H 14.06802 5.53880 -3.25924
H 13.23786 4.55904 -2.00240
H 13.45565 3.92025 -3.54885
H 16.76355 3.59004 -4.70417
H 16.96965 1.84234 -4.67410
H 18.16302 3.98550 -3.08368
H 18.99602 2.58528 -3.84011
H 18.07135 2.42642 -2.27983
H 16.79906 -3.58711 -2.64081
H 16.21044 -2.12062 -3.50220
H 15.01096 -3.20399 -2.68177
H 14.85726 -3.91596 2.38172
H 17.10954 -6.70652 4.78162
H 17.18810 -5.15419 5.81304
H 18.33554 -5.58395 4.53069
