79

Mg 15.76199 1.42364 1.20638
C 13.47888 -1.17182 2.17076
C 13.06412 3.49452 0.94651
C 17.68154 3.60050 -0.07583
C 18.06514 -1.07771 0.44190
N 13.60162 1.08843 1.54207
C 12.85779 0.07792 1.96626
C 11.37901 0.44694 2.26055
C 11.25859 1.73485 1.30889
C 12.72518 2.16065 1.28711
C 10.83839 1.39625 -0.11172
C 11.14465 0.82133 3.76618
C 9.67599 0.89179 4.19024
H 9.31934 0.45922 5.53863
N 15.52465 3.38312 0.99975
C 14.35846 4.05925 0.93565
C 14.72263 5.47388 0.76136
C 16.19507 5.55813 0.56256
C 16.52881 4.15130 0.46489
C 13.72533 6.59041 0.87173
C 17.14380 6.71403 0.46247
O 18.34832 6.56284 0.05125
C 16.59383 8.04215 0.77086
N 17.52547 1.28064 0.11457
C 18.18701 2.38352 -0.27779
C 19.56001 2.03811 -0.80309
C 19.77646 0.49210 -0.45582
C 18.39496 0.17467 0.15745
C 19.77406 2.25790 -2.30051
C 21.04806 0.12471 0.35702
C 20.94589 0.68624 1.75689
N 15.86867 -0.72026 1.45202
C 16.91332 -1.57536 1.03775
C 16.48028 -2.95952 1.31880
C 15.19412 -2.81391 1.86016
C 14.84181 -1.43760 1.89410
C 17.22319 -4.13862 1.02908
C 14.05014 -3.51228 2.40079
O 13.80645 -4.68122 2.69734
C 12.83836 -2.48940 2.50888
C 12.22375 -2.63995 3.87347
O 12.86732 -2.33666 4.89349
O 10.91215 -2.90821 3.73885
C 10.25627 -3.05530 5.06549
H 12.26930 4.16331 0.61503
H 18.42506 4.31776 -0.43108
H 18.76545 -1.90722 0.32291
H 10.65593 -0.30340 1.96403
H 10.64415 2.50681 1.76484
H 10.80456 0.32986 -0.27851
H 11.57723 1.85649 -0.75463
H 9.88760 1.88184 -0.34947
H 11.43634 1.86755 3.92457
H 11.67567 0.15013 4.41280
H 9.01069 0.43070 3.45015
H 9.37012 1.94065 4.20892
H 12.69549 6.21274 0.85776
H 13.80887 7.18546 -0.04413
H 13.91089 7.23744 1.73173
H 15.76207 8.25262 0.10278
H 17.44342 8.72663 0.73133
H 16.18443 8.02394 1.78707
H 20.32347 2.62095 -0.30257
H 19.86523 -0.12110 -1.36463
H 20.61841 2.93643 -2.52576
H 18.85509 2.64080 -2.72410
H 19.93639 1.35177 -2.88171
H 21.93199 0.58005 -0.09628
H 21.22992 -0.94325 0.41521
H 21.27950 1.72083 1.63274
H 21.59684 0.14055 2.43699
H 19.90337 0.71432 2.09456
H 17.13288 -4.78365 1.89296
H 18.26399 -3.90908 0.81040
H 16.68697 -4.49479 0.14540
H 12.13296 -2.73192 1.71316
H 9.76884 -4.03511 5.07404
H 9.60528 -2.16786 5.17694
H 10.89739 -3.13042 5.93599
