79

Mg 8.94270 0.80807 0.67353
C 11.51166 -1.35881 1.93216
C 10.71295 3.41673 1.97574
C 6.48708 2.69280 -0.02298
C 6.86693 -1.98568 0.49508
N 10.85174 0.89122 1.78750
C 11.77020 0.00995 2.15375
C 13.07248 0.63614 2.72075
C 12.47105 2.04402 3.20556
C 11.28966 2.14949 2.24334
C 11.92941 2.01030 4.62501
C 14.17172 0.83027 1.61803
C 15.57014 1.14695 2.15272
H 16.72595 0.60939 1.44026
N 8.84939 2.78236 0.49446
C 9.66137 3.69126 1.07398
C 9.16353 5.00725 0.64446
C 7.89208 4.80682 -0.10250
C 7.67803 3.39042 0.11673
C 9.92123 6.28113 0.88226
C 7.00763 5.73867 -0.87426
O 5.82790 5.39779 -1.24147
C 7.52743 7.09419 -1.10637
N 6.90193 0.45543 0.49120
C 6.06025 1.43877 0.12716
C 4.69297 0.89103 -0.20591
C 4.85974 -0.69940 -0.22289
C 6.33869 -0.80340 0.20989
C 3.56996 1.27447 0.75752
C 4.41332 -1.44010 -1.51314
C 5.32968 -1.07769 -2.65958
N 9.17557 -1.32259 0.94577
C 8.17063 -2.30984 0.84819
C 8.78657 -3.59726 1.22974
C 10.11171 -3.26333 1.54753
C 10.30241 -1.86331 1.39557
C 8.11790 -4.85209 1.29609
C 11.38973 -3.77524 1.98721
O 11.85261 -4.89675 2.19139
C 12.31913 -2.54633 2.37759
C 13.66368 -2.75917 1.73774
O 13.78332 -2.74889 0.49992
O 14.61493 -2.72244 2.68860
C 15.96735 -2.91775 2.10153
H 11.06992 4.27879 2.53993
H 5.63421 3.28068 -0.37012
H 6.31223 -2.91818 0.37091
H 13.50254 0.10603 3.56206
H 13.17528 2.85415 3.03495
H 11.93098 1.01054 5.03319
H 10.91877 2.39221 4.56337
H 12.47982 2.71462 5.25534
H 13.96671 1.75736 1.06738
H 14.21720 -0.02397 0.97085
H 15.65504 0.94831 3.22802
H 15.73989 2.22280 2.06469
H 10.73833 6.13524 1.59953
H 9.23643 6.97097 1.38727
H 10.26919 6.74343 -0.04395
H 7.73599 7.56952 -0.15084
H 6.79324 7.58245 -1.75014
H 8.48425 7.01628 -1.63461
H 4.37241 1.22125 -1.18636
H 4.26614 -1.17981 0.56874
H 2.72360 1.78488 0.26031
H 3.98669 1.89961 1.53603
H 3.14723 0.44807 1.32636
H 3.40981 -1.12091 -1.80509
H 4.38933 -2.51935 -1.40525
H 4.91557 -0.12990 -3.01637
H 5.29388 -1.84071 -3.43454
H 6.34701 -0.87937 -2.30269
H 8.77904 -5.58131 0.84706
H 7.15729 -4.81815 0.78633
H 8.00474 -4.95580 2.37854
H 12.38370 -2.51718 3.46596
H 16.42382 -3.76345 2.62509
H 16.47477 -1.93856 2.18790
H 16.02340 -3.25123 1.07192
