158

Mg 0.00000 0.00000 0.00000
C -0.21700 -2.21800 2.80100
C -1.25500 2.44200 2.02600
C -0.24500 1.85000 -2.56400
C 0.14600 -2.82400 -2.03700
N -0.61700 -0.00900 2.12600
C -0.59400 -0.90800 3.10500
C -0.93600 -0.30900 4.50200
C -1.77300 0.96400 4.03200
C -1.15500 1.16800 2.66000
C -3.26300 0.68500 3.86300
C 0.34500 0.11000 5.29900
C 0.12400 0.39700 6.78700
H 1.16800 0.03300 7.73300
N -0.18500 1.96100 -0.15200
C -0.70300 2.80000 0.77700
C -0.62000 4.15600 0.19300
C -0.18700 4.01500 -1.22500
C -0.21400 2.58300 -1.38000
C -0.88700 5.40600 0.97400
C 0.18100 5.01300 -2.27700
O 0.30300 4.69000 -3.50800
C 0.31000 6.41400 -1.83700
N -0.26500 -0.41300 -2.02900
C -0.27900 0.56900 -2.93700
C -0.19600 0.02400 -4.33200
C 0.12400 -1.53300 -4.18000
C 0.08600 -1.63200 -2.63500
C -1.45100 0.20500 -5.19700
C 1.37300 -2.07000 -4.92300
C 2.62600 -1.49000 -4.30600
N 0.15000 -2.14400 0.30300
C 0.17300 -3.13600 -0.68800
C 0.17300 -4.43800 0.00400
C 0.13300 -4.11100 1.35800
C 0.08300 -2.69500 1.50200
C 0.14900 -5.71500 -0.62300
C 0.09600 -4.62900 2.71600
O 0.20800 -5.74700 3.22100
C -0.25500 -3.42800 3.70100
C 0.71700 -3.48200 4.84800
O 1.93100 -3.25500 4.66900
O 0.03800 -3.55600 6.00300
C 0.94300 -3.58300 7.18300
H -1.85900 3.22000 2.49700
H -0.21800 2.45300 -3.47400
H 0.27600 -3.74700 -2.60500
H -1.55400 -0.94900 5.13200
H -1.58500 1.83100 4.66500
H -3.48400 -0.37700 3.96900
H -3.51100 1.02700 2.85800
H -3.85200 1.30100 4.54300
H 0.66900 1.09600 4.96600
H 1.13000 -0.63900 5.18900
H -0.84400 0.02600 7.12500
H 0.06200 1.47700 6.92100
H -1.34400 5.18600 1.93800
H -1.65100 5.96300 0.43200
H 0.00700 6.02000 1.08400
H -0.63500 6.74400 -1.40500
H 0.66500 6.97000 -2.70400
H 1.04800 6.46600 -1.03600
H 0.60800 0.50100 -4.89100
H -0.69200 -2.15600 -4.54700
H -1.26700 0.74000 -6.12900
H -2.20400 0.71400 -4.59600
H -1.96700 -0.72000 -5.45300
H 1.35600 -1.75900 -5.96700
H 1.45200 -3.15700 -4.90200
H 2.71400 -0.52200 -4.79800
H 3.48700 -2.12100 -4.52900
H 2.49500 -1.30300 -3.24000
H 0.86700 -6.33300 -0.08400
H 0.40400 -5.64200 -1.68000
H -0.89100 -5.99900 -0.46300
H -1.28300 -3.58100 4.02800
H 0.69800 -4.47800 7.75500
H 0.83300 -2.61900 7.68000
H 2.00000 -3.75400 6.97600
Mg 7.88314 0.70970 0.59883
C 8.07349 -1.03936 -2.51834
C 7.16016 -2.28542 2.06498
C 7.26402 2.29296 3.27588
C 7.49567 3.64446 -1.24038
N 7.67352 -1.33339 -0.22730
C 7.83039 -1.87923 -1.42922
C 7.78725 -3.43652 -1.41095
C 6.94668 -3.64938 -0.07299
C 7.30822 -2.36290 0.64826
C 5.43853 -3.67855 -0.29910
C 9.21488 -4.06955 -1.29742
C 9.29071 -5.56895 -1.59971
H 10.47169 -6.08890 -2.27222
N 7.77827 0.07598 2.46705
C 7.48811 -1.18098 2.88077
C 7.53328 -1.14434 4.35837
C 7.68629 0.27766 4.77381
C 7.55429 0.95037 3.50676
C 7.48377 -2.37298 5.21379
C 7.90469 0.92787 6.10334
O 7.77771 2.18870 6.27293
C 8.18821 0.02805 7.23603
N 7.22299 2.65326 0.97887
C 7.09261 3.10531 2.23092
C 6.88493 4.59062 2.25631
C 7.14385 5.09875 0.76483
C 7.38917 3.72778 0.08769
C 5.50224 5.06515 2.72431
C 8.20197 6.21459 0.57583
C 9.57721 5.67895 0.90586
N 7.97201 1.26845 -1.49663
C 7.75683 2.54365 -2.03906
C 7.81609 2.40482 -3.50578
C 8.04665 1.04677 -3.71647
C 8.10022 0.37521 -2.46171
C 7.60737 3.44789 -4.45070
C 8.23568 0.00277 -4.71054
O 8.37982 -0.01397 -5.93383
C 8.13916 -1.40862 -3.97946
C 9.30355 -2.24102 -4.44272
O 10.47332 -1.92999 -4.13893
O 8.84870 -3.39128 -4.96284
C 9.95496 -4.27664 -5.41503
H 6.69702 -3.12080 2.59374
H 7.15322 2.89695 4.17886
H 7.46796 4.53087 -1.87676
H 7.26412 -3.88664 -2.25484
H 7.29547 -4.51243 0.49377
H 5.18464 -3.41871 -1.32669
H 5.02627 -2.94348 0.39242
H 5.02038 -4.63974 0.00098
H 9.52345 -4.07520 -0.25205
H 9.92441 -3.53748 -1.93210
H 8.38420 -5.92271 -2.09166
H 9.31265 -6.10768 -0.65235
H 7.20330 -3.25251 4.63560
H 6.66308 -2.23780 5.91800
H 8.41417 -2.53086 5.75948
H 7.35930 -0.66955 7.35768
H 8.40468 0.67389 8.08625
H 9.06425 -0.57550 6.99680
H 7.59504 5.07337 2.92648
H 6.24161 5.50806 0.30975
H 5.53772 5.74485 3.57604
H 4.90276 4.18414 2.95175
H 4.89883 5.54495 1.95418
H 8.00740 7.04117 1.25836
H 8.22521 6.61868 -0.43631
H 9.62366 5.77874 1.98970
H 10.34655 6.28383 0.42477
H 9.65733 4.61703 0.67267
H 8.37911 3.32946 -5.21120
H 7.66448 4.42798 -3.97767
H 6.60172 3.20901 -4.79632
H 7.18341 -1.84577 -4.26680
H 9.77330 -4.50660 -6.46496
H 9.99125 -5.11020 -4.71342
H 10.94418 -3.82112 -5.47231
