79

Mg 15.76010 1.42160 1.18933
C 16.62336 -1.26918 -1.02280
C 16.85637 3.56288 -1.22887
C 15.43361 3.78867 3.27687
C 15.81518 -0.88941 3.79739
N 16.60773 1.07156 -0.82344
C 16.83156 0.00895 -1.58179
C 17.22847 0.33607 -3.04638
C 17.81409 1.81299 -2.81266
C 17.02193 2.19528 -1.56406
C 19.29282 1.82562 -2.46260
C 15.99109 0.35481 -4.01103
C 16.33768 0.36119 -5.50153
H 15.46673 -0.36480 -6.42177
N 15.62923 3.38055 0.89959
C 16.10951 4.08198 -0.14855
C 15.77374 5.48867 0.12095
C 15.20173 5.58006 1.49177
C 15.42342 4.22688 1.96066
C 15.92908 6.57330 -0.90515
C 14.57242 6.70330 2.25891
O 14.36184 6.62206 3.52061
C 14.29569 7.93625 1.50741
N 15.84860 1.49302 3.26525
C 15.61834 2.64007 3.92796
C 15.46332 2.39240 5.40952
C 15.39666 0.80311 5.57476
C 15.62419 0.38612 4.10516
C 16.57585 2.94987 6.29716
C 14.16585 0.22458 6.32515
C 12.91271 0.44658 5.50921
N 15.96177 -0.72247 1.36362
C 15.98363 -1.48327 2.55306
C 16.25643 -2.88352 2.16928
C 16.39832 -2.83600 0.77426
C 16.24613 -1.49717 0.32274
C 16.39075 -3.98078 3.06600
C 16.65278 -3.61231 -0.41792
O 16.77336 -4.81170 -0.66425
C 16.93534 -2.61282 -1.62107
C 16.11646 -3.06198 -2.80014
O 14.87418 -3.02111 -2.75923
O 16.93085 -3.25852 -3.85300
C 16.16350 -3.69443 -5.05007
H 17.38201 4.31021 -1.82392
H 15.21481 4.55014 4.02905
H 15.75092 -1.68557 4.54215
H 17.99486 -0.30608 -3.46358
H 17.56403 2.47249 -3.63964
H 19.67980 0.82872 -2.31236
H 19.37461 2.40445 -1.55193
H 19.85519 2.37692 -3.22164
H 15.48914 1.32761 -3.93069
H 15.32909 -0.46175 -3.79747
H 17.38814 0.10220 -5.68156
H 16.24609 1.38411 -5.87473
H 16.52699 6.23521 -1.76049
H 16.53361 7.36323 -0.44644
H 14.97249 6.99710 -1.21820
H 15.22239 8.31746 1.08509
H 13.76529 8.58958 2.20290
H 13.64199 7.69183 0.66269
H 14.54088 2.82314 5.77918
H 16.25272 0.41671 6.14720
H 16.20616 3.64086 7.07815
H 17.30167 3.44388 5.66497
H 17.18219 2.20048 6.80309
H 14.01742 0.75079 7.27131
H 14.25741 -0.83172 6.55504
H 12.63137 1.47291 5.76332
H 12.13665 -0.25878 5.79944
H 13.13251 0.42125 4.43557
H 15.84420 -4.80700 2.63109
H 16.01585 -3.73272 4.05680
H 17.47663 -4.10752 3.05786
H 18.00541 -2.64537 -1.82958
H 16.60610 -4.63670 -5.38759
H 16.19748 -2.84143 -5.75362
H 15.13015 -3.98650 -4.90399
