79

Mg 8.94351 0.80895 0.68085
C 10.16218 -1.31702 3.30271
C 9.08547 3.38739 2.90932
C 7.45179 2.61205 -1.46182
C 7.83253 -2.06649 -0.94495
N 9.56164 0.89846 2.80268
C 10.06482 0.03955 3.67642
C 10.56214 0.68372 4.99827
C 9.65770 2.01048 4.97436
C 9.44567 2.13463 3.46694
C 8.30112 1.82603 5.63391
C 12.09183 1.03048 4.95569
C 12.71121 1.37466 6.31202
H 14.08774 0.96303 6.57317
N 8.80451 2.78346 0.53745
C 8.90989 3.68151 1.53928
C 8.71244 5.00090 0.91930
C 8.31838 4.79741 -0.50128
C 8.15241 3.35798 -0.52520
C 8.97547 6.28847 1.64483
C 8.11116 5.74328 -1.64522
O 7.53873 5.37238 -2.73038
C 8.51370 7.13964 -1.42246
N 7.62158 0.36428 -0.86094
C 7.16261 1.32867 -1.67778
C 6.45110 0.73899 -2.87211
C 6.73937 -0.83287 -2.81097
C 7.52779 -0.89415 -1.48430
C 4.94250 0.97750 -2.93224
C 7.36688 -1.48296 -4.07441
C 8.77719 -0.97484 -4.26991
N 9.13561 -1.32164 0.98371
C 8.56961 -2.34936 0.19788
C 8.88264 -3.62988 0.86475
C 9.59492 -3.25385 2.01355
C 9.69973 -1.83775 2.06993
C 8.47515 -4.91983 0.42192
C 10.27278 -3.73231 3.19689
O 10.57933 -4.84075 3.63405
C 10.56087 -2.49336 4.14999
C 11.99308 -2.57805 4.60178
O 12.92206 -2.45515 3.78416
O 12.03196 -2.57210 5.94670
C 13.43221 -2.64346 6.44272
H 8.87576 4.21574 3.58662
H 7.01192 3.18095 -2.28422
H 7.60594 -3.01330 -1.43982
H 10.35297 0.10719 5.89137
H 10.20555 2.86888 5.35433
H 8.12209 0.79645 5.90603
H 7.57246 2.15705 4.90554
H 8.20214 2.50215 6.48796
H 12.22741 1.98908 4.43853
H 12.64930 0.23862 4.49436
H 12.05978 1.08928 7.14698
H 12.78901 2.46165 6.39218
H 9.09401 6.12560 2.72317
H 8.06709 6.89468 1.55993
H 9.81359 6.84657 1.22203
H 7.96759 7.54169 -0.57241
H 8.37174 7.64127 -2.38168
H 9.57536 7.15881 -1.15207
H 6.85406 1.13448 -3.79640
H 5.81648 -1.41061 -2.65503
H 4.61715 1.48257 -3.86129
H 4.65336 1.55497 -2.06422
H 4.32922 0.08384 -2.82996
H 6.80641 -1.19418 -4.96696
H 7.38164 -2.56722 -4.04020
H 8.62699 -0.02351 -4.78905
H 9.35380 -1.66933 -4.87756
H 9.25278 -0.75360 -3.30736
H 9.33209 -5.57129 0.53028
H 8.12210 -4.89383 -0.60689
H 7.66585 -5.12200 1.12863
H 9.86348 -2.55433 4.98636
H 13.48955 -3.50527 7.11479
H 13.64567 -1.64949 6.87884
H 14.20688 -2.88384 5.72399
