79

Mg 31.53256 2.83880 2.39533
C 31.58142 3.04598 -1.17775
C 30.97940 -0.50999 2.04503
C 31.03377 2.70423 5.52418
C 30.95681 6.27569 2.43944
N 31.32816 1.54864 0.60806
C 31.42687 1.74143 -0.70353
C 31.42649 0.41721 -1.52439
C 30.67402 -0.52522 -0.48150
C 31.04387 0.19203 0.80485
C 29.15630 -0.51141 -0.63266
C 32.87476 -0.09861 -1.82138
C 32.97223 -1.19575 -2.88540
H 34.12402 -1.20863 -3.77454
N 31.55736 1.29802 3.63154
C 31.32630 0.00139 3.31429
C 31.45939 -0.75705 4.57672
C 31.59914 0.22680 5.68605
C 31.37315 1.46529 4.98572
C 31.49431 -2.25331 4.63793
C 31.87979 0.07417 7.14758
O 31.72965 1.03860 7.97335
C 32.25494 -1.27535 7.60704
N 30.84485 4.23642 3.78507
C 30.77811 3.93920 5.08745
C 30.53276 5.16561 5.91550
C 30.68773 6.40715 4.92337
C 30.92832 5.62838 3.60659
C 29.16860 5.23874 6.61531
C 31.70238 7.50662 5.32596
C 33.10880 6.95396 5.26561
N 31.48011 4.43730 0.92799
C 31.19868 5.79054 1.16508
C 31.17318 6.46279 -0.14698
C 31.42680 5.44416 -1.06345
C 31.57375 4.20891 -0.37000
C 30.88016 7.83649 -0.37398
C 31.58341 5.10762 -2.46918
O 31.65400 5.75693 -3.51364
C 31.56880 3.52144 -2.60930
C 32.72498 3.13227 -3.48970
O 33.90220 3.29573 -3.10916
O 32.27048 2.41689 -4.52999
C 33.37074 1.97398 -5.42745
H 30.57141 -1.52257 2.05777
H 30.96147 2.72316 6.61361
H 30.86718 7.36200 2.38141
H 30.86568 0.46147 -2.45818
H 31.07922 -1.53692 -0.48123
H 28.83413 0.24422 -1.34900
H 28.76697 -0.28527 0.36021
H 28.78279 -1.50498 -0.88183
H 33.24577 -0.64661 -0.95530
H 33.53031 0.72870 -2.09549
H 32.04750 -1.27993 -3.45698
H 33.06556 -2.15608 -2.37821
H 31.20309 -2.69989 3.68803
H 30.71421 -2.56181 5.33361
H 32.45976 -2.62767 4.97863
H 31.45377 -1.97378 7.36439
H 32.50490 -1.17494 8.66264
H 33.13077 -1.60759 7.04894
H 31.26881 5.25219 6.71372
H 29.74911 6.94634 4.79321
H 29.23716 5.35695 7.69699
H 28.60764 4.34169 6.35472
H 28.50731 6.02255 6.24686
H 31.52728 7.82661 6.35255
H 31.65382 8.39071 4.69014
H 33.21778 6.45980 6.23036
H 33.83135 7.76361 5.15784
H 33.20305 6.18862 4.49499
H 31.60758 8.18658 -1.10628
H 30.93948 8.41189 0.54960
H 29.86225 7.76523 -0.75691
H 30.60948 3.25465 -3.05164
H 33.13237 2.33287 -6.42875
H 33.47146 0.89771 -5.28636
H 34.34220 2.44275 -5.26666
