158

Mg 0.00000 0.00000 0.00000
C -0.21700 -2.21800 2.80100
C -1.25500 2.44200 2.02600
C -0.24500 1.85000 -2.56400
C 0.14600 -2.82400 -2.03700
N -0.61700 -0.00900 2.12600
C -0.59400 -0.90800 3.10500
C -0.93600 -0.30900 4.50200
C -1.77300 0.96400 4.03200
C -1.15500 1.16800 2.66000
C -3.26300 0.68500 3.86300
C 0.34500 0.11000 5.29900
C 0.12400 0.39700 6.78700
H 1.16800 0.03300 7.73300
N -0.18500 1.96100 -0.15200
C -0.70300 2.80000 0.77700
C -0.62000 4.15600 0.19300
C -0.18700 4.01500 -1.22500
C -0.21400 2.58300 -1.38000
C -0.88700 5.40600 0.97400
C 0.18100 5.01300 -2.27700
O 0.30300 4.69000 -3.50800
C 0.31000 6.41400 -1.83700
N -0.26500 -0.41300 -2.02900
C -0.27900 0.56900 -2.93700
C -0.19600 0.02400 -4.33200
C 0.12400 -1.53300 -4.18000
C 0.08600 -1.63200 -2.63500
C -1.45100 0.20500 -5.19700
C 1.37300 -2.07000 -4.92300
C 2.62600 -1.49000 -4.30600
N 0.15000 -2.14400 0.30300
C 0.17300 -3.13600 -0.68800
C 0.17300 -4.43800 0.00400
C 0.13300 -4.11100 1.35800
C 0.08300 -2.69500 1.50200
C 0.14900 -5.71500 -0.62300
C 0.09600 -4.62900 2.71600
O 0.20800 -5.74700 3.22100
C -0.25500 -3.42800 3.70100
C 0.71700 -3.48200 4.84800
O 1.93100 -3.25500 4.66900
O 0.03800 -3.55600 6.00300
C 0.94300 -3.58300 7.18300
H -1.85900 3.22000 2.49700
H -0.21800 2.45300 -3.47400
H 0.27600 -3.74700 -2.60500
H -1.55400 -0.94900 5.13200
H -1.58500 1.83100 4.66500
H -3.48400 -0.37700 3.96900
H -3.51100 1.02700 2.85800
H -3.85200 1.30100 4.54300
H 0.66900 1.09600 4.96600
H 1.13000 -0.63900 5.18900
H -0.84400 0.02600 7.12500
H 0.06200 1.47700 6.92100
H -1.34400 5.18600 1.93800
H -1.65100 5.96300 0.43200
H 0.00700 6.02000 1.08400
H -0.63500 6.74400 -1.40500
H 0.66500 6.97000 -2.70400
H 1.04800 6.46600 -1.03600
H 0.60800 0.50100 -4.89100
H -0.69200 -2.15600 -4.54700
H -1.26700 0.74000 -6.12900
H -2.20400 0.71400 -4.59600
H -1.96700 -0.72000 -5.45300
H 1.35600 -1.75900 -5.96700
H 1.45200 -3.15700 -4.90200
H 2.71400 -0.52200 -4.79800
H 3.48700 -2.12100 -4.52900
H 2.49500 -1.30300 -3.24000
H 0.86700 -6.33300 -0.08400
H 0.40400 -5.64200 -1.68000
H -0.89100 -5.99900 -0.46300
H -1.28300 -3.58100 4.02800
H 0.69800 -4.47800 7.75500
H 0.83300 -2.61900 7.68000
H 2.00000 -3.75400 6.97600
Mg 15.77349 1.42428 1.20370
C 15.87742 -0.76860 4.04263
C 14.81311 3.90270 3.34139
C 15.23698 3.26240 -1.32630
C 15.61854 -1.41611 -0.80973
N 15.42549 1.44186 3.38793
C 15.55608 0.56475 4.37178
C 15.40835 1.16748 5.79461
C 14.52836 2.45728 5.41922
C 14.97049 2.64114 3.96891
C 13.03249 2.18980 5.43228
C 16.78955 1.57584 6.41713
C 16.75395 1.88236 7.91597
H 17.90939 1.51390 8.72940
N 15.60029 3.39625 1.06251
C 15.22045 4.25144 2.03494
C 15.23296 5.58876 1.42209
C 15.49172 5.43446 -0.03529
C 15.43104 3.99217 -0.16254
C 15.09156 6.85150 2.22140
C 15.73857 6.42228 -1.13505
O 15.70284 6.07865 -2.36934
C 15.93088 7.82190 -0.72815
N 15.25862 0.99816 -0.76497
C 15.13800 1.97973 -1.67596
C 15.03501 1.41717 -3.07357
C 15.35591 -0.14326 -2.93333
C 15.50793 -0.23345 -1.39901
C 13.68434 1.59851 -3.76581
C 16.49549 -0.71020 -3.82361
C 17.82494 -0.13854 -3.38637
N 15.93549 -0.70861 1.50794
C 15.81448 -1.72118 0.53114
C 15.88435 -3.01727 1.23663
C 16.01911 -2.66588 2.58825
C 16.01202 -1.25076 2.71818
C 15.77522 -4.30089 0.63122
C 16.15508 -3.17037 3.93573
O 16.30724 -4.28454 4.43494
C 15.94229 -1.96549 4.95030
C 17.04907 -2.01403 5.96776
O 18.22912 -1.81769 5.62786
O 16.51238 -2.06750 7.20043
C 17.57075 -2.10601 8.24455
H 14.29029 4.69060 3.88430
H 15.15771 3.85020 -2.24374
H 15.67613 -2.34772 -1.37670
H 14.87155 0.54327 6.49888
H 14.81475 3.31850 6.01725
H 12.81170 1.14269 5.57702
H 12.66541 2.52450 4.47089
H 12.54300 2.82210 6.17855
H 17.07912 2.56148 6.03061
H 17.53281 0.82829 6.21874
H 15.82624 1.53399 8.38602
H 16.73043 2.96682 8.04792
H 14.74941 6.64473 3.24296
H 14.27353 7.42466 1.77175
H 15.99782 7.46078 2.21023
H 15.05414 8.16318 -0.18289
H 16.18263 8.36048 -1.64381
H 16.77421 7.87063 -0.03027
H 15.77012 1.86971 -3.72774
H 14.48751 -0.76340 -3.20007
H 13.75738 2.13194 -4.73235
H 13.02250 2.12421 -3.09042
H 13.13587 0.67766 -3.95660
H 16.35246 -0.40359 -4.86269
H 16.55389 -1.79346 -3.81261
H 17.85752 0.82867 -3.89679
H 18.64232 -0.78152 -3.70654
H 17.83349 0.05744 -2.30787
H 16.53929 -4.92230 1.07904
H 15.89195 -4.24225 -0.44892
H 14.75479 -4.56661 0.91998
H 14.96013 -2.09173 5.40745
H 17.38436 -2.99445 8.85579
H 17.52367 -1.12518 8.75397
H 18.58932 -2.28285 7.91945
