158

Mg 0.00000 0.00000 0.00000
C -0.21700 -2.21800 2.80100
C -1.25500 2.44200 2.02600
C -0.24500 1.85000 -2.56400
C 0.14600 -2.82400 -2.03700
N -0.61700 -0.00900 2.12600
C -0.59400 -0.90800 3.10500
C -0.93600 -0.30900 4.50200
C -1.77300 0.96400 4.03200
C -1.15500 1.16800 2.66000
C -3.26300 0.68500 3.86300
C 0.34500 0.11000 5.29900
C 0.12400 0.39700 6.78700
H 1.16800 0.03300 7.73300
N -0.18500 1.96100 -0.15200
C -0.70300 2.80000 0.77700
C -0.62000 4.15600 0.19300
C -0.18700 4.01500 -1.22500
C -0.21400 2.58300 -1.38000
C -0.88700 5.40600 0.97400
C 0.18100 5.01300 -2.27700
O 0.30300 4.69000 -3.50800
C 0.31000 6.41400 -1.83700
N -0.26500 -0.41300 -2.02900
C -0.27900 0.56900 -2.93700
C -0.19600 0.02400 -4.33200
C 0.12400 -1.53300 -4.18000
C 0.08600 -1.63200 -2.63500
C -1.45100 0.20500 -5.19700
C 1.37300 -2.07000 -4.92300
C 2.62600 -1.49000 -4.30600
N 0.15000 -2.14400 0.30300
C 0.17300 -3.13600 -0.68800
C 0.17300 -4.43800 0.00400
C 0.13300 -4.11100 1.35800
C 0.08300 -2.69500 1.50200
C 0.14900 -5.71500 -0.62300
C 0.09600 -4.62900 2.71600
O 0.20800 -5.74700 3.22100
C -0.25500 -3.42800 3.70100
C 0.71700 -3.48200 4.84800
O 1.93100 -3.25500 4.66900
O 0.03800 -3.55600 6.00300
C 0.94300 -3.58300 7.18300
H -1.85900 3.22000 2.49700
H -0.21800 2.45300 -3.47400
H 0.27600 -3.74700 -2.60500
H -1.55400 -0.94900 5.13200
H -1.58500 1.83100 4.66500
H -3.48400 -0.37700 3.96900
H -3.51100 1.02700 2.85800
H -3.85200 1.30100 4.54300
H 0.66900 1.09600 4.96600
H 1.13000 -0.63900 5.18900
H -0.84400 0.02600 7.12500
H 0.06200 1.47700 6.92100
H -1.34400 5.18600 1.93800
H -1.65100 5.96300 0.43200
H 0.00700 6.02000 1.08400
H -0.63500 6.74400 -1.40500
H 0.66500 6.97000 -2.70400
H 1.04800 6.46600 -1.03600
H 0.60800 0.50100 -4.89100
H -0.69200 -2.15600 -4.54700
H -1.26700 0.74000 -6.12900
H -2.20400 0.71400 -4.59600
H -1.96700 -0.72000 -5.45300
H 1.35600 -1.75900 -5.96700
H 1.45200 -3.15700 -4.90200
H 2.71400 -0.52200 -4.79800
H 3.48700 -2.12100 -4.52900
H 2.49500 -1.30300 -3.24000
H 0.86700 -6.33300 -0.08400
H 0.40400 -5.64200 -1.68000
H -0.89100 -5.99900 -0.46300
H -1.28300 -3.58100 4.02800
H 0.69800 -4.47800 7.75500
H 0.83300 -2.61900 7.68000
H 2.00000 -3.75400 6.97600
Mg 10.50468 0.94846 0.79011
C 11.36793 -1.74232 -1.42202
C 11.60094 3.08975 -1.62809
C 10.17818 3.31553 2.87765
C 10.55975 -1.36254 3.39817
N 11.35230 0.59842 -1.22266
C 11.57614 -0.46419 -1.98102
C 11.97304 -0.13706 -3.44560
C 12.55867 1.33986 -3.21188
C 11.76650 1.72214 -1.96328
C 14.03740 1.35249 -2.86182
C 10.73566 -0.11832 -4.41026
C 11.08226 -0.11194 -5.90075
H 10.21131 -0.83794 -6.82100
N 10.37381 2.90742 0.50037
C 10.85409 3.60884 -0.54778
C 10.51832 5.01554 -0.27827
C 9.94630 5.10692 1.09255
C 10.16799 3.75375 1.56144
C 10.67365 6.10017 -1.30437
C 9.31699 6.23017 1.85969
O 9.10641 6.14893 3.12139
C 9.04026 7.46311 1.10819
N 10.59317 1.01989 2.86603
C 10.36292 2.16694 3.52874
C 10.20790 1.91926 5.01030
C 10.14123 0.32998 5.17554
C 10.36877 -0.08701 3.70593
C 11.32042 2.47673 5.89794
C 8.91042 -0.24856 5.92593
C 7.65729 -0.02656 5.10999
N 10.70634 -1.19560 0.96440
C 10.72820 -1.95640 2.15384
C 11.00101 -3.35666 1.77006
C 11.14290 -3.30913 0.37504
C 10.99071 -1.97030 -0.07649
C 11.13533 -4.45392 2.66678
C 11.39736 -4.08545 -0.81714
O 11.51793 -5.28483 -1.06347
C 11.67992 -3.08596 -2.02029
C 10.86103 -3.53511 -3.19936
O 9.61875 -3.49425 -3.15845
O 11.67542 -3.73165 -4.25222
C 10.90808 -4.16757 -5.44929
H 12.12659 3.83708 -2.22314
H 9.95939 4.07700 3.62983
H 10.49549 -2.15870 4.14293
H 12.73943 -0.77922 -3.86280
H 12.30860 1.99936 -4.03886
H 14.42438 0.35558 -2.71158
H 14.11918 1.93131 -1.95115
H 14.59977 1.90378 -3.62086
H 10.23371 0.85448 -4.32991
H 10.07367 -0.93489 -4.19669
H 12.13271 -0.37094 -6.08078
H 10.99066 0.91097 -6.27395
H 11.27156 5.76208 -2.15971
H 11.27818 6.89010 -0.84566
H 9.71706 6.52397 -1.61742
H 9.96697 7.84432 0.68587
H 8.50986 8.11645 1.80368
H 8.38656 7.21869 0.26347
H 9.28545 2.35001 5.37996
H 10.99729 -0.05642 5.74798
H 10.95073 3.16772 6.67892
H 12.04625 2.97074 5.26575
H 11.92676 1.72734 6.40387
H 8.76199 0.27766 6.87209
H 9.00199 -1.30485 6.15582
H 7.37595 0.99978 5.36410
H 6.88123 -0.73192 5.40022
H 7.87709 -0.05189 4.03635
H 10.58877 -5.28013 2.23187
H 10.76042 -4.20585 3.65758
H 12.22121 -4.58066 2.65864
H 12.74998 -3.11850 -2.22880
H 11.35067 -5.10984 -5.78681
H 10.94205 -3.31457 -6.15285
H 9.87473 -4.45963 -5.30322
