79

Mg 10.52006 0.95026 0.79503
C 12.85529 -1.18795 2.48434
C 11.95660 3.56979 2.44095
C 8.19710 2.79891 -0.32470
C 8.57708 -1.87960 0.19301
N 12.18430 1.05106 2.24844
C 13.03725 0.18152 2.76874
C 14.19602 0.82289 3.57834
C 13.48328 2.21029 3.96041
C 12.50100 2.30950 2.79509
C 12.68622 2.14161 5.25243
C 15.47778 1.05724 2.70415
C 16.74389 1.39162 3.49592
H 18.02436 0.88889 3.00590
N 10.41808 2.92517 0.62797
C 11.08673 3.83947 1.36163
C 10.64903 5.15280 0.86391
C 9.54478 4.94076 -0.11097
C 9.32499 3.51690 0.04529
C 11.32026 6.43680 1.25663
C 8.80007 5.86852 -1.02249
O 7.71788 5.51129 -1.60906
C 9.32388 7.23764 -1.13484
N 8.55792 0.56143 0.22832
C 7.77768 1.53446 -0.27406
C 6.50952 0.96622 -0.86504
C 6.71183 -0.62016 -0.87163
C 8.08547 -0.70301 -0.17045
C 5.21767 1.31118 -0.12442
C 6.53158 -1.34697 -2.23249
C 7.63819 -0.94717 -3.18168
N 10.74510 -1.17988 1.07770
C 9.79843 -2.18454 0.78012
C 10.36047 -3.46621 1.25327
C 11.59486 -3.11226 1.81849
C 11.77948 -1.70640 1.72369
C 9.71926 -4.73469 1.17623
C 12.77895 -3.60688 2.48331
O 13.22020 -4.72259 2.75574
C 13.59122 -2.36715 3.05750
C 15.03622 -2.54288 2.67853
O 15.38536 -2.50892 1.48540
O 15.79146 -2.50419 3.79140
C 17.23391 -2.66316 3.46599
H 12.18232 4.42871 3.07354
H 7.41151 3.37610 -0.81783
H 8.07632 -2.82037 -0.04547
H 14.47255 0.28675 4.47826
H 14.18882 3.03671 3.93579
H 12.63352 1.13516 5.64028
H 11.69678 2.50491 5.00734
H 13.09302 2.84545 5.98418
H 15.35899 1.98956 2.13723
H 15.66266 0.21534 2.06567
H 16.63025 1.17612 4.56531
H 16.90317 2.47191 3.45567
H 11.99157 6.29437 2.11247
H 10.53782 7.10445 1.63333
H 11.82520 6.92166 0.41841
H 9.33914 7.70034 -0.15090
H 8.71261 7.72265 -1.89838
H 10.36421 7.18738 -1.47514
H 6.37103 1.30706 -1.88374
H 5.99127 -1.12555 -0.21193
H 4.46830 1.81364 -0.76477
H 5.46720 1.93073 0.72672
H 4.71435 0.46707 0.34391
H 5.59368 -1.04224 -2.70327
H 6.51180 -2.42818 -2.14542
H 7.27728 -0.00155 -3.59717
H 7.76516 -1.69724 -3.95969
H 8.56599 -0.73541 -2.63762
H 10.46885 -5.44313 0.84955
H 8.87063 -4.71053 0.49577
H 9.40767 -4.85925 2.21674
H 13.45010 -2.35556 4.13895
H 17.60291 -3.50878 4.05458
H 17.69428 -1.67598 3.65908
H 17.48924 -2.97766 2.46083
