158

Mg 0.00000 0.00000 0.00000
C -0.21700 -2.21800 2.80100
C -1.25500 2.44200 2.02600
C -0.24500 1.85000 -2.56400
C 0.14600 -2.82400 -2.03700
N -0.61700 -0.00900 2.12600
C -0.59400 -0.90800 3.10500
C -0.93600 -0.30900 4.50200
C -1.77300 0.96400 4.03200
C -1.15500 1.16800 2.66000
C -3.26300 0.68500 3.86300
C 0.34500 0.11000 5.29900
C 0.12400 0.39700 6.78700
H 1.16800 0.03300 7.73300
N -0.18500 1.96100 -0.15200
C -0.70300 2.80000 0.77700
C -0.62000 4.15600 0.19300
C -0.18700 4.01500 -1.22500
C -0.21400 2.58300 -1.38000
C -0.88700 5.40600 0.97400
C 0.18100 5.01300 -2.27700
O 0.30300 4.69000 -3.50800
C 0.31000 6.41400 -1.83700
N -0.26500 -0.41300 -2.02900
C -0.27900 0.56900 -2.93700
C -0.19600 0.02400 -4.33200
C 0.12400 -1.53300 -4.18000
C 0.08600 -1.63200 -2.63500
C -1.45100 0.20500 -5.19700
C 1.37300 -2.07000 -4.92300
C 2.62600 -1.49000 -4.30600
N 0.15000 -2.14400 0.30300
C 0.17300 -3.13600 -0.68800
C 0.17300 -4.43800 0.00400
C 0.13300 -4.11100 1.35800
C 0.08300 -2.69500 1.50200
C 0.14900 -5.71500 -0.62300
C 0.09600 -4.62900 2.71600
O 0.20800 -5.74700 3.22100
C -0.25500 -3.42800 3.70100
C 0.71700 -3.48200 4.84800
O 1.93100 -3.25500 4.66900
O 0.03800 -3.55600 6.00300
C 0.94300 -3.58300 7.18300
H -1.85900 3.22000 2.49700
H -0.21800 2.45300 -3.47400
H 0.27600 -3.74700 -2.60500
H -1.55400 -0.94900 5.13200
H -1.58500 1.83100 4.66500
H -3.48400 -0.37700 3.96900
H -3.51100 1.02700 2.85800
H -3.85200 1.30100 4.54300
H 0.66900 1.09600 4.96600
H 1.13000 -0.63900 5.18900
H -0.84400 0.02600 7.12500
H 0.06200 1.47700 6.92100
H -1.34400 5.18600 1.93800
H -1.65100 5.96300 0.43200
H 0.00700 6.02000 1.08400
H -0.63500 6.74400 -1.40500
H 0.66500 6.97000 -2.70400
H 1.04800 6.46600 -1.03600
H 0.60800 0.50100 -4.89100
H -0.69200 -2.15600 -4.54700
H -1.26700 0.74000 -6.12900
H -2.20400 0.71400 -4.59600
H -1.96700 -0.72000 -5.45300
H 1.35600 -1.75900 -5.96700
H 1.45200 -3.15700 -4.90200
H 2.71400 -0.52200 -4.79800
H 3.48700 -2.12100 -4.52900
H 2.49500 -1.30300 -3.24000
H 0.86700 -6.33300 -0.08400
H 0.40400 -5.64200 -1.68000
H -0.89100 -5.99900 -0.46300
H -1.28300 -3.58100 4.02800
H 0.69800 -4.47800 7.75500
H 0.83300 -2.61900 7.68000
H 2.00000 -3.75400 6.97600
Mg 8.94310 0.80905 0.68204
C 9.85433 -1.32958 3.41608
C 8.76711 3.36423 2.93474
C 7.70564 2.61591 -1.61391
C 8.08659 -2.06263 -1.09716
N 9.28904 0.88317 2.86540
C 9.69117 0.02135 3.78731
C 10.00947 0.65733 5.16708
C 9.09596 1.97217 5.04229
C 9.07276 2.11024 3.52141
C 7.67024 1.76244 5.52465
C 11.52723 1.02479 5.32003
C 11.96665 1.36206 6.74653
H 13.30543 0.96583 7.17447
N 8.79446 2.78301 0.54081
C 8.76037 3.67120 1.55632
C 8.62301 4.99466 0.92883
C 8.41312 4.80176 -0.53180
C 8.27241 3.36061 -0.58983
C 8.77428 6.27747 1.69365
C 8.33718 5.75745 -1.68380
O 7.91073 5.39107 -2.83564
C 8.68827 7.15646 -1.39924
N 7.83144 0.36405 -1.01753
C 7.46450 1.33129 -1.87645
C 6.91695 0.74553 -3.15608
C 7.21812 -0.82295 -3.07397
C 7.83484 -0.88851 -1.65949
C 5.42447 0.96468 -3.40281
C 8.00842 -1.45059 -4.25471
C 9.42457 -0.92168 -4.26694
N 9.12669 -1.32204 0.98666
C 8.67866 -2.34838 0.12643
C 8.92423 -3.63197 0.81530
C 9.48135 -3.25931 2.04787
C 9.55766 -1.84266 2.13020
C 8.59425 -4.92220 0.31278
C 10.01244 -3.74186 3.30238
O 10.27787 -4.85093 3.76415
C 10.16074 -2.50987 4.29565
C 11.52612 -2.58058 4.92277
O 12.54836 -2.43630 4.22937
O 11.39602 -2.58906 6.26194
C 12.72395 -2.64736 6.92905
H 8.46213 4.18215 3.58810
H 7.36408 3.18803 -2.47964
H 7.93761 -3.00681 -1.62538
H 9.69842 0.06819 6.02144
H 9.57932 2.83348 5.49602
H 7.47351 0.72761 5.76250
H 7.03388 2.09184 4.71373
H 7.45517 2.42765 6.36581
H 11.71261 1.99078 4.83297
H 12.14958 0.24556 4.92491
H 11.21993 1.05881 7.49043
H 12.01797 2.44903 6.84598
H 8.75908 6.10420 2.77677
H 7.87498 6.87249 1.50112
H 9.65058 6.85129 1.38461
H 8.03414 7.54177 -0.62070
H 8.66037 7.66679 -2.36395
H 9.70728 7.18670 -0.99759
H 7.42678 1.15657 -4.01876
H 6.29146 -1.41458 -3.04049
H 5.21083 1.47568 -4.36057
H 5.02044 1.52858 -2.57256
H 4.81627 0.06189 -3.38666
H 7.56010 -1.15937 -5.20779
H 8.03454 -2.53487 -4.22907
H 9.32681 0.03329 -4.79189
H 10.08284 -1.60167 -4.80390
H 9.77250 -0.70486 -3.25028
H 9.44024 -5.56341 0.52171
H 8.37260 -4.88947 -0.75191
H 7.70579 -5.14292 0.91043
H 9.36499 -2.58936 5.03729
H 12.70913 -3.51574 7.59491
H 12.86658 -1.65555 7.39780
H 13.58600 -2.86944 6.31100
