158

Mg 0.00000 0.00000 0.00000
C -0.21700 -2.21800 2.80100
C -1.25500 2.44200 2.02600
C -0.24500 1.85000 -2.56400
C 0.14600 -2.82400 -2.03700
N -0.61700 -0.00900 2.12600
C -0.59400 -0.90800 3.10500
C -0.93600 -0.30900 4.50200
C -1.77300 0.96400 4.03200
C -1.15500 1.16800 2.66000
C -3.26300 0.68500 3.86300
C 0.34500 0.11000 5.29900
C 0.12400 0.39700 6.78700
H 1.16800 0.03300 7.73300
N -0.18500 1.96100 -0.15200
C -0.70300 2.80000 0.77700
C -0.62000 4.15600 0.19300
C -0.18700 4.01500 -1.22500
C -0.21400 2.58300 -1.38000
C -0.88700 5.40600 0.97400
C 0.18100 5.01300 -2.27700
O 0.30300 4.69000 -3.50800
C 0.31000 6.41400 -1.83700
N -0.26500 -0.41300 -2.02900
C -0.27900 0.56900 -2.93700
C -0.19600 0.02400 -4.33200
C 0.12400 -1.53300 -4.18000
C 0.08600 -1.63200 -2.63500
C -1.45100 0.20500 -5.19700
C 1.37300 -2.07000 -4.92300
C 2.62600 -1.49000 -4.30600
N 0.15000 -2.14400 0.30300
C 0.17300 -3.13600 -0.68800
C 0.17300 -4.43800 0.00400
C 0.13300 -4.11100 1.35800
C 0.08300 -2.69500 1.50200
C 0.14900 -5.71500 -0.62300
C 0.09600 -4.62900 2.71600
O 0.20800 -5.74700 3.22100
C -0.25500 -3.42800 3.70100
C 0.71700 -3.48200 4.84800
O 1.93100 -3.25500 4.66900
O 0.03800 -3.55600 6.00300
C 0.94300 -3.58300 7.18300
H -1.85900 3.22000 2.49700
H -0.21800 2.45300 -3.47400
H 0.27600 -3.74700 -2.60500
H -1.55400 -0.94900 5.13200
H -1.58500 1.83100 4.66500
H -3.48400 -0.37700 3.96900
H -3.51100 1.02700 2.85800
H -3.85200 1.30100 4.54300
H 0.66900 1.09600 4.96600
H 1.13000 -0.63900 5.18900
H -0.84400 0.02600 7.12500
H 0.06200 1.47700 6.92100
H -1.34400 5.18600 1.93800
H -1.65100 5.96300 0.43200
H 0.00700 6.02000 1.08400
H -0.63500 6.74400 -1.40500
H 0.66500 6.97000 -2.70400
H 1.04800 6.46600 -1.03600
H 0.60800 0.50100 -4.89100
H -0.69200 -2.15600 -4.54700
H -1.26700 0.74000 -6.12900
H -2.20400 0.71400 -4.59600
H -1.96700 -0.72000 -5.45300
H 1.35600 -1.75900 -5.96700
H 1.45200 -3.15700 -4.90200
H 2.71400 -0.52200 -4.79800
H 3.48700 -2.12100 -4.52900
H 2.49500 -1.30300 -3.24000
H 0.86700 -6.33300 -0.08400
H 0.40400 -5.64200 -1.68000
H -0.89100 -5.99900 -0.46300
H -1.28300 -3.58100 4.02800
H 0.69800 -4.47800 7.75500
H 0.83300 -2.61900 7.68000
H 2.00000 -3.75400 6.97600
Mg 8.92573 0.80334 0.68493
C 9.55775 3.38229 3.09919
C 8.96252 -1.41997 3.27147
C 8.81928 -1.53660 -1.45535
C 10.05980 3.00954 -1.76297
N 9.22998 1.06836 2.85966
C 9.40030 2.10213 3.67001
C 9.32174 1.75480 5.18089
C 9.70940 0.19904 5.09046
C 9.24211 -0.08683 3.66477
C 11.20623 -0.05336 5.16214
C 7.87951 1.95434 5.76586
C 7.79651 1.93225 7.29373
H 6.83107 2.80877 7.95108
N 8.41390 -1.10304 0.89071
C 8.47033 -1.84367 2.01746
C 8.00508 -3.18713 1.63955
C 7.82596 -3.22329 0.16261
C 8.37808 -1.93385 -0.20152
C 7.69919 -4.25596 2.64824
C 7.26400 -4.25383 -0.76926
O 7.42472 -4.17318 -2.03831
C 6.60072 -5.40870 -0.14650
N 9.57043 0.66561 -1.28680
C 9.35440 -0.44807 -2.00859
C 9.65455 -0.21741 -3.47047
C 9.88663 1.35801 -3.61804
C 9.76301 1.77200 -2.13523
C 10.86658 -0.96442 -4.02666
C 9.01708 2.10216 -4.66818
C 7.56895 2.09963 -4.23425
N 9.50197 2.88440 0.61311
C 9.97002 3.60161 -0.50967
C 10.34306 4.95149 -0.03945
C 10.08575 4.91828 1.33939
C 9.60660 3.63170 1.70630
C 10.88997 5.99088 -0.84360
C 10.12058 5.67573 2.56973
O 10.35555 6.84751 2.86209
C 9.89995 4.67565 3.78528
C 8.86906 5.27735 4.70057
O 7.69579 5.42995 4.31749
O 9.38217 5.37131 5.94084
C 8.39312 5.95235 6.88741
H 9.17960 -2.22466 3.97448
H 8.69937 -2.27365 -2.25275
H 10.32920 3.78655 -2.48155
H 10.03452 2.27991 5.80537
H 9.14074 -0.39183 5.80380
H 11.77130 0.86669 5.14320
H 11.44375 -0.66108 4.29883
H 11.44376 -0.66600 6.03654
H 7.27274 1.07012 5.53193
H 7.43889 2.85850 5.39308
H 8.78381 2.02856 7.76160
H 7.44605 0.94613 7.60799
H 8.08367 -3.99351 3.64156
H 8.27475 -5.14214 2.35963
H 6.63914 -4.51699 2.67704
H 7.30328 -5.91896 0.50809
H 6.18667 -5.98886 -0.97346
H 5.78644 -5.04355 0.48929
H 8.81390 -0.50818 -4.08842
H 10.91694 1.59113 -3.92455
H 10.62258 -1.60905 -4.89210
H 11.30309 -1.54929 -3.22795
H 11.69879 -0.33217 -4.33144
H 9.05433 1.58142 -5.62818
H 9.33327 3.12493 -4.84412
H 7.21085 1.12363 -4.57525
H 7.02379 2.90983 -4.71428
H 7.48554 2.11793 -3.14138
H 10.38166 6.90322 -0.56119
H 10.76845 5.77901 -1.90385
H 11.93744 5.94666 -0.53359
H 10.86241 4.54605 4.28171
H 8.86795 6.82231 7.35151
H 8.09742 5.12289 7.55696
H 7.49929 6.39835 6.46716
