79

Mg 31.54023 2.83213 2.39832
C 31.74347 0.69630 -0.47847
C 30.76872 0.05399 4.22077
C 30.91292 4.73947 4.85515
C 31.19570 5.51945 0.20622
N 31.31573 0.70597 1.83150
C 31.47738 0.00295 0.72065
C 31.42600 -1.53561 0.91998
C 30.56170 -1.57409 2.27289
C 30.92671 -0.20179 2.83523
C 29.06220 -1.60662 2.02836
C 32.85048 -2.15896 1.13046
C 32.90723 -3.68439 1.02284
H 34.09600 -4.29703 0.43634
N 31.41297 2.42903 4.33737
C 31.11155 1.24167 4.90358
C 31.12599 1.47345 6.35624
C 31.29842 2.93190 6.59685
C 31.19160 3.43691 5.24273
C 31.06392 0.35797 7.35888
C 31.51000 3.73983 7.84132
O 31.39586 5.01647 7.84283
C 31.76271 2.98543 9.07765
N 30.90451 4.80763 2.52328
C 30.75973 5.41322 3.71501
C 30.56338 6.90141 3.55036
C 30.84916 7.20424 2.00628
C 31.08439 5.76245 1.50496
C 29.18147 7.43569 3.92621
C 31.92128 8.28192 1.68714
C 33.28815 7.78981 2.10532
N 31.66107 3.12089 0.26055
C 31.45810 4.32393 -0.45049
C 31.53217 3.99707 -1.88928
C 31.75193 2.61162 -1.91599
C 31.79053 2.10716 -0.58801
C 31.35451 4.91636 -2.96141
C 31.94943 1.45949 -2.76586
O 32.09902 1.28728 -3.97487
C 31.82659 0.14817 -1.87607
C 32.98690 -0.74932 -2.20881
O 34.15095 -0.40283 -1.94136
O 32.51885 -1.95309 -2.58598
C 33.63261 -2.88187 -2.91569
H 30.29871 -0.71111 4.83931
H 30.79835 5.45927 5.66893
H 31.19613 6.31768 -0.53910
H 30.91276 -2.07843 0.13531
H 30.90440 -2.36226 2.93825
H 28.82153 -1.47880 0.98343
H 28.65106 -0.79438 2.61341
H 28.63262 -2.52352 2.44198
H 33.14458 -2.03362 2.18048
H 33.56090 -1.72242 0.45566
H 31.99820 -4.09985 0.57117
H 32.92058 -4.10321 2.03201
H 30.77404 -0.58982 6.88872
H 30.23784 0.58667 8.04091
H 31.98433 0.26101 7.93862
H 30.92748 2.31604 9.26935
H 31.97730 3.73698 9.83988
H 32.64483 2.35302 8.92748
H 31.27269 7.45419 4.15402
H 29.95068 7.57364 1.49042
H 29.21469 8.22660 4.69915
H 28.57301 6.60494 4.25814
H 28.59838 7.83223 3.09678
H 31.72863 9.19010 2.26356
H 31.95078 8.56511 0.64028
H 33.31832 8.02347 3.17377
H 34.06856 8.31995 1.56316
H 33.36242 6.70085 2.00382
H 32.12532 4.69905 -3.68883
H 31.41210 5.94636 -2.61565
H 30.34502 4.64739 -3.28370
H 30.86851 -0.31772 -2.10974
H 33.45672 -3.24300 -3.93369
H 33.64078 -3.63731 -2.10761
H 34.62620 -2.45953 -3.00983
