79

Mg 10.51718 0.95118 0.80538
C 10.29634 -1.27154 3.61426
C 9.26049 3.39275 2.82876
C 10.27533 2.81002 -1.75463
C 10.65714 -1.86847 -1.23807
N 9.89793 0.93988 2.92874
C 9.91692 0.05370 3.91295
C 9.58327 0.63857 5.31158
C 8.73861 1.92068 4.84082
C 9.35631 2.12649 3.45924
C 7.25695 1.63327 4.66357
C 10.86947 1.05826 6.10629
C 10.64183 1.34762 7.59162
H 11.69144 0.98549 8.54012
N 10.33438 2.92212 0.66203
C 9.82325 3.76135 1.58708
C 9.89302 5.10544 0.99318
C 10.33462 4.97079 -0.42159
C 10.31136 3.52932 -0.56894
C 9.63420 6.35724 1.78022
C 10.70298 5.97395 -1.47239
O 10.82723 5.64361 -2.70457
C 10.82239 7.37139 -1.03149
N 10.25937 0.54017 -1.21624
C 10.23962 1.53011 -2.12594
C 10.32081 0.98180 -3.53063
C 10.64426 -0.57570 -3.36584
C 10.60407 -0.68091 -1.82548
C 9.06506 1.15290 -4.38515
C 11.89457 -1.11756 -4.11135
C 13.15027 -0.53322 -3.50542
N 10.67077 -1.18263 1.10757
C 10.68789 -2.18580 0.11387
C 10.68762 -3.48860 0.81039
C 10.64679 -3.15050 2.17146
C 10.60288 -1.73713 2.31272
C 10.67392 -4.76675 0.18408
C 10.62012 -3.66808 3.52057
O 10.72470 -4.78561 4.02448
C 10.26434 -2.47747 4.51166
C 11.23545 -2.52264 5.65945
O 12.44582 -2.30691 5.47217
O 10.54933 -2.59691 6.81448
C 11.46893 -2.63298 7.98275
H 8.66234 4.16757 3.30913
H 10.30313 3.40687 -2.66922
H 10.79888 -2.79288 -1.80203
H 8.97157 -0.00048 5.93705
H 8.93522 2.77893 5.47809
H 7.03501 0.58178 4.76965
H 7.00843 1.97373 3.66689
H 6.66863 2.25070 5.34840
H 11.19083 2.05189 5.76840
H 11.64253 0.32288 5.99574
H 9.66769 0.98178 7.93826
H 10.58619 2.43014 7.72972
H 9.16975 6.13462 2.74879
H 8.87073 6.92446 1.23686
H 10.52576 6.97857 1.88856
H 9.87935 7.69494 -0.59738
H 11.17906 7.92340 -1.90324
H 11.57080 7.42354 -0.23288
H 11.12545 1.45128 -4.08312
H 9.82526 -1.20430 -3.74523
H 9.25090 1.69795 -5.32985
H 8.31621 1.66224 -3.79326
H 8.55828 0.22703 -4.65187
H 11.87846 -0.80135 -5.15725
H 11.96688 -2.20001 -4.10325
H 13.23250 0.43995 -3.99864
H 14.01060 -1.16171 -3.72649
H 13.02073 -0.34914 -2.43258
H 11.38479 -5.38292 0.71840
H 10.92425 -4.69457 -0.87228
H 9.62932 -5.04917 0.34002
H 9.23456 -2.62179 4.84075
H 11.22034 -3.53055 8.55743
H 11.34411 -1.65858 8.49139
H 12.52268 -2.79268 7.78639
