158

Mg 0.00000 0.00000 0.00000
C -0.21700 -2.21800 2.80100
C -1.25500 2.44200 2.02600
C -0.24500 1.85000 -2.56400
C 0.14600 -2.82400 -2.03700
N -0.61700 -0.00900 2.12600
C -0.59400 -0.90800 3.10500
C -0.93600 -0.30900 4.50200
C -1.77300 0.96400 4.03200
C -1.15500 1.16800 2.66000
C -3.26300 0.68500 3.86300
C 0.34500 0.11000 5.29900
C 0.12400 0.39700 6.78700
H 1.16800 0.03300 7.73300
N -0.18500 1.96100 -0.15200
C -0.70300 2.80000 0.77700
C -0.62000 4.15600 0.19300
C -0.18700 4.01500 -1.22500
C -0.21400 2.58300 -1.38000
C -0.88700 5.40600 0.97400
C 0.18100 5.01300 -2.27700
O 0.30300 4.69000 -3.50800
C 0.31000 6.41400 -1.83700
N -0.26500 -0.41300 -2.02900
C -0.27900 0.56900 -2.93700
C -0.19600 0.02400 -4.33200
C 0.12400 -1.53300 -4.18000
C 0.08600 -1.63200 -2.63500
C -1.45100 0.20500 -5.19700
C 1.37300 -2.07000 -4.92300
C 2.62600 -1.49000 -4.30600
N 0.15000 -2.14400 0.30300
C 0.17300 -3.13600 -0.68800
C 0.17300 -4.43800 0.00400
C 0.13300 -4.11100 1.35800
C 0.08300 -2.69500 1.50200
C 0.14900 -5.71500 -0.62300
C 0.09600 -4.62900 2.71600
O 0.20800 -5.74700 3.22100
C -0.25500 -3.42800 3.70100
C 0.71700 -3.48200 4.84800
O 1.93100 -3.25500 4.66900
O 0.03800 -3.55600 6.00300
C 0.94300 -3.58300 7.18300
H -1.85900 3.22000 2.49700
H -0.21800 2.45300 -3.47400
H 0.27600 -3.74700 -2.60500
H -1.55400 -0.94900 5.13200
H -1.58500 1.83100 4.66500
H -3.48400 -0.37700 3.96900
H -3.51100 1.02700 2.85800
H -3.85200 1.30100 4.54300
H 0.66900 1.09600 4.96600
H 1.13000 -0.63900 5.18900
H -0.84400 0.02600 7.12500
H 0.06200 1.47700 6.92100
H -1.34400 5.18600 1.93800
H -1.65100 5.96300 0.43200
H 0.00700 6.02000 1.08400
H -0.63500 6.74400 -1.40500
H 0.66500 6.97000 -2.70400
H 1.04800 6.46600 -1.03600
H 0.60800 0.50100 -4.89100
H -0.69200 -2.15600 -4.54700
H -1.26700 0.74000 -6.12900
H -2.20400 0.71400 -4.59600
H -1.96700 -0.72000 -5.45300
H 1.35600 -1.75900 -5.96700
H 1.45200 -3.15700 -4.90200
H 2.71400 -0.52200 -4.79800
H 3.48700 -2.12100 -4.52900
H 2.49500 -1.30300 -3.24000
H 0.86700 -6.33300 -0.08400
H 0.40400 -5.64200 -1.68000
H -0.89100 -5.99900 -0.46300
H -1.28300 -3.58100 4.02800
H 0.69800 -4.47800 7.75500
H 0.83300 -2.61900 7.68000
H 2.00000 -3.75400 6.97600
Mg 13.14486 1.18982 1.00293
C 12.76952 0.16798 4.42258
C 11.91702 4.23297 1.93367
C 13.03853 1.97565 -2.06930
C 13.24463 -2.18774 0.14983
N 12.46667 1.97753 2.95532
C 12.42773 1.51767 4.19684
C 12.07556 2.58514 5.26737
C 11.28895 3.62046 4.32492
C 11.95162 3.28763 2.98972
C 9.80379 3.32008 4.20905
C 13.35279 3.24084 5.90041
C 13.09394 4.06354 7.16450
H 14.10364 4.05495 8.21945
N 13.03404 2.97169 0.13620
C 12.52650 4.10426 0.66627
C 12.65899 5.13182 -0.37811
C 13.13494 4.47428 -1.62543
C 13.06623 3.08128 -1.23182
C 12.42155 6.59117 -0.11856
C 13.56673 5.00980 -2.95696
O 13.71383 4.24483 -3.97481
C 13.72181 6.46830 -3.05799
N 12.92950 0.06643 -0.73314
C 12.96917 0.65023 -1.94373
C 13.07056 -0.38004 -3.04311
C 13.33552 -1.77297 -2.30344
C 13.24883 -1.30052 -0.83556
C 11.84573 -0.50970 -3.94831
C 14.58674 -2.57897 -2.74785
C 15.84442 -1.83942 -2.35201
N 13.21648 -0.68400 2.07611
C 13.22676 -1.98352 1.52364
C 13.16227 -2.93631 2.65079
C 13.09519 -2.11831 3.78871
C 13.09600 -0.75221 3.39721
C 13.12207 -4.35482 2.53972
C 13.01315 -2.09991 5.23149
O 13.06514 -2.95405 6.11550
C 12.67106 -0.61989 5.69937
C 13.60768 -0.25869 6.81954
O 14.82951 -0.15374 6.61279
O 12.88750 0.11409 7.89320
C 13.77240 0.49243 9.02705
H 11.33272 5.14324 2.07111
H 13.11231 2.19146 -3.13769
H 13.37015 -3.25798 -0.02773
H 11.42505 2.23593 6.06025
H 11.49713 4.64899 4.60801
H 9.54294 2.38733 4.68662
H 9.59500 3.27337 3.14827
H 9.21821 4.15950 4.59480
H 13.71743 4.03201 5.23271
H 14.10288 2.50010 6.09866
H 12.09852 3.87293 7.58371
H 13.07175 5.12138 6.89157
H 11.92291 6.75241 0.84516
H 11.69348 6.93381 -0.86178
H 13.33060 7.18906 -0.21257
H 12.77873 6.94975 -2.81047
H 14.12141 6.65116 -4.05737
H 14.44903 6.79569 -2.30660
H 13.90595 -0.16556 -3.69826
H 12.50627 -2.47937 -2.45570
H 12.07646 -0.35656 -5.01947
H 11.09865 0.19844 -3.61524
H 11.31503 -1.45737 -3.87429
H 14.61066 -2.67143 -3.83644
H 14.62151 -3.58307 -2.33851
H 15.97379 -1.11948 -3.16567
H 16.68845 -2.52361 -2.29245
H 15.69145 -1.26910 -1.42844
H 13.79616 -4.74514 3.29056
H 13.40407 -4.68362 1.54165
H 12.06443 -4.53689 2.74834
H 11.62816 -0.61000 6.01848
H 13.47717 -0.12357 9.88208
H 13.66705 1.58829 9.13546
H 14.82510 0.24866 8.94422
