158

Mg 0.00000 0.00000 0.00000
C -0.21700 -2.21800 2.80100
C -1.25500 2.44200 2.02600
C -0.24500 1.85000 -2.56400
C 0.14600 -2.82400 -2.03700
N -0.61700 -0.00900 2.12600
C -0.59400 -0.90800 3.10500
C -0.93600 -0.30900 4.50200
C -1.77300 0.96400 4.03200
C -1.15500 1.16800 2.66000
C -3.26300 0.68500 3.86300
C 0.34500 0.11000 5.29900
C 0.12400 0.39700 6.78700
H 1.16800 0.03300 7.73300
N -0.18500 1.96100 -0.15200
C -0.70300 2.80000 0.77700
C -0.62000 4.15600 0.19300
C -0.18700 4.01500 -1.22500
C -0.21400 2.58300 -1.38000
C -0.88700 5.40600 0.97400
C 0.18100 5.01300 -2.27700
O 0.30300 4.69000 -3.50800
C 0.31000 6.41400 -1.83700
N -0.26500 -0.41300 -2.02900
C -0.27900 0.56900 -2.93700
C -0.19600 0.02400 -4.33200
C 0.12400 -1.53300 -4.18000
C 0.08600 -1.63200 -2.63500
C -1.45100 0.20500 -5.19700
C 1.37300 -2.07000 -4.92300
C 2.62600 -1.49000 -4.30600
N 0.15000 -2.14400 0.30300
C 0.17300 -3.13600 -0.68800
C 0.17300 -4.43800 0.00400
C 0.13300 -4.11100 1.35800
C 0.08300 -2.69500 1.50200
C 0.14900 -5.71500 -0.62300
C 0.09600 -4.62900 2.71600
O 0.20800 -5.74700 3.22100
C -0.25500 -3.42800 3.70100
C 0.71700 -3.48200 4.84800
O 1.93100 -3.25500 4.66900
O 0.03800 -3.55600 6.00300
C 0.94300 -3.58300 7.18300
H -1.85900 3.22000 2.49700
H -0.21800 2.45300 -3.47400
H 0.27600 -3.74700 -2.60500
H -1.55400 -0.94900 5.13200
H -1.58500 1.83100 4.66500
H -3.48400 -0.37700 3.96900
H -3.51100 1.02700 2.85800
H -3.85200 1.30100 4.54300
H 0.66900 1.09600 4.96600
H 1.13000 -0.63900 5.18900
H -0.84400 0.02600 7.12500
H 0.06200 1.47700 6.92100
H -1.34400 5.18600 1.93800
H -1.65100 5.96300 0.43200
H 0.00700 6.02000 1.08400
H -0.63500 6.74400 -1.40500
H 0.66500 6.97000 -2.70400
H 1.04800 6.46600 -1.03600
H 0.60800 0.50100 -4.89100
H -0.69200 -2.15600 -4.54700
H -1.26700 0.74000 -6.12900
H -2.20400 0.71400 -4.59600
H -1.96700 -0.72000 -5.45300
H 1.35600 -1.75900 -5.96700
H 1.45200 -3.15700 -4.90200
H 2.71400 -0.52200 -4.79800
H 3.48700 -2.12100 -4.52900
H 2.49500 -1.30300 -3.24000
H 0.86700 -6.33300 -0.08400
H 0.40400 -5.64200 -1.68000
H -0.89100 -5.99900 -0.46300
H -1.28300 -3.58100 4.02800
H 0.69800 -4.47800 7.75500
H 0.83300 -2.61900 7.68000
H 2.00000 -3.75400 6.97600
Mg 8.93774 0.79806 0.68646
C 6.24515 1.07007 3.04338
C 10.98340 2.06554 3.10377
C 11.23144 0.99429 -1.49708
C 6.53361 0.64934 -1.83221
N 8.54753 1.44523 2.76520
C 7.49765 1.44487 3.57273
C 7.82247 1.79312 5.05015
C 9.17592 2.62327 4.80956
C 9.62312 1.98615 3.49549
C 8.93825 4.10429 4.56574
C 8.08012 0.51482 5.92283
C 8.09771 0.76010 7.43322
H 7.56071 -0.27460 8.31270
N 10.90357 0.96630 0.90042
C 11.56584 1.48415 1.95613
C 12.99459 1.39795 1.61643
C 13.11451 0.93866 0.20597
C 11.72381 0.96924 -0.20036
C 14.08539 1.65906 2.61413
C 14.28812 0.55009 -0.64129
O 14.18529 0.41177 -1.91138
C 15.58153 0.42752 0.04686
N 8.90185 1.03190 -1.37906
C 10.04028 1.03333 -2.09452
C 9.75470 0.93720 -3.57425
C 8.19036 0.62595 -3.69056
C 7.80832 0.68706 -2.19534
C 10.08862 2.18048 -4.39835
C 7.78160 -0.63055 -4.50714
C 8.23562 -1.88190 -3.79064
N 6.78323 0.66215 0.59886
C 5.97647 0.63841 -0.55987
C 4.56914 0.65620 -0.11096
C 4.65553 0.71275 1.28827
C 6.02029 0.74944 1.68272
C 3.42569 0.66987 -0.95858
C 3.90247 0.76048 2.52087
O 2.71130 0.66971 2.81518
C 4.89698 1.12161 3.70701
C 4.63628 0.16599 4.83897
O 4.87183 -1.04810 4.70813
O 4.36006 0.86770 5.95327
C 4.10505 -0.03621 7.10642
H 11.66360 2.66497 3.70949
H 11.98377 0.95064 -2.28801
H 5.72540 0.50614 -2.55261
H 7.08607 2.41708 5.54225
H 9.90285 2.42955 5.59404
H 7.88691 4.33435 4.47695
H 9.45571 4.33749 3.64438
H 9.42656 4.69759 5.34413
H 9.11568 0.18267 5.77435
H 7.37022 -0.25489 5.68998
H 7.68363 1.74104 7.69635
H 9.13777 0.81060 7.76449
H 13.69511 2.13762 3.52080
H 14.74823 2.41166 2.17358
H 14.66905 0.76503 2.84373
H 15.82931 1.37409 0.52128
H 16.27915 0.05588 -0.70620
H 15.48170 -0.31065 0.85046
H 10.30945 0.12237 -4.02303
H 7.64799 1.44391 -4.18717
H 10.79408 1.97874 -5.22642
H 10.48885 2.93376 -3.73283
H 9.23079 2.68964 -4.83434
H 8.28210 -0.63023 -5.47856
H 6.71499 -0.69580 -4.69443
H 9.28126 -1.97685 -4.09838
H 7.65010 -2.74101 -4.11177
H 8.22351 -1.73945 -2.70380
H 2.71680 -0.02994 -0.53641
H 3.68578 0.40521 -1.98136
H 3.12880 1.71822 -0.86869
H 4.70442 2.15653 3.99236
H 3.12045 0.22567 7.50601
H 4.97229 0.08903 7.78167
H 3.97439 -1.09141 6.89679
