158

Mg 0.00000 0.00000 0.00000
C -0.21700 -2.21800 2.80100
C -1.25500 2.44200 2.02600
C -0.24500 1.85000 -2.56400
C 0.14600 -2.82400 -2.03700
N -0.61700 -0.00900 2.12600
C -0.59400 -0.90800 3.10500
C -0.93600 -0.30900 4.50200
C -1.77300 0.96400 4.03200
C -1.15500 1.16800 2.66000
C -3.26300 0.68500 3.86300
C 0.34500 0.11000 5.29900
C 0.12400 0.39700 6.78700
H 1.16800 0.03300 7.73300
N -0.18500 1.96100 -0.15200
C -0.70300 2.80000 0.77700
C -0.62000 4.15600 0.19300
C -0.18700 4.01500 -1.22500
C -0.21400 2.58300 -1.38000
C -0.88700 5.40600 0.97400
C 0.18100 5.01300 -2.27700
O 0.30300 4.69000 -3.50800
C 0.31000 6.41400 -1.83700
N -0.26500 -0.41300 -2.02900
C -0.27900 0.56900 -2.93700
C -0.19600 0.02400 -4.33200
C 0.12400 -1.53300 -4.18000
C 0.08600 -1.63200 -2.63500
C -1.45100 0.20500 -5.19700
C 1.37300 -2.07000 -4.92300
C 2.62600 -1.49000 -4.30600
N 0.15000 -2.14400 0.30300
C 0.17300 -3.13600 -0.68800
C 0.17300 -4.43800 0.00400
C 0.13300 -4.11100 1.35800
C 0.08300 -2.69500 1.50200
C 0.14900 -5.71500 -0.62300
C 0.09600 -4.62900 2.71600
O 0.20800 -5.74700 3.22100
C -0.25500 -3.42800 3.70100
C 0.71700 -3.48200 4.84800
O 1.93100 -3.25500 4.66900
O 0.03800 -3.55600 6.00300
C 0.94300 -3.58300 7.18300
H -1.85900 3.22000 2.49700
H -0.21800 2.45300 -3.47400
H 0.27600 -3.74700 -2.60500
H -1.55400 -0.94900 5.13200
H -1.58500 1.83100 4.66500
H -3.48400 -0.37700 3.96900
H -3.51100 1.02700 2.85800
H -3.85200 1.30100 4.54300
H 0.66900 1.09600 4.96600
H 1.13000 -0.63900 5.18900
H -0.84400 0.02600 7.12500
H 0.06200 1.47700 6.92100
H -1.34400 5.18600 1.93800
H -1.65100 5.96300 0.43200
H 0.00700 6.02000 1.08400
H -0.63500 6.74400 -1.40500
H 0.66500 6.97000 -2.70400
H 1.04800 6.46600 -1.03600
H 0.60800 0.50100 -4.89100
H -0.69200 -2.15600 -4.54700
H -1.26700 0.74000 -6.12900
H -2.20400 0.71400 -4.59600
H -1.96700 -0.72000 -5.45300
H 1.35600 -1.75900 -5.96700
H 1.45200 -3.15700 -4.90200
H 2.71400 -0.52200 -4.79800
H 3.48700 -2.12100 -4.52900
H 2.49500 -1.30300 -3.24000
H 0.86700 -6.33300 -0.08400
H 0.40400 -5.64200 -1.68000
H -0.89100 -5.99900 -0.46300
H -1.28300 -3.58100 4.02800
H 0.69800 -4.47800 7.75500
H 0.83300 -2.61900 7.68000
H 2.00000 -3.75400 6.97600
Mg 7.88314 0.70970 0.59883
C 8.06339 -0.83862 -2.62335
C 7.18251 -2.37536 1.87734
C 7.27233 2.11814 3.37369
C 7.47145 3.75250 -1.04967
N 7.67812 -1.27832 -0.35321
C 7.83051 -1.74660 -1.58798
C 7.79465 -3.30215 -1.66761
C 6.96288 -3.60301 -0.34110
C 7.32268 -2.36273 0.45775
C 5.45358 -3.62538 -0.56028
C 9.22582 -3.93397 -1.60208
C 9.30679 -5.41097 -1.99865
H 10.48622 -5.88167 -2.70909
N 7.79207 -0.04093 2.42397
C 7.51011 -1.32286 2.75926
C 7.56372 -1.37913 4.23596
C 7.71259 0.01463 4.73932
C 7.57012 0.76513 3.51791
C 7.52485 -2.65943 5.01255
C 7.93573 0.58090 6.10595
O 7.80393 1.82790 6.35534
C 8.22998 -0.38705 7.17811
N 7.21626 2.62216 1.10420
C 7.09110 2.99382 2.38294
C 6.87673 4.47354 2.50301
C 7.12462 5.07586 1.04510
C 7.37230 3.75148 0.28159
C 5.49462 4.91078 3.00760
C 8.17647 6.20662 0.92094
C 9.55606 5.65810 1.20897
N 7.95724 1.39973 -1.45772
C 7.73303 2.70548 -1.91754
C 7.78439 2.65959 -3.39040
C 8.01998 1.31867 -3.68750
C 8.08393 0.56969 -2.47785
C 7.56537 3.75905 -4.26656
C 8.20802 0.34029 -4.74640
O 8.34511 0.40133 -5.96909
C 8.12225 -1.11480 -4.10517
C 9.28776 -1.91058 -4.62637
O 10.45782 -1.61350 -4.31005
O 8.83518 -3.02805 -5.21541
C 9.94286 -3.87768 -5.72858
H 6.72631 -3.24467 2.35496
H 7.16400 2.66350 4.31352
H 7.43596 4.67707 -1.62877
H 7.26870 -3.70082 -2.53529
H 7.31892 -4.49830 0.16822
H 5.19252 -3.30260 -1.56804
H 5.04197 -2.93736 0.17844
H 5.04162 -4.60562 -0.31905
H 9.54050 -4.00392 -0.56086
H 9.92918 -3.35948 -2.20588
H 8.39907 -5.73754 -2.50690
H 9.33673 -6.00817 -1.08725
H 7.24507 -3.50218 4.38165
H 6.70766 -2.57294 5.72839
H 8.45912 -2.84674 5.54205
H 7.40502 -1.09504 7.26015
H 8.44842 0.20503 8.06613
H 9.10738 -0.96998 6.89650
H 7.58850 4.91664 3.19833
H 6.21787 5.50853 0.62170
H 5.53192 5.53567 3.90025
H 4.90053 4.01423 3.18239
H 4.88453 5.43513 2.27257
H 7.98207 6.98761 1.65525
H 8.19196 6.67376 -0.06384
H 9.60836 5.68966 2.29667
H 10.31979 6.29589 0.76270
H 9.63972 4.61338 0.90889
H 8.33321 3.69257 -5.03726
H 7.62072 4.70768 -3.73304
H 6.55884 3.53741 -4.62099
H 7.16687 -1.53772 -4.41420
H 9.75615 -4.04196 -6.78989
H 9.98707 -4.75358 -5.08109
H 10.92962 -3.41455 -5.76250
