79

Mg 10.50782 0.95460 0.80426
C 12.69501 0.63795 3.63181
C 7.89715 0.65723 2.97924
C 8.56951 0.77829 -1.70159
C 13.21533 0.08761 -1.21154
N 10.43322 0.68742 2.99864
C 11.32697 0.64268 3.97514
C 10.72117 0.68164 5.40379
C 9.25966 0.11130 5.06089
C 9.16749 0.53902 3.59760
C 9.17583 -1.40483 5.12153
C 10.64810 2.13826 5.98253
C 10.35712 2.22039 7.48264
H 10.99000 3.28437 8.25717
N 8.54758 1.23603 0.67460
C 7.63803 1.09352 1.66135
C 6.33322 1.39487 1.05239
C 6.52784 1.56613 -0.41304
C 7.91607 1.17097 -0.54255
C 5.08017 1.57282 1.85962
C 5.61203 1.99991 -1.51727
O 5.92543 1.84799 -2.75078
C 4.29852 2.52188 -1.11264
N 10.78363 0.29505 -1.14799
C 9.79129 0.37579 -2.05168
C 10.30056 0.10300 -3.44690
C 11.89432 0.05998 -3.32175
C 12.03294 0.23431 -1.79342
C 9.80609 -1.19023 -4.09454
C 12.69906 1.01036 -4.25010
C 12.45325 2.44855 -3.85439
N 12.62378 0.63021 1.09676
C 13.57117 0.24920 0.12137
C 14.85576 0.04032 0.82038
C 14.55882 0.29395 2.16797
C 13.18148 0.61702 2.30227
C 16.07348 -0.38014 0.21500
C 15.09497 0.35148 3.50884
O 16.21935 0.25820 3.99955
C 13.88402 0.45330 4.53335
C 14.19649 1.54991 5.51432
O 14.27349 2.73242 5.13702
O 14.13776 1.05356 6.76354
C 14.42959 2.10623 7.77277
H 7.01574 0.34693 3.54113
H 7.96979 0.80834 -2.61423
H 14.12928 -0.08843 -1.78285
H 11.21233 0.03744 6.12320
H 8.49369 0.60663 5.65190
H 10.14546 -1.85632 5.27022
H 8.75571 -1.71436 4.17352
H 8.45559 -1.71230 5.88512
H 9.75161 2.63504 5.58977
H 11.54454 2.68287 5.75797
H 10.48749 1.25231 7.98141
H 9.29778 2.45139 7.61851
H 5.21320 1.22386 2.89109
H 4.32952 0.89537 1.43837
H 4.69572 2.59428 1.82095
H 3.77029 1.76454 -0.53829
H 3.82289 2.86260 -2.03436
H 4.45240 3.37483 -0.44226
H 10.02260 0.90208 -4.12315
H 12.29517 -0.93570 -3.56210
H 9.29383 -1.02608 -5.06135
H 9.14921 -1.69207 -3.39654
H 10.57399 -1.94168 -4.27023
H 12.35704 0.90988 -5.28309
H 13.76674 0.81797 -4.24421
H 11.51427 2.68732 -4.36272
H 13.26373 3.08559 -4.20273
H 12.27567 2.53522 -2.77615
H 16.85866 0.23365 0.63602
H 16.03211 -0.28635 -0.86818
H 16.10021 -1.42495 0.53583
H 13.78556 -0.51698 5.02164
H 15.25757 1.73911 8.38707
H 13.46958 2.30205 8.28635
H 14.83273 3.04617 7.41437
