158

Mg 0.00000 0.00000 0.00000
C -0.21700 -2.21800 2.80100
C -1.25500 2.44200 2.02600
C -0.24500 1.85000 -2.56400
C 0.14600 -2.82400 -2.03700
N -0.61700 -0.00900 2.12600
C -0.59400 -0.90800 3.10500
C -0.93600 -0.30900 4.50200
C -1.77300 0.96400 4.03200
C -1.15500 1.16800 2.66000
C -3.26300 0.68500 3.86300
C 0.34500 0.11000 5.29900
C 0.12400 0.39700 6.78700
H 1.16800 0.03300 7.73300
N -0.18500 1.96100 -0.15200
C -0.70300 2.80000 0.77700
C -0.62000 4.15600 0.19300
C -0.18700 4.01500 -1.22500
C -0.21400 2.58300 -1.38000
C -0.88700 5.40600 0.97400
C 0.18100 5.01300 -2.27700
O 0.30300 4.69000 -3.50800
C 0.31000 6.41400 -1.83700
N -0.26500 -0.41300 -2.02900
C -0.27900 0.56900 -2.93700
C -0.19600 0.02400 -4.33200
C 0.12400 -1.53300 -4.18000
C 0.08600 -1.63200 -2.63500
C -1.45100 0.20500 -5.19700
C 1.37300 -2.07000 -4.92300
C 2.62600 -1.49000 -4.30600
N 0.15000 -2.14400 0.30300
C 0.17300 -3.13600 -0.68800
C 0.17300 -4.43800 0.00400
C 0.13300 -4.11100 1.35800
C 0.08300 -2.69500 1.50200
C 0.14900 -5.71500 -0.62300
C 0.09600 -4.62900 2.71600
O 0.20800 -5.74700 3.22100
C -0.25500 -3.42800 3.70100
C 0.71700 -3.48200 4.84800
O 1.93100 -3.25500 4.66900
O 0.03800 -3.55600 6.00300
C 0.94300 -3.58300 7.18300
H -1.85900 3.22000 2.49700
H -0.21800 2.45300 -3.47400
H 0.27600 -3.74700 -2.60500
H -1.55400 -0.94900 5.13200
H -1.58500 1.83100 4.66500
H -3.48400 -0.37700 3.96900
H -3.51100 1.02700 2.85800
H -3.85200 1.30100 4.54300
H 0.66900 1.09600 4.96600
H 1.13000 -0.63900 5.18900
H -0.84400 0.02600 7.12500
H 0.06200 1.47700 6.92100
H -1.34400 5.18600 1.93800
H -1.65100 5.96300 0.43200
H 0.00700 6.02000 1.08400
H -0.63500 6.74400 -1.40500
H 0.66500 6.97000 -2.70400
H 1.04800 6.46600 -1.03600
H 0.60800 0.50100 -4.89100
H -0.69200 -2.15600 -4.54700
H -1.26700 0.74000 -6.12900
H -2.20400 0.71400 -4.59600
H -1.96700 -0.72000 -5.45300
H 1.35600 -1.75900 -5.96700
H 1.45200 -3.15700 -4.90200
H 2.71400 -0.52200 -4.79800
H 3.48700 -2.12100 -4.52900
H 2.49500 -1.30300 -3.24000
H 0.86700 -6.33300 -0.08400
H 0.40400 -5.64200 -1.68000
H -0.89100 -5.99900 -0.46300
H -1.28300 -3.58100 4.02800
H 0.69800 -4.47800 7.75500
H 0.83300 -2.61900 7.68000
H 2.00000 -3.75400 6.97600
Mg 15.77288 1.42017 1.20592
C 15.78103 -1.96981 2.38366
C 14.57563 2.32403 4.26929
C 15.32775 4.34481 0.05886
C 15.86472 0.14723 -2.03706
N 15.28317 0.23884 3.01061
C 15.38506 -1.03414 3.36201
C 15.12076 -1.30915 4.86670
C 14.21536 -0.02304 5.19080
C 14.74301 0.92459 4.11551
C 12.73392 -0.25153 4.94090
C 16.44083 -1.31082 5.71489
C 16.29543 -1.87544 7.12974
H 17.40956 -2.63120 7.69545
N 15.52924 3.14751 2.15222
C 15.05254 3.33083 3.40139
C 15.05051 4.78533 3.62181
C 15.40953 5.45424 2.34182
C 15.41592 4.31745 1.44306
C 14.80624 5.40406 4.96752
C 15.68702 6.88272 1.98315
O 15.74560 7.27149 0.76321
C 15.79543 7.83039 3.10193
N 15.40484 2.14303 -0.70833
C 15.30391 3.46347 -0.94113
C 15.31495 3.75867 -2.42205
C 15.68920 2.37589 -3.13300
C 15.74468 1.45963 -1.89091
C 14.00589 4.29181 -3.00388
C 16.90635 2.38747 -4.09792
C 18.18022 2.62401 -3.31902
N 16.00129 -0.53112 0.30682
C 15.98530 -0.84289 -1.07036
C 16.06176 -2.31378 -1.18467
C 16.09397 -2.76050 0.14495
C 16.02094 -1.64781 1.02590
C 16.04448 -3.05579 -2.39927
C 16.16243 -3.92097 1.00362
O 16.32697 -5.12680 0.82295
C 15.83534 -3.46846 2.49179
C 16.87468 -4.06828 3.39872
O 18.06539 -3.71973 3.31295
O 16.26161 -4.78744 4.35648
C 17.25054 -5.39338 5.28743
H 13.98703 2.68659 5.11248
H 15.28447 5.33928 -0.39128
H 15.99685 -0.32163 -3.01450
H 14.56512 -2.21630 5.07193
H 14.42702 0.36936 6.18206
H 12.54691 -1.20646 4.47263
H 12.41682 0.55575 4.29377
H 12.17164 -0.13059 5.87125
H 16.71462 -0.27496 5.95319
H 17.22518 -1.82872 5.19798
H 15.35405 -2.42288 7.26035
H 16.21934 -1.04045 7.83047
H 14.40708 4.67199 5.68037
H 13.99656 6.13122 4.84292
H 15.68581 5.91842 5.36055
H 14.87195 7.81861 3.67596
H 16.08408 8.78218 2.65176
H 16.58892 7.48746 3.77527
H 16.07204 4.49444 -2.66408
H 14.86590 2.00463 -3.76084
H 14.11988 5.26745 -3.51300
H 13.28073 4.36267 -2.20409
H 13.50886 3.62685 -3.70814
H 16.81884 3.21345 -4.80802
H 17.00788 1.47511 -4.67609
H 18.20659 3.71274 -3.21382
H 19.04214 2.26018 -3.87468
H 18.11067 2.19711 -2.31176
H 16.80243 -3.82223 -2.30669
H 16.22871 -2.41518 -3.25918
H 15.01908 -3.43463 -2.38181
H 14.83147 -3.82292 2.72882
H 17.06106 -6.47120 5.29757
H 17.13062 -4.85184 6.24456
H 18.29443 -5.36488 4.99774
