158

Mg 0.00000 0.00000 0.00000
C -0.21700 -2.21800 2.80100
C -1.25500 2.44200 2.02600
C -0.24500 1.85000 -2.56400
C 0.14600 -2.82400 -2.03700
N -0.61700 -0.00900 2.12600
C -0.59400 -0.90800 3.10500
C -0.93600 -0.30900 4.50200
C -1.77300 0.96400 4.03200
C -1.15500 1.16800 2.66000
C -3.26300 0.68500 3.86300
C 0.34500 0.11000 5.29900
C 0.12400 0.39700 6.78700
H 1.16800 0.03300 7.73300
N -0.18500 1.96100 -0.15200
C -0.70300 2.80000 0.77700
C -0.62000 4.15600 0.19300
C -0.18700 4.01500 -1.22500
C -0.21400 2.58300 -1.38000
C -0.88700 5.40600 0.97400
C 0.18100 5.01300 -2.27700
O 0.30300 4.69000 -3.50800
C 0.31000 6.41400 -1.83700
N -0.26500 -0.41300 -2.02900
C -0.27900 0.56900 -2.93700
C -0.19600 0.02400 -4.33200
C 0.12400 -1.53300 -4.18000
C 0.08600 -1.63200 -2.63500
C -1.45100 0.20500 -5.19700
C 1.37300 -2.07000 -4.92300
C 2.62600 -1.49000 -4.30600
N 0.15000 -2.14400 0.30300
C 0.17300 -3.13600 -0.68800
C 0.17300 -4.43800 0.00400
C 0.13300 -4.11100 1.35800
C 0.08300 -2.69500 1.50200
C 0.14900 -5.71500 -0.62300
C 0.09600 -4.62900 2.71600
O 0.20800 -5.74700 3.22100
C -0.25500 -3.42800 3.70100
C 0.71700 -3.48200 4.84800
O 1.93100 -3.25500 4.66900
O 0.03800 -3.55600 6.00300
C 0.94300 -3.58300 7.18300
H -1.85900 3.22000 2.49700
H -0.21800 2.45300 -3.47400
H 0.27600 -3.74700 -2.60500
H -1.55400 -0.94900 5.13200
H -1.58500 1.83100 4.66500
H -3.48400 -0.37700 3.96900
H -3.51100 1.02700 2.85800
H -3.85200 1.30100 4.54300
H 0.66900 1.09600 4.96600
H 1.13000 -0.63900 5.18900
H -0.84400 0.02600 7.12500
H 0.06200 1.47700 6.92100
H -1.34400 5.18600 1.93800
H -1.65100 5.96300 0.43200
H 0.00700 6.02000 1.08400
H -0.63500 6.74400 -1.40500
H 0.66500 6.97000 -2.70400
H 1.04800 6.46600 -1.03600
H 0.60800 0.50100 -4.89100
H -0.69200 -2.15600 -4.54700
H -1.26700 0.74000 -6.12900
H -2.20400 0.71400 -4.59600
H -1.96700 -0.72000 -5.45300
H 1.35600 -1.75900 -5.96700
H 1.45200 -3.15700 -4.90200
H 2.71400 -0.52200 -4.79800
H 3.48700 -2.12100 -4.52900
H 2.49500 -1.30300 -3.24000
H 0.86700 -6.33300 -0.08400
H 0.40400 -5.64200 -1.68000
H -0.89100 -5.99900 -0.46300
H -1.28300 -3.58100 4.02800
H 0.69800 -4.47800 7.75500
H 0.83300 -2.61900 7.68000
H 2.00000 -3.75400 6.97600
Mg 31.53256 2.83880 2.39533
C 30.91625 5.78437 4.33336
C 30.69702 4.66096 -0.36595
C 31.62879 0.14605 0.72308
C 31.21023 1.00977 5.34430
N 30.90556 4.94695 2.14386
C 30.76636 5.98726 2.95967
C 30.52032 7.33111 2.21075
C 29.91729 6.75522 0.85181
C 30.57240 5.38528 0.85669
C 28.40298 6.57565 0.88507
C 31.84747 8.12279 1.95848
C 31.66652 9.58193 1.53008
H 32.62502 10.57261 1.99611
N 31.68695 2.54491 0.44786
C 31.31242 3.40145 -0.53262
C 31.63095 2.72498 -1.80840
C 32.04516 1.32972 -1.49257
C 31.77492 1.27571 -0.07855
C 31.57523 3.41008 -3.13930
C 32.58712 0.21768 -2.33387
O 32.66225 -0.98466 -1.90571
C 32.95020 0.56020 -3.72091
N 31.21761 0.83900 2.90448
C 31.37928 -0.13618 2.00344
C 31.37937 -1.48720 2.65512
C 31.42708 -1.21905 4.22852
C 31.35994 0.32797 4.20640
C 30.18101 -2.38852 2.32715
C 32.57193 -1.89635 5.02288
C 33.90052 -1.29613 4.62079
N 31.31113 3.29549 4.50565
C 31.17232 2.37771 5.55688
C 30.94390 3.15978 6.78580
C 30.94923 4.48619 6.35866
C 31.14097 4.52877 4.94809
C 30.70703 2.62417 8.08250
C 30.81296 5.87633 6.76214
O 30.72791 6.46123 7.84296
C 30.66441 6.76660 5.45021
C 31.60334 7.93436 5.58465
O 32.83971 7.76486 5.58103
O 30.91216 9.07745 5.45751
C 31.78942 10.27483 5.55162
H 30.23111 5.06328 -1.26762
H 31.76605 -0.80352 0.20161
H 31.18514 0.51118 6.31498
H 29.79677 7.99186 2.68859
H 30.24557 7.32915 -0.01453
H 28.00273 6.75180 1.88341
H 28.22544 5.54410 0.58029
H 27.92242 7.19815 0.12987
H 32.33808 7.72774 1.06893
H 32.49368 8.08218 2.83603
H 30.64657 9.92525 1.70541
H 31.78905 9.63801 0.44840
H 31.07939 4.37758 -3.07126
H 30.92227 2.81445 -3.77693
H 32.56014 3.49486 -3.59877
H 32.07203 0.94823 -4.23743
H 33.40222 -0.33639 -4.14358
H 33.67957 1.37058 -3.70512
H 32.25770 -2.06178 2.36390
H 30.51961 -1.55789 4.72888
H 30.46150 -3.35198 1.90080
H 29.52122 -1.84063 1.65500
H 29.51654 -2.58915 3.16718
H 32.61700 -2.95983 4.79069
H 32.46367 -1.79701 6.10300
H 34.15685 -1.85335 3.72043
H 34.64272 -1.45620 5.40356
H 33.79463 -0.24893 4.33682
H 31.30427 3.22017 8.77248
H 30.97948 1.57014 8.13139
H 29.63249 2.78234 8.17311
H 29.62272 7.08232 5.40191
H 31.39024 10.90343 6.34770
H 31.84182 10.70013 4.54923
H 32.80328 10.10227 5.91448
