79

Mg 15.77385 1.41309 1.20157
C 15.98597 -1.06933 -1.38139
C 14.95438 -1.10684 3.34936
C 15.13986 3.61976 3.39156
C 15.48044 3.80629 -1.31483
N 15.53363 -0.76541 0.90379
C 15.69994 -1.60396 -0.10789
C 15.63064 -3.10473 0.28257
C 14.75154 -2.96509 1.61919
C 15.12458 -1.53624 2.00893
C 13.25450 -3.01487 1.36284
C 17.04631 -3.70921 0.58669
C 17.08855 -5.23651 0.67231
H 18.27718 -5.92853 0.18166
N 15.62169 1.25822 3.17424
C 15.30205 0.15421 3.88154
C 15.30330 0.56673 5.29363
C 15.48810 2.04229 5.35109
C 15.40098 2.37388 3.94306
C 15.21904 -0.41318 6.42769
C 15.69462 2.99842 6.48659
O 15.59358 4.26607 6.32629
C 15.92631 2.40331 7.81085
N 15.15714 3.39416 1.06968
C 15.00582 4.14608 2.17405
C 14.82653 5.60343 1.82136
C 15.13193 5.70710 0.25498
C 15.35771 4.21169 -0.05834
C 13.44623 6.19293 2.11059
C 16.21842 6.72657 -0.18425
C 17.57560 6.27890 0.30872
N 15.92055 1.42960 -0.95395
C 15.73757 2.53539 -1.81291
C 15.82370 2.02953 -3.19823
C 16.02949 0.64983 -3.04800
C 16.04868 0.31608 -1.66679
C 15.66698 2.80819 -4.37943
C 16.22425 -0.60175 -3.74393
O 16.38502 -0.92597 -4.91984
C 16.07843 -1.78960 -2.69793
C 17.23296 -2.73203 -2.90139
O 18.39758 -2.36495 -2.66575
O 16.75666 -3.96949 -3.12984
C 17.86430 -4.94218 -3.32692
H 14.46994 -1.78388 4.05350
H 15.02398 4.43719 4.10701
H 15.49705 4.50441 -2.15449
H 15.12029 -3.73737 -0.43372
H 15.07898 -3.66631 2.38237
H 13.02636 -3.01737 0.30733
H 12.84546 -2.13189 1.83623
H 12.81111 -3.86863 1.88325
H 17.33041 -3.45540 1.61607
H 17.76836 -3.36731 -0.12911
H 16.18019 -5.69742 0.26562
H 17.08679 -5.52517 1.72620
H 14.92450 -1.40999 6.07694
H 14.38809 -0.09323 7.06567
H 16.13214 -0.44459 7.02595
H 15.08224 1.77075 8.07518
H 16.14041 3.24284 8.47509
H 16.80344 1.74927 7.75187
H 15.53497 6.22146 2.35918
H 14.24287 6.01661 -0.31388
H 13.47929 7.07445 2.77835
H 12.82575 5.41593 2.53700
H 12.87616 6.48713 1.23100
H 16.02894 7.70170 0.27112
H 16.26204 6.87556 -1.25798
H 17.59673 6.64482 1.33962
H 18.36718 6.72973 -0.28642
H 17.63978 5.18521 0.34577
H 16.44326 2.49431 -5.06453
H 15.73143 3.87295 -4.16518
H 14.65830 2.50975 -4.67737
H 15.11818 -2.27270 -2.88260
H 17.69562 -5.42691 -4.29350
H 17.85605 -5.59002 -2.43027
H 18.86311 -4.54382 -3.46154
