79

Mg 15.76173 1.42162 1.18835
C 17.08368 -1.21337 -0.85818
C 17.24370 3.62513 -0.95242
C 14.99743 3.74554 3.20892
C 15.37863 -0.93257 3.72936
N 16.97895 1.12284 -0.63410
C 17.36445 0.07801 -1.35108
C 18.02130 0.43798 -2.71069
C 18.51981 1.92169 -2.35155
C 17.49947 2.26698 -1.26879
C 19.90613 1.95686 -1.73010
C 16.98642 0.44945 -3.89005
C 17.60586 0.48826 -5.28882
H 16.93907 -0.23844 -6.36574
N 15.64394 3.38239 0.90535
C 16.29635 4.11096 -0.02461
C 15.88485 5.50604 0.19583
C 15.06429 5.56267 1.43607
C 15.22424 4.20614 1.92014
C 16.20550 6.61102 -0.76834
C 14.27761 6.66012 2.08640
O 13.83627 6.55305 3.28497
C 14.11921 7.90028 1.31283
N 15.45818 1.45889 3.24476
C 15.08242 2.58966 3.86773
C 14.65816 2.31349 5.29045
C 14.59706 0.72060 5.41904
C 15.10507 0.33352 4.01281
C 15.57204 2.87696 6.37844
C 13.26064 0.10551 5.91736
C 12.17792 0.31729 4.88381
N 15.97478 -0.72083 1.36878
C 15.79035 -1.50149 2.53095
C 16.16127 -2.88938 2.18654
C 16.56088 -2.81504 0.84367
C 16.46624 -1.47181 0.38951
C 16.14959 -3.99915 3.07782
C 17.05135 -3.56559 -0.28982
O 17.24256 -4.75799 -0.52513
C 17.53200 -2.54020 -1.40514
C 16.95867 -2.98468 -2.72281
O 15.73012 -2.96855 -2.91520
O 17.96003 -3.14723 -3.60668
C 17.44039 -3.57716 -4.93218
H 17.85476 4.39265 -1.42824
H 14.62474 4.48954 3.91677
H 15.19371 -1.74257 4.43815
H 18.86636 -0.18194 -2.98519
H 18.41449 2.59042 -3.20189
H 20.28018 0.96518 -1.52322
H 19.80299 2.52135 -0.81263
H 20.58834 2.53195 -2.36271
H 16.45682 1.41083 -3.89236
H 16.31446 -0.38333 -3.81541
H 18.67694 0.25277 -5.27198
H 17.56308 1.51551 -5.65890
H 16.96041 6.29938 -1.50072
H 16.69569 7.40445 -0.19384
H 15.31530 7.02159 -1.24964
H 15.09992 8.30657 1.07702
H 13.45353 8.53113 1.90509
H 13.64091 7.65789 0.35727
H 13.67345 2.71988 5.48616
H 15.33911 0.34099 6.13674
H 15.04733 3.54708 7.08532
H 16.39228 3.39575 5.90032
H 16.08938 2.13081 6.97912
H 12.92594 0.61234 6.82580
H 13.33098 -0.95263 6.14624
H 11.83121 1.33345 5.09428
H 11.37710 -0.40785 5.01383
H 12.59545 0.31476 3.87024
H 15.71268 -4.82815 2.53710
H 15.59031 -3.77553 3.98389
H 17.22032 -4.10472 3.27189
H 18.62263 -2.54844 -1.40958
H 17.95921 -4.50473 -5.19318
H 17.58659 -2.71165 -5.60542
H 16.40472 -3.89163 -4.98651
