79

Mg 15.76628 1.41940 1.19766
C 15.82153 -2.08253 1.93634
C 14.59956 1.91757 4.36526
C 15.27848 4.45582 0.42381
C 15.83731 0.55808 -2.17854
N 15.31095 0.01592 2.84799
C 15.43222 -1.29626 3.02302
C 15.17949 -1.74957 4.49203
C 14.27463 -0.53070 4.97946
C 14.78210 0.54244 4.03248
C 12.78446 -0.74054 4.73074
C 16.50455 -1.84661 5.32060
C 16.38790 -2.58908 6.65495
H 17.50960 -3.39870 7.10625
N 15.51611 3.00926 2.34336
C 15.04619 3.02608 3.61386
C 15.04754 4.44501 4.03017
C 15.37671 5.26970 2.83450
C 15.37787 4.26688 1.80023
C 14.80532 4.88907 5.44010
C 15.63697 6.73148 2.65120
O 15.67521 7.27579 1.49498
C 15.75972 7.53607 3.88026
N 15.36140 2.37596 -0.61306
C 15.25212 3.70729 -0.68084
C 15.24534 4.18285 -2.10342
C 15.61887 2.91258 -2.99597
C 15.69962 1.85008 -1.87221
C 13.92447 4.78574 -2.60124
C 16.82303 3.05987 -3.95967
C 18.10222 3.19915 -3.16507
N 15.99795 -0.40957 0.05213
C 15.97405 -0.53868 -1.34409
C 16.06204 -1.97917 -1.64628
C 16.11466 -2.59305 -0.39640
C 16.03637 -1.60085 0.62228
C 16.02649 -2.56219 -2.94369
C 16.19398 -3.85816 0.31568
O 16.37449 -5.03052 -0.01673
C 15.88469 -3.58746 1.85415
C 16.94110 -4.29200 2.66095
O 18.13150 -3.91961 2.62037
O 16.35295 -5.13136 3.52703
C 17.34430 -5.84082 4.37911
H 14.01125 2.17324 5.24870
H 15.22043 5.50022 0.11031
H 15.94988 0.22000 -3.21028
H 14.62846 -2.68503 4.59059
H 14.48548 -0.25499 6.01253
H 12.60156 -1.63887 4.14128
H 12.45240 0.14489 4.18829
H 12.23128 -0.74132 5.67029
H 16.77521 -0.85495 5.68312
H 17.29955 -2.29736 4.72551
H 15.45864 -3.15627 6.71557
H 16.30622 -1.84936 7.45141
H 14.42818 4.07460 6.05731
H 13.98768 5.60902 5.41115
H 15.68769 5.35245 5.88173
H 14.84100 7.44893 4.46070
H 16.03315 8.53973 3.55658
H 16.55399 7.11705 4.49873
H 15.99162 4.96081 -2.25924
H 14.79523 2.61135 -3.64369
H 14.02315 5.80282 -2.98141
H 13.20484 4.74174 -1.78424
H 13.41656 4.20270 -3.36904
H 16.71917 3.96233 -4.56111
H 16.93349 2.21724 -4.64234
H 18.12621 4.26189 -2.92667
H 18.96123 2.91624 -3.77440
H 18.04641 2.65485 -2.22215
H 16.79975 -3.33026 -2.95424
H 16.19938 -1.81537 -3.71827
H 15.00969 -2.95420 -2.96112
H 14.88875 -3.98439 2.04823
H 17.16780 -6.90932 4.25508
H 17.24521 -5.42466 5.38180
H 18.38713 -5.76710 4.06861
