158

Mg 0.00000 0.00000 0.00000
C -0.21700 -2.21800 2.80100
C -1.25500 2.44200 2.02600
C -0.24500 1.85000 -2.56400
C 0.14600 -2.82400 -2.03700
N -0.61700 -0.00900 2.12600
C -0.59400 -0.90800 3.10500
C -0.93600 -0.30900 4.50200
C -1.77300 0.96400 4.03200
C -1.15500 1.16800 2.66000
C -3.26300 0.68500 3.86300
C 0.34500 0.11000 5.29900
C 0.12400 0.39700 6.78700
H 1.16800 0.03300 7.73300
N -0.18500 1.96100 -0.15200
C -0.70300 2.80000 0.77700
C -0.62000 4.15600 0.19300
C -0.18700 4.01500 -1.22500
C -0.21400 2.58300 -1.38000
C -0.88700 5.40600 0.97400
C 0.18100 5.01300 -2.27700
O 0.30300 4.69000 -3.50800
C 0.31000 6.41400 -1.83700
N -0.26500 -0.41300 -2.02900
C -0.27900 0.56900 -2.93700
C -0.19600 0.02400 -4.33200
C 0.12400 -1.53300 -4.18000
C 0.08600 -1.63200 -2.63500
C -1.45100 0.20500 -5.19700
C 1.37300 -2.07000 -4.92300
C 2.62600 -1.49000 -4.30600
N 0.15000 -2.14400 0.30300
C 0.17300 -3.13600 -0.68800
C 0.17300 -4.43800 0.00400
C 0.13300 -4.11100 1.35800
C 0.08300 -2.69500 1.50200
C 0.14900 -5.71500 -0.62300
C 0.09600 -4.62900 2.71600
O 0.20800 -5.74700 3.22100
C -0.25500 -3.42800 3.70100
C 0.71700 -3.48200 4.84800
O 1.93100 -3.25500 4.66900
O 0.03800 -3.55600 6.00300
C 0.94300 -3.58300 7.18300
H -1.85900 3.22000 2.49700
H -0.21800 2.45300 -3.47400
H 0.27600 -3.74700 -2.60500
H -1.55400 -0.94900 5.13200
H -1.58500 1.83100 4.66500
H -3.48400 -0.37700 3.96900
H -3.51100 1.02700 2.85800
H -3.85200 1.30100 4.54300
H 0.66900 1.09600 4.96600
H 1.13000 -0.63900 5.18900
H -0.84400 0.02600 7.12500
H 0.06200 1.47700 6.92100
H -1.34400 5.18600 1.93800
H -1.65100 5.96300 0.43200
H 0.00700 6.02000 1.08400
H -0.63500 6.74400 -1.40500
H 0.66500 6.97000 -2.70400
H 1.04800 6.46600 -1.03600
H 0.60800 0.50100 -4.89100
H -0.69200 -2.15600 -4.54700
H -1.26700 0.74000 -6.12900
H -2.20400 0.71400 -4.59600
H -1.96700 -0.72000 -5.45300
H 1.35600 -1.75900 -5.96700
H 1.45200 -3.15700 -4.90200
H 2.71400 -0.52200 -4.79800
H 3.48700 -2.12100 -4.52900
H 2.49500 -1.30300 -3.24000
H 0.86700 -6.33300 -0.08400
H 0.40400 -5.64200 -1.68000
H -0.89100 -5.99900 -0.46300
H -1.28300 -3.58100 4.02800
H 0.69800 -4.47800 7.75500
H 0.83300 -2.61900 7.68000
H 2.00000 -3.75400 6.97600
Mg 7.88574 0.70296 0.60659
C 5.21844 1.28779 2.93523
C 10.04298 1.67952 3.06163
C 10.21386 0.63105 -1.54797
C 5.51459 0.88229 -1.94119
N 7.55308 1.37349 2.68793
C 6.50115 1.49705 3.48324
C 6.84805 1.78714 4.96818
C 8.29796 2.44303 4.75270
C 8.67856 1.76777 3.43670
C 8.25118 3.94450 4.52307
C 6.93199 0.47804 5.82914
C 6.96077 0.70426 7.34233
H 6.28689 -0.26341 8.20370
N 9.85422 0.62081 0.84512
C 10.56259 1.04093 1.91423
C 11.97348 0.77929 1.59007
C 12.05298 0.32251 0.17595
C 10.68245 0.53155 -0.24602
C 13.07548 0.89144 2.60321
C 13.17936 -0.20203 -0.66209
O 13.07635 -0.31380 -1.93478
C 14.43820 -0.49289 0.03949
N 7.90608 0.95983 -1.45641
C 9.04481 0.82530 -2.15863
C 8.76851 0.78041 -3.64255
C 7.17910 0.66930 -3.78045
C 6.78853 0.76316 -2.28913
C 9.26639 1.97997 -4.44851
C 6.62645 -0.51778 -4.61597
C 6.91059 -1.82326 -3.90859
N 5.73252 0.83965 0.49259
C 4.94414 0.92887 -0.67557
C 3.54450 1.11888 -0.24275
C 3.61929 1.15032 1.15793
C 4.97266 1.01139 1.56850
C 2.42282 1.28444 -1.10330
C 2.86235 1.28010 2.38223
O 1.66552 1.33679 2.66172
C 3.87897 1.50172 3.58380
C 3.48585 0.57529 4.70171
O 3.56885 -0.65741 4.55976
O 3.28554 1.29512 5.82068
C 2.90429 0.41907 6.96042
H 10.78517 2.18275 3.68196
H 10.96489 0.50104 -2.33062
H 4.70415 0.84886 -2.67245
H 6.18950 2.49377 5.45884
H 8.98467 2.15180 5.54326
H 7.23825 4.30567 4.42479
H 8.80563 4.11993 3.61047
H 8.80002 4.46405 5.31376
H 7.91951 0.01992 5.68884
H 6.13418 -0.19406 5.57935
H 6.66971 1.72681 7.61184
H 7.99460 0.62044 7.68613
H 12.73670 1.40627 3.51072
H 13.83315 1.55913 2.17895
H 13.53934 -0.07104 2.82931
H 14.79667 0.41033 0.52750
H 15.09330 -0.94177 -0.70965
H 14.23619 -1.22056 0.83341
H 9.22235 -0.09319 -4.09417
H 6.75011 1.55377 -4.27392
H 9.95156 1.69939 -5.27063
H 9.74938 2.67040 -3.76987
H 8.48492 2.59713 -4.88853
H 7.13550 -0.57075 -5.58148
H 5.56258 -0.44668 -4.81628
H 7.93992 -2.04577 -4.20532
H 6.22606 -2.59880 -4.24624
H 6.90245 -1.69115 -2.82041
H 1.62634 0.67509 -0.69734
H 2.66079 0.99931 -2.12596
H 2.25870 2.36084 -1.00489
H 3.81413 2.54977 3.87871
H 1.95527 0.79860 7.35159
H 3.77162 0.42770 7.64702
H 2.64496 -0.60924 6.73728
