79

Mg 13.14467 1.18607 0.99002
C 15.91903 -1.06950 1.29733
C 15.36072 3.73783 1.45069
C 10.67301 3.16709 1.17405
C 11.05282 -1.51132 1.69287
N 15.33163 1.20503 1.32033
C 16.28890 0.29033 1.35642
C 17.72960 0.86770 1.38094
C 17.39916 2.31248 1.99923
C 15.95065 2.45139 1.53534
C 17.41841 2.33561 3.51858
C 18.35071 0.98585 -0.05512
C 19.85792 1.24892 -0.08425
H 20.64985 0.64242 -1.15077
N 13.06120 3.15808 0.78321
C 14.06102 4.04088 0.98888
C 13.48634 5.36873 0.72294
C 12.02284 5.21112 0.50376
C 11.85521 3.81144 0.83974
C 14.32251 6.61093 0.61722
C 10.94938 6.16573 0.07643
O 9.70620 5.87204 0.18172
C 11.39412 7.49008 -0.38160
N 11.16952 0.92482 1.58403
C 10.28795 1.93794 1.51790
C 8.87592 1.44716 1.73168
C 8.96878 -0.14930 1.71478
C 10.49845 -0.31237 1.57728
C 8.20161 1.90380 3.02520
C 8.05226 -0.89695 0.70796
C 8.49329 -0.60319 -0.70787
N 13.38665 -0.94654 1.23802
C 12.38261 -1.88787 1.55407
C 13.05029 -3.19376 1.73094
C 14.41005 -2.91487 1.52654
C 14.58023 -1.52898 1.26227
C 12.40966 -4.41431 2.08585
C 15.74133 -3.47580 1.48474
O 16.20724 -4.61283 1.54677
C 16.79167 -2.28311 1.45938
C 17.79708 -2.57249 0.37867
O 17.45203 -2.59534 -0.81591
O 19.03263 -2.55893 0.91121
C 20.06543 -2.83000 -0.12401
H 15.93062 4.59468 1.81113
H 9.77343 3.78615 1.14271
H 10.45909 -2.41952 1.81665
H 18.42076 0.33700 2.02470
H 18.01877 3.08496 1.55119
H 17.53535 1.34619 3.93513
H 16.47036 2.76268 3.81832
H 18.18684 3.02740 3.87535
H 17.98971 1.90900 -0.52653
H 18.12429 0.11623 -0.64089
H 20.32642 1.07052 0.89127
H 20.02086 2.31348 -0.26915
H 15.34089 6.44316 0.98891
H 13.89690 7.34297 1.31209
H 14.32030 7.03580 -0.38884
H 11.95693 7.97633 0.41166
H 10.49186 7.99753 -0.72843
H 12.08529 7.35598 -1.22119
H 8.22813 1.77004 0.92594
H 8.69254 -0.58382 2.68675
H 7.25000 2.44186 2.85494
H 8.89775 2.52604 3.57177
H 7.98978 1.11084 3.74042
H 7.02368 -0.53796 0.79344
H 8.03192 -1.97124 0.85787
H 8.01030 0.35467 -0.92308
H 8.14745 -1.38077 -1.38596
H 9.57681 -0.44455 -0.75767
H 12.83256 -5.18333 1.45319
H 11.33059 -4.34704 1.96396
H 12.70016 -4.48853 3.13721
H 17.25409 -2.23278 2.44590
H 20.65286 -3.68417 0.22672
H 20.60294 -1.87381 -0.26731
H 19.72605 -3.18856 -1.08874
