158

Mg 0.00000 0.00000 0.00000
C -0.21700 -2.21800 2.80100
C -1.25500 2.44200 2.02600
C -0.24500 1.85000 -2.56400
C 0.14600 -2.82400 -2.03700
N -0.61700 -0.00900 2.12600
C -0.59400 -0.90800 3.10500
C -0.93600 -0.30900 4.50200
C -1.77300 0.96400 4.03200
C -1.15500 1.16800 2.66000
C -3.26300 0.68500 3.86300
C 0.34500 0.11000 5.29900
C 0.12400 0.39700 6.78700
H 1.16800 0.03300 7.73300
N -0.18500 1.96100 -0.15200
C -0.70300 2.80000 0.77700
C -0.62000 4.15600 0.19300
C -0.18700 4.01500 -1.22500
C -0.21400 2.58300 -1.38000
C -0.88700 5.40600 0.97400
C 0.18100 5.01300 -2.27700
O 0.30300 4.69000 -3.50800
C 0.31000 6.41400 -1.83700
N -0.26500 -0.41300 -2.02900
C -0.27900 0.56900 -2.93700
C -0.19600 0.02400 -4.33200
C 0.12400 -1.53300 -4.18000
C 0.08600 -1.63200 -2.63500
C -1.45100 0.20500 -5.19700
C 1.37300 -2.07000 -4.92300
C 2.62600 -1.49000 -4.30600
N 0.15000 -2.14400 0.30300
C 0.17300 -3.13600 -0.68800
C 0.17300 -4.43800 0.00400
C 0.13300 -4.11100 1.35800
C 0.08300 -2.69500 1.50200
C 0.14900 -5.71500 -0.62300
C 0.09600 -4.62900 2.71600
O 0.20800 -5.74700 3.22100
C -0.25500 -3.42800 3.70100
C 0.71700 -3.48200 4.84800
O 1.93100 -3.25500 4.66900
O 0.03800 -3.55600 6.00300
C 0.94300 -3.58300 7.18300
H -1.85900 3.22000 2.49700
H -0.21800 2.45300 -3.47400
H 0.27600 -3.74700 -2.60500
H -1.55400 -0.94900 5.13200
H -1.58500 1.83100 4.66500
H -3.48400 -0.37700 3.96900
H -3.51100 1.02700 2.85800
H -3.85200 1.30100 4.54300
H 0.66900 1.09600 4.96600
H 1.13000 -0.63900 5.18900
H -0.84400 0.02600 7.12500
H 0.06200 1.47700 6.92100
H -1.34400 5.18600 1.93800
H -1.65100 5.96300 0.43200
H 0.00700 6.02000 1.08400
H -0.63500 6.74400 -1.40500
H 0.66500 6.97000 -2.70400
H 1.04800 6.46600 -1.03600
H 0.60800 0.50100 -4.89100
H -0.69200 -2.15600 -4.54700
H -1.26700 0.74000 -6.12900
H -2.20400 0.71400 -4.59600
H -1.96700 -0.72000 -5.45300
H 1.35600 -1.75900 -5.96700
H 1.45200 -3.15700 -4.90200
H 2.71400 -0.52200 -4.79800
H 3.48700 -2.12100 -4.52900
H 2.49500 -1.30300 -3.24000
H 0.86700 -6.33300 -0.08400
H 0.40400 -5.64200 -1.68000
H -0.89100 -5.99900 -0.46300
H -1.28300 -3.58100 4.02800
H 0.69800 -4.47800 7.75500
H 0.83300 -2.61900 7.68000
H 2.00000 -3.75400 6.97600
Mg 31.52239 2.84144 2.39391
C 30.34602 0.02087 0.51253
C 30.61940 4.79422 -0.25294
C 32.95528 5.28007 3.83173
C 33.33837 0.60207 4.35175
N 30.60957 2.35415 0.43903
C 30.14952 1.25555 -0.14045
C 29.36761 1.50273 -1.45843
C 30.01806 2.91421 -1.86281
C 30.41210 3.40899 -0.47263
C 31.28093 2.77796 -2.69702
C 27.82171 1.62947 -1.22152
C 26.96902 1.56254 -2.49045
H 25.66406 0.91110 -2.41858
N 31.32921 4.79553 2.10621
C 30.92885 5.41607 0.97664
C 30.97446 6.85666 1.27120
C 31.59167 7.04184 2.61265
C 32.01081 5.68462 2.89960
C 30.39010 7.89323 0.35607
C 31.78549 8.24407 3.48632
O 32.55949 8.21653 4.50759
C 31.11581 9.48074 3.05776
N 33.10317 2.95371 3.73960
C 33.49361 4.13458 4.25050
C 34.45691 3.94106 5.39723
C 34.44498 2.37240 5.70828
C 33.50328 1.89781 4.57985
C 35.89321 4.39849 5.14390
C 34.12374 1.94662 7.16711
C 32.68692 2.28071 7.49774
N 31.66924 0.69299 2.56897
C 32.51133 -0.03655 3.43658
C 32.33972 -1.46684 3.10907
C 31.41972 -1.46876 2.04979
C 31.05978 -0.13276 1.72566
C 33.02602 -2.54993 3.72715
C 30.67929 -2.29662 1.12506
O 30.51553 -3.50768 0.98274
C 30.04749 -1.36254 0.00492
C 28.60407 -1.75067 -0.16369
O 27.79069 -1.57686 0.76087
O 28.37836 -2.05840 -1.45393
C 26.95760 -2.43928 -1.67343
H 30.58347 5.46662 -1.11054
H 33.39771 6.07864 4.43175
H 33.79503 -0.16431 4.98168
H 29.54917 0.77268 -2.23807
H 29.27990 3.57619 -2.30809
H 31.59934 1.74951 -2.78095
H 32.03370 3.36686 -2.18950
H 31.13942 3.24758 -3.67465
H 27.59220 2.65183 -0.89464
H 27.48234 0.89345 -0.51887
H 27.53823 1.18892 -3.35032
H 26.69020 2.57997 -2.77525
H 30.15358 7.47265 -0.62911
H 31.18005 8.62531 0.15634
H 29.53359 8.40864 0.79586
H 31.45893 9.75075 2.06185
H 31.29881 10.20359 3.85518
H 30.04034 9.28672 2.97825
H 34.12281 4.47642 6.27750
H 35.42463 1.91119 5.51482
H 36.25012 5.14376 5.87961
H 35.95248 4.79687 4.13975
H 36.63437 3.60141 5.12033
H 34.74286 2.50858 7.87070
H 34.29600 0.89251 7.35728
H 32.73744 3.33706 7.77824
H 32.33202 1.66924 8.32490
H 32.05074 2.20593 6.60817
H 32.29092 -3.32367 3.90452
H 33.50834 -2.23927 4.65161
H 33.75217 -2.79167 2.94642
H 30.62166 -1.51385 -0.90996
H 26.96051 -3.43126 -2.13566
H 26.51356 -1.61218 -2.25865
H 26.34497 -2.61608 -0.79714
