79

Mg 8.92571 0.80639 0.68463
C 10.36097 2.91013 3.21314
C 8.03350 -1.33577 3.18458
C 8.05515 -1.27602 -1.54542
C 10.89341 2.49702 -1.64252
N 9.21493 0.88727 2.87600
C 9.71971 1.76504 3.72985
C 9.45574 1.43454 5.22338
C 9.24704 -0.15174 5.08540
C 8.76739 -0.21005 3.63654
C 10.54152 -0.94058 5.19209
C 8.16508 2.13811 5.77219
C 8.01597 2.11098 7.29494
H 7.41430 3.26571 7.95606
N 7.74008 -0.78075 0.80229
C 7.47281 -1.51712 1.90120
C 6.56202 -2.58426 1.45868
C 6.44408 -2.51573 -0.02325
C 7.44670 -1.51275 -0.32137
C 5.84235 -3.48890 2.41635
C 5.58179 -3.24295 -1.01006
O 5.81382 -3.19642 -2.26975
C 4.51461 -4.08616 -0.45182
N 9.55630 0.48848 -1.27077
C 8.97595 -0.44881 -2.04058
C 9.40076 -0.30970 -3.48300
C 10.20231 1.07184 -3.56347
C 10.17785 1.46594 -2.07033
C 10.27492 -1.43760 -4.03077
C 9.71238 2.10980 -4.61002
C 8.34817 2.63152 -4.21995
N 10.22986 2.52878 0.70935
C 10.97551 3.04967 -0.37082
C 11.79915 4.15456 0.16140
C 11.49028 4.18509 1.52966
C 10.55637 3.15777 1.83284
C 12.72332 4.93788 -0.58590
C 11.74996 4.84594 2.78845
O 12.38724 5.84068 3.13211
C 11.12614 3.96866 3.95790
C 10.35175 4.88594 4.86423
O 9.33410 5.47020 4.45237
O 10.81109 4.75356 6.12195
C 10.06664 5.63544 7.06000
H 7.90960 -2.18064 3.86261
H 7.70585 -1.89705 -2.37354
H 11.45965 3.13694 -2.32262
H 10.28497 1.64401 5.88842
H 8.47154 -0.50812 5.75842
H 11.40580 -0.29399 5.22509
H 10.57458 -1.57182 4.31375
H 10.50013 -1.61877 6.04923
H 7.28582 1.54636 5.48673
H 8.10414 3.14987 5.42110
H 8.94893 1.82456 7.79543
H 7.31437 1.31657 7.56082
H 6.25454 -3.41124 3.42999
H 6.06290 -4.51764 2.11153
H 4.76043 -3.34074 2.40351
H 4.95205 -4.83555 0.20356
H 3.95108 -4.45213 -1.31227
H 3.86605 -3.46180 0.17280
H 8.53873 -0.25441 -4.13641
H 11.25795 0.91551 -3.82997
H 9.84721 -1.92531 -4.92703
H 10.43173 -2.16159 -3.24224
H 11.29336 -1.15004 -4.28626
H 9.59547 1.63568 -5.58761
H 10.38984 2.94755 -4.73736
H 7.67061 1.86530 -4.60842
H 8.16004 3.59719 -4.68485
H 8.23174 2.65267 -3.13016
H 12.57512 5.96625 -0.28426
H 12.57679 4.81175 -1.65660
H 13.66705 4.50252 -0.24665
H 11.95168 3.48082 4.47757
H 10.80847 6.25704 7.57087
H 9.45872 4.95769 7.68835
H 9.41810 6.39002 6.63053
