158

Mg 0.00000 0.00000 0.00000
C -0.21700 -2.21800 2.80100
C -1.25500 2.44200 2.02600
C -0.24500 1.85000 -2.56400
C 0.14600 -2.82400 -2.03700
N -0.61700 -0.00900 2.12600
C -0.59400 -0.90800 3.10500
C -0.93600 -0.30900 4.50200
C -1.77300 0.96400 4.03200
C -1.15500 1.16800 2.66000
C -3.26300 0.68500 3.86300
C 0.34500 0.11000 5.29900
C 0.12400 0.39700 6.78700
H 1.16800 0.03300 7.73300
N -0.18500 1.96100 -0.15200
C -0.70300 2.80000 0.77700
C -0.62000 4.15600 0.19300
C -0.18700 4.01500 -1.22500
C -0.21400 2.58300 -1.38000
C -0.88700 5.40600 0.97400
C 0.18100 5.01300 -2.27700
O 0.30300 4.69000 -3.50800
C 0.31000 6.41400 -1.83700
N -0.26500 -0.41300 -2.02900
C -0.27900 0.56900 -2.93700
C -0.19600 0.02400 -4.33200
C 0.12400 -1.53300 -4.18000
C 0.08600 -1.63200 -2.63500
C -1.45100 0.20500 -5.19700
C 1.37300 -2.07000 -4.92300
C 2.62600 -1.49000 -4.30600
N 0.15000 -2.14400 0.30300
C 0.17300 -3.13600 -0.68800
C 0.17300 -4.43800 0.00400
C 0.13300 -4.11100 1.35800
C 0.08300 -2.69500 1.50200
C 0.14900 -5.71500 -0.62300
C 0.09600 -4.62900 2.71600
O 0.20800 -5.74700 3.22100
C -0.25500 -3.42800 3.70100
C 0.71700 -3.48200 4.84800
O 1.93100 -3.25500 4.66900
O 0.03800 -3.55600 6.00300
C 0.94300 -3.58300 7.18300
H -1.85900 3.22000 2.49700
H -0.21800 2.45300 -3.47400
H 0.27600 -3.74700 -2.60500
H -1.55400 -0.94900 5.13200
H -1.58500 1.83100 4.66500
H -3.48400 -0.37700 3.96900
H -3.51100 1.02700 2.85800
H -3.85200 1.30100 4.54300
H 0.66900 1.09600 4.96600
H 1.13000 -0.63900 5.18900
H -0.84400 0.02600 7.12500
H 0.06200 1.47700 6.92100
H -1.34400 5.18600 1.93800
H -1.65100 5.96300 0.43200
H 0.00700 6.02000 1.08400
H -0.63500 6.74400 -1.40500
H 0.66500 6.97000 -2.70400
H 1.04800 6.46600 -1.03600
H 0.60800 0.50100 -4.89100
H -0.69200 -2.15600 -4.54700
H -1.26700 0.74000 -6.12900
H -2.20400 0.71400 -4.59600
H -1.96700 -0.72000 -5.45300
H 1.35600 -1.75900 -5.96700
H 1.45200 -3.15700 -4.90200
H 2.71400 -0.52200 -4.79800
H 3.48700 -2.12100 -4.52900
H 2.49500 -1.30300 -3.24000
H 0.86700 -6.33300 -0.08400
H 0.40400 -5.64200 -1.68000
H -0.89100 -5.99900 -0.46300
H -1.28300 -3.58100 4.02800
H 0.69800 -4.47800 7.75500
H 0.83300 -2.61900 7.68000
H 2.00000 -3.75400 6.97600
Mg 15.77274 1.42772 1.19890
C 15.23278 2.19743 4.66228
C 14.66106 4.57152 0.48109
C 15.80872 0.63185 -1.87238
C 15.73963 -1.94237 2.08609
N 15.06701 3.07852 2.49082
C 14.96389 3.27772 3.79620
C 14.62701 4.73841 4.19929
C 13.92340 5.20834 2.83439
C 14.61441 4.25443 1.86216
C 12.43036 4.92734 2.79925
C 15.91190 5.58572 4.50447
C 15.64989 6.92351 5.19975
H 16.62154 7.40056 6.17995
N 15.77690 2.57017 -0.42386
C 15.30644 3.83034 -0.53304
C 15.52343 4.22076 -1.93470
C 16.00951 3.03004 -2.68344
C 15.86082 2.00351 -1.67140
C 15.34745 5.62908 -2.42369
C 16.51149 2.84347 -4.08323
O 16.65633 1.67814 -4.59691
C 16.73957 4.06663 -4.86639
N 15.56301 -0.38936 0.21067
C 15.67175 -0.46520 -1.12737
C 15.76103 -1.90091 -1.58689
C 15.93368 -2.76849 -0.25457
C 15.81982 -1.64293 0.79688
C 14.56291 -2.42099 -2.38087
C 17.15926 -3.72046 -0.18852
C 18.43672 -2.91404 -0.13224
N 15.71800 0.30567 3.04445
C 15.68484 -1.09873 3.18820
C 15.53649 -1.38543 4.62981
C 15.46998 -0.11766 5.22716
C 15.54952 0.88809 4.22634
C 15.43221 -2.67912 5.21427
C 15.33988 0.59842 6.47576
O 15.32081 0.27744 7.66334
C 15.05333 2.12826 6.15347
C 15.96752 2.96223 7.00860
O 17.19930 2.92291 6.84186
O 15.22991 3.82604 7.72979
C 16.09283 4.68295 8.58589
H 14.11668 5.44925 0.13161
H 15.92906 0.30198 -2.90688
H 15.81972 -2.96776 2.45331
H 13.93393 4.83300 5.02662
H 14.17084 6.23979 2.59724
H 12.10906 4.34897 3.65270
H 12.25578 4.37868 1.88298
H 11.87286 5.86322 2.70101
H 16.33651 5.94562 3.55847
H 16.61848 5.01446 5.07459
H 14.63279 6.98490 5.60558
H 15.68767 7.71752 4.44999
H 14.82461 6.24901 -1.68496
H 14.66233 5.58789 -3.27738
H 16.28675 6.08352 -2.74599
H 15.81275 4.63158 -4.93189
H 17.18123 3.73302 -5.80741
H 17.45565 4.69797 -4.32856
H 16.62754 -2.05145 -2.21903
H 15.07722 -3.43901 -0.09113
H 14.83701 -2.81103 -3.37928
H 13.83969 -1.62132 -2.47044
H 13.98523 -3.20074 -1.88744
H 17.21575 -4.32853 -1.09473
H 17.13198 -4.40180 0.65529
H 18.62802 -2.68106 -1.18401
H 19.24450 -3.50530 0.29430
H 18.27990 -1.96445 0.39248
H 16.06091 -2.67458 6.09474
H 15.73194 -3.45673 4.51480
H 14.36059 -2.71055 5.42851
H 14.00184 2.31783 6.37259
H 15.73952 4.56514 9.61496
H 16.03644 5.69679 8.14691
H 17.13485 4.40280 8.68666
