158

Mg 0.00000 0.00000 0.00000
C -0.21700 -2.21800 2.80100
C -1.25500 2.44200 2.02600
C -0.24500 1.85000 -2.56400
C 0.14600 -2.82400 -2.03700
N -0.61700 -0.00900 2.12600
C -0.59400 -0.90800 3.10500
C -0.93600 -0.30900 4.50200
C -1.77300 0.96400 4.03200
C -1.15500 1.16800 2.66000
C -3.26300 0.68500 3.86300
C 0.34500 0.11000 5.29900
C 0.12400 0.39700 6.78700
H 1.16800 0.03300 7.73300
N -0.18500 1.96100 -0.15200
C -0.70300 2.80000 0.77700
C -0.62000 4.15600 0.19300
C -0.18700 4.01500 -1.22500
C -0.21400 2.58300 -1.38000
C -0.88700 5.40600 0.97400
C 0.18100 5.01300 -2.27700
O 0.30300 4.69000 -3.50800
C 0.31000 6.41400 -1.83700
N -0.26500 -0.41300 -2.02900
C -0.27900 0.56900 -2.93700
C -0.19600 0.02400 -4.33200
C 0.12400 -1.53300 -4.18000
C 0.08600 -1.63200 -2.63500
C -1.45100 0.20500 -5.19700
C 1.37300 -2.07000 -4.92300
C 2.62600 -1.49000 -4.30600
N 0.15000 -2.14400 0.30300
C 0.17300 -3.13600 -0.68800
C 0.17300 -4.43800 0.00400
C 0.13300 -4.11100 1.35800
C 0.08300 -2.69500 1.50200
C 0.14900 -5.71500 -0.62300
C 0.09600 -4.62900 2.71600
O 0.20800 -5.74700 3.22100
C -0.25500 -3.42800 3.70100
C 0.71700 -3.48200 4.84800
O 1.93100 -3.25500 4.66900
O 0.03800 -3.55600 6.00300
C 0.94300 -3.58300 7.18300
H -1.85900 3.22000 2.49700
H -0.21800 2.45300 -3.47400
H 0.27600 -3.74700 -2.60500
H -1.55400 -0.94900 5.13200
H -1.58500 1.83100 4.66500
H -3.48400 -0.37700 3.96900
H -3.51100 1.02700 2.85800
H -3.85200 1.30100 4.54300
H 0.66900 1.09600 4.96600
H 1.13000 -0.63900 5.18900
H -0.84400 0.02600 7.12500
H 0.06200 1.47700 6.92100
H -1.34400 5.18600 1.93800
H -1.65100 5.96300 0.43200
H 0.00700 6.02000 1.08400
H -0.63500 6.74400 -1.40500
H 0.66500 6.97000 -2.70400
H 1.04800 6.46600 -1.03600
H 0.60800 0.50100 -4.89100
H -0.69200 -2.15600 -4.54700
H -1.26700 0.74000 -6.12900
H -2.20400 0.71400 -4.59600
H -1.96700 -0.72000 -5.45300
H 1.35600 -1.75900 -5.96700
H 1.45200 -3.15700 -4.90200
H 2.71400 -0.52200 -4.79800
H 3.48700 -2.12100 -4.52900
H 2.49500 -1.30300 -3.24000
H 0.86700 -6.33300 -0.08400
H 0.40400 -5.64200 -1.68000
H -0.89100 -5.99900 -0.46300
H -1.28300 -3.58100 4.02800
H 0.69800 -4.47800 7.75500
H 0.83300 -2.61900 7.68000
H 2.00000 -3.75400 6.97600
Mg 7.88314 0.70970 0.59883
C 7.77157 -2.14054 2.76122
C 6.63973 2.54181 3.19505
C 7.54473 3.13451 -1.41671
C 8.02391 -1.51369 -2.08116
N 7.31940 0.15773 2.66720
C 7.38120 -0.95616 3.39012
C 7.06443 -0.73180 4.89899
C 6.19562 0.59961 4.77854
C 6.77596 1.15250 3.48880
C 4.70656 0.33912 4.57516
C 8.35793 -0.49683 5.74950
C 8.16939 -0.59459 7.26616
H 9.24231 -1.16001 8.07021
N 7.66287 2.64220 0.94493
C 7.15468 3.21172 2.06416
C 7.20129 4.67195 1.83562
C 7.60113 4.89825 0.41892
C 7.59334 3.54982 -0.08808
C 6.93370 5.68176 2.90913
C 7.92675 6.13470 -0.35779
O 8.02330 6.13140 -1.63264
C 8.04407 7.38432 0.41535
N 7.57447 0.80970 -1.46329
C 7.52210 1.98645 -2.09693
C 7.57916 1.80823 -3.58519
C 7.92787 0.26983 -3.83314
C 7.92988 -0.21187 -2.36133
C 6.30030 2.17169 -4.35227
C 9.16650 -0.03771 -4.71157
C 10.42495 0.39739 -3.99456
N 8.07513 -1.43837 0.35394
C 8.08946 -2.15137 -0.85358
C 8.12762 -3.58442 -0.50867
C 8.11603 -3.60612 0.88462
C 8.04683 -2.27211 1.37852
C 8.10861 -4.66509 -1.43399
C 8.12114 -4.44688 2.07077
O 8.26364 -5.65274 2.27833
C 7.77544 -3.53718 3.33123
C 8.77639 -3.85412 4.40871
O 9.98176 -3.56327 4.26774
O 8.12759 -4.22840 5.52204
C 9.06196 -4.52888 6.63955
H 6.03518 3.16454 3.85737
H 7.53939 3.94570 -2.14772
H 8.15460 -2.26296 -2.86408
H 6.47266 -1.52192 5.36154
H 6.38531 1.28539 5.60404
H 4.50539 -0.72034 4.41710
H 4.42818 0.91530 3.69254
H 4.12480 0.75324 5.39908
H 8.65764 0.54787 5.66676
H 9.15191 -1.17749 5.44028
H 7.21619 -1.05912 7.52018
H 8.09336 0.41633 7.66674
H 6.50440 5.21856 3.79665
H 6.14759 6.33947 2.53877
H 7.82015 6.26831 3.15098
H 7.10491 7.57557 0.93491
H 8.36841 8.14644 -0.29234
H 8.80082 7.25113 1.18900
H 8.36123 2.42689 -4.02342
H 7.11313 -0.25968 -4.32761
H 6.45244 2.92595 -5.12470
H 5.55437 2.49832 -3.62826
H 5.79305 1.32865 -4.82068
H 9.11855 0.52320 -5.64432
H 9.26349 -1.09366 -4.96418
H 10.48509 1.45914 -4.23100
H 11.29019 -0.13921 -4.38525
H 10.31749 0.30993 -2.91323
H 8.84964 -5.38211 -1.08085
H 8.33605 -4.32544 -2.44420
H 7.07761 -5.00260 -1.32913
H 6.75848 -3.78921 3.63023
H 8.84570 -5.54331 6.97480
H 8.94884 -3.72179 7.36357
H 10.11610 -4.61982 6.37526
