158

Mg 0.00000 0.00000 0.00000
C -0.21700 -2.21800 2.80100
C -1.25500 2.44200 2.02600
C -0.24500 1.85000 -2.56400
C 0.14600 -2.82400 -2.03700
N -0.61700 -0.00900 2.12600
C -0.59400 -0.90800 3.10500
C -0.93600 -0.30900 4.50200
C -1.77300 0.96400 4.03200
C -1.15500 1.16800 2.66000
C -3.26300 0.68500 3.86300
C 0.34500 0.11000 5.29900
C 0.12400 0.39700 6.78700
H 1.16800 0.03300 7.73300
N -0.18500 1.96100 -0.15200
C -0.70300 2.80000 0.77700
C -0.62000 4.15600 0.19300
C -0.18700 4.01500 -1.22500
C -0.21400 2.58300 -1.38000
C -0.88700 5.40600 0.97400
C 0.18100 5.01300 -2.27700
O 0.30300 4.69000 -3.50800
C 0.31000 6.41400 -1.83700
N -0.26500 -0.41300 -2.02900
C -0.27900 0.56900 -2.93700
C -0.19600 0.02400 -4.33200
C 0.12400 -1.53300 -4.18000
C 0.08600 -1.63200 -2.63500
C -1.45100 0.20500 -5.19700
C 1.37300 -2.07000 -4.92300
C 2.62600 -1.49000 -4.30600
N 0.15000 -2.14400 0.30300
C 0.17300 -3.13600 -0.68800
C 0.17300 -4.43800 0.00400
C 0.13300 -4.11100 1.35800
C 0.08300 -2.69500 1.50200
C 0.14900 -5.71500 -0.62300
C 0.09600 -4.62900 2.71600
O 0.20800 -5.74700 3.22100
C -0.25500 -3.42800 3.70100
C 0.71700 -3.48200 4.84800
O 1.93100 -3.25500 4.66900
O 0.03800 -3.55600 6.00300
C 0.94300 -3.58300 7.18300
H -1.85900 3.22000 2.49700
H -0.21800 2.45300 -3.47400
H 0.27600 -3.74700 -2.60500
H -1.55400 -0.94900 5.13200
H -1.58500 1.83100 4.66500
H -3.48400 -0.37700 3.96900
H -3.51100 1.02700 2.85800
H -3.85200 1.30100 4.54300
H 0.66900 1.09600 4.96600
H 1.13000 -0.63900 5.18900
H -0.84400 0.02600 7.12500
H 0.06200 1.47700 6.92100
H -1.34400 5.18600 1.93800
H -1.65100 5.96300 0.43200
H 0.00700 6.02000 1.08400
H -0.63500 6.74400 -1.40500
H 0.66500 6.97000 -2.70400
H 1.04800 6.46600 -1.03600
H 0.60800 0.50100 -4.89100
H -0.69200 -2.15600 -4.54700
H -1.26700 0.74000 -6.12900
H -2.20400 0.71400 -4.59600
H -1.96700 -0.72000 -5.45300
H 1.35600 -1.75900 -5.96700
H 1.45200 -3.15700 -4.90200
H 2.71400 -0.52200 -4.79800
H 3.48700 -2.12100 -4.52900
H 2.49500 -1.30300 -3.24000
H 0.86700 -6.33300 -0.08400
H 0.40400 -5.64200 -1.68000
H -0.89100 -5.99900 -0.46300
H -1.28300 -3.58100 4.02800
H 0.69800 -4.47800 7.75500
H 0.83300 -2.61900 7.68000
H 2.00000 -3.75400 6.97600
Mg 7.87976 0.71196 0.58905
C 9.48598 -1.88237 -1.30001
C 9.58616 2.95857 -1.32813
C 6.83452 3.00295 2.51940
C 7.21548 -1.67518 3.03975
N 9.32002 0.44961 -1.06898
C 9.80750 -0.58199 -1.74167
C 10.62428 -0.19826 -3.00468
C 11.05221 1.28785 -2.57196
C 9.89929 1.60753 -1.62260
C 12.34905 1.33449 -1.78116
C 9.74533 -0.18741 -4.30442
C 10.53457 -0.12485 -5.61398
H 10.01865 -0.84832 -6.77281
N 7.76986 2.67402 0.31186
C 8.52302 3.42146 -0.52202
C 8.06689 4.80843 -0.34191
C 7.09661 4.84039 0.78603
C 7.21435 3.48081 1.27363
C 8.48975 5.92821 -1.24784
C 6.21875 5.92003 1.34275
O 5.63227 5.79381 2.47542
C 6.14054 7.16649 0.56706
N 7.32034 0.72236 2.59137
C 6.85306 1.84105 3.17282
C 6.25789 1.54350 4.52841
C 6.20433 -0.05140 4.63340
C 6.89017 -0.41606 3.29847
C 7.01990 2.10691 5.72770
C 4.82508 -0.68965 4.95431
C 3.87747 -0.48076 3.79509
N 8.09966 -1.42935 0.77472
C 7.78239 -2.22525 1.89720
C 8.21370 -3.60418 1.58908
C 8.77735 -3.50964 0.30773
C 8.72086 -2.16282 -0.14213
C 8.10655 -4.72385 2.46143
C 9.41688 -4.24098 -0.76224
O 9.65340 -5.42805 -0.98284
C 10.01857 -3.19698 -1.79878
C 9.62144 -3.63436 -3.18208
O 8.42659 -3.63238 -3.52695
O 10.72794 -3.77379 -3.93479
C 10.38485 -4.19582 -5.31899
H 10.24081 3.73936 -1.71631
H 6.36526 3.73404 3.18181
H 6.95498 -2.49538 3.71213
H 11.50601 -0.80383 -3.17676
H 11.04458 1.96452 -3.42250
H 12.70860 0.34561 -1.53826
H 12.12353 1.88733 -0.87863
H 13.09673 1.92556 -2.31776
H 9.20626 0.76683 -4.36417
H 9.08149 -1.02980 -4.32248
H 11.59840 -0.34629 -5.46507
H 10.52358 0.90578 -5.97687
H 9.33496 5.63476 -1.88259
H 8.89248 6.72164 -0.60897
H 7.66103 6.33226 -1.83318
H 7.13705 7.58834 0.45999
H 5.39677 7.78185 1.07699
H 5.78936 6.92842 -0.44319
H 5.25061 1.93460 4.60281
H 6.85601 -0.42908 5.43496
H 6.40104 2.76212 6.36939
H 7.88597 2.64180 5.36116
H 7.46867 1.36105 6.38154
H 4.37182 -0.19742 5.81827
H 4.88156 -1.74924 5.18029
H 3.49238 0.52831 3.96989
H 3.07731 -1.21785 3.81680
H 4.41874 -0.46650 2.84195
H 7.75296 -5.55250 1.86242
H 7.43491 -4.51774 3.29221
H 9.14593 -4.81736 2.78732
H 11.10116 -3.19072 -1.66640
H 10.94573 -5.11348 -5.52149
H 10.60167 -3.32102 -5.96043
H 9.36884 -4.52337 -5.50578
