79

Mg 31.53256 2.83880 2.39533
C 31.74798 -0.07895 0.33316
C 30.64193 0.77609 4.96341
C 30.89585 5.42877 4.11093
C 31.32335 4.71391 -0.53483
N 31.26509 0.64428 2.51010
C 31.43680 -0.36655 1.66398
C 31.32923 -1.76505 2.34223
C 30.43936 -1.36542 3.60335
C 30.83075 0.09690 3.72322
C 28.93906 -1.45254 3.34257
C 32.72545 -2.32256 2.77982
C 32.74905 -3.80862 3.14921
H 33.92808 -4.59411 2.81718
N 31.34362 3.06726 4.34852
C 30.98936 2.11512 5.24474
C 30.98994 2.77882 6.56617
C 31.18817 4.23785 6.34246
C 31.12343 4.30725 4.90498
C 30.86342 2.03537 7.86040
C 31.39155 5.38862 7.27654
O 31.31120 6.60356 6.88661
C 31.60247 5.05292 8.69635
N 30.94121 4.77338 1.88019
C 30.79056 5.72025 2.81277
C 30.64332 7.07833 2.19320
C 30.96923 6.89376 0.64095
C 31.17904 5.35949 0.62468
C 29.26737 7.74015 2.35060
C 32.07762 7.79616 0.04299
C 33.41877 7.42046 0.63230
N 31.70953 2.44582 0.26805
C 31.56387 3.37146 -0.77533
C 31.66305 2.61757 -2.03861
C 31.84413 1.29474 -1.63964
C 31.83097 1.22298 -0.21733
C 31.52686 3.16121 -3.34641
C 32.02103 -0.07819 -2.08419
O 32.20240 -0.61971 -3.17568
C 31.84392 -1.03884 -0.82656
C 32.98704 -2.01684 -0.83713
O 34.15855 -1.63373 -0.64176
O 32.50178 -3.26786 -0.83761
C 33.58432 -4.28761 -0.81827
H 30.12864 0.25822 5.77600
H 30.78184 6.36325 4.66427
H 31.35190 5.24357 -1.48883
H 30.81461 -2.52013 1.74772
H 30.73460 -1.91137 4.49916
H 28.72818 -1.65098 2.29182
H 28.53597 -0.48282 3.63522
H 28.47266 -2.18294 4.00422
H 33.00081 -1.88813 3.74081
H 33.47564 -2.12995 2.01208
H 31.84455 -4.31703 2.81408
H 32.71934 -3.89099 4.23573
H 30.56523 1.00004 7.70004
H 30.02743 2.47812 8.40151
H 31.76910 2.10382 8.46322
H 30.74224 4.49423 9.06569
H 31.81867 5.99489 9.19915
H 32.46002 4.38437 8.77747
H 31.35143 7.78418 2.62539
H 30.09916 7.09058 0.01412
H 29.30416 8.71767 2.83206
H 28.62544 7.05548 2.90417
H 28.70844 7.85888 1.42274
H 31.89597 8.83956 0.29848
H 32.14895 7.72810 -1.04261
H 33.43549 7.97287 1.57112
H 34.22690 7.74311 -0.02499
H 33.46247 6.35919 0.87786
H 32.31641 2.71069 -3.94776
H 31.60939 4.24778 -3.33413
H 30.52351 2.82151 -3.60282
H 30.88045 -1.53397 -0.94354
H 33.42617 -4.93994 -1.67715
H 33.56449 -4.74183 0.17254
H 34.59271 -3.92399 -1.01894
