158

Mg 0.00000 0.00000 0.00000
C -0.21700 -2.21800 2.80100
C -1.25500 2.44200 2.02600
C -0.24500 1.85000 -2.56400
C 0.14600 -2.82400 -2.03700
N -0.61700 -0.00900 2.12600
C -0.59400 -0.90800 3.10500
C -0.93600 -0.30900 4.50200
C -1.77300 0.96400 4.03200
C -1.15500 1.16800 2.66000
C -3.26300 0.68500 3.86300
C 0.34500 0.11000 5.29900
C 0.12400 0.39700 6.78700
H 1.16800 0.03300 7.73300
N -0.18500 1.96100 -0.15200
C -0.70300 2.80000 0.77700
C -0.62000 4.15600 0.19300
C -0.18700 4.01500 -1.22500
C -0.21400 2.58300 -1.38000
C -0.88700 5.40600 0.97400
C 0.18100 5.01300 -2.27700
O 0.30300 4.69000 -3.50800
C 0.31000 6.41400 -1.83700
N -0.26500 -0.41300 -2.02900
C -0.27900 0.56900 -2.93700
C -0.19600 0.02400 -4.33200
C 0.12400 -1.53300 -4.18000
C 0.08600 -1.63200 -2.63500
C -1.45100 0.20500 -5.19700
C 1.37300 -2.07000 -4.92300
C 2.62600 -1.49000 -4.30600
N 0.15000 -2.14400 0.30300
C 0.17300 -3.13600 -0.68800
C 0.17300 -4.43800 0.00400
C 0.13300 -4.11100 1.35800
C 0.08300 -2.69500 1.50200
C 0.14900 -5.71500 -0.62300
C 0.09600 -4.62900 2.71600
O 0.20800 -5.74700 3.22100
C -0.25500 -3.42800 3.70100
C 0.71700 -3.48200 4.84800
O 1.93100 -3.25500 4.66900
O 0.03800 -3.55600 6.00300
C 0.94300 -3.58300 7.18300
H -1.85900 3.22000 2.49700
H -0.21800 2.45300 -3.47400
H 0.27600 -3.74700 -2.60500
H -1.55400 -0.94900 5.13200
H -1.58500 1.83100 4.66500
H -3.48400 -0.37700 3.96900
H -3.51100 1.02700 2.85800
H -3.85200 1.30100 4.54300
H 0.66900 1.09600 4.96600
H 1.13000 -0.63900 5.18900
H -0.84400 0.02600 7.12500
H 0.06200 1.47700 6.92100
H -1.34400 5.18600 1.93800
H -1.65100 5.96300 0.43200
H 0.00700 6.02000 1.08400
H -0.63500 6.74400 -1.40500
H 0.66500 6.97000 -2.70400
H 1.04800 6.46600 -1.03600
H 0.60800 0.50100 -4.89100
H -0.69200 -2.15600 -4.54700
H -1.26700 0.74000 -6.12900
H -2.20400 0.71400 -4.59600
H -1.96700 -0.72000 -5.45300
H 1.35600 -1.75900 -5.96700
H 1.45200 -3.15700 -4.90200
H 2.71400 -0.52200 -4.79800
H 3.48700 -2.12100 -4.52900
H 2.49500 -1.30300 -3.24000
H 0.86700 -6.33300 -0.08400
H 0.40400 -5.64200 -1.68000
H -0.89100 -5.99900 -0.46300
H -1.28300 -3.58100 4.02800
H 0.69800 -4.47800 7.75500
H 0.83300 -2.61900 7.68000
H 2.00000 -3.75400 6.97600
Mg 13.13176 1.18859 1.00380
C 15.25440 2.26307 3.69062
C 11.17706 -0.32668 3.35278
C 11.49624 -0.14870 -1.36351
C 15.80006 1.78406 -1.15752
N 13.29790 1.05651 3.20544
C 14.11281 1.55608 4.12234
C 13.63714 1.35145 5.58570
C 12.69922 0.06824 5.35647
C 12.33475 0.29071 3.89006
C 13.44586 -1.25061 5.46829
C 12.81519 2.57498 6.12365
C 12.58431 2.57946 7.63641
H 12.57569 3.86158 8.33538
N 11.32419 0.36934 0.99410
C 10.67300 -0.17749 2.04205
C 9.38820 -0.65840 1.51085
C 9.40308 -0.49879 0.03131
C 10.77984 -0.09707 -0.17665
C 8.26842 -1.12978 2.39250
C 8.35551 -0.69003 -1.02331
O 8.65317 -0.72518 -2.26950
C 6.98423 -0.92824 -0.54965
N 13.64264 0.66198 -0.94146
C 12.72816 0.14443 -1.78038
C 13.24949 0.10239 -3.19701
C 14.62002 0.92625 -3.17506
C 14.70255 1.23994 -1.66503
C 13.50286 -1.29120 -3.77154
C 14.75098 2.10137 -4.18235
C 13.78631 3.20587 -3.81510
N 15.09992 2.06480 1.16704
C 16.06482 2.19136 0.14379
C 17.28639 2.74485 0.76333
C 16.95237 2.88143 2.11915
C 15.62371 2.42507 2.33337
C 18.51461 3.00520 0.09264
C 17.42525 3.29797 3.41976
O 18.44163 3.85055 3.83853
C 16.39031 2.79811 4.51768
C 16.10228 3.94887 5.44252
O 15.51688 4.96372 5.02540
O 16.36820 3.57487 6.70734
C 16.08750 4.67926 7.66304
H 10.62322 -1.02560 3.98020
H 10.93940 -0.49949 -2.23549
H 16.64234 2.08996 -1.78176
H 14.42513 1.11489 6.29061
H 11.81075 0.11177 5.98103
H 14.51111 -1.10342 5.56686
H 13.22145 -1.79365 4.55955
H 13.03412 -1.84871 6.28626
H 11.77772 2.49028 5.77550
H 13.26888 3.49984 5.82462
H 13.23386 1.86359 8.15464
H 11.57308 2.21571 7.83418
H 8.60817 -1.29019 3.42315
H 7.98383 -2.12776 2.04189
H 7.39405 -0.47696 2.34817
H 6.96867 -1.81422 0.08063
H 6.36458 -0.95139 -1.44819
H 6.68149 -0.08649 0.08313
H 12.55954 0.58613 -3.87751
H 15.48350 0.28702 -3.41088
H 12.94550 -1.48548 -4.70732
H 13.24641 -2.02318 -3.01724
H 14.54677 -1.52436 -3.97425
H 14.47668 1.77113 -5.18726
H 15.75400 2.51071 -4.24045
H 12.84722 2.87401 -4.26795
H 14.11308 4.15515 -4.23478
H 13.63208 3.24927 -2.73067
H 18.86249 3.96798 0.44268
H 18.38721 2.99646 -0.98785
H 19.11117 2.15845 0.44248
H 16.84788 1.95736 5.04049
H 17.00619 4.85000 8.23273
H 15.19354 4.36189 8.23212
H 15.90794 5.66529 7.25079
