158

Mg 0.00000 0.00000 0.00000
C -0.21700 -2.21800 2.80100
C -1.25500 2.44200 2.02600
C -0.24500 1.85000 -2.56400
C 0.14600 -2.82400 -2.03700
N -0.61700 -0.00900 2.12600
C -0.59400 -0.90800 3.10500
C -0.93600 -0.30900 4.50200
C -1.77300 0.96400 4.03200
C -1.15500 1.16800 2.66000
C -3.26300 0.68500 3.86300
C 0.34500 0.11000 5.29900
C 0.12400 0.39700 6.78700
H 1.16800 0.03300 7.73300
N -0.18500 1.96100 -0.15200
C -0.70300 2.80000 0.77700
C -0.62000 4.15600 0.19300
C -0.18700 4.01500 -1.22500
C -0.21400 2.58300 -1.38000
C -0.88700 5.40600 0.97400
C 0.18100 5.01300 -2.27700
O 0.30300 4.69000 -3.50800
C 0.31000 6.41400 -1.83700
N -0.26500 -0.41300 -2.02900
C -0.27900 0.56900 -2.93700
C -0.19600 0.02400 -4.33200
C 0.12400 -1.53300 -4.18000
C 0.08600 -1.63200 -2.63500
C -1.45100 0.20500 -5.19700
C 1.37300 -2.07000 -4.92300
C 2.62600 -1.49000 -4.30600
N 0.15000 -2.14400 0.30300
C 0.17300 -3.13600 -0.68800
C 0.17300 -4.43800 0.00400
C 0.13300 -4.11100 1.35800
C 0.08300 -2.69500 1.50200
C 0.14900 -5.71500 -0.62300
C 0.09600 -4.62900 2.71600
O 0.20800 -5.74700 3.22100
C -0.25500 -3.42800 3.70100
C 0.71700 -3.48200 4.84800
O 1.93100 -3.25500 4.66900
O 0.03800 -3.55600 6.00300
C 0.94300 -3.58300 7.18300
H -1.85900 3.22000 2.49700
H -0.21800 2.45300 -3.47400
H 0.27600 -3.74700 -2.60500
H -1.55400 -0.94900 5.13200
H -1.58500 1.83100 4.66500
H -3.48400 -0.37700 3.96900
H -3.51100 1.02700 2.85800
H -3.85200 1.30100 4.54300
H 0.66900 1.09600 4.96600
H 1.13000 -0.63900 5.18900
H -0.84400 0.02600 7.12500
H 0.06200 1.47700 6.92100
H -1.34400 5.18600 1.93800
H -1.65100 5.96300 0.43200
H 0.00700 6.02000 1.08400
H -0.63500 6.74400 -1.40500
H 0.66500 6.97000 -2.70400
H 1.04800 6.46600 -1.03600
H 0.60800 0.50100 -4.89100
H -0.69200 -2.15600 -4.54700
H -1.26700 0.74000 -6.12900
H -2.20400 0.71400 -4.59600
H -1.96700 -0.72000 -5.45300
H 1.35600 -1.75900 -5.96700
H 1.45200 -3.15700 -4.90200
H 2.71400 -0.52200 -4.79800
H 3.48700 -2.12100 -4.52900
H 2.49500 -1.30300 -3.24000
H 0.86700 -6.33300 -0.08400
H 0.40400 -5.64200 -1.68000
H -0.89100 -5.99900 -0.46300
H -1.28300 -3.58100 4.02800
H 0.69800 -4.47800 7.75500
H 0.83300 -2.61900 7.68000
H 2.00000 -3.75400 6.97600
Mg 7.88314 0.70970 0.59883
C 7.68464 2.97916 -2.16203
C 7.39966 -1.82069 -1.63868
C 7.60089 -1.26808 3.06162
C 7.21761 3.42105 2.68481
N 7.59387 0.70615 -1.59592
C 7.59836 1.63841 -2.54358
C 7.57883 1.05224 -3.98698
C 6.92472 -0.36752 -3.67327
C 7.36086 -0.52165 -2.22692
C 5.40045 -0.36171 -3.72870
C 9.01730 0.90038 -4.58652
C 9.07269 0.64636 -6.09574
H 10.16166 1.22979 -6.86458
N 8.03372 -1.25821 0.68544
C 7.81741 -2.13230 -0.32671
C 8.05630 -3.47769 0.23858
C 8.24367 -3.32698 1.70837
C 7.93696 -1.93029 1.88321
C 8.13632 -4.71870 -0.59642
C 8.62657 -4.29140 2.78605
O 8.50618 -4.00775 4.02687
C 9.06880 -5.62691 2.34572
N 7.25287 0.97818 2.57071
C 7.28250 -0.03094 3.44809
C 7.06013 0.45684 4.84900
C 7.11355 2.05106 4.77572
C 7.28585 2.21129 3.24506
C 5.74491 0.02008 5.50889
C 8.12254 2.76454 5.71022
C 9.53630 2.44133 5.28137
N 7.68778 2.85826 0.36097
C 7.38600 3.79334 1.36158
C 7.25342 5.10501 0.70127
C 7.47236 4.83732 -0.64864
C 7.69968 3.44239 -0.82408
C 6.90814 6.32854 1.34017
C 7.54275 5.40141 -1.98681
O 7.52473 6.54331 -2.44856
C 7.56223 4.20305 -3.03533
C 8.66650 4.47802 -4.01935
O 9.86181 4.45935 -3.66126
O 8.16251 4.48384 -5.26294
C 9.21132 4.72201 -6.29029
H 7.02141 -2.67046 -2.21030
H 7.60191 -1.89736 3.95406
H 7.09449 4.32605 3.28254
H 6.95517 1.60179 -4.69229
H 7.35661 -1.15882 -4.28568
H 5.00998 0.64885 -3.84803
H 5.07306 -0.78673 -2.77966
H 5.03835 -1.04012 -4.50163
H 9.46092 -0.02760 -4.22579
H 9.62988 1.76958 -4.34450
H 8.11410 0.85690 -6.57080
H 9.22642 -0.42066 -6.25708
H 7.79392 -4.53900 -1.61476
H 7.41379 -5.42472 -0.18753
H 9.13251 -5.16104 -0.57972
H 8.27253 -6.09755 1.76866
H 9.38671 -6.15058 3.24659
H 9.91369 -5.51275 1.66596
H 7.84580 0.10337 5.51549
H 6.15384 2.50435 5.02502
H 5.88316 -0.51580 6.44826
H 5.19244 -0.58537 4.79091
H 5.03896 0.82793 5.69975
H 8.00853 2.40871 6.73361
H 8.00687 3.84840 5.72112
H 9.72377 1.48256 5.76351
H 10.22742 3.20270 5.64452
H 9.59921 2.28243 4.20467
H 7.57451 7.08636 0.92832
H 7.01395 6.25384 2.42222
H 5.86901 6.43290 1.02844
H 6.58289 4.18819 -3.51261
H 8.89605 5.58508 -6.87676
H 9.35084 3.77700 -6.81554
H 10.17820 5.06601 -5.92132
