79

Mg 31.53256 2.83880 2.39533
C 30.97759 6.34390 2.86276
C 30.85894 3.32494 -0.91420
C 31.57024 -0.31182 2.03650
C 31.04371 2.45426 5.82444
N 31.00075 4.65136 1.24101
C 30.87902 5.94357 1.52835
C 30.71179 6.84371 0.26773
C 30.12827 5.75668 -0.74216
C 30.72613 4.50515 -0.12396
C 28.60756 5.64466 -0.70479
C 32.07754 7.41970 -0.23694
C 31.97007 8.55950 -1.25413
H 32.95344 9.63119 -1.21150
N 31.73536 1.73699 0.76814
C 31.42703 2.10081 -0.49987
C 31.75711 0.93651 -1.34965
C 32.10367 -0.19923 -0.45072
C 31.78751 0.36288 0.83748
C 31.77105 0.98801 -2.84662
C 32.62547 -1.57674 -0.71211
O 32.63781 -2.48205 0.19058
C 33.04534 -1.86880 -2.09466
N 31.12008 1.25674 3.69324
C 31.26958 -0.01358 3.30217
C 31.19392 -0.95590 4.46674
C 31.20356 -0.04209 5.77617
C 31.20069 1.34810 5.09379
C 29.97038 -1.88212 4.49979
C 32.29433 -0.34183 6.83484
C 33.65833 -0.00294 6.27647
N 31.26443 4.15894 4.09720
C 31.05537 3.78224 5.43177
C 30.82108 5.01981 6.19833
C 30.89415 6.03576 5.24736
C 31.13132 5.46665 3.96355
C 30.52213 5.09575 7.58732
C 30.80254 7.46776 5.01321
O 30.70794 8.46041 5.73653
C 30.73161 7.71499 3.44169
C 31.71303 8.80542 3.10838
O 32.94091 8.62125 3.23385
O 31.07365 9.80053 2.47475
C 31.99596 10.90195 2.08956
H 30.43826 3.31415 -1.92160
H 31.68459 -1.39614 1.97633
H 30.96795 2.41924 6.91278
H 30.00144 7.66232 0.38478
H 30.50667 5.89717 -1.75449
H 28.18397 6.24017 0.10382
H 28.39742 4.58639 -0.54863
H 28.17672 5.89581 -1.67436
H 32.57900 6.67074 -0.84985
H 32.69388 7.74277 0.60275
H 30.96010 8.96899 -1.28865
H 32.12843 8.14485 -2.24971
H 31.31346 1.90323 -3.22014
H 31.11437 0.19269 -3.19869
H 32.77244 0.84476 -3.25286
H 32.20035 -1.71805 -2.76684
H 33.47313 -2.87051 -2.07376
H 33.80651 -1.14707 -2.39244
H 32.05657 -1.62057 4.48865
H 30.26780 -0.11279 6.33117
H 30.22424 -2.94174 4.53803
H 29.35490 -1.65862 3.62886
H 29.27239 -1.68849 5.31388
H 32.30293 -1.40324 7.08036
H 32.15665 0.21227 7.76342
H 33.91950 -0.89749 5.71221
H 34.36858 0.16937 7.08582
H 33.60440 0.82455 5.56876
H 31.12154 5.91510 7.98399
H 30.74944 4.15763 8.09315
H 29.45269 5.30300 7.55266
H 29.70577 8.00445 3.21589
H 31.59830 11.81985 2.52265
H 32.09697 10.85653 1.00506
H 32.99007 10.87700 2.53727
