158

Mg 0.00000 0.00000 0.00000
C -0.21700 -2.21800 2.80100
C -1.25500 2.44200 2.02600
C -0.24500 1.85000 -2.56400
C 0.14600 -2.82400 -2.03700
N -0.61700 -0.00900 2.12600
C -0.59400 -0.90800 3.10500
C -0.93600 -0.30900 4.50200
C -1.77300 0.96400 4.03200
C -1.15500 1.16800 2.66000
C -3.26300 0.68500 3.86300
C 0.34500 0.11000 5.29900
C 0.12400 0.39700 6.78700
H 1.16800 0.03300 7.73300
N -0.18500 1.96100 -0.15200
C -0.70300 2.80000 0.77700
C -0.62000 4.15600 0.19300
C -0.18700 4.01500 -1.22500
C -0.21400 2.58300 -1.38000
C -0.88700 5.40600 0.97400
C 0.18100 5.01300 -2.27700
O 0.30300 4.69000 -3.50800
C 0.31000 6.41400 -1.83700
N -0.26500 -0.41300 -2.02900
C -0.27900 0.56900 -2.93700
C -0.19600 0.02400 -4.33200
C 0.12400 -1.53300 -4.18000
C 0.08600 -1.63200 -2.63500
C -1.45100 0.20500 -5.19700
C 1.37300 -2.07000 -4.92300
C 2.62600 -1.49000 -4.30600
N 0.15000 -2.14400 0.30300
C 0.17300 -3.13600 -0.68800
C 0.17300 -4.43800 0.00400
C 0.13300 -4.11100 1.35800
C 0.08300 -2.69500 1.50200
C 0.14900 -5.71500 -0.62300
C 0.09600 -4.62900 2.71600
O 0.20800 -5.74700 3.22100
C -0.25500 -3.42800 3.70100
C 0.71700 -3.48200 4.84800
O 1.93100 -3.25500 4.66900
O 0.03800 -3.55600 6.00300
C 0.94300 -3.58300 7.18300
H -1.85900 3.22000 2.49700
H -0.21800 2.45300 -3.47400
H 0.27600 -3.74700 -2.60500
H -1.55400 -0.94900 5.13200
H -1.58500 1.83100 4.66500
H -3.48400 -0.37700 3.96900
H -3.51100 1.02700 2.85800
H -3.85200 1.30100 4.54300
H 0.66900 1.09600 4.96600
H 1.13000 -0.63900 5.18900
H -0.84400 0.02600 7.12500
H 0.06200 1.47700 6.92100
H -1.34400 5.18600 1.93800
H -1.65100 5.96300 0.43200
H 0.00700 6.02000 1.08400
H -0.63500 6.74400 -1.40500
H 0.66500 6.97000 -2.70400
H 1.04800 6.46600 -1.03600
H 0.60800 0.50100 -4.89100
H -0.69200 -2.15600 -4.54700
H -1.26700 0.74000 -6.12900
H -2.20400 0.71400 -4.59600
H -1.96700 -0.72000 -5.45300
H 1.35600 -1.75900 -5.96700
H 1.45200 -3.15700 -4.90200
H 2.71400 -0.52200 -4.79800
H 3.48700 -2.12100 -4.52900
H 2.49500 -1.30300 -3.24000
H 0.86700 -6.33300 -0.08400
H 0.40400 -5.64200 -1.68000
H -0.89100 -5.99900 -0.46300
H -1.28300 -3.58100 4.02800
H 0.69800 -4.47800 7.75500
H 0.83300 -2.61900 7.68000
H 2.00000 -3.75400 6.97600
Mg 8.93025 0.80657 0.66911
C 10.39688 -1.80839 -1.30321
C 10.52803 3.03152 -1.36345
C 8.02401 3.11439 2.64903
C 8.40509 -1.56373 3.16943
N 10.26165 0.52582 -1.07469
C 10.69885 -0.51252 -1.77114
C 11.43723 -0.14082 -3.08499
C 11.90160 1.34431 -2.68796
C 10.81284 1.67685 -1.66978
C 13.24587 1.38558 -1.98044
C 10.47842 -0.13009 -4.32700
C 11.18420 -0.07958 -5.68386
H 10.59156 -0.80503 -6.80411
N 8.81650 2.76797 0.38889
C 9.52083 3.50593 -0.49464
C 9.08637 4.89697 -0.29365
C 8.18914 4.94139 0.89282
C 8.32804 3.58341 1.37933
C 9.45906 6.00925 -1.23032
C 7.35536 6.02997 1.49781
O 6.84038 5.91350 2.66573
C 7.23704 7.27314 0.72190
N 8.49787 0.83077 2.70253
C 8.07567 1.95561 3.30620
C 7.56487 1.66896 4.69807
C 7.50716 0.07502 4.81474
C 8.10525 -0.30106 3.44133
C 8.40456 2.23281 5.84409
C 6.14650 -0.55180 5.22506
C 5.12935 -0.34186 4.12655
N 9.14681 -1.33532 0.85205
C 8.89531 -2.12342 1.99648
C 9.29702 -3.50689 1.66926
C 9.77964 -3.42266 0.35454
C 9.70415 -2.07769 -0.09807
C 9.23728 -4.62147 2.55258
C 10.34568 -4.16378 -0.74955
O 10.55979 -5.35357 -0.97823
C 10.88812 -3.12919 -1.82741
C 10.40187 -3.57051 -3.18068
O 9.18774 -3.56171 -3.44982
O 11.45790 -3.72152 -4.00065
C 11.02562 -4.14789 -5.35828
H 11.16228 3.80571 -1.79615
H 7.60229 3.85204 3.33569
H 8.18179 -2.37874 3.86122
H 12.30226 -0.75350 -3.30888
H 11.84514 2.01684 -3.53994
H 13.61324 0.39538 -1.75533
H 13.08129 1.94445 -1.06850
H 13.96235 1.96868 -2.56610
H 9.94316 0.82767 -4.35787
H 9.80904 -0.96780 -4.29882
H 12.25376 -0.30787 -5.60089
H 11.15744 0.94931 -6.05085
H 10.26069 5.70667 -1.91533
H 9.90653 6.80292 -0.62227
H 8.59796 6.41632 -1.76461
H 8.22770 7.68735 0.55020
H 6.53099 7.89627 1.27425
H 6.82145 7.03261 -0.26301
H 6.56694 2.06759 4.83350
H 8.20535 -0.30335 5.57579
H 7.83173 2.89556 6.51988
H 9.24950 2.75972 5.42102
H 8.88845 1.48699 6.47243
H 5.75180 -0.05212 6.11314
H 6.20986 -1.61064 5.45271
H 4.76288 0.67078 4.31980
H 4.32714 -1.07312 4.20242
H 5.60973 -0.33613 3.14123
H 8.84112 -5.45051 1.98141
H 8.62061 -4.40650 3.42280
H 10.29443 -4.72078 2.81304
H 11.97691 -3.13000 -1.76333
H 11.56641 -5.07050 -5.59071
H 11.20765 -3.27781 -6.01675
H 9.99768 -4.46910 -5.47914
