79

Mg 31.53477 2.84150 2.38532
C 34.08378 0.44494 1.58648
C 33.83424 5.27798 1.74456
C 29.45808 4.95926 3.51221
C 29.83820 0.28097 4.03184
N 33.65250 2.74820 1.75381
C 34.49679 1.78341 1.42112
C 35.83177 2.28113 0.80496
C 35.85394 3.75643 1.43890
C 34.35268 3.96349 1.62870
C 36.52047 3.81521 2.80331
C 35.78495 2.33020 -0.76266
C 37.14476 2.50924 -1.44136
H 37.38138 1.83451 -2.71462
N 31.44885 4.80954 2.14447
C 32.47480 5.64076 1.86557
C 31.89442 6.99137 1.80917
C 30.47234 6.90920 2.24002
C 30.40904 5.52938 2.67842
C 32.65381 8.18281 1.30200
C 29.35771 7.91074 2.26656
O 28.26777 7.68847 2.90331
C 29.61635 9.19718 1.60348
N 29.99323 2.70367 3.77348
C 29.20841 3.76181 4.04239
C 28.00441 3.35471 4.85790
C 28.01817 1.75562 4.87550
C 29.33523 1.50543 4.10858
C 27.96500 3.87887 6.29320
C 26.73103 1.03534 4.38855
C 26.53704 1.27008 2.90779
N 31.77516 0.70544 2.60334
C 30.96568 -0.17136 3.35837
C 31.59296 -1.50731 3.29373
C 32.74537 -1.30862 2.51851
C 32.84101 0.05902 2.14448
C 31.11741 -2.68186 3.94211
C 33.90831 -1.94273 1.94044
O 34.31094 -3.10181 1.85007
C 34.89356 -0.81053 1.41717
C 35.32952 -1.18079 0.02600
O 34.50719 -1.21353 -0.90637
O 36.67366 -1.22230 -0.01816
C 37.15450 -1.57469 -1.38067
H 34.53673 6.11068 1.78945
H 28.65629 5.62590 3.83808
H 29.31873 -0.58996 4.43719
H 36.71001 1.72897 1.11734
H 36.25309 4.48261 0.73555
H 36.76484 2.83122 3.17505
H 35.80855 4.30087 3.45780
H 37.39427 4.47214 2.76800
H 35.29403 3.26012 -1.07729
H 35.29618 1.46043 -1.15664
H 37.97723 2.32900 -0.75038
H 37.25506 3.55845 -1.72599
H 33.72595 7.96836 1.21292
H 32.59457 8.95373 2.07792
H 32.23934 8.58270 0.37412
H 30.48249 9.67080 2.05948
H 28.67313 9.74493 1.65030
H 29.87737 9.00502 0.55679
H 27.08806 3.69312 4.39006
H 28.16613 1.36057 5.89132
H 27.05373 4.46416 6.51925
H 28.85173 4.47494 6.46337
H 28.04749 3.11629 7.06577
H 25.85226 1.45229 4.88663
H 26.73426 -0.03227 4.58140
H 26.04657 2.24756 2.87506
H 25.90460 0.49652 2.47691
H 27.50107 1.36768 2.39517
H 31.19930 -3.48804 3.22527
H 30.09306 -2.55835 4.28738
H 31.82553 -2.74648 4.77257
H 35.73426 -0.76185 2.11031
H 37.80124 -2.45112 -1.27449
H 37.61672 -0.65323 -1.78195
H 36.42212 -1.93727 -2.09243
