158

Mg 0.00000 0.00000 0.00000
C -0.21700 -2.21800 2.80100
C -1.25500 2.44200 2.02600
C -0.24500 1.85000 -2.56400
C 0.14600 -2.82400 -2.03700
N -0.61700 -0.00900 2.12600
C -0.59400 -0.90800 3.10500
C -0.93600 -0.30900 4.50200
C -1.77300 0.96400 4.03200
C -1.15500 1.16800 2.66000
C -3.26300 0.68500 3.86300
C 0.34500 0.11000 5.29900
C 0.12400 0.39700 6.78700
H 1.16800 0.03300 7.73300
N -0.18500 1.96100 -0.15200
C -0.70300 2.80000 0.77700
C -0.62000 4.15600 0.19300
C -0.18700 4.01500 -1.22500
C -0.21400 2.58300 -1.38000
C -0.88700 5.40600 0.97400
C 0.18100 5.01300 -2.27700
O 0.30300 4.69000 -3.50800
C 0.31000 6.41400 -1.83700
N -0.26500 -0.41300 -2.02900
C -0.27900 0.56900 -2.93700
C -0.19600 0.02400 -4.33200
C 0.12400 -1.53300 -4.18000
C 0.08600 -1.63200 -2.63500
C -1.45100 0.20500 -5.19700
C 1.37300 -2.07000 -4.92300
C 2.62600 -1.49000 -4.30600
N 0.15000 -2.14400 0.30300
C 0.17300 -3.13600 -0.68800
C 0.17300 -4.43800 0.00400
C 0.13300 -4.11100 1.35800
C 0.08300 -2.69500 1.50200
C 0.14900 -5.71500 -0.62300
C 0.09600 -4.62900 2.71600
O 0.20800 -5.74700 3.22100
C -0.25500 -3.42800 3.70100
C 0.71700 -3.48200 4.84800
O 1.93100 -3.25500 4.66900
O 0.03800 -3.55600 6.00300
C 0.94300 -3.58300 7.18300
H -1.85900 3.22000 2.49700
H -0.21800 2.45300 -3.47400
H 0.27600 -3.74700 -2.60500
H -1.55400 -0.94900 5.13200
H -1.58500 1.83100 4.66500
H -3.48400 -0.37700 3.96900
H -3.51100 1.02700 2.85800
H -3.85200 1.30100 4.54300
H 0.66900 1.09600 4.96600
H 1.13000 -0.63900 5.18900
H -0.84400 0.02600 7.12500
H 0.06200 1.47700 6.92100
H -1.34400 5.18600 1.93800
H -1.65100 5.96300 0.43200
H 0.00700 6.02000 1.08400
H -0.63500 6.74400 -1.40500
H 0.66500 6.97000 -2.70400
H 1.04800 6.46600 -1.03600
H 0.60800 0.50100 -4.89100
H -0.69200 -2.15600 -4.54700
H -1.26700 0.74000 -6.12900
H -2.20400 0.71400 -4.59600
H -1.96700 -0.72000 -5.45300
H 1.35600 -1.75900 -5.96700
H 1.45200 -3.15700 -4.90200
H 2.71400 -0.52200 -4.79800
H 3.48700 -2.12100 -4.52900
H 2.49500 -1.30300 -3.24000
H 0.86700 -6.33300 -0.08400
H 0.40400 -5.64200 -1.68000
H -0.89100 -5.99900 -0.46300
H -1.28300 -3.58100 4.02800
H 0.69800 -4.47800 7.75500
H 0.83300 -2.61900 7.68000
H 2.00000 -3.75400 6.97600
Mg 15.76755 1.42417 1.20704
C 14.24130 -0.97357 3.39804
C 13.45221 3.67653 2.30280
C 16.79737 3.42234 -1.03220
C 17.18025 -1.25603 -0.51532
N 14.11251 1.25454 2.66456
C 13.66664 0.31185 3.48118
C 12.59633 0.79414 4.49675
C 12.04394 2.06177 3.68014
C 13.28740 2.38003 2.85238
C 10.91135 1.71689 2.72743
C 13.22491 1.22413 5.86861
C 12.21888 1.41145 7.00640
H 12.62239 1.04152 8.36021
N 15.54809 3.38950 1.04012
C 14.56293 4.14601 1.56781
C 14.84207 5.52560 1.14006
C 15.97948 5.49821 0.18075
C 16.14250 4.06890 0.00590
C 14.11342 6.71364 1.69777
C 16.77875 6.57967 -0.48092
O 17.56543 6.33124 -1.46187
C 16.54308 7.95167 -0.00810
N 16.65994 1.12562 -0.64683
C 17.05789 2.16718 -1.39829
C 17.91616 1.70993 -2.55358
C 18.21283 0.16207 -2.28212
C 17.36373 -0.03863 -1.00770
C 17.30259 1.87405 -3.94390
C 19.70325 -0.27440 -2.25362
C 20.39512 0.32984 -1.05296
N 15.88930 -0.71460 1.48790
C 16.50684 -1.65342 0.63271
C 16.22845 -2.99486 1.18541
C 15.44263 -2.74266 2.32003
C 15.22831 -1.34412 2.45293
C 16.64360 -4.23169 0.61617
C 14.73680 -3.34222 3.42955
O 14.63626 -4.48230 3.88104
C 13.82189 -2.23215 4.10563
C 14.02998 -2.30188 5.59370
O 15.13395 -2.01890 6.09147
O 12.84042 -2.47836 6.19718
C 12.99352 -2.54267 7.67509
H 12.63594 4.39186 2.40712
H 17.26632 4.07449 -1.77264
H 17.66752 -2.13671 -0.93916
H 11.79305 0.09030 4.67875
H 11.80726 2.88780 4.34573
H 10.74353 0.65168 2.66989
H 11.20989 2.10553 1.76261
H 10.00548 2.26330 3.00526
H 13.60446 2.25043 5.78255
H 13.98811 0.53373 6.17109
H 11.23957 0.98011 6.76589
H 12.02022 2.47976 7.12159
H 13.22087 6.41095 2.25914
H 13.71972 7.27670 0.84464
H 14.76171 7.36812 2.28432
H 15.49355 8.20380 -0.13993
H 17.26939 8.57185 -0.53700
H 16.74310 7.98989 1.06854
H 18.85519 2.24925 -2.57492
H 17.77097 -0.47975 -3.05843
H 17.92447 2.48377 -4.62623
H 16.31895 2.31086 -3.83350
H 17.08495 0.94354 -4.46541
H 20.22559 0.10390 -3.13578
H 19.83786 -1.35078 -2.23658
H 20.65771 1.33405 -1.39894
H 21.28316 -0.24317 -0.79398
H 19.69965 0.44192 -0.21307
H 17.00135 -4.84546 1.43214
H 17.41354 -4.08363 -0.13818
H 15.70080 -4.57151 0.17924
H 12.78913 -2.44416 3.82630
H 12.54185 -3.48423 8.00242
H 12.54645 -1.60798 8.06270
H 13.99749 -2.64076 8.07117
