79

Mg 10.51863 0.94704 0.79128
C 10.08966 4.33555 -0.31013
C 9.96701 -0.01378 -2.43473
C 10.44334 -2.05896 1.80405
C 9.90226 2.06915 4.03268
N 10.09499 2.10432 -1.04543
C 10.01667 3.38997 -1.35416
C 9.93128 3.68187 -2.87635
C 9.32971 2.27296 -3.35799
C 9.85540 1.38499 -2.23201
C 7.81096 2.22696 -3.33308
C 11.33959 3.95288 -3.51293
C 11.30451 4.54640 -4.92298
H 12.33530 5.51029 -5.29828
N 10.73155 -0.75192 -0.21210
C 10.48447 -0.95950 -1.52250
C 10.77662 -2.38046 -1.76682
C 11.05805 -3.03305 -0.45929
C 10.72762 -1.95433 0.45024
C 10.84816 -2.97121 -3.14498
C 11.53228 -4.40551 -0.08828
O 11.47991 -4.83251 1.11910
C 11.97267 -5.26823 -1.19429
N 10.00938 0.08549 2.61357
C 10.11460 -1.24132 2.80440
C 9.96080 -1.59636 4.26409
C 9.97150 -0.20282 5.04863
C 10.04315 0.76394 3.84629
C 8.69799 -2.37618 4.62957
C 11.01561 -0.04444 6.18768
C 12.41167 -0.01891 5.60822
N 10.25753 2.86571 1.74972
C 9.98346 3.10757 3.11372
C 9.77636 4.56245 3.26485
C 9.92272 5.06728 1.96400
C 10.18139 3.99979 1.06231
C 9.44752 5.23455 4.47575
C 9.90670 6.25925 1.14690
O 9.82320 7.46588 1.37227
C 9.88871 5.82387 -0.38167
C 10.92497 6.63665 -1.10836
O 12.13320 6.49855 -0.84813
O 10.34003 7.27967 -2.13536
C 11.32969 8.09073 -2.89337
H 9.58368 -0.43552 -3.36429
H 10.51404 -3.06488 2.22431
H 9.80276 2.50944 5.02712
H 9.25777 4.48597 -3.14761
H 9.75187 1.96871 -4.31223
H 7.38842 3.11232 -2.88170
H 7.55269 1.34832 -2.75659
H 7.42257 2.05139 -4.34038
H 11.82730 2.99278 -3.72527
H 11.93331 4.57637 -2.87310
H 10.30958 4.92580 -5.18587
H 11.48373 3.74337 -5.64205
H 10.43296 -2.28905 -3.89709
H 10.17317 -3.83381 -3.15856
H 11.85397 -3.30535 -3.40834
H 11.15671 -5.39256 -1.90225
H 12.35853 -6.17402 -0.72257
H 12.78171 -4.76167 -1.73232
H 10.79399 -2.19828 4.60555
H 9.01165 -0.01014 5.55003
H 8.90958 -3.33867 5.13245
H 8.12296 -2.53690 3.72732
H 7.99139 -1.84093 5.26158
H 10.97475 -0.90409 6.86110
H 10.86522 0.84465 6.79092
H 12.64868 -1.08034 5.48868
H 13.10286 0.46489 6.29540
H 12.41524 0.43410 4.61001
H 10.06043 6.12528 4.51379
H 9.61560 4.59807 5.34202
H 8.38457 5.42832 4.30881
H 8.88336 6.00732 -0.76273
H 10.95295 9.11804 -2.91288
H 11.45117 7.58017 -3.86719
H 12.30757 8.23250 -2.44829
