158

Mg 0.00000 0.00000 0.00000
C -0.21700 -2.21800 2.80100
C -1.25500 2.44200 2.02600
C -0.24500 1.85000 -2.56400
C 0.14600 -2.82400 -2.03700
N -0.61700 -0.00900 2.12600
C -0.59400 -0.90800 3.10500
C -0.93600 -0.30900 4.50200
C -1.77300 0.96400 4.03200
C -1.15500 1.16800 2.66000
C -3.26300 0.68500 3.86300
C 0.34500 0.11000 5.29900
C 0.12400 0.39700 6.78700
H 1.16800 0.03300 7.73300
N -0.18500 1.96100 -0.15200
C -0.70300 2.80000 0.77700
C -0.62000 4.15600 0.19300
C -0.18700 4.01500 -1.22500
C -0.21400 2.58300 -1.38000
C -0.88700 5.40600 0.97400
C 0.18100 5.01300 -2.27700
O 0.30300 4.69000 -3.50800
C 0.31000 6.41400 -1.83700
N -0.26500 -0.41300 -2.02900
C -0.27900 0.56900 -2.93700
C -0.19600 0.02400 -4.33200
C 0.12400 -1.53300 -4.18000
C 0.08600 -1.63200 -2.63500
C -1.45100 0.20500 -5.19700
C 1.37300 -2.07000 -4.92300
C 2.62600 -1.49000 -4.30600
N 0.15000 -2.14400 0.30300
C 0.17300 -3.13600 -0.68800
C 0.17300 -4.43800 0.00400
C 0.13300 -4.11100 1.35800
C 0.08300 -2.69500 1.50200
C 0.14900 -5.71500 -0.62300
C 0.09600 -4.62900 2.71600
O 0.20800 -5.74700 3.22100
C -0.25500 -3.42800 3.70100
C 0.71700 -3.48200 4.84800
O 1.93100 -3.25500 4.66900
O 0.03800 -3.55600 6.00300
C 0.94300 -3.58300 7.18300
H -1.85900 3.22000 2.49700
H -0.21800 2.45300 -3.47400
H 0.27600 -3.74700 -2.60500
H -1.55400 -0.94900 5.13200
H -1.58500 1.83100 4.66500
H -3.48400 -0.37700 3.96900
H -3.51100 1.02700 2.85800
H -3.85200 1.30100 4.54300
H 0.66900 1.09600 4.96600
H 1.13000 -0.63900 5.18900
H -0.84400 0.02600 7.12500
H 0.06200 1.47700 6.92100
H -1.34400 5.18600 1.93800
H -1.65100 5.96300 0.43200
H 0.00700 6.02000 1.08400
H -0.63500 6.74400 -1.40500
H 0.66500 6.97000 -2.70400
H 1.04800 6.46600 -1.03600
H 0.60800 0.50100 -4.89100
H -0.69200 -2.15600 -4.54700
H -1.26700 0.74000 -6.12900
H -2.20400 0.71400 -4.59600
H -1.96700 -0.72000 -5.45300
H 1.35600 -1.75900 -5.96700
H 1.45200 -3.15700 -4.90200
H 2.71400 -0.52200 -4.79800
H 3.48700 -2.12100 -4.52900
H 2.49500 -1.30300 -3.24000
H 0.86700 -6.33300 -0.08400
H 0.40400 -5.64200 -1.68000
H -0.89100 -5.99900 -0.46300
H -1.28300 -3.58100 4.02800
H 0.69800 -4.47800 7.75500
H 0.83300 -2.61900 7.68000
H 2.00000 -3.75400 6.97600
Mg 31.54008 2.84197 2.38857
C 31.01182 6.39159 2.40341
C 30.90513 2.91194 -0.96203
C 31.55433 -0.33076 2.42034
C 31.00526 2.88788 5.83205
N 31.03651 4.49864 1.01230
C 30.92392 5.81399 1.11963
C 30.78484 6.56024 -0.23437
C 30.19536 5.35338 -1.11465
C 30.77328 4.17555 -0.33274
C 28.67932 5.25946 -1.06856
C 32.16687 7.05428 -0.78929
C 32.07586 8.05391 -1.94437
H 33.07566 9.11507 -2.02691
N 31.75358 1.54372 0.90280
C 31.46918 1.74514 -0.40098
C 31.78054 0.47837 -1.08105
C 32.11562 -0.53878 -0.04768
C 31.79358 0.19572 1.15933
C 31.81971 0.34549 -2.57578
C 32.62749 -1.94485 -0.13232
O 32.62152 -2.72591 0.88392
C 33.04907 -2.41014 -1.46170
N 31.10530 1.44475 3.86542
C 31.24184 0.12753 3.63263
C 31.14112 -0.66608 4.91342
C 31.15000 0.41588 6.09107
C 31.16509 1.70895 5.24660
C 29.90563 -1.55573 5.04934
C 32.22641 0.24302 7.19747
C 33.60269 0.48571 6.62098
N 31.27283 4.36161 3.90096
C 31.03749 4.16160 5.27889
C 30.80750 5.49184 5.87888
C 30.90297 6.37845 4.79569
C 31.15332 5.65018 3.60134
C 30.50436 5.74661 7.24611
C 30.83833 7.76386 4.38931
O 30.73896 8.83863 4.97984
C 30.78030 7.82273 2.80200
C 31.77734 8.84918 2.33850
O 32.99561 8.67117 2.51377
O 31.14801 9.76190 1.57609
C 32.09752 10.79512 1.08342
H 30.50072 2.78811 -1.96702
H 31.65750 -1.41496 2.50596
H 30.92887 2.99574 6.91612
H 30.08785 7.38965 -0.22644
H 30.59286 5.37140 -2.12610
H 28.25443 5.94942 -0.35472
H 28.45625 4.23867 -0.78702
H 28.26268 5.39354 -2.07094
H 32.66587 6.22112 -1.30073
H 32.76852 7.46544 -0.00214
H 31.06604 8.46807 -2.05247
H 32.24755 7.51826 -2.88119
H 31.36797 1.21507 -3.06890
H 31.16124 -0.48906 -2.83998
H 32.82289 0.13757 -2.95403
H 32.21364 -2.33199 -2.15338
H 33.46690 -3.40630 -1.30372
H 33.83085 -1.73949 -1.83542
H 31.99604 -1.32058 5.03106
H 30.20299 0.41696 6.65054
H 30.15138 -2.62031 5.22355
H 29.30552 -1.44529 4.15591
H 29.20929 -1.26241 5.83309
H 32.22332 -0.78365 7.57176
H 32.07822 0.89713 8.05022
H 33.85604 -0.47950 6.17236
H 34.30592 0.75217 7.40744
H 33.56602 1.22538 5.81278
H 31.10103 6.59859 7.54378
H 30.71190 4.87821 7.86786
H 29.43316 5.95273 7.17325
H 29.76009 8.08692 2.52105
H 31.70079 11.76705 1.39268
H 32.19786 10.61470 -0.00338
H 33.08611 10.81945 1.52677
