79

Mg 10.51057 0.94873 0.78814
C 12.71949 -1.53668 -0.56186
C 12.63816 3.30367 -0.46176
C 8.83367 3.14678 2.34505
C 9.21411 -1.53144 2.86507
N 12.40123 0.78103 -0.34745
C 13.11164 -0.21423 -0.85647
C 14.26308 0.23259 -1.79673
C 14.47935 1.71700 -1.22347
C 13.07835 1.97238 -0.67152
C 15.46598 1.77859 -0.06931
C 13.82851 0.25667 -3.30424
C 14.98044 0.38320 -4.30364
H 14.87550 -0.31968 -5.57935
N 10.41662 2.91413 0.52944
C 11.36122 3.70924 -0.01536
C 10.81905 5.07559 0.04212
C 9.54751 5.04358 0.81470
C 9.56091 3.67387 1.28778
C 11.45773 6.23491 -0.66605
C 8.50003 6.07858 1.09357
O 7.59784 5.90000 1.98632
C 8.61745 7.34530 0.35661
N 9.36044 0.88079 2.51872
C 8.69405 1.96648 2.94898
C 7.72135 1.60963 4.04757
C 7.69906 0.01138 4.09923
C 8.77689 -0.29126 3.03524
C 8.05382 2.15881 5.43475
C 6.31359 -0.67786 3.96472
C 5.76282 -0.46231 2.57347
N 10.74419 -1.18964 0.99034
C 10.12662 -2.02881 1.94348
C 10.68441 -3.38397 1.75678
C 11.61200 -3.23317 0.71499
C 11.64564 -1.87552 0.29650
C 10.35614 -4.53258 2.53076
C 12.57807 -3.91168 -0.11870
O 12.91637 -5.08372 -0.27870
C 13.42992 -2.81866 -0.89719
C 13.49621 -3.22524 -2.34385
O 12.46701 -3.24885 -3.04155
O 14.78551 -3.30798 -2.71966
C 14.90285 -3.69756 -4.15014
H 13.35028 4.11544 -0.61268
H 8.15524 3.84267 2.84400
H 8.79037 -2.37938 3.40740
H 15.17736 -0.34047 -1.69937
H 14.70875 2.41889 -2.02102
H 15.77056 0.79408 0.25334
H 14.95191 2.29643 0.72983
H 16.31959 2.40820 -0.33628
H 13.29811 1.19554 -3.50903
H 13.23541 -0.60448 -3.54359
H 15.95401 0.18960 -3.83715
H 15.04257 1.42367 -4.63164
H 12.46817 5.98676 -1.01365
H 11.61292 7.02020 0.08168
H 10.83533 6.63145 -1.47106
H 9.58144 7.80020 0.57165
H 7.72962 7.92194 0.62332
H 8.60464 7.12779 -0.71724
H 6.72611 1.96760 3.81423
H 8.08545 -0.37081 5.05552
H 7.24251 2.77502 5.86618
H 8.96960 2.73066 5.36498
H 8.30704 1.40719 6.18049
H 5.59730 -0.22630 4.65550
H 6.33805 -1.74169 4.17606
H 5.30426 0.52882 2.64041
H 5.02384 -1.22360 2.33182
H 6.57091 -0.40246 1.83519
H 10.23669 -5.35280 1.83544
H 9.45349 -4.37246 3.11673
H 11.24694 -4.60454 3.16048
H 14.41771 -2.78369 -0.43609
H 15.53353 -4.59118 -4.18720
H 15.27345 -2.79734 -4.67551
H 14.00743 -4.04983 -4.64872
