158

Mg 0.00000 0.00000 0.00000
C -0.21700 -2.21800 2.80100
C -1.25500 2.44200 2.02600
C -0.24500 1.85000 -2.56400
C 0.14600 -2.82400 -2.03700
N -0.61700 -0.00900 2.12600
C -0.59400 -0.90800 3.10500
C -0.93600 -0.30900 4.50200
C -1.77300 0.96400 4.03200
C -1.15500 1.16800 2.66000
C -3.26300 0.68500 3.86300
C 0.34500 0.11000 5.29900
C 0.12400 0.39700 6.78700
H 1.16800 0.03300 7.73300
N -0.18500 1.96100 -0.15200
C -0.70300 2.80000 0.77700
C -0.62000 4.15600 0.19300
C -0.18700 4.01500 -1.22500
C -0.21400 2.58300 -1.38000
C -0.88700 5.40600 0.97400
C 0.18100 5.01300 -2.27700
O 0.30300 4.69000 -3.50800
C 0.31000 6.41400 -1.83700
N -0.26500 -0.41300 -2.02900
C -0.27900 0.56900 -2.93700
C -0.19600 0.02400 -4.33200
C 0.12400 -1.53300 -4.18000
C 0.08600 -1.63200 -2.63500
C -1.45100 0.20500 -5.19700
C 1.37300 -2.07000 -4.92300
C 2.62600 -1.49000 -4.30600
N 0.15000 -2.14400 0.30300
C 0.17300 -3.13600 -0.68800
C 0.17300 -4.43800 0.00400
C 0.13300 -4.11100 1.35800
C 0.08300 -2.69500 1.50200
C 0.14900 -5.71500 -0.62300
C 0.09600 -4.62900 2.71600
O 0.20800 -5.74700 3.22100
C -0.25500 -3.42800 3.70100
C 0.71700 -3.48200 4.84800
O 1.93100 -3.25500 4.66900
O 0.03800 -3.55600 6.00300
C 0.94300 -3.58300 7.18300
H -1.85900 3.22000 2.49700
H -0.21800 2.45300 -3.47400
H 0.27600 -3.74700 -2.60500
H -1.55400 -0.94900 5.13200
H -1.58500 1.83100 4.66500
H -3.48400 -0.37700 3.96900
H -3.51100 1.02700 2.85800
H -3.85200 1.30100 4.54300
H 0.66900 1.09600 4.96600
H 1.13000 -0.63900 5.18900
H -0.84400 0.02600 7.12500
H 0.06200 1.47700 6.92100
H -1.34400 5.18600 1.93800
H -1.65100 5.96300 0.43200
H 0.00700 6.02000 1.08400
H -0.63500 6.74400 -1.40500
H 0.66500 6.97000 -2.70400
H 1.04800 6.46600 -1.03600
H 0.60800 0.50100 -4.89100
H -0.69200 -2.15600 -4.54700
H -1.26700 0.74000 -6.12900
H -2.20400 0.71400 -4.59600
H -1.96700 -0.72000 -5.45300
H 1.35600 -1.75900 -5.96700
H 1.45200 -3.15700 -4.90200
H 2.71400 -0.52200 -4.79800
H 3.48700 -2.12100 -4.52900
H 2.49500 -1.30300 -3.24000
H 0.86700 -6.33300 -0.08400
H 0.40400 -5.64200 -1.68000
H -0.89100 -5.99900 -0.46300
H -1.28300 -3.58100 4.02800
H 0.69800 -4.47800 7.75500
H 0.83300 -2.61900 7.68000
H 2.00000 -3.75400 6.97600
Mg 15.77434 1.41290 1.19539
C 15.82037 1.61878 -2.38715
C 15.21899 -1.93444 0.84683
C 15.28042 1.26963 4.32636
C 15.19201 4.84859 1.24673
N 15.56698 0.12559 -0.59125
C 15.66428 0.30432 -1.90004
C 15.67067 -1.00766 -2.72964
C 14.91167 -1.95860 -1.68155
C 15.27965 -1.23761 -0.38640
C 13.39953 -1.93174 -1.83012
C 17.12365 -1.52170 -3.02393
C 17.21443 -2.62064 -4.08499
H 18.37239 -2.63527 -4.97460
N 15.80409 -0.14024 2.43048
C 15.57901 -1.43347 2.11716
C 15.69593 -2.17953 3.37965
C 15.84543 -1.20084 4.49075
C 15.62339 0.04186 3.77907
C 15.74017 -3.67890 3.43768
C 16.12727 -1.35823 5.95430
O 15.97822 -0.38675 6.77701
C 16.49281 -2.70733 6.41016
N 15.09526 2.80631 2.58089
C 15.02354 2.50243 3.88873
C 14.77422 3.73648 4.72260
C 14.93488 4.97209 3.72008
C 15.17173 4.20046 2.40331
C 13.41011 3.81170 5.40812
C 15.94976 6.07714 4.12203
C 17.35726 5.52763 4.07341
N 15.72645 3.00434 -0.26512
C 15.43745 4.36690 -0.03277
C 15.41244 5.03725 -1.34899
C 15.66790 4.00557 -2.26488
C 15.81995 2.77521 -1.57020
C 15.12946 6.41361 -1.57632
C 15.83296 3.67570 -3.66225
O 15.89617 4.32372 -4.70620
C 15.81359 2.09359 -3.81372
C 16.97011 1.69666 -4.68976
O 18.14089 1.87306 -4.30928
O 16.50864 0.98003 -5.73084
C 17.61986 0.55391 -6.62272
H 14.81808 -2.94842 0.85062
H 15.20731 1.29622 5.41605
H 15.11442 5.93621 1.18561
H 15.11526 -0.96038 -3.65866
H 15.32502 -2.96381 -1.68905
H 13.07772 -1.18485 -2.54056
H 13.01107 -1.70904 -0.84496
H 13.02776 -2.92898 -2.08234
H 17.49209 -2.07373 -2.14971
H 17.76908 -0.70756 -3.29077
H 16.28595 -2.71502 -4.66116
H 17.31504 -3.58397 -3.57913
H 15.44224 -4.12741 2.48193
H 14.96155 -3.99481 4.14040
H 16.70381 -4.05878 3.78375
H 15.69318 -3.40130 6.16225
H 16.74304 -2.60073 7.46747
H 17.37836 -3.03624 5.85498
H 15.51121 3.82570 5.51126
H 13.99035 5.52202 3.59652
H 13.47928 3.92915 6.50608
H 12.85152 2.92024 5.15550
H 12.75569 4.60400 5.04869
H 15.77579 6.39415 5.15324
H 15.89280 6.96329 3.49874
H 17.46100 5.02877 5.04163
H 18.07982 6.33404 3.96546
H 17.45387 4.76118 3.29567
H 15.84926 6.76334 -2.30438
H 15.18424 6.98836 -0.65414
H 14.10649 6.34236 -1.95544
H 14.85397 1.81827 -4.25292
H 17.37818 0.91267 -7.62799
H 17.70954 -0.54022 -6.48639
H 18.59149 1.00701 -6.46437
