79

Mg 31.52351 2.84113 2.39032
C 31.25365 0.05425 0.14543
C 31.56675 4.85980 -0.35881
C 32.21244 5.27237 4.30915
C 32.59488 0.59436 4.82956
N 31.41686 2.39645 0.22627
C 31.25367 1.30511 -0.50633
C 31.00034 1.57440 -2.01393
C 31.68742 3.02212 -2.11838
C 31.51943 3.47746 -0.67024
C 33.17339 2.96191 -2.43081
C 29.47147 1.63779 -2.36113
C 29.14898 1.58906 -3.85625
H 27.94079 0.88999 -4.28526
N 31.35886 4.79673 2.09522
C 31.37329 5.44514 0.91174
C 31.24033 6.87427 1.23433
C 31.31194 7.03010 2.71261
C 31.65896 5.67852 3.10364
C 30.98567 7.92359 0.19150
C 31.11489 8.20446 3.62269
O 31.45971 8.16546 4.85655
C 30.59283 9.43221 3.00499
N 32.49196 2.95777 4.22631
C 32.61186 4.13144 4.87134
C 33.09413 3.92857 6.28790
C 33.04174 2.34981 6.53763
C 32.60390 1.88552 5.13117
C 34.50004 4.44535 6.59243
C 32.22697 1.85813 7.76526
C 30.75533 2.12887 7.54999
N 31.69557 0.69407 2.55934
C 32.19280 -0.03779 3.65990
C 32.22036 -1.45980 3.26044
C 31.75526 -1.45390 1.93676
C 31.47789 -0.12004 1.53255
C 32.68105 -2.54077 4.06380
C 31.44595 -2.27164 0.78596
O 31.40252 -3.48144 0.56636
C 31.22734 -1.31858 -0.46715
C 29.96668 -1.75044 -1.16483
O 28.86327 -1.64037 -0.60184
O 30.24559 -2.01685 -2.45387
C 29.02434 -2.43875 -3.19033
H 31.81729 5.56250 -1.15400
H 32.36567 6.06268 5.04766
H 32.82318 -0.17882 5.56627
H 31.48952 0.88119 -2.68768
H 31.13465 3.67417 -2.78967
H 33.54786 1.94917 -2.41424
H 33.65864 3.55722 -1.66845
H 33.37942 3.46294 -3.38099
H 29.09055 2.63837 -2.11928
H 28.93224 0.86425 -1.84976
H 30.01112 1.26844 -4.45364
H 28.94732 2.60613 -4.20108
H 31.14767 7.53256 -0.82055
H 31.75874 8.68996 0.31355
H 30.00448 8.39163 0.29574
H 31.26501 9.75158 2.21213
H 30.43606 10.13034 3.82956
H 29.63214 9.20374 2.53013
H 32.43534 4.41818 6.99456
H 34.04424 1.93090 6.70892
H 34.52644 5.17430 7.42429
H 34.90563 4.88328 5.69006
H 35.23422 3.67622 6.82614
H 32.51728 2.41444 8.65991
H 32.36615 0.80427 7.98205
H 30.64999 3.17497 7.85278
H 30.15013 1.47447 8.17411
H 30.49487 2.06554 6.48707
H 31.96908 -3.34597 3.94027
H 32.77480 -2.24858 5.10764
H 33.65374 -2.72717 3.60077
H 32.10397 -1.41493 -1.10888
H 29.24312 -3.41182 -3.64085
H 28.78850 -1.60618 -3.87949
H 28.14146 -2.66996 -2.60594
