158

Mg 0.00000 0.00000 0.00000
C -0.21700 -2.21800 2.80100
C -1.25500 2.44200 2.02600
C -0.24500 1.85000 -2.56400
C 0.14600 -2.82400 -2.03700
N -0.61700 -0.00900 2.12600
C -0.59400 -0.90800 3.10500
C -0.93600 -0.30900 4.50200
C -1.77300 0.96400 4.03200
C -1.15500 1.16800 2.66000
C -3.26300 0.68500 3.86300
C 0.34500 0.11000 5.29900
C 0.12400 0.39700 6.78700
H 1.16800 0.03300 7.73300
N -0.18500 1.96100 -0.15200
C -0.70300 2.80000 0.77700
C -0.62000 4.15600 0.19300
C -0.18700 4.01500 -1.22500
C -0.21400 2.58300 -1.38000
C -0.88700 5.40600 0.97400
C 0.18100 5.01300 -2.27700
O 0.30300 4.69000 -3.50800
C 0.31000 6.41400 -1.83700
N -0.26500 -0.41300 -2.02900
C -0.27900 0.56900 -2.93700
C -0.19600 0.02400 -4.33200
C 0.12400 -1.53300 -4.18000
C 0.08600 -1.63200 -2.63500
C -1.45100 0.20500 -5.19700
C 1.37300 -2.07000 -4.92300
C 2.62600 -1.49000 -4.30600
N 0.15000 -2.14400 0.30300
C 0.17300 -3.13600 -0.68800
C 0.17300 -4.43800 0.00400
C 0.13300 -4.11100 1.35800
C 0.08300 -2.69500 1.50200
C 0.14900 -5.71500 -0.62300
C 0.09600 -4.62900 2.71600
O 0.20800 -5.74700 3.22100
C -0.25500 -3.42800 3.70100
C 0.71700 -3.48200 4.84800
O 1.93100 -3.25500 4.66900
O 0.03800 -3.55600 6.00300
C 0.94300 -3.58300 7.18300
H -1.85900 3.22000 2.49700
H -0.21800 2.45300 -3.47400
H 0.27600 -3.74700 -2.60500
H -1.55400 -0.94900 5.13200
H -1.58500 1.83100 4.66500
H -3.48400 -0.37700 3.96900
H -3.51100 1.02700 2.85800
H -3.85200 1.30100 4.54300
H 0.66900 1.09600 4.96600
H 1.13000 -0.63900 5.18900
H -0.84400 0.02600 7.12500
H 0.06200 1.47700 6.92100
H -1.34400 5.18600 1.93800
H -1.65100 5.96300 0.43200
H 0.00700 6.02000 1.08400
H -0.63500 6.74400 -1.40500
H 0.66500 6.97000 -2.70400
H 1.04800 6.46600 -1.03600
H 0.60800 0.50100 -4.89100
H -0.69200 -2.15600 -4.54700
H -1.26700 0.74000 -6.12900
H -2.20400 0.71400 -4.59600
H -1.96700 -0.72000 -5.45300
H 1.35600 -1.75900 -5.96700
H 1.45200 -3.15700 -4.90200
H 2.71400 -0.52200 -4.79800
H 3.48700 -2.12100 -4.52900
H 2.49500 -1.30300 -3.24000
H 0.86700 -6.33300 -0.08400
H 0.40400 -5.64200 -1.68000
H -0.89100 -5.99900 -0.46300
H -1.28300 -3.58100 4.02800
H 0.69800 -4.47800 7.75500
H 0.83300 -2.61900 7.68000
H 2.00000 -3.75400 6.97600
Mg 31.53256 2.83880 2.39533
C 31.74010 -0.31694 0.71889
C 30.59333 1.12343 5.19147
C 30.90412 5.62951 3.76413
C 31.37402 4.33225 -0.74953
N 31.24137 0.67859 2.78178
C 31.41175 -0.43211 2.07151
C 31.28257 -1.73319 2.91879
C 30.38338 -1.17026 4.10899
C 30.78845 0.29200 4.04880
C 28.88514 -1.27624 3.84336
C 32.66822 -2.24355 3.43959
C 32.67260 -3.67149 3.99305
H 33.84700 -4.50289 3.77645
N 31.32505 3.31278 4.30193
C 30.95146 2.48409 5.30642
C 30.94469 3.30869 6.53388
C 31.16027 4.72618 6.13097
C 31.11165 4.61481 4.69549
C 30.79668 2.73508 7.90967
C 31.36543 5.98346 6.91538
O 31.30174 7.14037 6.37493
C 31.55767 5.82716 8.36853
N 30.96666 4.69837 1.63414
C 30.81574 5.75632 2.43848
C 30.68910 7.02693 1.65144
C 31.02971 6.64572 0.13869
C 31.22393 5.11979 0.31786
C 29.31841 7.71542 1.70800
C 32.15366 7.45591 -0.55468
C 33.48448 7.14547 0.09312
N 31.72827 2.17983 0.33657
C 31.60331 2.96813 -0.81653
C 31.70828 2.06049 -1.97379
C 31.87149 0.79680 -1.40961
C 31.84234 0.90462 0.01019
C 31.59170 2.43650 -3.34107
C 32.03903 -0.62265 -1.67596
O 32.22653 -1.29873 -2.68850
C 31.83861 -1.41588 -0.30978
C 32.97168 -2.39751 -0.18373
O 34.14490 -2.00324 -0.02410
O 32.47364 -3.63432 -0.03277
C 33.54538 -4.65306 0.12747
H 30.06608 0.71643 6.05652
H 30.79379 6.62714 4.19425
H 31.41822 4.73744 -1.76211
H 30.76662 -2.55247 2.41779
H 30.66338 -1.60179 5.06977
H 28.68351 -1.60338 2.82344
H 28.48892 -0.27388 4.00700
H 28.40421 -1.91346 4.58595
H 32.93771 -1.69414 4.34158
H 33.42853 -2.15567 2.66272
H 31.76658 -4.21001 3.71371
H 32.63040 -3.61628 5.08088
H 30.48962 1.69048 7.87715
H 29.95953 3.24974 8.38085
H 31.69650 2.87081 8.50987
H 30.68784 5.32699 8.79487
H 31.77812 6.82294 8.75151
H 32.40740 5.16657 8.54325
H 31.39974 7.77525 1.99991
H 30.16848 6.76981 -0.51823
H 29.36007 8.74537 2.06321
H 28.66359 7.11151 2.33554
H 28.77071 7.72144 0.76598
H 31.98000 8.52472 -0.43452
H 32.23591 7.25122 -1.62219
H 33.49681 7.81141 0.95521
H 34.30288 7.37574 -0.58983
H 33.51465 6.12318 0.47060
H 32.38298 1.90697 -3.87158
H 31.68524 3.51522 -3.46444
H 30.58772 2.07614 -3.56470
H 30.87142 -1.91327 -0.37508
H 33.38976 -5.40682 -0.64445
H 33.51027 -4.97886 1.16719
H 34.55954 -4.32649 -0.10528
