79

Mg 8.94215 0.79729 0.67878
C 9.08046 -0.11931 -2.78817
C 8.30196 -2.48178 1.36614
C 8.36893 1.64186 3.68304
C 8.45509 4.08987 -0.35438
N 8.74209 -0.97657 -0.62723
C 8.87594 -1.21457 -1.92329
C 8.86566 -2.71906 -2.30538
C 8.05526 -3.28325 -1.03897
C 8.41187 -2.20320 -0.01965
C 6.54850 -3.27491 -1.23632
C 10.31038 -3.32670 -2.37996
C 10.39599 -4.70211 -3.04529
H 11.57423 -5.01412 -3.84957
N 8.89860 -0.29633 2.33428
C 8.64507 -1.61841 2.42972
C 8.71054 -1.93809 3.86418
C 8.86047 -0.66604 4.62188
C 8.69053 0.29857 3.55383
C 8.71140 -3.34604 4.38486
C 9.10236 -0.36699 6.07042
O 8.96072 0.81445 6.54684
C 9.41889 -1.51483 6.93283
N 8.26905 2.56448 1.54268
C 8.15728 2.68275 2.87738
C 7.92250 4.11913 3.27997
C 8.14184 4.97946 1.94981
C 8.38875 3.83303 0.94477
C 6.54487 4.42936 3.86502
C 9.17723 6.13508 2.02184
C 10.56957 5.57081 2.19027
N 8.97410 1.85773 -1.20337
C 8.71780 3.23041 -1.41349
C 8.74336 3.45970 -2.87266
C 8.99190 2.19010 -3.41565
C 9.09266 1.23329 -2.36977
C 8.50456 4.70277 -3.52372
C 9.18138 1.43992 -4.63631
O 9.28790 1.73077 -5.82702
C 9.12143 -0.11045 -4.29112
C 10.28722 -0.78158 -4.96420
O 11.45294 -0.51826 -4.62018
O 9.83117 -1.77688 -5.74637
C 10.95125 -2.47981 -6.42691
H 7.87287 -3.43670 1.67094
H 8.27029 2.00659 4.70808
H 8.40945 5.10614 -0.75160
H 8.33440 -2.95171 -3.22048
H 8.44039 -4.24889 -0.72185
H 6.26496 -2.77926 -2.15288
H 6.14273 -2.75020 -0.38129
H 6.15517 -4.29390 -1.17907
H 10.64200 -3.58721 -1.36660
H 10.98459 -2.64799 -2.86516
H 9.47942 -4.95281 -3.59302
H 10.45736 -5.46272 -2.26316
H 8.42421 -4.06314 3.60597
H 7.90750 -3.41342 5.12585
H 9.65540 -3.61816 4.86183
H 8.60639 -2.23606 6.88675
H 9.64639 -1.09028 7.91257
H 10.30806 -2.01660 6.53505
H 8.64244 4.43451 4.02517
H 7.21632 5.48187 1.63227
H 6.59076 4.88028 4.87429
H 5.96783 3.51436 3.88321
H 5.92175 5.08341 3.25746
H 8.98734 6.75962 2.89823
H 9.16016 6.78507 1.15338
H 10.63589 5.39505 3.26814
H 11.31680 6.28999 1.86092
H 10.66346 4.59920 1.69146
H 9.25124 4.79556 -4.30112
H 8.55311 5.53410 -2.82350
H 7.48946 4.53699 -3.89433
H 8.16537 -0.49005 -4.65365
H 10.74406 -2.44606 -7.50097
H 11.00697 -3.47917 -5.95581
H 11.93107 -2.01859 -6.38593
