158

Mg 0.00000 0.00000 0.00000
C -0.21700 -2.21800 2.80100
C -1.25500 2.44200 2.02600
C -0.24500 1.85000 -2.56400
C 0.14600 -2.82400 -2.03700
N -0.61700 -0.00900 2.12600
C -0.59400 -0.90800 3.10500
C -0.93600 -0.30900 4.50200
C -1.77300 0.96400 4.03200
C -1.15500 1.16800 2.66000
C -3.26300 0.68500 3.86300
C 0.34500 0.11000 5.29900
C 0.12400 0.39700 6.78700
H 1.16800 0.03300 7.73300
N -0.18500 1.96100 -0.15200
C -0.70300 2.80000 0.77700
C -0.62000 4.15600 0.19300
C -0.18700 4.01500 -1.22500
C -0.21400 2.58300 -1.38000
C -0.88700 5.40600 0.97400
C 0.18100 5.01300 -2.27700
O 0.30300 4.69000 -3.50800
C 0.31000 6.41400 -1.83700
N -0.26500 -0.41300 -2.02900
C -0.27900 0.56900 -2.93700
C -0.19600 0.02400 -4.33200
C 0.12400 -1.53300 -4.18000
C 0.08600 -1.63200 -2.63500
C -1.45100 0.20500 -5.19700
C 1.37300 -2.07000 -4.92300
C 2.62600 -1.49000 -4.30600
N 0.15000 -2.14400 0.30300
C 0.17300 -3.13600 -0.68800
C 0.17300 -4.43800 0.00400
C 0.13300 -4.11100 1.35800
C 0.08300 -2.69500 1.50200
C 0.14900 -5.71500 -0.62300
C 0.09600 -4.62900 2.71600
O 0.20800 -5.74700 3.22100
C -0.25500 -3.42800 3.70100
C 0.71700 -3.48200 4.84800
O 1.93100 -3.25500 4.66900
O 0.03800 -3.55600 6.00300
C 0.94300 -3.58300 7.18300
H -1.85900 3.22000 2.49700
H -0.21800 2.45300 -3.47400
H 0.27600 -3.74700 -2.60500
H -1.55400 -0.94900 5.13200
H -1.58500 1.83100 4.66500
H -3.48400 -0.37700 3.96900
H -3.51100 1.02700 2.85800
H -3.85200 1.30100 4.54300
H 0.66900 1.09600 4.96600
H 1.13000 -0.63900 5.18900
H -0.84400 0.02600 7.12500
H 0.06200 1.47700 6.92100
H -1.34400 5.18600 1.93800
H -1.65100 5.96300 0.43200
H 0.00700 6.02000 1.08400
H -0.63500 6.74400 -1.40500
H 0.66500 6.97000 -2.70400
H 1.04800 6.46600 -1.03600
H 0.60800 0.50100 -4.89100
H -0.69200 -2.15600 -4.54700
H -1.26700 0.74000 -6.12900
H -2.20400 0.71400 -4.59600
H -1.96700 -0.72000 -5.45300
H 1.35600 -1.75900 -5.96700
H 1.45200 -3.15700 -4.90200
H 2.71400 -0.52200 -4.79800
H 3.48700 -2.12100 -4.52900
H 2.49500 -1.30300 -3.24000
H 0.86700 -6.33300 -0.08400
H 0.40400 -5.64200 -1.68000
H -0.89100 -5.99900 -0.46300
H -1.28300 -3.58100 4.02800
H 0.69800 -4.47800 7.75500
H 0.83300 -2.61900 7.68000
H 2.00000 -3.75400 6.97600
Mg 31.53931 2.84669 2.39319
C 30.92376 5.03573 5.16957
C 30.58050 5.40735 0.35400
C 31.63826 0.81364 -0.04081
C 31.34028 0.18119 4.62954
N 30.86203 4.90762 2.82461
C 30.72655 5.64815 3.91439
C 30.43752 7.14851 3.64065
C 29.79664 7.00644 2.17505
C 30.47787 5.71231 1.73479
C 28.29516 6.77302 2.19482
C 31.74597 8.01411 3.61397
C 31.51755 9.52654 3.66002
H 32.47696 10.35355 4.38670
N 31.64092 3.18530 0.44035
C 31.22621 4.28864 -0.21686
C 31.50260 4.03710 -1.63971
C 31.96249 2.62938 -1.78649
C 31.74033 2.13789 -0.44144
C 31.39989 5.10494 -2.68975
C 32.49975 1.85042 -2.94871
O 32.61257 0.57426 -2.90954
C 32.80213 2.61557 -4.16716
N 31.28607 0.78712 2.26518
C 31.43324 0.14399 1.09358
C 31.47779 -1.35204 1.29438
C 31.57309 -1.57062 2.87575
C 31.47283 -0.10124 3.34081
C 30.28465 -2.13294 0.74393
C 32.75591 -2.43186 3.39715
C 34.06302 -1.70944 3.16269
N 31.38109 2.62296 4.53631
C 31.28585 1.41605 5.26321
C 31.08102 1.77678 6.68108
C 31.04803 3.17941 6.67743
C 31.19992 3.65857 5.34821
C 30.90558 0.86000 7.75573
C 30.90859 4.36341 7.49439
O 30.83938 4.58148 8.70327
C 30.69525 5.61497 6.53810
C 31.61582 6.71244 6.99705
O 32.84954 6.57630 6.91945
O 30.89217 7.81893 7.24677
C 31.76244 8.93876 7.69447
H 30.08376 6.06412 -0.36069
H 31.77713 0.07043 -0.82937
H 31.36674 -0.59037 5.40197
H 29.72346 7.60417 4.31613
H 30.09348 7.83129 1.53250
H 27.92395 6.62284 3.19771
H 28.12683 5.88965 1.59285
H 27.77987 7.59006 1.68173
H 32.21426 7.92483 2.62530
H 32.41040 7.72476 4.40482
H 30.49168 9.77971 3.95403
H 31.61123 9.92267 2.64596
H 30.88017 5.99343 -2.31043
H 30.74058 4.71908 -3.47479
H 32.36663 5.35548 -3.13169
H 31.90177 3.12018 -4.50947
H 33.25883 1.90128 -4.85498
H 33.52642 3.39898 -3.91758
H 32.35666 -1.77895 0.82702
H 30.68515 -2.08631 3.27004
H 30.57348 -2.91876 0.02065
H 29.59800 -1.43136 0.28915
H 29.66036 -2.61291 1.49566
H 32.81560 -3.37012 2.84014
H 32.67441 -2.68620 4.44865
H 34.29639 -1.95308 2.12189
H 34.83218 -2.08065 3.83697
H 33.92904 -0.62325 3.22490
H 31.50619 1.22554 8.57801
H 31.19478 -0.14888 7.46888
H 29.82741 0.94870 7.91371
H 29.64612 5.90499 6.60722
H 31.37271 9.28063 8.65827
H 31.76142 9.66865 6.86320
H 32.78845 8.70386 7.95253
