158

Mg 0.00000 0.00000 0.00000
C -0.21700 -2.21800 2.80100
C -1.25500 2.44200 2.02600
C -0.24500 1.85000 -2.56400
C 0.14600 -2.82400 -2.03700
N -0.61700 -0.00900 2.12600
C -0.59400 -0.90800 3.10500
C -0.93600 -0.30900 4.50200
C -1.77300 0.96400 4.03200
C -1.15500 1.16800 2.66000
C -3.26300 0.68500 3.86300
C 0.34500 0.11000 5.29900
C 0.12400 0.39700 6.78700
H 1.16800 0.03300 7.73300
N -0.18500 1.96100 -0.15200
C -0.70300 2.80000 0.77700
C -0.62000 4.15600 0.19300
C -0.18700 4.01500 -1.22500
C -0.21400 2.58300 -1.38000
C -0.88700 5.40600 0.97400
C 0.18100 5.01300 -2.27700
O 0.30300 4.69000 -3.50800
C 0.31000 6.41400 -1.83700
N -0.26500 -0.41300 -2.02900
C -0.27900 0.56900 -2.93700
C -0.19600 0.02400 -4.33200
C 0.12400 -1.53300 -4.18000
C 0.08600 -1.63200 -2.63500
C -1.45100 0.20500 -5.19700
C 1.37300 -2.07000 -4.92300
C 2.62600 -1.49000 -4.30600
N 0.15000 -2.14400 0.30300
C 0.17300 -3.13600 -0.68800
C 0.17300 -4.43800 0.00400
C 0.13300 -4.11100 1.35800
C 0.08300 -2.69500 1.50200
C 0.14900 -5.71500 -0.62300
C 0.09600 -4.62900 2.71600
O 0.20800 -5.74700 3.22100
C -0.25500 -3.42800 3.70100
C 0.71700 -3.48200 4.84800
O 1.93100 -3.25500 4.66900
O 0.03800 -3.55600 6.00300
C 0.94300 -3.58300 7.18300
H -1.85900 3.22000 2.49700
H -0.21800 2.45300 -3.47400
H 0.27600 -3.74700 -2.60500
H -1.55400 -0.94900 5.13200
H -1.58500 1.83100 4.66500
H -3.48400 -0.37700 3.96900
H -3.51100 1.02700 2.85800
H -3.85200 1.30100 4.54300
H 0.66900 1.09600 4.96600
H 1.13000 -0.63900 5.18900
H -0.84400 0.02600 7.12500
H 0.06200 1.47700 6.92100
H -1.34400 5.18600 1.93800
H -1.65100 5.96300 0.43200
H 0.00700 6.02000 1.08400
H -0.63500 6.74400 -1.40500
H 0.66500 6.97000 -2.70400
H 1.04800 6.46600 -1.03600
H 0.60800 0.50100 -4.89100
H -0.69200 -2.15600 -4.54700
H -1.26700 0.74000 -6.12900
H -2.20400 0.71400 -4.59600
H -1.96700 -0.72000 -5.45300
H 1.35600 -1.75900 -5.96700
H 1.45200 -3.15700 -4.90200
H 2.71400 -0.52200 -4.79800
H 3.48700 -2.12100 -4.52900
H 2.49500 -1.30300 -3.24000
H 0.86700 -6.33300 -0.08400
H 0.40400 -5.64200 -1.68000
H -0.89100 -5.99900 -0.46300
H -1.28300 -3.58100 4.02800
H 0.69800 -4.47800 7.75500
H 0.83300 -2.61900 7.68000
H 2.00000 -3.75400 6.97600
Mg 15.76628 1.41940 1.19766
C 15.23090 2.18591 4.65281
C 14.65621 4.56546 0.48134
C 15.79849 0.61493 -1.86965
C 15.73851 -1.94861 2.09287
N 15.06289 3.07364 2.48971
C 14.96280 3.26060 3.80204
C 14.61898 4.72919 4.19243
C 13.92212 5.19374 2.83575
C 14.61287 4.24608 1.87100
C 12.42122 4.92466 2.79855
C 15.89854 5.57797 4.49908
C 15.64281 6.91616 5.19851
H 16.60881 7.39023 6.17802
N 15.76771 2.54893 -0.42314
C 15.29023 3.81218 -0.53032
C 15.52105 4.21746 -1.93358
C 15.99813 3.02044 -2.68032
C 15.84691 1.99409 -1.68076
C 15.33702 5.62018 -2.42580
C 16.49933 2.82968 -4.07694
O 16.64256 1.66997 -4.59572
C 16.73732 4.05416 -4.86247
N 15.54953 -0.40446 0.20560
C 15.66319 -0.48416 -1.12471
C 15.75417 -1.91032 -1.58047
C 15.92396 -2.78739 -0.25696
C 15.81266 -1.65437 0.79287
C 14.55813 -2.43226 -2.38861
C 17.14858 -3.73431 -0.19318
C 18.42250 -2.92201 -0.12683
N 15.70701 0.29161 3.05121
C 15.68060 -1.10377 3.18866
C 15.53278 -1.39346 4.62682
C 15.46638 -0.13821 5.22831
C 15.53999 0.87148 4.22661
C 15.41839 -2.68669 5.20896
C 15.32559 0.58474 6.48185
O 15.31382 0.26411 7.67120
C 15.04500 2.11633 6.14819
C 15.95931 2.94407 7.00969
O 17.19538 2.91820 6.83988
O 15.22880 3.80785 7.73135
C 16.07754 4.67995 8.58648
H 14.10669 5.43811 0.12293
H 15.91840 0.29253 -2.90605
H 15.80723 -2.97592 2.45530
H 13.91936 4.82684 5.02274
H 14.16197 6.22765 2.58833
H 12.09989 4.33954 3.66012
H 12.24764 4.37053 1.87589
H 11.86310 5.85592 2.69829
H 16.32487 5.93675 3.56229
H 16.61573 4.99820 5.08117
H 14.63171 6.96743 5.60343
H 15.67420 7.70557 4.44747
H 14.82202 6.23804 -1.69125
H 14.65038 5.57358 -3.27082
H 16.27801 6.07119 -2.74118
H 15.80923 4.62162 -4.93444
H 17.17749 3.72679 -5.80371
H 17.44293 4.68752 -4.32402
H 16.62100 -2.06112 -2.22256
H 15.07048 -3.44486 -0.08969
H 14.82896 -2.81879 -3.37144
H 13.83037 -1.62565 -2.47256
H 13.97091 -3.20293 -1.88996
H 17.20363 -4.34419 -1.09427
H 17.12700 -4.40873 0.66294
H 18.61901 -2.69151 -1.17329
H 19.23080 -3.51637 0.30049
H 18.26478 -1.97582 0.39119
H 16.05382 -2.67988 6.09449
H 15.72287 -3.46440 4.50891
H 14.35103 -2.71610 5.42743
H 13.99458 2.29874 6.37282
H 15.72815 4.56160 9.61222
H 16.03543 5.67781 8.14956
H 17.12220 4.38433 8.68951
