158

Mg 0.00000 0.00000 0.00000
C -0.21700 -2.21800 2.80100
C -1.25500 2.44200 2.02600
C -0.24500 1.85000 -2.56400
C 0.14600 -2.82400 -2.03700
N -0.61700 -0.00900 2.12600
C -0.59400 -0.90800 3.10500
C -0.93600 -0.30900 4.50200
C -1.77300 0.96400 4.03200
C -1.15500 1.16800 2.66000
C -3.26300 0.68500 3.86300
C 0.34500 0.11000 5.29900
C 0.12400 0.39700 6.78700
H 1.16800 0.03300 7.73300
N -0.18500 1.96100 -0.15200
C -0.70300 2.80000 0.77700
C -0.62000 4.15600 0.19300
C -0.18700 4.01500 -1.22500
C -0.21400 2.58300 -1.38000
C -0.88700 5.40600 0.97400
C 0.18100 5.01300 -2.27700
O 0.30300 4.69000 -3.50800
C 0.31000 6.41400 -1.83700
N -0.26500 -0.41300 -2.02900
C -0.27900 0.56900 -2.93700
C -0.19600 0.02400 -4.33200
C 0.12400 -1.53300 -4.18000
C 0.08600 -1.63200 -2.63500
C -1.45100 0.20500 -5.19700
C 1.37300 -2.07000 -4.92300
C 2.62600 -1.49000 -4.30600
N 0.15000 -2.14400 0.30300
C 0.17300 -3.13600 -0.68800
C 0.17300 -4.43800 0.00400
C 0.13300 -4.11100 1.35800
C 0.08300 -2.69500 1.50200
C 0.14900 -5.71500 -0.62300
C 0.09600 -4.62900 2.71600
O 0.20800 -5.74700 3.22100
C -0.25500 -3.42800 3.70100
C 0.71700 -3.48200 4.84800
O 1.93100 -3.25500 4.66900
O 0.03800 -3.55600 6.00300
C 0.94300 -3.58300 7.18300
H -1.85900 3.22000 2.49700
H -0.21800 2.45300 -3.47400
H 0.27600 -3.74700 -2.60500
H -1.55400 -0.94900 5.13200
H -1.58500 1.83100 4.66500
H -3.48400 -0.37700 3.96900
H -3.51100 1.02700 2.85800
H -3.85200 1.30100 4.54300
H 0.66900 1.09600 4.96600
H 1.13000 -0.63900 5.18900
H -0.84400 0.02600 7.12500
H 0.06200 1.47700 6.92100
H -1.34400 5.18600 1.93800
H -1.65100 5.96300 0.43200
H 0.00700 6.02000 1.08400
H -0.63500 6.74400 -1.40500
H 0.66500 6.97000 -2.70400
H 1.04800 6.46600 -1.03600
H 0.60800 0.50100 -4.89100
H -0.69200 -2.15600 -4.54700
H -1.26700 0.74000 -6.12900
H -2.20400 0.71400 -4.59600
H -1.96700 -0.72000 -5.45300
H 1.35600 -1.75900 -5.96700
H 1.45200 -3.15700 -4.90200
H 2.71400 -0.52200 -4.79800
H 3.48700 -2.12100 -4.52900
H 2.49500 -1.30300 -3.24000
H 0.86700 -6.33300 -0.08400
H 0.40400 -5.64200 -1.68000
H -0.89100 -5.99900 -0.46300
H -1.28300 -3.58100 4.02800
H 0.69800 -4.47800 7.75500
H 0.83300 -2.61900 7.68000
H 2.00000 -3.75400 6.97600
Mg 7.88315 0.71841 0.60487
C 9.68001 -0.45217 3.48238
C 5.25779 1.35296 2.68800
C 6.12258 1.33131 -1.96266
C 10.16329 -1.03749 -1.36070
N 7.62377 0.44425 2.78427
C 8.39666 0.04892 3.78462
C 7.78856 0.27395 5.19499
C 6.23544 0.29201 4.78712
C 6.36842 0.75907 3.33907
C 5.59705 -1.08705 4.78745
C 8.23257 1.64007 5.82633
C 7.92979 1.78722 7.31912
H 8.87684 2.52316 8.15217
N 6.17133 1.70674 0.42752
C 5.23276 1.88609 1.38052
C 4.15713 2.66261 0.74477
C 4.46221 2.78559 -0.70661
C 5.61167 1.90911 -0.80955
C 3.02494 3.27088 1.52040
C 3.81734 3.55362 -1.82039
O 4.10411 3.32684 -3.04887
C 2.77244 4.51361 -1.43559
N 7.97823 0.05144 -1.36197
C 7.12396 0.51484 -2.29117
C 7.55495 0.10740 -3.67992
C 9.01429 -0.52401 -3.50895
C 9.14331 -0.45049 -1.97163
C 6.64679 -0.89572 -4.39083
C 10.15038 0.08445 -4.37599
C 10.43480 1.50168 -3.93332
N 9.71699 -0.37127 0.94788
C 10.49755 -1.05123 -0.01257
C 11.58468 -1.73659 0.71604
C 11.34586 -1.42418 2.06283
C 10.17976 -0.61881 2.16814
C 12.58636 -2.56202 0.13173
C 11.80898 -1.60136 3.42034
O 12.79855 -2.11510 3.94051
C 10.67880 -1.08467 4.41135
C 11.33162 -0.20515 5.44226
O 11.85411 0.87421 5.11274
O 11.04216 -0.67505 6.66937
C 11.65846 0.17057 7.72621
H 4.30138 1.37640 3.21108
H 5.61473 1.60288 -2.89100
H 10.97132 -1.52453 -1.91074
H 7.97762 -0.52341 5.90369
H 5.68153 1.02057 5.37342
H 6.32533 -1.86811 4.94774
H 5.13253 -1.19641 3.81621
H 4.78296 -1.12541 5.51692
H 7.59909 2.44214 5.42617
H 9.27507 1.82054 5.64956
H 7.67375 0.82756 7.78434
H 7.02513 2.38961 7.43198
H 2.97696 2.87243 2.54135
H 2.09598 2.92890 1.05142
H 3.04538 4.36272 1.50919
H 1.97905 3.99104 -0.90653
H 2.49458 5.02823 -2.35746
H 3.20126 5.23289 -0.72892
H 7.61912 0.96888 -4.33326
H 9.03024 -1.59117 -3.77496
H 6.27180 -0.53052 -5.36555
H 5.82275 -1.13644 -3.73238
H 7.09085 -1.87305 -4.57199
H 9.83889 0.14255 -5.42181
H 11.07107 -0.48861 -4.34554
H 9.67174 2.08256 -4.46001
H 11.43665 1.80278 -4.23279
H 10.25667 1.62148 -2.85835
H 13.52398 -2.29193 0.59908
H 12.62773 -2.43321 -0.94784
H 12.21325 -3.55037 0.41319
H 10.20984 -1.96165 4.85919
H 12.26675 -0.49115 8.35055
H 10.81732 0.69441 8.21798
H 12.39383 0.90371 7.41607
