158

Mg 0.00000 0.00000 0.00000
C -0.21700 -2.21800 2.80100
C -1.25500 2.44200 2.02600
C -0.24500 1.85000 -2.56400
C 0.14600 -2.82400 -2.03700
N -0.61700 -0.00900 2.12600
C -0.59400 -0.90800 3.10500
C -0.93600 -0.30900 4.50200
C -1.77300 0.96400 4.03200
C -1.15500 1.16800 2.66000
C -3.26300 0.68500 3.86300
C 0.34500 0.11000 5.29900
C 0.12400 0.39700 6.78700
H 1.16800 0.03300 7.73300
N -0.18500 1.96100 -0.15200
C -0.70300 2.80000 0.77700
C -0.62000 4.15600 0.19300
C -0.18700 4.01500 -1.22500
C -0.21400 2.58300 -1.38000
C -0.88700 5.40600 0.97400
C 0.18100 5.01300 -2.27700
O 0.30300 4.69000 -3.50800
C 0.31000 6.41400 -1.83700
N -0.26500 -0.41300 -2.02900
C -0.27900 0.56900 -2.93700
C -0.19600 0.02400 -4.33200
C 0.12400 -1.53300 -4.18000
C 0.08600 -1.63200 -2.63500
C -1.45100 0.20500 -5.19700
C 1.37300 -2.07000 -4.92300
C 2.62600 -1.49000 -4.30600
N 0.15000 -2.14400 0.30300
C 0.17300 -3.13600 -0.68800
C 0.17300 -4.43800 0.00400
C 0.13300 -4.11100 1.35800
C 0.08300 -2.69500 1.50200
C 0.14900 -5.71500 -0.62300
C 0.09600 -4.62900 2.71600
O 0.20800 -5.74700 3.22100
C -0.25500 -3.42800 3.70100
C 0.71700 -3.48200 4.84800
O 1.93100 -3.25500 4.66900
O 0.03800 -3.55600 6.00300
C 0.94300 -3.58300 7.18300
H -1.85900 3.22000 2.49700
H -0.21800 2.45300 -3.47400
H 0.27600 -3.74700 -2.60500
H -1.55400 -0.94900 5.13200
H -1.58500 1.83100 4.66500
H -3.48400 -0.37700 3.96900
H -3.51100 1.02700 2.85800
H -3.85200 1.30100 4.54300
H 0.66900 1.09600 4.96600
H 1.13000 -0.63900 5.18900
H -0.84400 0.02600 7.12500
H 0.06200 1.47700 6.92100
H -1.34400 5.18600 1.93800
H -1.65100 5.96300 0.43200
H 0.00700 6.02000 1.08400
H -0.63500 6.74400 -1.40500
H 0.66500 6.97000 -2.70400
H 1.04800 6.46600 -1.03600
H 0.60800 0.50100 -4.89100
H -0.69200 -2.15600 -4.54700
H -1.26700 0.74000 -6.12900
H -2.20400 0.71400 -4.59600
H -1.96700 -0.72000 -5.45300
H 1.35600 -1.75900 -5.96700
H 1.45200 -3.15700 -4.90200
H 2.71400 -0.52200 -4.79800
H 3.48700 -2.12100 -4.52900
H 2.49500 -1.30300 -3.24000
H 0.86700 -6.33300 -0.08400
H 0.40400 -5.64200 -1.68000
H -0.89100 -5.99900 -0.46300
H -1.28300 -3.58100 4.02800
H 0.69800 -4.47800 7.75500
H 0.83300 -2.61900 7.68000
H 2.00000 -3.75400 6.97600
Mg 8.93808 0.81177 0.68516
C 9.78144 -1.16364 3.56015
C 6.82734 2.57570 2.70208
C 7.84032 2.27273 -1.90867
C 10.20052 -1.76992 -1.28633
N 8.45417 0.63448 2.83613
C 8.88261 -0.11372 3.84161
C 8.37800 0.33643 5.23885
C 7.05153 1.11449 4.77629
C 7.47571 1.50060 3.36078
C 5.82951 0.21626 4.68042
C 9.38751 1.29909 5.95733
C 9.10779 1.53119 7.44381
H 10.24251 1.69353 8.34853
N 7.92642 2.50888 0.49822
C 7.13702 3.09192 1.42460
C 6.60626 4.30947 0.79213
C 7.01561 4.31144 -0.63866
C 7.60526 2.99201 -0.74595
C 5.86406 5.36649 1.55716
C 6.88501 5.32715 -1.73295
O 7.09725 5.02551 -2.96046
C 6.41084 6.66102 -1.33615
N 8.81321 0.23882 -1.30945
C 8.34226 1.08386 -2.24329
C 8.60292 0.55906 -3.63506
C 9.56583 -0.70355 -3.44477
C 9.62582 -0.74582 -1.90204
C 7.36664 0.14062 -4.43061
C 10.90215 -0.69517 -4.23649
C 11.80749 0.39476 -3.70940
N 9.99819 -1.03776 1.03651
C 10.40892 -1.98228 0.07045
C 10.98827 -3.12828 0.80083
C 10.85239 -2.77828 2.15269
C 10.21385 -1.51311 2.25798
C 11.50084 -4.31777 0.21048
C 11.09433 -3.19619 3.51486
O 11.68288 -4.13888 4.04277
C 10.29745 -2.22647 4.49006
C 11.23254 -1.80200 5.58914
O 12.22787 -1.10053 5.33641
O 10.68280 -2.10862 6.77831
C 11.56813 -1.69692 7.90014
H 5.97198 3.04331 3.19053
H 7.58005 2.78249 -2.83920
H 10.70456 -2.57073 -1.83162
H 8.11903 -0.47303 5.91077
H 6.88393 2.00278 5.37978
H 6.08154 -0.82373 4.82554
H 5.42630 0.37299 3.68850
H 5.05707 0.55508 5.37674
H 9.24229 2.31855 5.57740
H 10.39641 0.95833 5.82839
H 8.39534 0.80180 7.84797
H 8.59982 2.49220 7.55541
H 5.57176 5.01164 2.55317
H 4.91382 5.52966 1.03726
H 6.40796 6.31233 1.60449
H 5.43500 6.57192 -0.86470
H 6.46831 7.27212 -2.23899
H 7.09148 7.06284 -0.57728
H 9.11108 1.30066 -4.23912
H 9.08156 -1.63739 -3.76612
H 7.27029 0.66943 -5.39764
H 6.49220 0.30922 -3.81623
H 7.29520 -0.92394 -4.64696
H 10.71767 -0.46370 -5.28842
H 11.43003 -1.64238 -4.20295
H 11.44975 1.28693 -4.23202
H 12.84592 0.18273 -3.95588
H 11.64761 0.55472 -2.63679
H 12.42415 -4.54797 0.72527
H 11.66098 -4.19398 -0.85854
H 10.68273 -5.01041 0.42550
H 9.43954 -2.78012 4.87351
H 11.74598 -2.58785 8.51030
H 11.05619 -0.84625 8.38802
H 12.58196 -1.40183 7.65618
