158

Mg 0.00000 0.00000 0.00000
C -0.21700 -2.21800 2.80100
C -1.25500 2.44200 2.02600
C -0.24500 1.85000 -2.56400
C 0.14600 -2.82400 -2.03700
N -0.61700 -0.00900 2.12600
C -0.59400 -0.90800 3.10500
C -0.93600 -0.30900 4.50200
C -1.77300 0.96400 4.03200
C -1.15500 1.16800 2.66000
C -3.26300 0.68500 3.86300
C 0.34500 0.11000 5.29900
C 0.12400 0.39700 6.78700
H 1.16800 0.03300 7.73300
N -0.18500 1.96100 -0.15200
C -0.70300 2.80000 0.77700
C -0.62000 4.15600 0.19300
C -0.18700 4.01500 -1.22500
C -0.21400 2.58300 -1.38000
C -0.88700 5.40600 0.97400
C 0.18100 5.01300 -2.27700
O 0.30300 4.69000 -3.50800
C 0.31000 6.41400 -1.83700
N -0.26500 -0.41300 -2.02900
C -0.27900 0.56900 -2.93700
C -0.19600 0.02400 -4.33200
C 0.12400 -1.53300 -4.18000
C 0.08600 -1.63200 -2.63500
C -1.45100 0.20500 -5.19700
C 1.37300 -2.07000 -4.92300
C 2.62600 -1.49000 -4.30600
N 0.15000 -2.14400 0.30300
C 0.17300 -3.13600 -0.68800
C 0.17300 -4.43800 0.00400
C 0.13300 -4.11100 1.35800
C 0.08300 -2.69500 1.50200
C 0.14900 -5.71500 -0.62300
C 0.09600 -4.62900 2.71600
O 0.20800 -5.74700 3.22100
C -0.25500 -3.42800 3.70100
C 0.71700 -3.48200 4.84800
O 1.93100 -3.25500 4.66900
O 0.03800 -3.55600 6.00300
C 0.94300 -3.58300 7.18300
H -1.85900 3.22000 2.49700
H -0.21800 2.45300 -3.47400
H 0.27600 -3.74700 -2.60500
H -1.55400 -0.94900 5.13200
H -1.58500 1.83100 4.66500
H -3.48400 -0.37700 3.96900
H -3.51100 1.02700 2.85800
H -3.85200 1.30100 4.54300
H 0.66900 1.09600 4.96600
H 1.13000 -0.63900 5.18900
H -0.84400 0.02600 7.12500
H 0.06200 1.47700 6.92100
H -1.34400 5.18600 1.93800
H -1.65100 5.96300 0.43200
H 0.00700 6.02000 1.08400
H -0.63500 6.74400 -1.40500
H 0.66500 6.97000 -2.70400
H 1.04800 6.46600 -1.03600
H 0.60800 0.50100 -4.89100
H -0.69200 -2.15600 -4.54700
H -1.26700 0.74000 -6.12900
H -2.20400 0.71400 -4.59600
H -1.96700 -0.72000 -5.45300
H 1.35600 -1.75900 -5.96700
H 1.45200 -3.15700 -4.90200
H 2.71400 -0.52200 -4.79800
H 3.48700 -2.12100 -4.52900
H 2.49500 -1.30300 -3.24000
H 0.86700 -6.33300 -0.08400
H 0.40400 -5.64200 -1.68000
H -0.89100 -5.99900 -0.46300
H -1.28300 -3.58100 4.02800
H 0.69800 -4.47800 7.75500
H 0.83300 -2.61900 7.68000
H 2.00000 -3.75400 6.97600
Mg 13.12837 1.18568 0.99852
C 11.56555 -1.63288 -0.58021
C 11.78268 3.12258 -1.46565
C 14.85248 3.61081 2.10015
C 15.23583 -1.06720 2.61990
N 11.85569 0.69277 -0.74205
C 11.27393 -0.40295 -1.20604
C 10.26352 -0.15605 -2.35829
C 10.85370 1.23510 -2.90166
C 11.51109 1.73950 -1.61866
C 11.93473 1.05970 -3.95520
C 8.79228 0.00817 -1.83821
C 7.71550 -0.05671 -2.92361
H 6.43486 -0.67797 -2.59732
N 12.92245 3.13957 0.71841
C 12.32932 3.75374 -0.32671
C 12.45723 5.19676 -0.07083
C 13.31865 5.38605 1.12786
C 13.75787 4.02379 1.35460
C 11.73168 6.23376 -0.87806
C 13.69618 6.59521 1.92886
O 14.64738 6.56409 2.78739
C 12.98202 7.84064 1.61204
N 14.93545 1.28071 2.02213
C 15.43758 2.45932 2.43038
C 16.59502 2.25975 3.37953
C 16.61134 0.69603 3.71435
C 15.46563 0.22748 2.79066
C 17.96684 2.68172 2.85377
C 16.56137 0.29698 5.21466
C 15.21885 0.66731 5.80277
N 13.26389 -0.96298 1.18004
C 14.23956 -1.69942 1.88701
C 13.98193 -3.12978 1.62219
C 12.87963 -3.12538 0.75419
C 12.49117 -1.78615 0.48021
C 14.75094 -4.21953 2.11938
C 11.96298 -3.94883 -0.00103
O 11.75203 -5.15774 -0.08922
C 11.15039 -3.01596 -0.99895
C 9.69374 -3.37412 -0.88746
O 9.07181 -3.16996 0.16995
O 9.22402 -3.69394 -2.10707
C 7.78022 -4.04604 -2.04994
H 11.59946 3.78412 -2.31281
H 15.41499 4.40728 2.59280
H 15.78767 -1.83507 3.16626
H 10.28141 -0.90029 -3.14541
H 10.05804 1.90733 -3.21215
H 12.21179 0.02340 -4.07951
H 12.78061 1.63844 -3.60791
H 11.62139 1.51928 -4.89697
H 8.64799 1.03964 -1.49182
H 8.57662 -0.71070 -1.07183
H 8.10591 -0.45432 -3.86829
H 7.40792 0.96278 -3.16865
H 11.30641 5.80545 -1.79408
H 12.48413 6.94537 -1.23484
H 10.98304 6.77391 -0.29457
H 13.13732 8.08965 0.56498
H 13.32534 8.56981 2.34847
H 11.90718 7.66953 1.73877
H 16.44244 2.81409 4.29742
H 17.52818 0.21062 3.34880
H 18.46980 3.42861 3.49662
H 17.84432 3.06526 1.84957
H 18.67486 1.86812 2.70555
H 17.31227 0.85438 5.78000
H 16.74585 -0.75807 5.38737
H 15.34152 1.72592 6.05055
H 15.01372 0.07496 6.69219
H 14.42572 0.59484 5.04954
H 14.04736 -4.97430 2.44465
H 15.40408 -3.90736 2.93162
H 15.31288 -4.48773 1.22074
H 11.53965 -3.19218 -2.00244
H 7.67716 -5.04391 -2.48734
H 7.25033 -3.21714 -2.55581
H 7.33960 -4.19747 -1.07148
