158

Mg 0.00000 0.00000 0.00000
C -0.21700 -2.21800 2.80100
C -1.25500 2.44200 2.02600
C -0.24500 1.85000 -2.56400
C 0.14600 -2.82400 -2.03700
N -0.61700 -0.00900 2.12600
C -0.59400 -0.90800 3.10500
C -0.93600 -0.30900 4.50200
C -1.77300 0.96400 4.03200
C -1.15500 1.16800 2.66000
C -3.26300 0.68500 3.86300
C 0.34500 0.11000 5.29900
C 0.12400 0.39700 6.78700
H 1.16800 0.03300 7.73300
N -0.18500 1.96100 -0.15200
C -0.70300 2.80000 0.77700
C -0.62000 4.15600 0.19300
C -0.18700 4.01500 -1.22500
C -0.21400 2.58300 -1.38000
C -0.88700 5.40600 0.97400
C 0.18100 5.01300 -2.27700
O 0.30300 4.69000 -3.50800
C 0.31000 6.41400 -1.83700
N -0.26500 -0.41300 -2.02900
C -0.27900 0.56900 -2.93700
C -0.19600 0.02400 -4.33200
C 0.12400 -1.53300 -4.18000
C 0.08600 -1.63200 -2.63500
C -1.45100 0.20500 -5.19700
C 1.37300 -2.07000 -4.92300
C 2.62600 -1.49000 -4.30600
N 0.15000 -2.14400 0.30300
C 0.17300 -3.13600 -0.68800
C 0.17300 -4.43800 0.00400
C 0.13300 -4.11100 1.35800
C 0.08300 -2.69500 1.50200
C 0.14900 -5.71500 -0.62300
C 0.09600 -4.62900 2.71600
O 0.20800 -5.74700 3.22100
C -0.25500 -3.42800 3.70100
C 0.71700 -3.48200 4.84800
O 1.93100 -3.25500 4.66900
O 0.03800 -3.55600 6.00300
C 0.94300 -3.58300 7.18300
H -1.85900 3.22000 2.49700
H -0.21800 2.45300 -3.47400
H 0.27600 -3.74700 -2.60500
H -1.55400 -0.94900 5.13200
H -1.58500 1.83100 4.66500
H -3.48400 -0.37700 3.96900
H -3.51100 1.02700 2.85800
H -3.85200 1.30100 4.54300
H 0.66900 1.09600 4.96600
H 1.13000 -0.63900 5.18900
H -0.84400 0.02600 7.12500
H 0.06200 1.47700 6.92100
H -1.34400 5.18600 1.93800
H -1.65100 5.96300 0.43200
H 0.00700 6.02000 1.08400
H -0.63500 6.74400 -1.40500
H 0.66500 6.97000 -2.70400
H 1.04800 6.46600 -1.03600
H 0.60800 0.50100 -4.89100
H -0.69200 -2.15600 -4.54700
H -1.26700 0.74000 -6.12900
H -2.20400 0.71400 -4.59600
H -1.96700 -0.72000 -5.45300
H 1.35600 -1.75900 -5.96700
H 1.45200 -3.15700 -4.90200
H 2.71400 -0.52200 -4.79800
H 3.48700 -2.12100 -4.52900
H 2.49500 -1.30300 -3.24000
H 0.86700 -6.33300 -0.08400
H 0.40400 -5.64200 -1.68000
H -0.89100 -5.99900 -0.46300
H -1.28300 -3.58100 4.02800
H 0.69800 -4.47800 7.75500
H 0.83300 -2.61900 7.68000
H 2.00000 -3.75400 6.97600
Mg 15.77347 1.41790 1.20530
C 13.73531 -0.02241 3.78415
C 16.49287 3.93801 3.38845
C 17.20819 2.94083 -1.18001
C 14.02132 -0.54273 -1.08197
N 15.13640 1.79721 3.28917
C 14.40991 1.14891 4.18710
C 14.47081 1.74813 5.61776
C 14.87250 3.25405 5.23082
C 15.57730 2.98546 3.90275
C 13.67247 4.14701 4.96266
C 15.57352 1.06911 6.50375
C 15.48359 1.38674 7.99800
H 15.84265 0.34314 8.95426
N 17.09383 2.89919 1.23690
C 17.26480 3.81620 2.21218
C 18.34602 4.69957 1.74876
C 18.68703 4.32875 0.34843
C 17.63914 3.36796 0.06754
C 19.00174 5.71754 2.63601
C 19.76864 4.77562 -0.58785
O 19.73371 4.49781 -1.83863
C 20.82136 5.62701 -0.01479
N 15.49696 1.38892 -0.85505
C 16.29098 2.10618 -1.66930
C 16.08534 1.71665 -3.11372
C 15.15878 0.41362 -3.07957
C 14.90466 0.32359 -1.55881
C 15.43809 2.77788 -4.00324
C 15.68938 -0.84675 -3.81619
C 16.90928 -1.38541 -3.10410
N 14.29949 -0.15795 1.31535
C 13.67990 -0.82334 0.23487
C 12.66594 -1.73258 0.80725
C 12.75071 -1.51447 2.19063
C 13.73307 -0.52353 2.45990
C 11.78989 -2.57422 0.06544
C 12.22510 -1.88948 3.48360
O 11.43583 -2.74315 3.88613
C 12.75046 -0.84865 4.56391
C 13.26673 -1.62502 5.74426
O 14.26561 -2.35718 5.63123
O 12.63295 -1.20975 6.85612
C 13.11875 -1.94289 8.05542
H 16.60125 4.88851 3.91160
H 17.74969 3.35558 -2.03338
H 13.50180 -1.25888 -1.72220
H 13.52939 1.74050 6.15390
H 15.56718 3.67545 5.95276
H 12.74769 3.58941 4.96118
H 13.84775 4.59161 3.99176
H 13.65332 4.97673 5.67507
H 16.54661 1.52177 6.27367
H 15.57674 0.00614 6.35983
H 14.52099 1.83894 8.26608
H 16.21809 2.16088 8.23302
H 18.42937 5.87541 3.55844
H 18.94680 6.67915 2.11433
H 20.04917 5.48574 2.84051
H 20.37186 6.52358 0.40541
H 21.55002 5.76942 -0.81520
H 21.29075 5.09060 0.81741
H 17.02788 1.46539 -3.58445
H 14.18193 0.59580 -3.55117
H 16.05252 3.04271 -4.88439
H 15.24026 3.65419 -3.40035
H 14.44699 2.52570 -4.37650
H 16.01008 -0.58708 -4.82806
H 14.95201 -1.63756 -3.90504
H 17.71989 -0.76704 -3.50112
H 17.06031 -2.43592 -3.34423
H 16.84999 -1.19848 -2.02559
H 11.77436 -3.53045 0.57128
H 12.11584 -2.67534 -0.96766
H 10.85850 -2.00774 0.14843
H 11.91251 -0.20426 4.83256
H 12.24181 -2.39062 8.53313
H 13.69148 -1.20333 8.64599
H 13.73936 -2.81611 7.89174
