79

Mg 10.51807 0.95115 0.80448
C 10.62199 -1.24174 3.64341
C 9.55768 3.42957 2.94216
C 9.98156 2.78927 -1.72552
C 10.36312 -1.88924 -1.20895
N 10.17006 0.96873 2.98870
C 10.30065 0.09162 3.97256
C 10.15292 0.69434 5.39539
C 9.27294 1.98414 5.02000
C 9.71507 2.16801 3.56969
C 7.77707 1.71667 5.03306
C 11.53413 1.10270 6.01791
C 11.49852 1.40923 7.51675
H 12.65396 1.04077 8.33018
N 10.34487 2.92311 0.66328
C 9.96502 3.77831 1.63572
C 9.97753 5.11562 1.02287
C 10.23629 4.96133 -0.43451
C 10.17562 3.51903 -0.56176
C 9.83613 6.37837 1.82218
C 10.48315 5.94915 -1.53428
O 10.44741 5.60552 -2.76857
C 10.67545 7.34877 -1.12737
N 10.00319 0.52503 -1.16419
C 9.88257 1.50659 -2.07518
C 9.77958 0.94404 -3.47279
C 10.10048 -0.61639 -3.33255
C 10.25250 -0.70658 -1.79823
C 8.42891 1.12538 -4.16503
C 11.24007 -1.18333 -4.22283
C 12.56951 -0.61167 -3.78559
N 10.68006 -1.18175 1.10872
C 10.55906 -2.19432 0.13192
C 10.62892 -3.49040 0.83741
C 10.76369 -3.13902 2.18902
C 10.75659 -1.72390 2.31896
C 10.51980 -4.77402 0.23200
C 10.89966 -3.64350 3.53650
O 11.05182 -4.75767 4.03572
C 10.68687 -2.43862 4.55108
C 11.79364 -2.48717 5.56853
O 12.97370 -2.29083 5.22864
O 11.25696 -2.54064 6.80121
C 12.31533 -2.57914 7.84533
H 9.03486 4.21747 3.48508
H 9.90228 3.37707 -2.64296
H 10.42070 -2.82085 -1.77592
H 9.61613 0.07014 6.09966
H 9.55932 2.84537 5.61802
H 7.55627 0.66955 5.17779
H 7.40998 2.05136 4.07167
H 7.28757 2.34897 5.77933
H 11.82369 2.08835 5.63139
H 12.27739 0.35515 5.81952
H 10.57082 1.06086 7.98680
H 11.47501 2.49369 7.64870
H 9.49398 6.17160 2.84374
H 9.01810 6.95152 1.37253
H 10.74240 6.98765 1.81101
H 9.79871 7.69005 -0.58211
H 10.92720 7.88735 -2.04303
H 11.51878 7.39750 -0.42949
H 10.51469 1.39657 -4.12696
H 9.23209 -1.23653 -3.59929
H 8.50195 1.65880 -5.13157
H 7.76707 1.65108 -3.48964
H 7.88044 0.20452 -4.35582
H 11.09704 -0.87672 -5.26191
H 11.29847 -2.26660 -4.21183
H 12.60209 0.35554 -4.29601
H 13.38689 -1.25465 -4.10576
H 12.57807 -0.41569 -2.70709
H 11.28386 -5.39544 0.67981
H 10.63653 -4.71538 -0.84815
H 9.49937 -5.03974 0.52076
H 9.70470 -2.56486 5.00823
H 12.12894 -3.46758 8.45657
H 12.26824 -1.59831 8.35475
H 13.33390 -2.75598 7.52023
