158

Mg 0.00000 0.00000 0.00000
C -0.21700 -2.21800 2.80100
C -1.25500 2.44200 2.02600
C -0.24500 1.85000 -2.56400
C 0.14600 -2.82400 -2.03700
N -0.61700 -0.00900 2.12600
C -0.59400 -0.90800 3.10500
C -0.93600 -0.30900 4.50200
C -1.77300 0.96400 4.03200
C -1.15500 1.16800 2.66000
C -3.26300 0.68500 3.86300
C 0.34500 0.11000 5.29900
C 0.12400 0.39700 6.78700
H 1.16800 0.03300 7.73300
N -0.18500 1.96100 -0.15200
C -0.70300 2.80000 0.77700
C -0.62000 4.15600 0.19300
C -0.18700 4.01500 -1.22500
C -0.21400 2.58300 -1.38000
C -0.88700 5.40600 0.97400
C 0.18100 5.01300 -2.27700
O 0.30300 4.69000 -3.50800
C 0.31000 6.41400 -1.83700
N -0.26500 -0.41300 -2.02900
C -0.27900 0.56900 -2.93700
C -0.19600 0.02400 -4.33200
C 0.12400 -1.53300 -4.18000
C 0.08600 -1.63200 -2.63500
C -1.45100 0.20500 -5.19700
C 1.37300 -2.07000 -4.92300
C 2.62600 -1.49000 -4.30600
N 0.15000 -2.14400 0.30300
C 0.17300 -3.13600 -0.68800
C 0.17300 -4.43800 0.00400
C 0.13300 -4.11100 1.35800
C 0.08300 -2.69500 1.50200
C 0.14900 -5.71500 -0.62300
C 0.09600 -4.62900 2.71600
O 0.20800 -5.74700 3.22100
C -0.25500 -3.42800 3.70100
C 0.71700 -3.48200 4.84800
O 1.93100 -3.25500 4.66900
O 0.03800 -3.55600 6.00300
C 0.94300 -3.58300 7.18300
H -1.85900 3.22000 2.49700
H -0.21800 2.45300 -3.47400
H 0.27600 -3.74700 -2.60500
H -1.55400 -0.94900 5.13200
H -1.58500 1.83100 4.66500
H -3.48400 -0.37700 3.96900
H -3.51100 1.02700 2.85800
H -3.85200 1.30100 4.54300
H 0.66900 1.09600 4.96600
H 1.13000 -0.63900 5.18900
H -0.84400 0.02600 7.12500
H 0.06200 1.47700 6.92100
H -1.34400 5.18600 1.93800
H -1.65100 5.96300 0.43200
H 0.00700 6.02000 1.08400
H -0.63500 6.74400 -1.40500
H 0.66500 6.97000 -2.70400
H 1.04800 6.46600 -1.03600
H 0.60800 0.50100 -4.89100
H -0.69200 -2.15600 -4.54700
H -1.26700 0.74000 -6.12900
H -2.20400 0.71400 -4.59600
H -1.96700 -0.72000 -5.45300
H 1.35600 -1.75900 -5.96700
H 1.45200 -3.15700 -4.90200
H 2.71400 -0.52200 -4.79800
H 3.48700 -2.12100 -4.52900
H 2.49500 -1.30300 -3.24000
H 0.86700 -6.33300 -0.08400
H 0.40400 -5.64200 -1.68000
H -0.89100 -5.99900 -0.46300
H -1.28300 -3.58100 4.02800
H 0.69800 -4.47800 7.75500
H 0.83300 -2.61900 7.68000
H 2.00000 -3.75400 6.97600
Mg 10.52044 0.95050 0.79687
C 12.54483 -1.17102 2.86570
C 11.56465 3.56850 2.71789
C 8.40785 2.77295 -0.71411
C 8.78803 -1.90558 -0.19672
N 11.88031 1.05834 2.53796
C 12.63981 0.19660 3.19743
C 13.61187 0.84618 4.21856
C 12.80951 2.21274 4.47857
C 12.06095 2.31305 3.15107
C 11.78626 2.10636 5.59704
C 15.02916 1.12032 3.60362
C 16.11679 1.46541 4.62330
H 17.47724 0.99605 4.37558
N 10.40769 2.92566 0.64000
C 10.90658 3.83991 1.49822
C 10.54078 5.15293 0.94476
C 9.64369 4.93644 -0.22275
C 9.43022 3.50612 -0.12950
C 11.09786 6.44269 1.47354
C 9.06248 5.86523 -1.24536
O 8.11753 5.49732 -2.02929
C 9.56750 7.24596 -1.23916
N 8.70833 0.53365 -0.13309
C 8.01458 1.49994 -0.75993
C 6.89252 0.91758 -1.58590
C 7.12770 -0.66425 -1.57557
C 8.34717 -0.73261 -0.63026
C 5.47746 1.22466 -1.09631
C 7.22176 -1.37080 -2.95564
C 8.47742 -0.93335 -3.67490
N 10.73585 -1.17946 1.08832
C 9.88425 -2.19695 0.60502
C 10.37605 -3.47549 1.15809
C 11.47453 -3.10755 1.94957
C 11.64234 -1.69696 1.90985
C 9.78898 -4.75461 0.94519
C 12.52382 -3.59059 2.81811
O 12.93092 -4.70210 3.15360
C 13.18639 -2.34549 3.55100
C 14.68035 -2.48668 3.44760
O 15.24596 -2.42538 2.34174
O 15.21271 -2.45262 4.68283
C 16.69375 -2.57802 4.63178
H 11.64873 4.42058 3.39300
H 7.71591 3.34327 -1.33815
H 8.36184 -2.85160 -0.53745
H 13.72677 0.30003 5.14715
H 13.48863 3.05295 4.59780
H 11.68423 1.09254 5.95466
H 10.85242 2.45464 5.17551
H 12.03303 2.80519 6.40145
H 14.99798 2.05983 3.03696
H 15.34903 0.29331 3.00001
H 15.80966 1.22931 5.64939
H 16.25674 2.54911 4.62805
H 11.59997 6.29851 2.43817
H 10.24406 7.08849 1.70560
H 11.73997 6.95162 0.75150
H 9.38788 7.69181 -0.26375
H 9.09945 7.73217 -2.09730
H 10.65401 7.22170 -1.37885
H 6.93977 1.27321 -2.60786
H 6.30773 -1.19479 -1.06959
H 4.85033 1.72352 -1.85914
H 5.54930 1.83413 -0.20529
H 4.91421 0.36301 -0.74204
H 6.38211 -1.07618 -3.58995
H 7.21005 -2.45354 -2.88825
H 8.17980 0.01215 -4.13809
H 8.76452 -1.66728 -4.42521
H 9.28194 -0.71312 -2.96364
H 10.60206 -5.44268 0.75556
H 9.08252 -4.73511 0.11797
H 9.29084 -4.90311 1.90700
H 12.84497 -2.35530 4.58681
H 16.96467 -3.42639 5.26782
H 17.08774 -1.58561 4.92097
H 17.13978 -2.87013 3.68828
