79

Mg 15.76034 1.42341 1.20548
C 13.39526 -1.23197 1.68962
C 13.11356 3.44592 0.47162
C 17.83723 3.65878 0.33538
C 18.22095 -1.01938 0.85346
N 13.58333 1.04074 1.12532
C 12.79585 0.00887 1.38889
C 11.28029 0.34409 1.40536
C 11.31167 1.64567 0.46527
C 12.74655 2.10006 0.72475
C 11.17266 1.32359 -1.01334
C 10.75977 0.68784 2.84512
C 9.23648 0.72255 2.98697
H 8.64326 0.25995 4.23860
N 15.52241 3.38120 0.98413
C 14.37413 4.03567 0.71136
C 14.73297 5.45987 0.62738
C 16.21435 5.57599 0.70955
C 16.59166 4.17778 0.65749
C 13.70809 6.55484 0.56353
C 17.13910 6.75158 0.80468
O 18.40238 6.63083 0.62480
C 16.51171 8.06330 1.02208
N 17.69986 1.33340 0.46216
C 18.39850 2.45548 0.21564
C 19.85294 2.14579 -0.04725
C 20.03481 0.59849 0.31382
C 18.57029 0.24387 0.65268
C 20.33876 2.39550 -1.47484
C 21.13948 0.24177 1.34586
C 20.76444 0.77697 2.70906
N 15.86675 -0.72196 1.43816
C 16.98925 -1.54941 1.21591
C 16.54211 -2.94634 1.39223
C 15.17439 -2.83499 1.68452
C 14.79145 -1.46654 1.67010
C 17.35216 -4.10568 1.23135
C 13.96520 -3.56458 1.99153
O 13.69632 -4.74295 2.22147
C 12.73219 -2.56733 1.88394
C 11.87634 -2.75327 3.10684
O 12.31055 -2.45525 4.23345
O 10.61947 -3.04448 2.72492
C 9.73012 -3.22710 3.90285
H 12.38023 4.10484 0.00584
H 18.61800 4.39631 0.13555
H 18.94941 -1.83301 0.85695
H 10.64241 -0.41485 0.96845
H 10.60569 2.39762 0.80808
H 11.19438 0.25979 -1.19772
H 12.00843 1.80907 -1.50000
H 10.27268 1.79474 -1.41878
H 10.99330 1.73661 3.06938
H 11.17505 0.01596 3.57090
H 8.73201 0.26153 2.12911
H 8.90929 1.76482 2.96191
H 12.70775 6.15763 0.35153
H 13.94846 7.16712 -0.31237
H 13.71483 7.19039 1.45162
H 15.81535 8.26914 0.21265
H 17.33824 8.76466 1.15180
H 15.91970 8.01963 1.94308
H 20.49597 2.73455 0.59537
H 20.30586 0.00291 -0.57029
H 21.19506 3.09402 -1.52858
H 19.50712 2.76782 -2.05820
H 20.62719 1.50285 -2.02729
H 22.08234 0.72188 1.07258
H 21.33091 -0.82331 1.42290
H 21.09232 1.81980 2.66351
H 21.28843 0.23230 3.49188
H 19.67676 0.77906 2.84544
H 17.11598 -4.76715 2.05426
H 18.41013 -3.85232 1.21494
H 16.99902 -4.45683 0.25808
H 12.19390 -2.80967 0.96683
H 9.27162 -4.21615 3.80672
H 9.05021 -2.35447 3.90199
H 10.19834 -3.30483 4.87711
