79

Mg 13.13469 1.17610 1.00526
C 11.51606 3.45276 3.25824
C 15.07254 0.18829 3.63272
C 14.87776 -0.50841 -1.04206
C 11.89938 3.11092 -1.61699
N 13.19179 1.81182 3.12301
C 12.48771 2.64053 3.87922
C 12.78949 2.53859 5.39846
C 14.27374 1.93213 5.30863
C 14.17113 1.23443 3.95388
C 15.35431 2.99670 5.21699
C 11.81224 1.55840 6.13753
C 11.84833 1.64466 7.66495
H 10.60298 1.45123 8.40263
N 14.39186 -0.32656 1.32165
C 15.07471 -0.59129 2.45519
C 15.87693 -1.79115 2.17069
C 15.73751 -2.11677 0.72527
C 14.99743 -0.95916 0.26448
C 16.60966 -2.55184 3.23741
C 16.20535 -3.27186 -0.10725
O 16.17834 -3.23329 -1.38812
C 16.78269 -4.41222 0.61920
N 13.53641 1.40018 -1.02224
C 14.28254 0.49765 -1.68305
C 14.20672 0.71504 -3.17549
C 13.05749 1.80571 -3.39295
C 12.71414 2.10906 -1.91799
C 15.49518 1.19348 -3.84435
C 11.90106 1.42667 -4.35818
C 11.07772 0.30733 -3.76273
N 11.77918 2.84714 0.80965
C 11.42129 3.52056 -0.37884
C 10.56412 4.66001 0.00762
C 10.50111 4.58337 1.40714
C 11.28152 3.48643 1.86232
C 10.00471 5.61962 -0.88250
C 9.96049 5.18734 2.60366
O 9.15958 6.09239 2.83420
C 10.69616 4.55785 3.86418
C 9.64685 4.17929 4.87323
O 8.82232 3.28292 4.62169
O 9.92379 4.78165 6.04405
C 8.91700 4.42808 7.08000
H 15.88257 -0.03063 4.32901
H 15.37108 -1.12189 -1.79953
H 11.39477 3.70335 -2.38319
H 12.80624 3.48648 5.92287
H 14.45264 1.20707 6.09835
H 14.93652 3.98650 5.10800
H 15.94823 2.73913 4.34982
H 16.02792 2.92499 6.07573
H 12.16565 0.52850 5.99911
H 10.80557 1.69144 5.79177
H 12.36618 2.54599 8.01478
H 12.45772 0.82099 8.04473
H 16.66416 -1.98139 4.17284
H 17.65159 -2.63765 2.91050
H 16.20464 -3.55393 3.39376
H 17.63479 -4.07390 1.20395
H 16.97595 -5.17392 -0.13866
H 16.03940 -4.78502 1.33276
H 13.92559 -0.19816 -3.68552
H 13.45570 2.73742 -3.82093
H 15.83820 0.52675 -4.65791
H 16.25896 1.28984 -3.08416
H 15.45416 2.19908 -4.25942
H 12.30342 1.04829 -5.30109
H 11.24798 2.25920 -4.59773
H 11.64590 -0.58773 -4.03313
H 10.08167 0.28975 -4.20047
H 11.06185 0.36960 -2.66841
H 8.98048 5.77414 -0.57011
H 10.05957 5.28299 -1.91567
H 10.66479 6.47014 -0.69231
H 11.38407 5.31036 4.25159
H 8.50827 5.36850 7.46240
H 9.44670 3.77854 7.80199
H 8.01574 3.92382 6.75152
