158

Mg 0.00000 0.00000 0.00000
C -0.21700 -2.21800 2.80100
C -1.25500 2.44200 2.02600
C -0.24500 1.85000 -2.56400
C 0.14600 -2.82400 -2.03700
N -0.61700 -0.00900 2.12600
C -0.59400 -0.90800 3.10500
C -0.93600 -0.30900 4.50200
C -1.77300 0.96400 4.03200
C -1.15500 1.16800 2.66000
C -3.26300 0.68500 3.86300
C 0.34500 0.11000 5.29900
C 0.12400 0.39700 6.78700
H 1.16800 0.03300 7.73300
N -0.18500 1.96100 -0.15200
C -0.70300 2.80000 0.77700
C -0.62000 4.15600 0.19300
C -0.18700 4.01500 -1.22500
C -0.21400 2.58300 -1.38000
C -0.88700 5.40600 0.97400
C 0.18100 5.01300 -2.27700
O 0.30300 4.69000 -3.50800
C 0.31000 6.41400 -1.83700
N -0.26500 -0.41300 -2.02900
C -0.27900 0.56900 -2.93700
C -0.19600 0.02400 -4.33200
C 0.12400 -1.53300 -4.18000
C 0.08600 -1.63200 -2.63500
C -1.45100 0.20500 -5.19700
C 1.37300 -2.07000 -4.92300
C 2.62600 -1.49000 -4.30600
N 0.15000 -2.14400 0.30300
C 0.17300 -3.13600 -0.68800
C 0.17300 -4.43800 0.00400
C 0.13300 -4.11100 1.35800
C 0.08300 -2.69500 1.50200
C 0.14900 -5.71500 -0.62300
C 0.09600 -4.62900 2.71600
O 0.20800 -5.74700 3.22100
C -0.25500 -3.42800 3.70100
C 0.71700 -3.48200 4.84800
O 1.93100 -3.25500 4.66900
O 0.03800 -3.55600 6.00300
C 0.94300 -3.58300 7.18300
H -1.85900 3.22000 2.49700
H -0.21800 2.45300 -3.47400
H 0.27600 -3.74700 -2.60500
H -1.55400 -0.94900 5.13200
H -1.58500 1.83100 4.66500
H -3.48400 -0.37700 3.96900
H -3.51100 1.02700 2.85800
H -3.85200 1.30100 4.54300
H 0.66900 1.09600 4.96600
H 1.13000 -0.63900 5.18900
H -0.84400 0.02600 7.12500
H 0.06200 1.47700 6.92100
H -1.34400 5.18600 1.93800
H -1.65100 5.96300 0.43200
H 0.00700 6.02000 1.08400
H -0.63500 6.74400 -1.40500
H 0.66500 6.97000 -2.70400
H 1.04800 6.46600 -1.03600
H 0.60800 0.50100 -4.89100
H -0.69200 -2.15600 -4.54700
H -1.26700 0.74000 -6.12900
H -2.20400 0.71400 -4.59600
H -1.96700 -0.72000 -5.45300
H 1.35600 -1.75900 -5.96700
H 1.45200 -3.15700 -4.90200
H 2.71400 -0.52200 -4.79800
H 3.48700 -2.12100 -4.52900
H 2.49500 -1.30300 -3.24000
H 0.86700 -6.33300 -0.08400
H 0.40400 -5.64200 -1.68000
H -0.89100 -5.99900 -0.46300
H -1.28300 -3.58100 4.02800
H 0.69800 -4.47800 7.75500
H 0.83300 -2.61900 7.68000
H 2.00000 -3.75400 6.97600
Mg 7.89016 0.71641 0.59458
C 7.26919 3.67009 2.53602
C 7.05290 2.53595 -2.16638
C 7.99097 -1.97293 -1.08612
C 7.56268 -1.11949 3.53871
N 7.26057 2.82203 0.34518
C 7.11957 3.86655 1.14733
C 6.87932 5.21321 0.41359
C 6.27032 4.63575 -0.95554
C 6.92552 3.25612 -0.95179
C 4.76285 4.44872 -0.91200
C 8.21174 6.00265 0.16169
C 8.02467 7.45883 -0.26995
H 8.98900 8.45198 0.19500
N 8.04835 0.43048 -1.36292
C 7.68066 1.28321 -2.34217
C 7.98420 0.59744 -3.60777
C 8.40794 -0.79488 -3.29695
C 8.13970 -0.84051 -1.87356
C 7.93680 1.28860 -4.93949
C 8.95112 -1.90608 -4.14335
O 9.02722 -3.10903 -3.70751
C 9.30414 -1.56260 -5.52859
N 7.58257 -1.27603 1.10246
C 7.73995 -2.25358 0.19276
C 7.73777 -3.61407 0.84810
C 7.78869 -3.33306 2.42164
C 7.71836 -1.79027 2.40559
C 6.53690 -4.50426 0.52896
C 8.93402 -4.01249 3.22118
C 10.26610 -3.42356 2.81609
N 7.67402 1.17164 2.69555
C 7.52752 0.25183 3.75695
C 7.29867 1.03847 4.98629
C 7.30502 2.37113 4.54758
C 7.50233 2.41128 3.14083
C 7.07174 0.50384 6.28582
C 7.17907 3.75258 4.95306
O 7.08680 4.33621 6.03223
C 7.02399 4.64956 3.65008
C 7.96354 5.81747 3.77563
O 9.19448 5.64043 3.78307
O 7.26530 6.96046 3.64755
C 8.15549 8.14708 3.75391
H 6.59214 2.94796 -3.06462
H 8.12801 -2.92662 -1.60107
H 7.54888 -1.61371 4.51248
H 6.16219 5.86949 0.89190
H 6.60555 5.21474 -1.81214
H 4.36347 4.62419 0.07584
H 4.58447 3.42557 -1.21597
H 4.28316 5.07595 -1.66885
H 8.70109 5.60214 -0.73545
H 8.84852 5.96028 1.02387
H 6.99948 7.81027 -0.10137
H 8.15387 7.51896 -1.35333
H 7.43313 2.26069 -4.87048
H 7.28611 0.69091 -5.58697
H 8.92057 1.37116 -5.40645
H 8.42678 -1.17197 -6.03859
H 9.75716 -2.46362 -5.94670
H 10.04381 -0.75440 -5.51100
H 8.61539 -4.18162 0.56390
H 6.87741 -3.68392 2.92789
H 6.82102 -5.48106 0.09398
H 5.88133 -3.96539 -0.14215
H 5.88145 -4.71532 1.37219
H 8.98087 -5.07822 2.98416
H 8.82005 -3.92647 4.29664
H 10.51765 -3.98248 1.90976
H 11.00806 -3.58190 3.59614
H 10.16109 -2.36930 2.53474
H 7.66230 1.09489 6.97313
H 7.33945 -0.54959 6.33467
H 5.99297 0.65775 6.37439
H 5.98201 4.96671 3.59279
H 7.75231 8.77846 4.55170
H 8.19497 8.58295 2.73793
H 9.16799 7.98427 4.10433
