79

Mg 10.50221 0.94731 0.80449
C 11.69091 3.24324 3.29342
C 9.91507 -1.26122 3.33673
C 9.87447 -1.25318 -1.39351
C 12.21497 2.84484 -1.56438
N 10.80425 1.08884 2.99104
C 11.20459 2.03269 3.82962
C 11.00147 1.68874 5.32962
C 10.99211 0.08734 5.20999
C 10.50690 -0.04722 3.76807
C 12.37658 -0.53156 5.30778
C 9.63907 2.23100 5.88803
C 9.51212 2.20274 7.41277
H 8.77784 3.28030 8.07016
N 9.52679 -0.77462 0.95306
C 9.36683 -1.52613 2.06253
C 8.59226 -2.70410 1.64232
C 8.44956 -2.66782 0.16143
C 9.31474 -1.55042 -0.15945
C 8.00303 -3.68091 2.61807
C 7.67412 -3.50871 -0.80696
O 7.88392 -3.44780 -2.06994
C 6.72784 -4.47274 -0.22674
N 11.14514 0.68877 -1.15565
C 10.67829 -0.32266 -1.90863
C 11.06559 -0.14780 -3.35770
C 11.68626 1.32239 -3.46212
C 11.62971 1.72731 -1.97275
C 12.06813 -1.16327 -3.90553
C 11.05778 2.27867 -4.51246
C 9.64344 2.62948 -4.11002
N 11.57987 2.81991 0.79541
C 12.24167 3.41790 -0.29936
C 12.92608 4.62341 0.21128
C 12.63163 4.63055 1.58304
C 11.83772 3.49768 1.90834
C 13.73584 5.50793 -0.55555
C 12.82074 5.33307 2.83180
O 13.33193 6.40377 3.15739
C 12.32559 4.39784 4.01778
C 11.45262 5.22097 4.92492
O 10.36495 5.66817 4.52045
O 11.93943 5.16163 6.17787
C 11.10098 5.95376 7.11667
H 9.90611 -2.10717 4.02461
H 9.59642 -1.92254 -2.21090
H 12.68846 3.54297 -2.25800
H 11.80543 2.00818 5.98182
H 10.27534 -0.35584 5.89642
H 13.15310 0.21871 5.32326
H 12.47853 -1.16364 4.43536
H 12.43060 -1.19975 6.17204
H 8.83788 1.53037 5.61977
H 9.44747 3.22304 5.52779
H 10.47939 2.04139 7.90400
H 8.91899 1.32965 7.69548
H 8.41387 -3.54058 3.62550
H 8.34753 -4.67726 2.32060
H 6.91099 -3.66985 2.61770
H 7.26348 -5.15379 0.43032
H 6.20485 -4.91632 -1.07620
H 6.01323 -3.92762 0.40000
H 10.19596 -0.20858 -4.00047
H 12.75003 1.29673 -3.74063
H 11.69476 -1.71098 -4.79135
H 12.32374 -1.85281 -3.11198
H 13.03937 -0.75311 -4.17694
H 10.99008 1.78249 -5.48374
H 11.62313 3.19329 -4.65677
H 9.06306 1.77991 -4.48215
H 9.33014 3.55854 -4.58196
H 9.53785 2.64828 -3.01908
H 13.46312 6.51295 -0.26219
H 13.59398 5.35221 -1.62298
H 14.73064 5.19835 -0.22420
H 13.21182 4.02341 4.53157
H 11.76468 6.66933 7.61179
H 10.59029 5.21229 7.75946
H 10.35787 6.61605 6.68816
