79

Mg 7.87462 0.71176 0.60479
C 9.30988 2.81551 3.13330
C 6.98242 -1.43040 3.10474
C 7.00407 -1.37064 -1.62526
C 9.84232 2.40239 -1.72236
N 8.16385 0.79264 2.79615
C 8.66863 1.67041 3.65000
C 8.40465 1.33991 5.14354
C 8.19596 -0.24637 5.00556
C 7.71630 -0.30468 3.55669
C 9.49044 -1.03521 5.11225
C 7.11399 2.04348 5.69234
C 6.96488 2.01636 7.21510
H 6.36321 3.17108 7.87622
N 6.68899 -0.87538 0.72244
C 6.42172 -1.61175 1.82135
C 5.51093 -2.67889 1.37883
C 5.39300 -2.61036 -0.10310
C 6.39562 -1.60738 -0.40122
C 4.79127 -3.58353 2.33651
C 4.53070 -3.33758 -1.08991
O 4.76273 -3.29105 -2.34960
C 3.46353 -4.18079 -0.53167
N 8.50522 0.39386 -1.35062
C 7.92486 -0.54344 -2.12042
C 8.34967 -0.40432 -3.56284
C 9.15122 0.97721 -3.64332
C 9.12676 1.37131 -2.15017
C 9.22383 -1.53223 -4.11062
C 8.66129 2.01518 -4.68987
C 7.29709 2.53689 -4.29980
N 9.17878 2.43415 0.62951
C 9.92443 2.95504 -0.45066
C 10.74807 4.05993 0.08155
C 10.43920 4.09047 1.44982
C 9.50528 3.06315 1.75299
C 11.67223 4.84325 -0.66575
C 10.69887 4.75131 2.70861
O 11.33616 5.74605 3.05227
C 10.07505 3.87403 3.87806
C 9.30066 4.79131 4.78439
O 8.28301 5.37557 4.37253
O 9.76000 4.65894 6.04211
C 9.01556 5.54081 6.98015
H 6.85851 -2.27526 3.78277
H 6.65477 -1.99168 -2.45338
H 10.40857 3.04231 -2.40246
H 9.23388 1.54938 5.80858
H 7.42046 -0.60275 5.67857
H 10.35471 -0.38862 5.14524
H 9.52350 -1.66645 4.23390
H 9.44905 -1.71339 5.96939
H 6.23474 1.45173 5.40689
H 7.05305 3.05524 5.34126
H 7.89785 1.72993 7.71558
H 6.26329 1.22194 7.48097
H 5.20346 -3.50586 3.35014
H 5.01181 -4.61227 2.03169
H 3.70934 -3.43537 2.32367
H 3.90097 -4.93018 0.12372
H 2.89999 -4.54675 -1.39212
H 2.81497 -3.55643 0.09296
H 7.48764 -0.34904 -4.21625
H 10.20686 0.82088 -3.90981
H 8.79613 -2.01994 -5.00688
H 9.38065 -2.25622 -3.32208
H 10.24228 -1.24467 -4.36611
H 8.54438 1.54105 -5.66746
H 9.33876 2.85292 -4.81720
H 6.61953 1.77067 -4.68826
H 7.10896 3.50256 -4.76469
H 7.18066 2.55804 -3.21000
H 11.52403 5.87163 -0.36411
H 11.52571 4.71712 -1.73644
H 12.61597 4.40790 -0.32649
H 10.90060 3.38619 4.39772
H 9.75738 6.16241 7.49103
H 8.40763 4.86306 7.60851
H 8.36702 6.29540 6.55068
