158

Mg 0.00000 0.00000 0.00000
C -0.21700 -2.21800 2.80100
C -1.25500 2.44200 2.02600
C -0.24500 1.85000 -2.56400
C 0.14600 -2.82400 -2.03700
N -0.61700 -0.00900 2.12600
C -0.59400 -0.90800 3.10500
C -0.93600 -0.30900 4.50200
C -1.77300 0.96400 4.03200
C -1.15500 1.16800 2.66000
C -3.26300 0.68500 3.86300
C 0.34500 0.11000 5.29900
C 0.12400 0.39700 6.78700
H 1.16800 0.03300 7.73300
N -0.18500 1.96100 -0.15200
C -0.70300 2.80000 0.77700
C -0.62000 4.15600 0.19300
C -0.18700 4.01500 -1.22500
C -0.21400 2.58300 -1.38000
C -0.88700 5.40600 0.97400
C 0.18100 5.01300 -2.27700
O 0.30300 4.69000 -3.50800
C 0.31000 6.41400 -1.83700
N -0.26500 -0.41300 -2.02900
C -0.27900 0.56900 -2.93700
C -0.19600 0.02400 -4.33200
C 0.12400 -1.53300 -4.18000
C 0.08600 -1.63200 -2.63500
C -1.45100 0.20500 -5.19700
C 1.37300 -2.07000 -4.92300
C 2.62600 -1.49000 -4.30600
N 0.15000 -2.14400 0.30300
C 0.17300 -3.13600 -0.68800
C 0.17300 -4.43800 0.00400
C 0.13300 -4.11100 1.35800
C 0.08300 -2.69500 1.50200
C 0.14900 -5.71500 -0.62300
C 0.09600 -4.62900 2.71600
O 0.20800 -5.74700 3.22100
C -0.25500 -3.42800 3.70100
C 0.71700 -3.48200 4.84800
O 1.93100 -3.25500 4.66900
O 0.03800 -3.55600 6.00300
C 0.94300 -3.58300 7.18300
H -1.85900 3.22000 2.49700
H -0.21800 2.45300 -3.47400
H 0.27600 -3.74700 -2.60500
H -1.55400 -0.94900 5.13200
H -1.58500 1.83100 4.66500
H -3.48400 -0.37700 3.96900
H -3.51100 1.02700 2.85800
H -3.85200 1.30100 4.54300
H 0.66900 1.09600 4.96600
H 1.13000 -0.63900 5.18900
H -0.84400 0.02600 7.12500
H 0.06200 1.47700 6.92100
H -1.34400 5.18600 1.93800
H -1.65100 5.96300 0.43200
H 0.00700 6.02000 1.08400
H -0.63500 6.74400 -1.40500
H 0.66500 6.97000 -2.70400
H 1.04800 6.46600 -1.03600
H 0.60800 0.50100 -4.89100
H -0.69200 -2.15600 -4.54700
H -1.26700 0.74000 -6.12900
H -2.20400 0.71400 -4.59600
H -1.96700 -0.72000 -5.45300
H 1.35600 -1.75900 -5.96700
H 1.45200 -3.15700 -4.90200
H 2.71400 -0.52200 -4.79800
H 3.48700 -2.12100 -4.52900
H 2.49500 -1.30300 -3.24000
H 0.86700 -6.33300 -0.08400
H 0.40400 -5.64200 -1.68000
H -0.89100 -5.99900 -0.46300
H -1.28300 -3.58100 4.02800
H 0.69800 -4.47800 7.75500
H 0.83300 -2.61900 7.68000
H 2.00000 -3.75400 6.97600
Mg 15.77590 1.42384 1.19798
C 17.42356 -0.69354 3.58145
C 16.38332 4.02798 3.31555
C 13.94376 3.23092 -0.65814
C 14.32419 -1.44762 -0.14104
N 16.78281 1.52788 3.16459
C 17.42430 0.66972 3.94331
C 18.17318 1.32025 5.13727
C 17.30614 2.66635 5.26031
C 16.81747 2.77507 3.81738
C 16.09411 2.52091 6.16539
C 19.67412 1.63232 4.80292
C 20.54355 1.98071 6.01307
H 21.93641 1.54209 6.01881
N 15.65065 3.39887 1.04908
C 15.95950 4.30763 1.99778
C 15.67476 5.62270 1.40308
C 15.01728 5.40910 0.08519
C 14.82198 3.97352 0.11764
C 16.09411 6.91367 2.04415
C 14.61742 6.34400 -1.01584
O 13.84446 5.97148 -1.96799
C 15.08152 7.73392 -0.89657
N 14.17979 0.98815 -0.06098
C 13.59444 1.95153 -0.79391
C 12.66019 1.36193 -1.82345
C 12.92437 -0.21499 -1.79027
C 13.94638 -0.27608 -0.63392
C 11.17200 1.63310 -1.60404
C 13.29096 -0.89566 -3.13747
C 14.64909 -0.42166 -3.60244
N 15.98019 -0.70626 1.49624
C 15.25702 -1.73153 0.84820
C 15.66481 -3.00969 1.46664
C 16.58713 -2.63430 2.45501
C 16.72802 -1.22025 2.46630
C 15.15660 -4.29605 1.13032
C 17.46562 -3.11188 3.49850
O 17.82727 -4.22094 3.88957
C 17.95134 -1.86705 4.35923
C 19.44098 -1.97752 4.53613
O 20.20223 -1.88621 3.55696
O 19.73163 -1.95451 5.84966
C 21.19844 -2.05035 6.07575
H 16.32048 4.86974 4.00575
H 13.36846 3.79845 -1.39328
H 13.99051 -2.39567 -0.56827
H 18.12421 0.76047 6.06357
H 17.93206 3.51735 5.51604
H 15.94946 1.49928 6.48396
H 15.24826 2.85830 5.58080
H 16.17024 3.21039 7.01105
H 19.72877 2.58069 4.25305
H 20.11971 0.82219 4.25907
H 20.05497 1.72104 6.96007
H 20.65600 3.06667 6.05846
H 16.40971 6.76259 3.08385
H 15.19782 7.53874 2.12046
H 16.84863 7.44731 1.46227
H 14.71250 8.15930 0.03366
H 14.77182 8.22574 -1.82074
H 16.17523 7.73309 -0.83021
H 12.89012 1.73601 -2.81355
H 12.03613 -0.76995 -1.45426
H 10.68793 2.13284 -2.46427
H 11.06209 2.22837 -0.70731
H 10.57164 0.75473 -1.37327
H 12.57866 -0.60642 -3.91408
H 13.29091 -1.97942 -3.08792
H 14.42257 0.52576 -4.10060
H 15.08791 -1.13684 -4.29527
H 15.30104 -0.19823 -2.74998
H 16.00589 -4.96490 1.08747
H 14.61734 -4.27594 0.18556
H 14.49053 -4.47074 1.97950
H 17.42223 -1.90134 5.31236
H 21.36420 -2.90418 6.73996
H 21.50912 -1.05565 6.44694
H 21.81969 -2.31745 5.22890
