158

Mg 0.00000 0.00000 0.00000
C -0.21700 -2.21800 2.80100
C -1.25500 2.44200 2.02600
C -0.24500 1.85000 -2.56400
C 0.14600 -2.82400 -2.03700
N -0.61700 -0.00900 2.12600
C -0.59400 -0.90800 3.10500
C -0.93600 -0.30900 4.50200
C -1.77300 0.96400 4.03200
C -1.15500 1.16800 2.66000
C -3.26300 0.68500 3.86300
C 0.34500 0.11000 5.29900
C 0.12400 0.39700 6.78700
H 1.16800 0.03300 7.73300
N -0.18500 1.96100 -0.15200
C -0.70300 2.80000 0.77700
C -0.62000 4.15600 0.19300
C -0.18700 4.01500 -1.22500
C -0.21400 2.58300 -1.38000
C -0.88700 5.40600 0.97400
C 0.18100 5.01300 -2.27700
O 0.30300 4.69000 -3.50800
C 0.31000 6.41400 -1.83700
N -0.26500 -0.41300 -2.02900
C -0.27900 0.56900 -2.93700
C -0.19600 0.02400 -4.33200
C 0.12400 -1.53300 -4.18000
C 0.08600 -1.63200 -2.63500
C -1.45100 0.20500 -5.19700
C 1.37300 -2.07000 -4.92300
C 2.62600 -1.49000 -4.30600
N 0.15000 -2.14400 0.30300
C 0.17300 -3.13600 -0.68800
C 0.17300 -4.43800 0.00400
C 0.13300 -4.11100 1.35800
C 0.08300 -2.69500 1.50200
C 0.14900 -5.71500 -0.62300
C 0.09600 -4.62900 2.71600
O 0.20800 -5.74700 3.22100
C -0.25500 -3.42800 3.70100
C 0.71700 -3.48200 4.84800
O 1.93100 -3.25500 4.66900
O 0.03800 -3.55600 6.00300
C 0.94300 -3.58300 7.18300
H -1.85900 3.22000 2.49700
H -0.21800 2.45300 -3.47400
H 0.27600 -3.74700 -2.60500
H -1.55400 -0.94900 5.13200
H -1.58500 1.83100 4.66500
H -3.48400 -0.37700 3.96900
H -3.51100 1.02700 2.85800
H -3.85200 1.30100 4.54300
H 0.66900 1.09600 4.96600
H 1.13000 -0.63900 5.18900
H -0.84400 0.02600 7.12500
H 0.06200 1.47700 6.92100
H -1.34400 5.18600 1.93800
H -1.65100 5.96300 0.43200
H 0.00700 6.02000 1.08400
H -0.63500 6.74400 -1.40500
H 0.66500 6.97000 -2.70400
H 1.04800 6.46600 -1.03600
H 0.60800 0.50100 -4.89100
H -0.69200 -2.15600 -4.54700
H -1.26700 0.74000 -6.12900
H -2.20400 0.71400 -4.59600
H -1.96700 -0.72000 -5.45300
H 1.35600 -1.75900 -5.96700
H 1.45200 -3.15700 -4.90200
H 2.71400 -0.52200 -4.79800
H 3.48700 -2.12100 -4.52900
H 2.49500 -1.30300 -3.24000
H 0.86700 -6.33300 -0.08400
H 0.40400 -5.64200 -1.68000
H -0.89100 -5.99900 -0.46300
H -1.28300 -3.58100 4.02800
H 0.69800 -4.47800 7.75500
H 0.83300 -2.61900 7.68000
H 2.00000 -3.75400 6.97600
Mg 8.94224 0.79752 0.67733
C 9.02877 0.55074 -2.90187
C 8.35633 -2.56204 0.74560
C 8.41336 1.05356 3.79537
C 8.39470 4.21740 0.28956
N 8.74084 -0.70240 -0.93571
C 8.85399 -0.69058 -2.25534
C 8.85579 -2.09649 -2.91335
C 8.07588 -2.90131 -1.76319
C 8.43735 -2.02641 -0.56461
C 6.56579 -2.87998 -1.93197
C 10.30650 -2.65628 -3.12336
C 10.39735 -3.88071 -4.03675
H 11.56456 -4.01734 -4.90360
N 8.94281 -0.58814 2.09808
C 8.70784 -1.90847 1.94710
C 8.80356 -2.49081 3.29465
C 8.95118 -1.38150 4.27564
C 8.74955 -0.23627 3.41084
C 8.83178 -3.97131 3.54116
C 9.21569 -1.35605 5.75063
O 9.06782 -0.28753 6.44289
C 9.56246 -2.64027 6.37674
N 8.26269 2.36008 1.86854
C 8.17385 2.22375 3.20325
C 7.92828 3.55504 3.87240
C 8.11236 4.65327 2.72454
C 8.35537 3.72009 1.51810
C 6.55776 3.72794 4.52673
C 9.13416 5.79109 2.99650
C 10.53639 5.22741 3.03410
N 8.92635 2.19298 -0.97206
C 8.64888 3.57645 -0.91624
C 8.64485 4.07612 -2.30647
C 8.89950 2.93521 -3.08235
C 9.03147 1.80071 -2.23679
C 8.37846 5.41540 -2.70833
C 9.07614 2.43077 -4.42512
O 9.15718 2.94175 -5.54139
C 9.04216 0.84240 -4.37678
C 10.20386 0.32824 -5.18214
O 11.37224 0.54074 -4.81292
O 9.74624 -0.50955 -6.13034
C 10.86252 -1.05426 -6.94829
H 7.94502 -3.56390 0.87201
H 8.32885 1.21765 4.87213
H 8.32893 5.28933 0.09133
H 8.31089 -2.16152 -3.84749
H 8.47895 -3.90309 -1.63937
H 6.25928 -2.22557 -2.73443
H 6.16909 -2.53172 -0.98730
H 6.18652 -3.89771 -2.06128
H 10.65986 -3.09720 -2.18237
H 10.96307 -1.88790 -3.48269
H 9.47418 -4.03859 -4.60751
H 10.48264 -4.77361 -3.41268
H 8.53952 -4.53382 2.64586
H 8.04248 -4.18943 4.26868
H 9.78771 -4.31314 3.94368
H 8.75845 -3.35282 6.20849
H 9.80243 -2.40375 7.41517
H 10.45049 -3.04421 5.87789
H 8.65766 3.73623 4.65232
H 7.17490 5.19162 2.52160
H 6.61636 3.98193 5.60196
H 5.99279 2.81675 4.38149
H 5.91539 4.47449 4.06280
H 8.95242 6.23681 3.97755
H 9.09299 6.59228 2.26616
H 10.62461 4.85340 4.05851
H 11.26830 6.00743 2.83429
H 10.63345 4.36841 2.36006
H 9.10958 5.66440 -3.46593
H 8.42926 6.10107 -1.86510
H 7.35894 5.30608 -3.08766
H 8.08452 0.52251 -4.78931
H 10.63532 -0.82267 -7.99348
H 10.93950 -2.12330 -6.67448
H 11.83700 -0.59345 -6.83656
