158

Mg 0.00000 0.00000 0.00000
C -0.21700 -2.21800 2.80100
C -1.25500 2.44200 2.02600
C -0.24500 1.85000 -2.56400
C 0.14600 -2.82400 -2.03700
N -0.61700 -0.00900 2.12600
C -0.59400 -0.90800 3.10500
C -0.93600 -0.30900 4.50200
C -1.77300 0.96400 4.03200
C -1.15500 1.16800 2.66000
C -3.26300 0.68500 3.86300
C 0.34500 0.11000 5.29900
C 0.12400 0.39700 6.78700
H 1.16800 0.03300 7.73300
N -0.18500 1.96100 -0.15200
C -0.70300 2.80000 0.77700
C -0.62000 4.15600 0.19300
C -0.18700 4.01500 -1.22500
C -0.21400 2.58300 -1.38000
C -0.88700 5.40600 0.97400
C 0.18100 5.01300 -2.27700
O 0.30300 4.69000 -3.50800
C 0.31000 6.41400 -1.83700
N -0.26500 -0.41300 -2.02900
C -0.27900 0.56900 -2.93700
C -0.19600 0.02400 -4.33200
C 0.12400 -1.53300 -4.18000
C 0.08600 -1.63200 -2.63500
C -1.45100 0.20500 -5.19700
C 1.37300 -2.07000 -4.92300
C 2.62600 -1.49000 -4.30600
N 0.15000 -2.14400 0.30300
C 0.17300 -3.13600 -0.68800
C 0.17300 -4.43800 0.00400
C 0.13300 -4.11100 1.35800
C 0.08300 -2.69500 1.50200
C 0.14900 -5.71500 -0.62300
C 0.09600 -4.62900 2.71600
O 0.20800 -5.74700 3.22100
C -0.25500 -3.42800 3.70100
C 0.71700 -3.48200 4.84800
O 1.93100 -3.25500 4.66900
O 0.03800 -3.55600 6.00300
C 0.94300 -3.58300 7.18300
H -1.85900 3.22000 2.49700
H -0.21800 2.45300 -3.47400
H 0.27600 -3.74700 -2.60500
H -1.55400 -0.94900 5.13200
H -1.58500 1.83100 4.66500
H -3.48400 -0.37700 3.96900
H -3.51100 1.02700 2.85800
H -3.85200 1.30100 4.54300
H 0.66900 1.09600 4.96600
H 1.13000 -0.63900 5.18900
H -0.84400 0.02600 7.12500
H 0.06200 1.47700 6.92100
H -1.34400 5.18600 1.93800
H -1.65100 5.96300 0.43200
H 0.00700 6.02000 1.08400
H -0.63500 6.74400 -1.40500
H 0.66500 6.97000 -2.70400
H 1.04800 6.46600 -1.03600
H 0.60800 0.50100 -4.89100
H -0.69200 -2.15600 -4.54700
H -1.26700 0.74000 -6.12900
H -2.20400 0.71400 -4.59600
H -1.96700 -0.72000 -5.45300
H 1.35600 -1.75900 -5.96700
H 1.45200 -3.15700 -4.90200
H 2.71400 -0.52200 -4.79800
H 3.48700 -2.12100 -4.52900
H 2.49500 -1.30300 -3.24000
H 0.86700 -6.33300 -0.08400
H 0.40400 -5.64200 -1.68000
H -0.89100 -5.99900 -0.46300
H -1.28300 -3.58100 4.02800
H 0.69800 -4.47800 7.75500
H 0.83300 -2.61900 7.68000
H 2.00000 -3.75400 6.97600
Mg 10.50327 0.94849 0.79138
C 10.88391 -1.79007 -1.49651
C 11.16749 3.03244 -1.82598
C 10.62011 3.34986 2.86194
C 11.00206 -1.32818 3.38246
N 10.95122 0.55288 -1.33819
C 11.00820 -0.52446 -2.10659
C 11.12947 -0.22579 -3.62503
C 11.77700 1.24073 -3.53068
C 11.24074 1.65715 -2.16258
C 13.29511 1.22515 -3.46409
C 9.73366 -0.19242 -4.34099
C 9.79448 -0.21362 -5.86992
H 8.75245 -0.93228 -6.59804
N 10.35825 2.90583 0.49750
C 10.64679 3.58237 -0.63401
C 10.39481 4.99965 -0.33071
C 10.09206 5.12200 1.12122
C 10.37160 3.77060 1.56357
C 10.37579 6.06678 -1.38631
C 9.63972 6.26908 1.97315
O 9.66810 6.20937 3.25317
C 9.25078 7.49774 1.26561
N 10.98108 1.04560 2.81242
C 10.90149 2.20622 3.48663
C 11.02248 1.98183 4.97505
C 10.95729 0.39676 5.17727
C 10.89692 -0.04474 3.69848
C 12.29236 2.52622 5.62882
C 9.87820 -0.14421 6.15481
C 8.49875 0.09469 5.58435
N 10.69257 -1.19701 0.96179
C 10.92251 -1.94218 2.13905
C 11.09134 -3.35315 1.73519
C 10.96983 -3.32740 0.33767
C 10.76153 -1.99166 -0.10040
C 11.37029 -4.44107 2.60969
C 10.98101 -4.12501 -0.86748
O 11.03000 -5.32995 -1.11130
C 11.05205 -3.14817 -2.11934
C 10.01794 -3.59470 -3.11621
O 8.80643 -3.52569 -2.84403
O 10.61635 -3.82331 -4.29943
C 9.62973 -4.25799 -5.32386
H 11.58649 3.75990 -2.52177
H 10.56111 4.12596 3.62852
H 11.06331 -2.11272 4.13971
H 11.79141 -0.89033 -4.16725
H 11.38900 1.89454 -4.30744
H 13.68406 0.22199 -3.37181
H 13.55750 1.81411 -2.59500
H 13.71561 1.75364 -4.32445
H 9.27461 0.79228 -4.18486
H 9.10784 -0.99115 -3.99314
H 10.78728 -0.49827 -6.23904
H 9.65428 0.80601 -6.23695
H 10.79593 5.70411 -2.33254
H 11.07081 6.84912 -1.06267
H 9.38583 6.50752 -1.52190
H 10.08897 7.85259 0.67066
H 8.87304 8.17192 2.03676
H 8.44558 7.25667 0.56265
H 10.19428 2.43787 5.50347
H 11.89792 -0.00090 5.58580
H 12.08922 3.23561 6.45318
H 12.89609 2.99550 4.86342
H 12.96827 1.77035 6.02508
H 9.92015 0.39774 7.10280
H 9.99083 -1.19912 6.38168
H 8.28998 1.13032 5.86890
H 7.77744 -0.58931 6.02695
H 8.51265 0.05017 4.48914
H 10.73597 -5.26066 2.29919
H 11.19284 -4.17154 3.64874
H 12.43270 -4.59201 2.40046
H 12.06315 -3.20727 -2.52401
H 9.98283 -5.21428 -5.72199
H 9.54757 -3.41541 -6.03595
H 8.63669 -4.52504 -4.98178
