79

Mg 31.53607 2.83253 2.40312
C 28.84348 3.10455 4.76003
C 33.58173 4.10002 4.82042
C 33.82977 3.02876 0.21957
C 29.13194 2.68382 -0.11556
N 31.14586 3.47971 4.48185
C 30.09598 3.47935 5.28938
C 30.42080 3.82760 6.76680
C 31.77426 4.65775 6.52621
C 32.22146 4.02063 5.21214
C 31.53659 6.13876 6.28240
C 30.67845 2.54929 7.63948
C 30.69604 2.79458 9.14987
H 30.15904 1.75988 10.02935
N 33.50190 3.00078 2.61707
C 34.16417 3.51863 3.67278
C 35.59292 3.43243 3.33308
C 35.71284 2.97314 1.92262
C 34.32214 3.00371 1.51629
C 36.68372 3.69353 4.33078
C 36.88645 2.58456 1.07536
O 36.78362 2.44624 -0.19473
C 38.17986 2.46199 1.76351
N 31.50018 3.06637 0.33760
C 32.63861 3.06780 -0.37787
C 32.35304 2.97167 -1.85760
C 30.78869 2.66042 -1.97391
C 30.40665 2.72154 -0.47869
C 32.68695 4.21496 -2.68170
C 30.37993 1.40392 -2.79049
C 30.83395 0.15257 -2.07399
N 29.38156 2.69663 2.31551
C 28.57480 2.67288 1.15678
C 27.16747 2.69067 1.60569
C 27.25387 2.74723 3.00492
C 28.61862 2.78392 3.39937
C 26.02402 2.70434 0.75807
C 26.50080 2.79495 4.23752
O 25.30963 2.70418 4.53183
C 27.49532 3.15608 5.42366
C 27.23462 2.20046 6.55562
O 27.47016 0.98637 6.42478
O 26.95840 2.90217 7.66992
C 26.70338 1.99826 8.82307
H 34.26193 4.69945 5.42614
H 34.58210 2.98511 -0.57136
H 28.32374 2.54061 -0.83596
H 29.68440 4.45156 7.25890
H 32.50118 4.46403 7.31069
H 30.48524 6.36882 6.19360
H 32.05404 6.37197 5.36104
H 32.02490 6.73206 7.06078
H 31.71401 2.21714 7.49100
H 29.96856 1.77958 7.40663
H 30.28197 3.77552 9.41300
H 31.73610 2.84508 9.48114
H 36.29344 4.17210 5.23746
H 37.34657 4.44614 3.89023
H 37.26738 2.79951 4.56038
H 38.42765 3.40856 2.23793
H 38.87748 2.09035 1.01045
H 38.08003 1.72383 2.56711
H 32.90778 2.15684 -2.30638
H 30.24633 3.47838 -2.47052
H 33.39242 4.01322 -3.50976
H 33.08719 4.96824 -2.01618
H 31.82913 4.72412 -3.11769
H 30.88043 1.40425 -3.76191
H 29.31332 1.33867 -2.97778
H 31.87959 0.05762 -2.38173
H 30.24843 -0.70654 -2.39512
H 30.82185 0.29502 -0.98715
H 25.31513 2.00453 1.18024
H 26.28411 2.43969 -0.26471
H 25.72713 3.75269 0.84796
H 27.30275 4.19101 5.70902
H 25.71879 2.26014 9.22266
H 27.57062 2.12350 9.49832
H 26.57272 0.94307 8.61344
