79

Mg 15.76628 1.41940 1.19766
C 15.57581 -0.97164 3.85452
C 14.51186 3.72271 3.38039
C 15.49784 3.42596 -1.24330
C 15.91342 -1.26995 -1.01398
N 15.16171 1.27347 3.32225
C 15.19455 0.31473 4.24252
C 14.85794 0.82286 5.67635
C 14.01236 2.11876 5.29211
C 14.62142 2.41182 3.93230
C 12.52270 1.84356 5.11410
C 16.14161 1.19719 6.49108
C 15.92796 1.38881 7.99540
H 16.97911 0.97115 8.91082
N 15.57137 3.38514 1.17054
C 15.05492 4.16139 2.15339
C 15.12828 5.55187 1.65554
C 15.55366 5.50260 0.22910
C 15.53235 4.08309 -0.01566
C 14.86007 6.74886 2.51520
C 15.91093 6.56668 -0.75995
O 16.02725 6.32245 -2.00951
C 16.03603 7.93781 -0.23328
N 15.49138 1.13369 -0.85183
C 15.46757 2.17084 -1.69607
C 15.54495 1.71519 -3.12307
C 15.87300 0.15331 -3.07124
C 15.84445 -0.04297 -1.53536
C 14.28412 1.94407 -3.96801
C 17.12012 -0.32962 -3.85347
C 18.37400 0.21658 -3.20808
N 15.92791 -0.73865 1.36415
C 15.94971 -1.66615 0.31251
C 15.95974 -3.00913 0.92110
C 15.92612 -2.76825 2.29321
C 15.87043 -1.36439 2.52641
C 15.93797 -4.24421 0.21503
C 15.89941 -3.37092 3.61606
O 16.01949 -4.51793 4.04899
C 15.54862 -2.23609 4.67669
C 16.52752 -2.35739 5.81263
O 17.73940 -2.11354 5.64159
O 15.85560 -2.50735 6.96440
C 16.76757 -2.60411 8.13534
H 13.90703 4.46649 3.90279
H 15.51676 4.08519 -2.11363
H 16.04436 -2.15470 -1.63971
H 14.24657 0.14140 6.26818
H 14.20005 2.94510 5.97743
H 12.30722 0.77591 5.15420
H 12.26728 2.24694 4.13403
H 11.93484 2.41259 5.83480
H 16.45912 2.20380 6.21908
H 16.92940 0.46051 6.32978
H 14.96366 0.99246 8.31470
H 15.86176 2.45791 8.19752
H 14.40971 6.46633 3.46593
H 14.09037 7.33509 2.01359
H 15.75186 7.35915 2.65873
H 15.09205 8.23526 0.22387
H 16.38341 8.54906 -1.06547
H 16.77844 7.94293 0.56532
H 16.34348 2.23043 -3.65534
H 15.05776 -0.44938 -3.47225
H 14.46022 2.53761 -4.86545
H 13.53229 2.41047 -3.33199
H 13.77090 1.03448 -4.27892
H 17.09561 0.04642 -4.87570
H 17.20424 -1.41538 -3.90144
H 18.45468 1.21407 -3.63860
H 19.23659 -0.39484 -3.47514
H 18.24835 0.33543 -2.13171
H 16.66194 -4.89136 0.71005
H 16.18647 -4.10353 -0.83666
H 14.90024 -4.54288 0.36256
H 14.52326 -2.41448 4.99907
H 16.53003 -3.53456 8.65116
H 16.65603 -1.67388 8.69269
H 17.82413 -2.75649 7.91215
