79

Mg 7.88574 0.70296 0.60659
C 5.21844 1.28779 2.93523
C 10.04298 1.67952 3.06163
C 10.21386 0.63105 -1.54797
C 5.51459 0.88229 -1.94119
N 7.55308 1.37349 2.68793
C 6.50115 1.49705 3.48324
C 6.84805 1.78714 4.96818
C 8.29796 2.44303 4.75270
C 8.67856 1.76777 3.43670
C 8.25118 3.94450 4.52307
C 6.93199 0.47804 5.82914
C 6.96077 0.70426 7.34233
H 6.28689 -0.26341 8.20370
N 9.85422 0.62081 0.84512
C 10.56259 1.04093 1.91423
C 11.97348 0.77929 1.59007
C 12.05298 0.32251 0.17595
C 10.68245 0.53155 -0.24602
C 13.07548 0.89144 2.60321
C 13.17936 -0.20203 -0.66209
O 13.07635 -0.31380 -1.93478
C 14.43820 -0.49289 0.03949
N 7.90608 0.95983 -1.45641
C 9.04481 0.82530 -2.15863
C 8.76851 0.78041 -3.64255
C 7.17910 0.66930 -3.78045
C 6.78853 0.76316 -2.28913
C 9.26639 1.97997 -4.44851
C 6.62645 -0.51778 -4.61597
C 6.91059 -1.82326 -3.90859
N 5.73252 0.83965 0.49259
C 4.94414 0.92887 -0.67557
C 3.54450 1.11888 -0.24275
C 3.61929 1.15032 1.15793
C 4.97266 1.01139 1.56850
C 2.42282 1.28444 -1.10330
C 2.86235 1.28010 2.38223
O 1.66552 1.33679 2.66172
C 3.87897 1.50172 3.58380
C 3.48585 0.57529 4.70171
O 3.56885 -0.65741 4.55976
O 3.28554 1.29512 5.82068
C 2.90429 0.41907 6.96042
H 10.78517 2.18275 3.68196
H 10.96489 0.50104 -2.33062
H 4.70415 0.84886 -2.67245
H 6.18950 2.49377 5.45884
H 8.98467 2.15180 5.54326
H 7.23825 4.30567 4.42479
H 8.80563 4.11993 3.61047
H 8.80002 4.46405 5.31376
H 7.91951 0.01992 5.68884
H 6.13418 -0.19406 5.57935
H 6.66971 1.72681 7.61184
H 7.99460 0.62044 7.68613
H 12.73670 1.40627 3.51072
H 13.83315 1.55913 2.17895
H 13.53934 -0.07104 2.82931
H 14.79667 0.41033 0.52750
H 15.09330 -0.94177 -0.70965
H 14.23619 -1.22056 0.83341
H 9.22235 -0.09319 -4.09417
H 6.75011 1.55377 -4.27392
H 9.95156 1.69939 -5.27063
H 9.74938 2.67040 -3.76987
H 8.48492 2.59713 -4.88853
H 7.13550 -0.57075 -5.58148
H 5.56258 -0.44668 -4.81628
H 7.93992 -2.04577 -4.20532
H 6.22606 -2.59880 -4.24624
H 6.90245 -1.69115 -2.82041
H 1.62634 0.67509 -0.69734
H 2.66079 0.99931 -2.12596
H 2.25870 2.36084 -1.00489
H 3.81413 2.54977 3.87871
H 1.95527 0.79860 7.35159
H 3.77162 0.42770 7.64702
H 2.64496 -0.60924 6.73728
