158

Mg 0.00000 0.00000 0.00000
C -0.21700 -2.21800 2.80100
C -1.25500 2.44200 2.02600
C -0.24500 1.85000 -2.56400
C 0.14600 -2.82400 -2.03700
N -0.61700 -0.00900 2.12600
C -0.59400 -0.90800 3.10500
C -0.93600 -0.30900 4.50200
C -1.77300 0.96400 4.03200
C -1.15500 1.16800 2.66000
C -3.26300 0.68500 3.86300
C 0.34500 0.11000 5.29900
C 0.12400 0.39700 6.78700
H 1.16800 0.03300 7.73300
N -0.18500 1.96100 -0.15200
C -0.70300 2.80000 0.77700
C -0.62000 4.15600 0.19300
C -0.18700 4.01500 -1.22500
C -0.21400 2.58300 -1.38000
C -0.88700 5.40600 0.97400
C 0.18100 5.01300 -2.27700
O 0.30300 4.69000 -3.50800
C 0.31000 6.41400 -1.83700
N -0.26500 -0.41300 -2.02900
C -0.27900 0.56900 -2.93700
C -0.19600 0.02400 -4.33200
C 0.12400 -1.53300 -4.18000
C 0.08600 -1.63200 -2.63500
C -1.45100 0.20500 -5.19700
C 1.37300 -2.07000 -4.92300
C 2.62600 -1.49000 -4.30600
N 0.15000 -2.14400 0.30300
C 0.17300 -3.13600 -0.68800
C 0.17300 -4.43800 0.00400
C 0.13300 -4.11100 1.35800
C 0.08300 -2.69500 1.50200
C 0.14900 -5.71500 -0.62300
C 0.09600 -4.62900 2.71600
O 0.20800 -5.74700 3.22100
C -0.25500 -3.42800 3.70100
C 0.71700 -3.48200 4.84800
O 1.93100 -3.25500 4.66900
O 0.03800 -3.55600 6.00300
C 0.94300 -3.58300 7.18300
H -1.85900 3.22000 2.49700
H -0.21800 2.45300 -3.47400
H 0.27600 -3.74700 -2.60500
H -1.55400 -0.94900 5.13200
H -1.58500 1.83100 4.66500
H -3.48400 -0.37700 3.96900
H -3.51100 1.02700 2.85800
H -3.85200 1.30100 4.54300
H 0.66900 1.09600 4.96600
H 1.13000 -0.63900 5.18900
H -0.84400 0.02600 7.12500
H 0.06200 1.47700 6.92100
H -1.34400 5.18600 1.93800
H -1.65100 5.96300 0.43200
H 0.00700 6.02000 1.08400
H -0.63500 6.74400 -1.40500
H 0.66500 6.97000 -2.70400
H 1.04800 6.46600 -1.03600
H 0.60800 0.50100 -4.89100
H -0.69200 -2.15600 -4.54700
H -1.26700 0.74000 -6.12900
H -2.20400 0.71400 -4.59600
H -1.96700 -0.72000 -5.45300
H 1.35600 -1.75900 -5.96700
H 1.45200 -3.15700 -4.90200
H 2.71400 -0.52200 -4.79800
H 3.48700 -2.12100 -4.52900
H 2.49500 -1.30300 -3.24000
H 0.86700 -6.33300 -0.08400
H 0.40400 -5.64200 -1.68000
H -0.89100 -5.99900 -0.46300
H -1.28300 -3.58100 4.02800
H 0.69800 -4.47800 7.75500
H 0.83300 -2.61900 7.68000
H 2.00000 -3.75400 6.97600
Mg 15.77340 1.41558 1.20452
C 15.95417 -2.01099 0.15332
C 14.76162 0.27078 4.25417
C 15.17166 4.42158 2.02263
C 15.68069 2.29956 -2.16530
N 15.43941 -0.62822 1.98144
C 15.59971 -1.85543 1.50964
C 15.44539 -2.97775 2.57084
C 14.52902 -2.18665 3.62598
C 14.95657 -0.75759 3.29785
C 13.04090 -2.31606 3.34654
C 16.81932 -3.39555 3.20310
C 16.78545 -4.69138 4.01638
H 17.95558 -5.56442 3.98374
N 15.54698 2.23816 2.99635
C 15.15097 1.62259 4.13016
C 15.12393 2.66649 5.16635
C 15.37711 3.98047 4.51515
C 15.35392 3.59172 3.11930
C 14.95432 2.35991 6.62603
C 15.59042 5.36094 5.05829
O 15.55571 6.39499 4.30174
C 15.74817 5.47497 6.51555
N 15.25709 3.10064 0.10165
C 15.10447 4.29652 0.69705
C 15.00727 5.40546 -0.32334
C 15.37040 4.73070 -1.72705
C 15.53484 3.26513 -1.26832
C 13.64774 6.09626 -0.42758
C 16.51876 5.38245 -2.54508
C 17.83540 5.19469 -1.82634
N 15.99397 0.38363 -0.68082
C 15.89347 0.94022 -1.97473
C 16.00235 -0.17463 -2.93789
C 16.13662 -1.31424 -2.13059
C 16.09281 -0.93860 -0.76074
C 15.92337 -0.06077 -4.35455
C 16.29479 -2.75078 -2.12565
O 16.47976 -3.60732 -2.98928
C 16.05676 -3.28031 -0.64601
C 17.17110 -4.23263 -0.30859
O 18.34327 -3.82718 -0.21781
O 16.64414 -5.41360 0.06287
C 17.70999 -6.38812 0.41797
H 14.22165 0.03141 5.17069
H 15.07078 5.48573 2.24821
H 15.75926 2.50374 -3.23526
H 14.92999 -3.86470 2.22233
H 14.79636 -2.43931 4.64874
H 12.84894 -2.82300 2.41256
H 12.65874 -1.30418 3.31330
H 12.53970 -2.79996 4.18973
H 17.08007 -2.68282 3.99605
H 17.58085 -3.46107 2.45050
H 15.87042 -5.26819 3.83479
H 16.73401 -4.43410 5.07712
H 14.62450 1.32568 6.78416
H 14.11842 2.96959 6.98579
H 15.84399 2.59855 7.21271
H 14.86628 5.07093 7.00696
H 15.97951 6.52528 6.70315
H 16.59448 4.85189 6.82565
H 15.72579 6.18825 -0.11338
H 14.51704 4.74897 -2.42080
H 13.70023 7.18962 -0.26673
H 12.97663 5.63857 0.28703
H 13.12267 5.94270 -1.36881
H 16.36081 6.46065 -2.62687
H 16.60597 4.99232 -3.55363
H 17.83894 6.01293 -1.10001
H 18.66744 5.28105 -2.52224
H 17.84584 4.25415 -1.26338
H 16.70660 -0.68653 -4.76134
H 16.03140 0.97274 -4.67698
H 14.91228 -0.44027 -4.52465
H 15.08132 -3.76781 -0.62548
H 17.55128 -7.27543 -0.20265
H 17.64024 -6.52096 1.51398
H 18.73074 -6.13018 0.16108
