158

Mg 0.00000 0.00000 0.00000
C -0.21700 -2.21800 2.80100
C -1.25500 2.44200 2.02600
C -0.24500 1.85000 -2.56400
C 0.14600 -2.82400 -2.03700
N -0.61700 -0.00900 2.12600
C -0.59400 -0.90800 3.10500
C -0.93600 -0.30900 4.50200
C -1.77300 0.96400 4.03200
C -1.15500 1.16800 2.66000
C -3.26300 0.68500 3.86300
C 0.34500 0.11000 5.29900
C 0.12400 0.39700 6.78700
H 1.16800 0.03300 7.73300
N -0.18500 1.96100 -0.15200
C -0.70300 2.80000 0.77700
C -0.62000 4.15600 0.19300
C -0.18700 4.01500 -1.22500
C -0.21400 2.58300 -1.38000
C -0.88700 5.40600 0.97400
C 0.18100 5.01300 -2.27700
O 0.30300 4.69000 -3.50800
C 0.31000 6.41400 -1.83700
N -0.26500 -0.41300 -2.02900
C -0.27900 0.56900 -2.93700
C -0.19600 0.02400 -4.33200
C 0.12400 -1.53300 -4.18000
C 0.08600 -1.63200 -2.63500
C -1.45100 0.20500 -5.19700
C 1.37300 -2.07000 -4.92300
C 2.62600 -1.49000 -4.30600
N 0.15000 -2.14400 0.30300
C 0.17300 -3.13600 -0.68800
C 0.17300 -4.43800 0.00400
C 0.13300 -4.11100 1.35800
C 0.08300 -2.69500 1.50200
C 0.14900 -5.71500 -0.62300
C 0.09600 -4.62900 2.71600
O 0.20800 -5.74700 3.22100
C -0.25500 -3.42800 3.70100
C 0.71700 -3.48200 4.84800
O 1.93100 -3.25500 4.66900
O 0.03800 -3.55600 6.00300
C 0.94300 -3.58300 7.18300
H -1.85900 3.22000 2.49700
H -0.21800 2.45300 -3.47400
H 0.27600 -3.74700 -2.60500
H -1.55400 -0.94900 5.13200
H -1.58500 1.83100 4.66500
H -3.48400 -0.37700 3.96900
H -3.51100 1.02700 2.85800
H -3.85200 1.30100 4.54300
H 0.66900 1.09600 4.96600
H 1.13000 -0.63900 5.18900
H -0.84400 0.02600 7.12500
H 0.06200 1.47700 6.92100
H -1.34400 5.18600 1.93800
H -1.65100 5.96300 0.43200
H 0.00700 6.02000 1.08400
H -0.63500 6.74400 -1.40500
H 0.66500 6.97000 -2.70400
H 1.04800 6.46600 -1.03600
H 0.60800 0.50100 -4.89100
H -0.69200 -2.15600 -4.54700
H -1.26700 0.74000 -6.12900
H -2.20400 0.71400 -4.59600
H -1.96700 -0.72000 -5.45300
H 1.35600 -1.75900 -5.96700
H 1.45200 -3.15700 -4.90200
H 2.71400 -0.52200 -4.79800
H 3.48700 -2.12100 -4.52900
H 2.49500 -1.30300 -3.24000
H 0.86700 -6.33300 -0.08400
H 0.40400 -5.64200 -1.68000
H -0.89100 -5.99900 -0.46300
H -1.28300 -3.58100 4.02800
H 0.69800 -4.47800 7.75500
H 0.83300 -2.61900 7.68000
H 2.00000 -3.75400 6.97600
Mg 8.93071 0.81248 0.68447
C 11.15027 0.64962 3.49980
C 6.35691 0.36354 2.87732
C 6.99246 0.50079 -1.80821
C 11.67537 0.10636 -1.34382
N 8.88612 0.55326 2.88062
C 9.78670 0.57021 3.85170
C 9.18816 0.57889 5.28391
C 7.76343 -0.08412 4.95314
C 7.63583 0.32887 3.48827
C 7.77551 -1.60216 5.02209
C 9.02703 2.03120 5.85560
C 8.74039 2.10315 7.35708
H 9.30967 3.20908 8.12214
N 6.95591 0.96937 0.56569
C 6.06301 0.77539 1.55886
C 4.73823 0.99072 0.95657
C 4.91297 1.16578 -0.51093
C 6.32251 0.85800 -0.64712
C 3.48129 1.09397 1.77072
C 3.96513 1.53501 -1.61159
O 4.28012 1.39629 -2.84624
C 2.62381 1.97557 -1.20140
N 9.23585 0.16081 -1.26606
C 8.23504 0.17399 -2.16390
C 8.75215 -0.07392 -3.56087
C 10.34618 -0.01594 -3.44552
C 10.48264 0.17520 -1.91901
C 8.33620 -1.39925 -4.19874
C 11.08400 0.97803 -4.38378
C 10.75054 2.40007 -3.99393
N 11.06459 0.62342 0.96533
C 12.02825 0.29736 -0.01402
C 13.32758 0.17354 0.67796
C 13.02329 0.41544 2.02607
C 11.62917 0.65199 2.16737
C 14.56572 -0.17284 0.06711
C 13.56272 0.51397 3.36323
O 14.69365 0.49429 3.84734
C 12.35388 0.54509 4.39479
C 12.60256 1.66459 5.36814
O 12.60276 2.84750 4.98429
O 12.58261 1.17243 6.62023
C 12.81364 2.24692 7.62219
H 5.50012 0.00153 3.44631
H 6.38662 0.48803 -2.71721
H 12.59516 -0.01501 -1.91995
H 9.72316 -0.02917 6.00351
H 6.97134 0.36532 5.54640
H 8.77250 -1.99096 5.16700
H 7.37007 -1.94274 4.07834
H 7.08061 -1.95010 5.79176
H 8.09874 2.46844 5.46595
H 9.88608 2.62985 5.62263
H 8.93438 1.14795 7.85998
H 7.66945 2.26782 7.49841
H 3.64214 0.75977 2.80312
H 2.77226 0.36834 1.35768
H 3.03311 2.08900 1.72923
H 2.14770 1.18970 -0.61986
H 2.12221 2.28062 -2.12185
H 2.72770 2.84020 -0.53639
H 8.42045 0.70235 -4.23946
H 10.80745 -0.98575 -3.68327
H 7.80888 -1.27298 -5.16314
H 7.71635 -1.93754 -3.49406
H 9.14879 -2.10188 -4.37540
H 10.74283 0.85054 -5.41407
H 12.16168 0.85320 -4.38362
H 9.79539 2.57652 -4.49756
H 11.51725 3.08489 -4.35062
H 10.57427 2.48136 -2.91505
H 15.31321 0.49143 0.48003
H 14.51209 -0.08782 -1.01625
H 14.66004 -1.21211 0.39312
H 12.31957 -0.42675 4.88868
H 13.66670 1.93599 8.23316
H 11.84627 2.38482 8.14078
H 13.15469 3.20836 7.25644
