79

Mg 15.76628 1.41940 1.19766
C 15.25984 4.95661 0.98820
C 15.15207 1.28293 -2.15602
C 15.75950 -1.74271 1.43776
C 15.21807 1.69287 4.62846
N 15.28136 2.98911 -0.28608
C 15.17571 4.31373 -0.24885
C 15.04245 4.96277 -1.65894
C 14.45753 3.71269 -2.45717
C 15.02573 2.59229 -1.60408
C 12.93483 3.62898 -2.42723
C 16.42486 5.41622 -2.23778
C 16.35135 6.34564 -3.45274
H 17.35083 7.39367 -3.59420
N 15.97686 0.02874 -0.18963
C 15.69412 0.15147 -1.50883
C 16.01886 -1.15596 -2.11861
C 16.33330 -2.10668 -1.01617
C 16.00610 -1.30836 0.13752
C 16.05692 -1.38711 -3.59810
C 16.83717 -3.51526 -1.00459
O 16.82107 -4.23473 0.05214
C 17.27382 -4.06743 -2.29977
N 15.30857 0.11503 2.76187
C 15.44395 -1.20796 2.61916
C 15.33521 -1.91341 3.93843
C 15.33897 -0.76983 5.05286
C 15.36881 0.46714 4.12158
C 14.09675 -2.80129 4.12250
C 16.40824 -0.87891 6.16874
C 17.78597 -0.66839 5.58168
N 15.49269 3.03935 2.61610
C 15.25693 2.92305 3.99362
C 15.03041 4.28557 4.50967
C 15.13440 5.10353 3.38630
C 15.38247 4.30017 2.23679
C 14.71113 4.62517 5.85398
C 15.06921 6.46699 2.88571
O 14.97913 7.57907 3.40786
C 15.02668 6.41512 1.29469
C 16.03037 7.41087 0.78049
O 17.25307 7.23805 0.96074
O 15.41681 8.27708 -0.04035
C 16.36238 9.27462 -0.60864
H 14.74701 1.08819 -3.15098
H 15.85753 -2.82035 1.58443
H 15.12482 1.86413 5.70243
H 14.34345 5.79772 -1.71074
H 14.85381 3.65547 -3.47078
H 12.50821 4.37126 -1.75274
H 12.70550 2.62171 -2.07894
H 12.52317 3.69874 -3.43443
H 16.92384 4.55905 -2.68983
H 17.03311 5.88360 -1.46260
H 15.34867 6.75409 -3.58201
H 16.51859 5.74917 -4.34966
H 15.61979 -0.55275 -4.14518
H 15.39325 -2.22606 -3.80646
H 17.06211 -1.61689 -3.95183
H 16.44190 -4.03509 -3.00363
H 17.68526 -5.05267 -2.08328
H 18.05090 -3.42429 -2.71385
H 16.18675 -2.57297 4.10055
H 14.39368 -0.72303 5.59407
H 14.33312 -3.83795 4.36372
H 13.49853 -2.73781 3.21399
H 13.38933 -2.44919 4.87283
H 16.39616 -1.87523 6.60937
H 16.26493 -0.15836 6.97405
H 18.04165 -1.65635 5.20035
H 18.48619 -0.35596 6.35710
H 17.75622 0.01184 4.73027
H 15.31723 5.49684 6.10057
H 14.91561 3.79612 6.53108
H 13.64578 4.83574 5.76147
H 14.00921 6.66992 0.99984
H 15.97266 10.26256 -0.36301
H 16.47953 9.02478 -1.66328
H 17.34889 9.32172 -0.14612
