79

Mg 15.77023 1.41341 1.20546
C 13.07993 1.52857 3.57782
C 17.74643 2.82036 3.60332
C 18.03401 1.74144 -0.99343
C 13.36528 1.09990 -1.29726
N 15.35244 2.04623 3.28326
C 14.30949 1.98431 4.09736
C 14.62054 2.36045 5.57090
C 15.91762 3.27273 5.31755
C 16.39620 2.65774 4.00399
C 15.58579 4.73450 5.06763
C 14.96329 1.10571 6.44850
C 14.97440 1.35995 7.95747
H 14.50880 0.29840 8.84561
N 17.72282 1.70612 1.40619
C 18.35745 2.27042 2.45504
C 19.78675 2.27236 2.10682
C 19.92694 1.81374 0.69801
C 18.53468 1.75456 0.30028
C 20.86488 2.60705 3.09629
C 21.11762 1.49507 -0.15460
O 21.01614 1.34355 -1.42329
C 22.42025 1.45788 0.52603
N 15.70741 1.63312 -0.86097
C 16.83922 1.70219 -1.58357
C 16.55146 1.58012 -3.06096
C 15.00913 1.17047 -3.16584
C 14.63291 1.21570 -1.66858
C 16.80158 2.83737 -3.89352
C 14.67539 -0.11373 -3.97337
C 15.21150 -1.33008 -3.25332
N 13.62806 1.14180 1.13210
C 12.81751 1.06097 -0.02140
C 11.41454 0.99270 0.43625
C 11.50553 1.06230 1.83459
C 12.86759 1.18692 2.22027
C 10.26748 0.92976 -0.40423
C 10.75830 1.06938 3.07164
O 9.57698 0.90551 3.37389
C 11.73516 1.49888 4.24964
C 11.54184 0.53502 5.38811
O 11.85253 -0.66256 5.26203
O 11.22865 1.22411 6.50051
C 11.03788 0.31234 7.65985
H 18.39115 3.46471 4.20167
H 18.78287 1.74081 -1.78884
H 12.56341 0.90217 -2.01182
H 13.84928 2.93957 6.06441
H 16.65995 3.12944 6.09843
H 14.52154 4.89749 4.98426
H 16.08206 4.99469 4.14185
H 16.04042 5.36162 5.83987
H 16.01679 0.83853 6.29522
H 14.30186 0.29161 6.22407
H 14.50099 2.31435 8.21816
H 16.01117 1.47759 8.28193
H 20.45066 3.06513 4.00293
H 21.47643 3.39741 2.64772
H 21.50499 1.75278 3.32681
H 22.61080 2.42076 0.99401
H 23.13537 1.12670 -0.22947
H 22.37184 0.71935 1.33402
H 17.15370 0.79932 -3.50903
H 14.41343 1.94995 -3.66323
H 17.51340 2.67583 -4.72495
H 17.15758 3.61800 -3.23440
H 15.91084 3.28917 -4.32672
H 15.16909 -0.08730 -4.94790
H 13.61391 -0.24696 -4.15362
H 16.25920 -1.36079 -3.56714
H 14.67929 -2.22607 -3.56635
H 15.19692 -1.18267 -2.16717
H 9.60655 0.18909 0.02597
H 10.53761 0.67634 -1.42726
H 9.90575 1.95784 -0.31787
H 11.47956 2.52121 4.53088
H 10.04115 0.51398 8.06428
H 11.89952 0.49559 8.32899
H 10.97263 -0.75013 7.45647
