79

Mg 7.89091 0.71048 0.59167
C 7.46195 4.09898 -0.50974
C 7.33929 -0.25034 -2.63434
C 7.81563 -2.29553 1.60444
C 7.27455 1.83259 3.83307
N 7.46728 1.86776 -1.24504
C 7.38896 3.15341 -1.55377
C 7.30356 3.44530 -3.07596
C 6.70200 2.03640 -3.55760
C 7.22768 1.14842 -2.43162
C 5.18325 1.99039 -3.53269
C 8.71187 3.71631 -3.71254
C 8.67680 4.30983 -5.12259
H 9.70759 5.27372 -5.49789
N 8.10384 -0.98848 -0.41171
C 7.85676 -1.19607 -1.72211
C 8.14891 -2.61703 -1.96643
C 8.43034 -3.26962 -0.65890
C 8.09991 -2.19089 0.25063
C 8.22044 -3.20778 -3.34459
C 8.90457 -4.64208 -0.28789
O 8.85220 -5.06908 0.91949
C 9.34496 -5.50480 -1.39390
N 7.38167 -0.15107 2.41396
C 7.48689 -1.47789 2.60479
C 7.33309 -1.83293 4.06448
C 7.34379 -0.43939 4.84902
C 7.41543 0.52738 3.64668
C 6.07027 -2.61274 4.42995
C 8.38790 -0.28101 5.98806
C 9.78395 -0.25548 5.40861
N 7.62982 2.62914 1.55011
C 7.35575 2.87100 2.91410
C 7.14864 4.32588 3.06524
C 7.29501 4.83071 1.76439
C 7.55367 3.76322 0.86270
C 6.81981 4.99798 4.27614
C 7.27899 6.02268 0.94729
O 7.19549 7.22931 1.17266
C 7.26099 5.58731 -0.58128
C 8.29726 6.40008 -1.30797
O 9.50549 6.26198 -1.04774
O 7.71232 7.04310 -2.33497
C 8.70198 7.85416 -3.09298
H 6.95597 -0.67208 -3.56390
H 7.88633 -3.30144 2.02470
H 7.17505 2.27287 4.82751
H 6.63006 4.24940 -3.34722
H 7.12416 1.73214 -4.51184
H 4.76071 2.87575 -3.08131
H 4.92497 1.11176 -2.95620
H 4.79486 1.81483 -4.54000
H 9.19959 2.75622 -3.92488
H 9.30560 4.33980 -3.07271
H 7.68186 4.68924 -5.38548
H 8.85602 3.50681 -5.84166
H 7.80525 -2.52562 -4.09670
H 7.54545 -4.07037 -3.35817
H 9.22626 -3.54192 -3.60795
H 8.52900 -5.62913 -2.10186
H 9.73082 -6.41059 -0.92218
H 10.15400 -4.99824 -1.93193
H 8.16628 -2.43485 4.40594
H 6.38394 -0.24670 5.35042
H 6.28187 -3.57524 4.93284
H 5.49525 -2.77346 3.52771
H 5.36368 -2.07750 5.06197
H 8.34704 -1.14065 6.66149
H 8.23751 0.60808 6.59131
H 10.02097 -1.31690 5.28906
H 10.47515 0.22832 6.09579
H 9.78753 0.19753 4.41040
H 7.43271 5.88871 4.31418
H 6.98788 4.36151 5.14241
H 5.75686 5.19176 4.10920
H 6.25565 5.77075 -0.96234
H 8.32523 8.88147 -3.11249
H 8.82346 7.34361 -4.06680
H 9.67986 7.99593 -2.64790
