79

Mg 15.76628 1.41940 1.19766
C 15.23090 2.18591 4.65281
C 14.65621 4.56546 0.48134
C 15.79849 0.61493 -1.86965
C 15.73851 -1.94861 2.09287
N 15.06289 3.07364 2.48971
C 14.96280 3.26060 3.80204
C 14.61898 4.72919 4.19243
C 13.92212 5.19374 2.83575
C 14.61287 4.24608 1.87100
C 12.42122 4.92466 2.79855
C 15.89854 5.57797 4.49908
C 15.64281 6.91616 5.19851
H 16.60881 7.39023 6.17802
N 15.76771 2.54893 -0.42314
C 15.29023 3.81218 -0.53032
C 15.52105 4.21746 -1.93358
C 15.99813 3.02044 -2.68032
C 15.84691 1.99409 -1.68076
C 15.33702 5.62018 -2.42580
C 16.49933 2.82968 -4.07694
O 16.64256 1.66997 -4.59572
C 16.73732 4.05416 -4.86247
N 15.54953 -0.40446 0.20560
C 15.66319 -0.48416 -1.12471
C 15.75417 -1.91032 -1.58047
C 15.92396 -2.78739 -0.25696
C 15.81266 -1.65437 0.79287
C 14.55813 -2.43226 -2.38861
C 17.14858 -3.73431 -0.19318
C 18.42250 -2.92201 -0.12683
N 15.70701 0.29161 3.05121
C 15.68060 -1.10377 3.18866
C 15.53278 -1.39346 4.62682
C 15.46638 -0.13821 5.22831
C 15.53999 0.87148 4.22661
C 15.41839 -2.68669 5.20896
C 15.32559 0.58474 6.48185
O 15.31382 0.26411 7.67120
C 15.04500 2.11633 6.14819
C 15.95931 2.94407 7.00969
O 17.19538 2.91820 6.83988
O 15.22880 3.80785 7.73135
C 16.07754 4.67995 8.58648
H 14.10669 5.43811 0.12293
H 15.91840 0.29253 -2.90605
H 15.80723 -2.97592 2.45530
H 13.91936 4.82684 5.02274
H 14.16197 6.22765 2.58833
H 12.09989 4.33954 3.66012
H 12.24764 4.37053 1.87589
H 11.86310 5.85592 2.69829
H 16.32487 5.93675 3.56229
H 16.61573 4.99820 5.08117
H 14.63171 6.96743 5.60343
H 15.67420 7.70557 4.44747
H 14.82202 6.23804 -1.69125
H 14.65038 5.57358 -3.27082
H 16.27801 6.07119 -2.74118
H 15.80923 4.62162 -4.93444
H 17.17749 3.72679 -5.80371
H 17.44293 4.68752 -4.32402
H 16.62100 -2.06112 -2.22256
H 15.07048 -3.44486 -0.08969
H 14.82896 -2.81879 -3.37144
H 13.83037 -1.62565 -2.47256
H 13.97091 -3.20293 -1.88996
H 17.20363 -4.34419 -1.09427
H 17.12700 -4.40873 0.66294
H 18.61901 -2.69151 -1.17329
H 19.23080 -3.51637 0.30049
H 18.26478 -1.97582 0.39119
H 16.05382 -2.67988 6.09449
H 15.72287 -3.46440 4.50891
H 14.35103 -2.71610 5.42743
H 13.99458 2.29874 6.37282
H 15.72815 4.56160 9.61222
H 16.03543 5.67781 8.14956
H 17.12220 4.38433 8.68951
