79

Mg 7.87926 0.70297 0.60604
C 6.26064 2.97963 2.85902
C 9.81712 -0.28484 3.23350
C 9.62234 -0.98155 -1.44129
C 6.64395 2.63779 -2.01621
N 7.93636 1.33869 2.72379
C 7.23228 2.16740 3.48000
C 7.53406 2.06546 4.99924
C 9.01832 1.45900 4.90941
C 8.91570 0.76129 3.55466
C 10.09889 2.52357 4.81777
C 6.55681 1.08527 5.73831
C 6.59290 1.17153 7.26573
H 5.34755 0.97809 8.00340
N 9.13644 -0.79969 0.92243
C 9.81928 -1.06443 2.05597
C 10.62150 -2.26429 1.77147
C 10.48208 -2.58990 0.32605
C 9.74201 -1.43230 -0.13474
C 11.35423 -3.02498 2.83819
C 10.94992 -3.74499 -0.50647
O 10.92291 -3.70642 -1.78734
C 11.52727 -4.88536 0.21998
N 8.28099 0.92705 -1.42146
C 9.02711 0.02452 -2.08227
C 8.95130 0.24191 -3.57471
C 7.80206 1.33258 -3.79217
C 7.45871 1.63592 -2.31722
C 10.23975 0.72034 -4.24357
C 6.64563 0.95354 -4.75740
C 5.82229 -0.16581 -4.16195
N 6.52375 2.37401 0.41043
C 6.16586 3.04743 -0.77806
C 5.30869 4.18687 -0.39160
C 5.24568 4.11024 1.00792
C 6.02609 3.01330 1.46309
C 4.74928 5.14649 -1.28172
C 4.70507 4.71420 2.20444
O 3.90415 5.61926 2.43498
C 5.44073 4.08471 3.46496
C 4.39142 3.70616 4.47401
O 3.56689 2.80978 4.22247
O 4.66837 4.30851 5.64483
C 3.66158 3.95495 6.68078
H 10.62714 -0.50377 3.92979
H 10.11565 -1.59503 -2.19876
H 6.13934 3.23022 -2.78241
H 7.55082 3.01334 5.52365
H 9.19721 0.73394 5.69913
H 9.68109 3.51337 4.70878
H 10.69280 2.26600 3.95060
H 10.77250 2.45186 5.67651
H 6.91022 0.05537 5.59989
H 5.55015 1.21830 5.39255
H 7.11076 2.07285 7.61556
H 7.20229 0.34786 7.64551
H 11.40874 -2.45452 3.77361
H 12.39616 -3.11079 2.51128
H 10.94922 -4.02707 2.99454
H 12.37936 -4.54703 0.80473
H 11.72052 -5.64705 -0.53788
H 10.78398 -5.25815 0.93353
H 8.67017 -0.67129 -4.08474
H 8.20027 2.26429 -4.22015
H 10.58278 0.05361 -5.05713
H 11.00353 0.81671 -3.48338
H 10.19874 1.72595 -4.65864
H 7.04800 0.57515 -5.70031
H 5.99255 1.78606 -4.99695
H 6.39048 -1.06087 -4.43235
H 4.82624 -0.18338 -4.59969
H 5.80642 -0.10353 -3.06764
H 3.72506 5.30100 -0.96933
H 4.80414 4.80985 -2.31489
H 5.40936 5.99701 -1.09153
H 6.12864 4.83722 3.85237
H 3.25284 4.89537 7.06318
H 4.19127 3.30541 7.40276
H 2.76032 3.45068 6.35230
