158

Mg 0.00000 0.00000 0.00000
C -0.21700 -2.21800 2.80100
C -1.25500 2.44200 2.02600
C -0.24500 1.85000 -2.56400
C 0.14600 -2.82400 -2.03700
N -0.61700 -0.00900 2.12600
C -0.59400 -0.90800 3.10500
C -0.93600 -0.30900 4.50200
C -1.77300 0.96400 4.03200
C -1.15500 1.16800 2.66000
C -3.26300 0.68500 3.86300
C 0.34500 0.11000 5.29900
C 0.12400 0.39700 6.78700
H 1.16800 0.03300 7.73300
N -0.18500 1.96100 -0.15200
C -0.70300 2.80000 0.77700
C -0.62000 4.15600 0.19300
C -0.18700 4.01500 -1.22500
C -0.21400 2.58300 -1.38000
C -0.88700 5.40600 0.97400
C 0.18100 5.01300 -2.27700
O 0.30300 4.69000 -3.50800
C 0.31000 6.41400 -1.83700
N -0.26500 -0.41300 -2.02900
C -0.27900 0.56900 -2.93700
C -0.19600 0.02400 -4.33200
C 0.12400 -1.53300 -4.18000
C 0.08600 -1.63200 -2.63500
C -1.45100 0.20500 -5.19700
C 1.37300 -2.07000 -4.92300
C 2.62600 -1.49000 -4.30600
N 0.15000 -2.14400 0.30300
C 0.17300 -3.13600 -0.68800
C 0.17300 -4.43800 0.00400
C 0.13300 -4.11100 1.35800
C 0.08300 -2.69500 1.50200
C 0.14900 -5.71500 -0.62300
C 0.09600 -4.62900 2.71600
O 0.20800 -5.74700 3.22100
C -0.25500 -3.42800 3.70100
C 0.71700 -3.48200 4.84800
O 1.93100 -3.25500 4.66900
O 0.03800 -3.55600 6.00300
C 0.94300 -3.58300 7.18300
H -1.85900 3.22000 2.49700
H -0.21800 2.45300 -3.47400
H 0.27600 -3.74700 -2.60500
H -1.55400 -0.94900 5.13200
H -1.58500 1.83100 4.66500
H -3.48400 -0.37700 3.96900
H -3.51100 1.02700 2.85800
H -3.85200 1.30100 4.54300
H 0.66900 1.09600 4.96600
H 1.13000 -0.63900 5.18900
H -0.84400 0.02600 7.12500
H 0.06200 1.47700 6.92100
H -1.34400 5.18600 1.93800
H -1.65100 5.96300 0.43200
H 0.00700 6.02000 1.08400
H -0.63500 6.74400 -1.40500
H 0.66500 6.97000 -2.70400
H 1.04800 6.46600 -1.03600
H 0.60800 0.50100 -4.89100
H -0.69200 -2.15600 -4.54700
H -1.26700 0.74000 -6.12900
H -2.20400 0.71400 -4.59600
H -1.96700 -0.72000 -5.45300
H 1.35600 -1.75900 -5.96700
H 1.45200 -3.15700 -4.90200
H 2.71400 -0.52200 -4.79800
H 3.48700 -2.12100 -4.52900
H 2.49500 -1.30300 -3.24000
H 0.86700 -6.33300 -0.08400
H 0.40400 -5.64200 -1.68000
H -0.89100 -5.99900 -0.46300
H -1.28300 -3.58100 4.02800
H 0.69800 -4.47800 7.75500
H 0.83300 -2.61900 7.68000
H 2.00000 -3.75400 6.97600
Mg 10.51816 0.95119 0.79254
C 9.93334 4.37273 1.70363
C 9.79907 1.84008 -2.42108
C 10.58427 -2.12827 0.03097
C 10.06842 0.12583 4.14847
N 9.95393 2.88718 -0.11620
C 9.82287 4.13151 0.31834
C 9.63818 5.18843 -0.80344
C 9.04651 4.22647 -1.94512
C 9.66258 2.90382 -1.49375
C 7.53379 4.09101 -1.89354
C 10.99785 5.83517 -1.24505
C 10.86208 7.08889 -2.11195
H 11.84230 8.15867 -1.94700
N 10.71553 0.06913 -0.97426
C 10.39560 0.58286 -2.18050
C 10.71032 -0.46737 -3.16138
C 11.08732 -1.70240 -2.42158
C 10.78360 -1.29907 -1.06321
C 10.71446 -0.22267 -4.64243
C 11.61950 -3.03151 -2.86480
O 11.65136 -4.04113 -2.07581
C 12.01534 -3.14153 -4.27642
N 10.14277 -0.77913 1.88225
C 10.29467 -1.99348 1.32530
C 10.23861 -3.08324 2.36917
C 10.25934 -2.32896 3.77922
C 10.23261 -0.86623 3.28416
C 9.02136 -4.00540 2.30345
C 11.36556 -2.74859 4.78563
C 12.72300 -2.33995 4.26049
N 10.26415 2.03978 2.64146
C 10.06638 1.49761 3.93026
C 9.82999 2.63103 4.84782
C 9.88421 3.76146 4.01857
C 10.11649 3.35944 2.67546
C 9.55686 2.53037 6.24116
C 9.78719 5.20269 3.97229
O 9.68524 6.09396 4.81430
C 9.68879 5.65399 2.45142
C 10.65734 6.78504 2.23895
O 11.88230 6.59556 2.33977
O 9.99465 7.84503 1.74131
C 10.91485 8.98886 1.50323
H 9.37185 1.96183 -3.41684
H 10.70698 -3.19710 -0.15886
H 10.01728 -0.04156 5.22645
H 8.92834 5.97430 -0.57473
H 9.41840 4.50463 -2.92781
H 7.11572 4.57188 -1.02169
H 7.33425 3.02765 -1.87134
H 7.09026 4.46155 -2.82215
H 11.49734 5.16682 -1.95819
H 11.61218 6.05020 -0.39242
H 9.84335 7.49481 -2.09296
H 11.01904 6.80747 -3.15607
H 10.23666 0.73230 -4.89370
H 10.06314 -0.97920 -5.09334
H 11.71115 -0.30786 -5.08065
H 11.16183 -2.91171 -4.90979
H 12.45295 -4.13629 -4.38053
H 12.77669 -2.38204 -4.48649
H 11.10662 -3.72761 2.30254
H 9.32664 -2.48798 4.34012
H 9.28848 -5.07419 2.20142
H 8.39753 -3.68889 1.47810
H 8.34009 -3.93189 3.14941
H 11.38830 -3.83596 4.89175
H 11.22810 -2.33102 5.77746
H 12.98063 -3.15716 3.58013
H 13.44118 -2.26264 5.07430
H 12.65435 -1.42319 3.66343
H 10.14695 3.29408 6.73007
H 9.79374 1.53915 6.62215
H 8.48100 2.72475 6.24356
H 8.65778 5.95757 2.26584
H 10.51033 9.84417 2.05322
H 10.99104 9.08721 0.40402
H 11.91364 8.92348 1.91869
