79

Mg 15.77434 1.41599 1.19168
C 15.57242 3.68978 -1.57747
C 15.28876 -1.11439 -1.04349
C 15.49733 -0.56975 3.65085
C 15.10277 4.12172 3.28303
N 15.48208 1.41419 -1.00077
C 15.48574 2.33337 -1.95441
C 15.47203 1.76264 -3.39789
C 14.81199 0.33254 -3.08477
C 15.24677 0.17615 -1.62902
C 13.29311 0.34772 -3.13061
C 16.91535 1.61091 -3.99439
C 16.96431 1.35328 -5.50203
H 18.05944 1.93596 -6.27251
N 15.93012 -0.56092 1.26990
C 15.71995 -1.43421 0.26270
C 15.94238 -2.77065 0.83597
C 16.13973 -2.62453 2.30376
C 15.83607 -1.21753 2.47179
C 16.03156 -4.01173 -0.00379
C 16.52408 -3.59391 3.38022
O 16.40439 -3.30270 4.62268
C 16.95648 -4.92756 2.93760
N 15.15250 1.68410 3.15733
C 15.17772 0.66609 4.03537
C 14.95157 1.15637 5.44564
C 15.01014 2.75226 5.36025
C 15.17851 2.91801 3.83396
C 13.63538 0.72970 6.09523
C 16.01916 3.47064 6.29752
C 17.43470 3.14314 5.87994
N 15.58418 3.55512 0.95499
C 15.27428 4.50004 1.95757
C 15.14196 5.81265 1.29277
C 15.36312 5.53422 -0.06445
C 15.59550 4.14282 -0.23621
C 14.80659 7.03914 1.93258
C 15.44233 6.09930 -1.39227
O 15.41702 7.23940 -1.85409
C 15.45619 4.91060 -2.44735
C 16.56129 5.17676 -3.43245
O 17.74984 5.16816 -3.06653
O 16.05034 5.18161 -4.67715
C 17.10999 5.43072 -5.69051
H 14.91700 -1.95959 -1.62342
H 15.49735 -1.19305 4.54806
H 14.99140 5.03034 3.87859
H 14.85400 2.31215 -4.09778
H 15.25132 -0.44845 -3.69992
H 12.90363 1.34777 -3.25036
H 12.96617 -0.07551 -2.18985
H 12.93264 -0.33176 -3.90824
H 17.35705 0.67474 -3.62937
H 17.51868 2.46459 -3.75389
H 16.00195 1.55807 -5.98666
H 17.12528 0.28508 -5.66649
H 15.68212 -3.83054 -1.02773
H 15.31119 -4.72777 0.40635
H 17.02645 -4.46178 0.01405
H 16.16127 -5.39142 2.35887
H 17.27459 -5.44722 3.84349
H 17.81117 -4.81183 2.26179
H 15.73747 0.81071 6.10593
H 14.04468 3.20998 5.62144
H 13.77537 0.18367 7.04725
H 13.08567 0.12422 5.38689
H 12.93667 1.53954 6.29811
H 15.90667 3.10976 7.32284
H 15.89590 4.54827 6.32007
H 17.61730 2.17822 6.36231
H 18.12591 3.90201 6.24104
H 17.49951 2.98768 4.79676
H 15.46567 7.79371 1.52423
H 14.90780 6.96447 3.01330
H 13.76268 7.14096 1.62413
H 14.47699 4.88698 -2.92712
H 16.79116 6.29581 -6.28013
H 17.23868 4.47341 -6.22972
H 18.07731 5.76352 -5.33276
