79

Mg 10.50961 0.95084 0.80792
C 8.55973 -1.53577 2.50905
C 7.92778 3.11788 1.33015
C 12.00289 3.02685 -1.07030
C 12.38615 -1.65145 -0.55309
N 8.55017 0.70524 1.80418
C 7.94396 -0.26747 2.46803
C 6.64080 0.16361 3.19296
C 6.27073 1.43609 2.28593
C 7.67072 1.80496 1.79946
C 5.42137 1.08576 1.07548
C 6.89548 0.57643 4.68518
C 5.63307 0.71141 5.53950
H 5.69844 0.31958 6.94473
N 10.27937 2.91349 0.62468
C 9.17164 3.63235 0.90298
C 9.50661 5.02827 0.58151
C 10.84703 5.05218 -0.06457
C 11.09140 3.63195 -0.21731
C 8.62674 6.18411 0.96005
C 11.75269 6.16872 -0.48801
O 12.76559 5.96345 -1.24612
C 11.36566 7.52276 -0.06579
N 11.84330 0.71889 -0.76999
C 12.38394 1.78767 -1.38101
C 13.51577 1.37964 -2.29363
C 13.78219 -0.16634 -1.98290
C 12.64947 -0.41847 -0.96371
C 13.26231 1.56139 -3.78999
C 15.23123 -0.56595 -1.59140
C 15.58447 0.02667 -0.24626
N 10.62215 -1.19029 1.07424
C 11.46086 -2.09276 0.38417
C 11.09442 -3.45351 0.82746
C 10.04404 -3.24811 1.73466
C 9.76136 -1.85893 1.83348
C 11.67510 -4.66568 0.35885
C 9.10303 -3.89136 2.62315
O 8.92785 -5.04402 3.01613
C 8.01577 -2.82092 3.06860
C 7.84952 -2.92080 4.56021
O 8.78611 -2.62222 5.32196
O 6.55319 -3.14129 4.84530
C 6.33606 -3.23689 6.31348
H 7.09002 3.80989 1.23986
H 12.62127 3.70796 -1.65952
H 12.98979 -2.50933 -0.85695
H 5.83909 -0.56423 3.15727
H 5.85128 2.23988 2.88539
H 5.30531 0.01836 0.96004
H 5.93846 1.50459 0.22211
H 4.45883 1.60258 1.12805
H 7.25340 1.61365 4.71365
H 7.58002 -0.10167 5.15657
H 4.75772 0.26155 5.05542
H 5.37991 1.77137 5.61952
H 7.63223 5.84592 1.27623
H 8.44063 6.75729 0.04534
H 9.08890 6.84046 1.70051
H 10.37472 7.75163 -0.45063
H 12.18159 8.17332 -0.38660
H 11.29060 7.54034 1.02722
H 14.41395 1.94263 -2.07132
H 13.56667 -0.80035 -2.85548
H 14.01558 2.20253 -4.28556
H 12.26939 1.97071 -3.92076
H 13.20925 0.63840 -4.36485
H 15.94477 -0.15383 -2.30915
H 15.38976 -1.63873 -1.55947
H 15.89440 1.04508 -0.49898
H 16.39715 -0.52996 0.21609
H 14.69904 0.10131 0.39569
H 11.83718 -5.28955 1.22777
H 12.60353 -4.48050 -0.17734
H 10.88115 -5.01849 -0.30480
H 7.09170 -3.05198 2.53730
H 5.84581 -4.19697 6.50210
H 5.77872 -2.32316 6.59317
H 7.21259 -3.31924 6.94544
