158

Mg 0.00000 0.00000 0.00000
C -0.21700 -2.21800 2.80100
C -1.25500 2.44200 2.02600
C -0.24500 1.85000 -2.56400
C 0.14600 -2.82400 -2.03700
N -0.61700 -0.00900 2.12600
C -0.59400 -0.90800 3.10500
C -0.93600 -0.30900 4.50200
C -1.77300 0.96400 4.03200
C -1.15500 1.16800 2.66000
C -3.26300 0.68500 3.86300
C 0.34500 0.11000 5.29900
C 0.12400 0.39700 6.78700
H 1.16800 0.03300 7.73300
N -0.18500 1.96100 -0.15200
C -0.70300 2.80000 0.77700
C -0.62000 4.15600 0.19300
C -0.18700 4.01500 -1.22500
C -0.21400 2.58300 -1.38000
C -0.88700 5.40600 0.97400
C 0.18100 5.01300 -2.27700
O 0.30300 4.69000 -3.50800
C 0.31000 6.41400 -1.83700
N -0.26500 -0.41300 -2.02900
C -0.27900 0.56900 -2.93700
C -0.19600 0.02400 -4.33200
C 0.12400 -1.53300 -4.18000
C 0.08600 -1.63200 -2.63500
C -1.45100 0.20500 -5.19700
C 1.37300 -2.07000 -4.92300
C 2.62600 -1.49000 -4.30600
N 0.15000 -2.14400 0.30300
C 0.17300 -3.13600 -0.68800
C 0.17300 -4.43800 0.00400
C 0.13300 -4.11100 1.35800
C 0.08300 -2.69500 1.50200
C 0.14900 -5.71500 -0.62300
C 0.09600 -4.62900 2.71600
O 0.20800 -5.74700 3.22100
C -0.25500 -3.42800 3.70100
C 0.71700 -3.48200 4.84800
O 1.93100 -3.25500 4.66900
O 0.03800 -3.55600 6.00300
C 0.94300 -3.58300 7.18300
H -1.85900 3.22000 2.49700
H -0.21800 2.45300 -3.47400
H 0.27600 -3.74700 -2.60500
H -1.55400 -0.94900 5.13200
H -1.58500 1.83100 4.66500
H -3.48400 -0.37700 3.96900
H -3.51100 1.02700 2.85800
H -3.85200 1.30100 4.54300
H 0.66900 1.09600 4.96600
H 1.13000 -0.63900 5.18900
H -0.84400 0.02600 7.12500
H 0.06200 1.47700 6.92100
H -1.34400 5.18600 1.93800
H -1.65100 5.96300 0.43200
H 0.00700 6.02000 1.08400
H -0.63500 6.74400 -1.40500
H 0.66500 6.97000 -2.70400
H 1.04800 6.46600 -1.03600
H 0.60800 0.50100 -4.89100
H -0.69200 -2.15600 -4.54700
H -1.26700 0.74000 -6.12900
H -2.20400 0.71400 -4.59600
H -1.96700 -0.72000 -5.45300
H 1.35600 -1.75900 -5.96700
H 1.45200 -3.15700 -4.90200
H 2.71400 -0.52200 -4.79800
H 3.48700 -2.12100 -4.52900
H 2.49500 -1.30300 -3.24000
H 0.86700 -6.33300 -0.08400
H 0.40400 -5.64200 -1.68000
H -0.89100 -5.99900 -0.46300
H -1.28300 -3.58100 4.02800
H 0.69800 -4.47800 7.75500
H 0.83300 -2.61900 7.68000
H 2.00000 -3.75400 6.97600
Mg 10.50793 0.93918 0.80577
C 8.64224 3.02028 3.05683
C 12.58471 0.23239 3.41767
C 12.42507 -0.53652 -1.24712
C 9.00919 2.67366 -1.81932
N 10.50916 1.60116 2.91623
C 9.71532 2.34353 3.67323
C 10.04503 2.29760 5.18939
C 11.59257 1.88121 5.08644
C 11.56279 1.16074 3.74007
C 12.52972 3.07185 4.97039
C 9.20724 1.21102 5.95062
C 9.24982 1.31854 7.47652
H 8.04723 0.97879 8.23205
N 11.94748 -0.39013 1.12075
C 12.67120 -0.55414 2.24796
C 13.61446 -1.64701 1.96501
C 13.50038 -2.00401 0.52478
C 12.61548 -0.95376 0.06216
C 14.44919 -2.29752 3.02966
C 14.09997 -3.10068 -0.30226
O 14.05356 -3.08042 -1.58299
C 14.82434 -4.15123 0.42792
N 10.85491 1.18876 -1.22885
C 11.70082 0.37952 -1.89027
C 11.58109 0.56864 -3.38369
C 10.30152 1.50392 -3.59708
C 9.93982 1.77859 -2.12089
C 12.79143 1.19732 -4.07378
C 9.19080 0.97178 -4.54355
C 8.52152 -0.23517 -3.92653
N 8.95108 2.42457 0.61115
C 8.49775 3.03416 -0.57922
C 7.50875 4.06137 -0.19301
C 7.47202 3.99340 1.20789
C 8.38924 3.00833 1.66378
C 6.82299 4.93298 -1.08528
C 6.87366 4.53836 2.40525
O 5.96811 5.33832 2.63714
C 7.69706 4.02058 3.66235
C 6.71533 3.52487 4.68851
O 6.00709 2.52931 4.45646
O 6.92790 4.17054 5.84967
C 5.98552 3.70526 6.90193
H 13.42380 0.12480 4.10560
H 12.98277 -1.09185 -2.00479
H 8.42535 3.18931 -2.58477
H 9.94862 3.24602 5.70416
H 11.87023 1.19339 5.88090
H 11.98967 4.00009 4.85703
H 13.14124 2.88097 4.09823
H 13.21686 3.09503 5.82105
H 9.68560 0.23210 5.81782
H 8.18792 1.21273 5.61655
H 9.65436 2.28166 7.81074
H 9.96220 0.58225 7.85653
H 14.44240 -1.71411 3.95863
H 15.48981 -2.25563 2.69021
H 14.17510 -3.34067 3.20109
H 15.63387 -3.70200 0.99828
H 15.10299 -4.89124 -0.32482
H 14.14205 -4.60618 1.15463
H 11.41103 -0.37837 -3.88102
H 10.57457 2.47330 -4.03933
H 13.20609 0.56967 -4.88507
H 13.54578 1.39743 -3.32448
H 12.61963 2.18503 -4.49818
H 9.62661 0.63614 -5.48779
H 8.43560 1.71298 -4.78288
H 9.19448 -1.05488 -4.19538
H 7.53058 -0.38259 -4.35121
H 8.51058 -0.16290 -2.83277
H 5.79114 4.96130 -0.76127
H 6.90778 4.59413 -2.11570
H 7.37315 5.86173 -0.91201
H 8.28941 4.85784 4.03342
H 5.46633 4.59126 7.28027
H 6.60091 3.13561 7.62341
H 5.15101 3.08818 6.59008
