158

Mg 0.00000 0.00000 0.00000
C -0.21700 -2.21800 2.80100
C -1.25500 2.44200 2.02600
C -0.24500 1.85000 -2.56400
C 0.14600 -2.82400 -2.03700
N -0.61700 -0.00900 2.12600
C -0.59400 -0.90800 3.10500
C -0.93600 -0.30900 4.50200
C -1.77300 0.96400 4.03200
C -1.15500 1.16800 2.66000
C -3.26300 0.68500 3.86300
C 0.34500 0.11000 5.29900
C 0.12400 0.39700 6.78700
H 1.16800 0.03300 7.73300
N -0.18500 1.96100 -0.15200
C -0.70300 2.80000 0.77700
C -0.62000 4.15600 0.19300
C -0.18700 4.01500 -1.22500
C -0.21400 2.58300 -1.38000
C -0.88700 5.40600 0.97400
C 0.18100 5.01300 -2.27700
O 0.30300 4.69000 -3.50800
C 0.31000 6.41400 -1.83700
N -0.26500 -0.41300 -2.02900
C -0.27900 0.56900 -2.93700
C -0.19600 0.02400 -4.33200
C 0.12400 -1.53300 -4.18000
C 0.08600 -1.63200 -2.63500
C -1.45100 0.20500 -5.19700
C 1.37300 -2.07000 -4.92300
C 2.62600 -1.49000 -4.30600
N 0.15000 -2.14400 0.30300
C 0.17300 -3.13600 -0.68800
C 0.17300 -4.43800 0.00400
C 0.13300 -4.11100 1.35800
C 0.08300 -2.69500 1.50200
C 0.14900 -5.71500 -0.62300
C 0.09600 -4.62900 2.71600
O 0.20800 -5.74700 3.22100
C -0.25500 -3.42800 3.70100
C 0.71700 -3.48200 4.84800
O 1.93100 -3.25500 4.66900
O 0.03800 -3.55600 6.00300
C 0.94300 -3.58300 7.18300
H -1.85900 3.22000 2.49700
H -0.21800 2.45300 -3.47400
H 0.27600 -3.74700 -2.60500
H -1.55400 -0.94900 5.13200
H -1.58500 1.83100 4.66500
H -3.48400 -0.37700 3.96900
H -3.51100 1.02700 2.85800
H -3.85200 1.30100 4.54300
H 0.66900 1.09600 4.96600
H 1.13000 -0.63900 5.18900
H -0.84400 0.02600 7.12500
H 0.06200 1.47700 6.92100
H -1.34400 5.18600 1.93800
H -1.65100 5.96300 0.43200
H 0.00700 6.02000 1.08400
H -0.63500 6.74400 -1.40500
H 0.66500 6.97000 -2.70400
H 1.04800 6.46600 -1.03600
H 0.60800 0.50100 -4.89100
H -0.69200 -2.15600 -4.54700
H -1.26700 0.74000 -6.12900
H -2.20400 0.71400 -4.59600
H -1.96700 -0.72000 -5.45300
H 1.35600 -1.75900 -5.96700
H 1.45200 -3.15700 -4.90200
H 2.71400 -0.52200 -4.79800
H 3.48700 -2.12100 -4.52900
H 2.49500 -1.30300 -3.24000
H 0.86700 -6.33300 -0.08400
H 0.40400 -5.64200 -1.68000
H -0.89100 -5.99900 -0.46300
H -1.28300 -3.58100 4.02800
H 0.69800 -4.47800 7.75500
H 0.83300 -2.61900 7.68000
H 2.00000 -3.75400 6.97600
Mg 31.54066 2.83355 2.39095
C 31.46938 4.13951 -0.95097
C 31.03862 -0.25563 1.03468
C 31.14889 1.71436 5.33397
C 30.89472 6.06689 3.51966
N 31.30151 2.15726 0.29866
C 31.35393 2.73500 -0.89206
C 31.35913 1.74499 -2.08764
C 30.65197 0.49548 -1.36825
C 31.04691 0.79014 0.07739
C 29.13566 0.52470 -1.46458
C 32.81163 1.38815 -2.56189
C 32.88977 0.67464 -3.91339
H 34.01907 0.96851 -4.79134
N 31.63915 0.97585 3.08218
C 31.42902 -0.16264 2.38866
C 31.60006 -1.25929 3.35421
C 31.76591 -0.66883 4.71014
C 31.49776 0.72641 4.42468
C 31.67476 -2.70112 2.94314
C 32.09687 -1.26359 6.04540
O 31.95540 -0.59907 7.13225
C 32.50236 -2.67676 6.05127
N 30.87926 3.71006 4.15635
C 30.85478 3.01438 5.30672
C 30.60843 3.92221 6.48806
C 30.71366 5.41145 5.91475
C 30.92342 5.09227 4.41825
C 29.26551 3.74334 7.19584
C 31.71944 6.36573 6.61504
C 33.13494 5.89786 6.36435
N 31.41619 4.79693 1.49782
C 31.10871 6.01200 2.14832
C 31.02926 7.05589 1.10601
C 31.27527 6.36597 -0.09065
C 31.47272 4.98576 0.18419
C 30.71298 8.42653 1.32378
C 31.40232 6.48962 -1.52496
O 31.42007 7.43047 -2.31758
C 31.40840 5.03222 -2.15926
C 32.54399 4.95848 -3.14288
O 33.72264 5.04112 -2.75485
O 32.06360 4.58671 -4.34345
C 33.15397 4.48886 -5.35010
H 30.65748 -1.23177 0.73341
H 31.10979 1.40027 6.37958
H 30.79446 7.11739 3.80086
H 30.77380 2.06197 -2.94245
H 31.08401 -0.44606 -1.69721
H 28.77731 1.44552 -1.90028
H 28.77438 0.42054 -0.44986
H 28.77522 -0.35548 -2.00467
H 33.21802 0.60315 -1.91122
H 33.43262 2.26263 -2.57851
H 31.94550 0.73732 -4.46780
H 33.02472 -0.39475 -3.73393
H 31.35535 -2.83989 1.90289
H 30.92494 -3.24069 3.53178
H 32.65594 -3.14235 3.13089
H 31.70870 -3.28199 5.61970
H 32.78384 -2.89573 7.08312
H 33.37603 -2.79275 5.40022
H 31.36817 3.78349 7.24743
H 29.75535 5.94597 5.99074
H 29.36712 3.51703 8.27405
H 28.71634 2.95861 6.69269
H 28.58502 4.58935 7.11585
H 31.57217 6.34295 7.69760
H 31.62588 7.39934 6.29898
H 33.27878 5.12689 7.12725
H 33.83818 6.71796 6.49448
H 33.22153 5.41283 5.38512
H 31.40257 9.00445 0.72297
H 30.78592 8.68889 2.37717
H 29.68008 8.44756 0.96609
H 30.44080 4.87964 -2.63888
H 32.87380 5.13428 -6.18832
H 33.26882 3.40923 -5.56213
H 34.12130 4.89768 -5.08251
