79

Mg 31.53256 2.83880 2.39533
C 30.93301 6.10387 3.73401
C 30.76915 4.11956 -0.67386
C 31.61203 -0.12141 1.26066
C 31.13535 1.60127 5.62896
N 30.94311 4.86981 1.74095
C 30.80777 6.04667 2.34416
C 30.59479 7.22870 1.35178
C 30.00392 6.41519 0.11441
C 30.63703 5.06242 0.38849
C 28.48661 6.26428 0.15312
C 31.93811 7.94191 0.97959
C 31.78705 9.29662 0.28152
H 32.75380 10.34504 0.57060
N 31.71256 2.18195 0.54087
C 31.36699 2.84348 -0.58972
C 31.69456 1.93517 -1.70969
C 32.08159 0.61906 -1.12989
C 31.78854 0.83539 0.26392
C 31.67045 2.35838 -3.14637
C 32.61885 -0.63814 -1.73729
O 32.66820 -1.73935 -1.08962
C 33.00887 -0.56722 -3.15711
N 31.17800 0.97460 3.26520
C 31.33817 -0.15461 2.56647
C 31.30665 -1.35884 3.46021
C 31.33412 -0.80019 4.95584
C 31.29191 0.71579 4.64231
C 30.09939 -2.29051 3.28552
C 32.45556 -1.33046 5.88407
C 33.79962 -0.83346 5.40074
N 31.28559 3.68700 4.37790
C 31.11587 2.98514 5.58009
C 30.88080 3.98722 6.63586
C 30.91384 5.20945 5.96736
C 31.12817 4.98354 4.57763
C 30.61529 3.70809 8.00554
C 30.79340 6.65228 6.09999
O 30.70084 7.43104 7.04997
C 30.67945 7.28174 4.64169
C 31.63460 8.44194 4.57154
O 32.86803 8.25913 4.62241
O 30.96373 9.54939 4.21935
C 31.85833 10.73188 4.10289
H 30.32379 4.35099 -1.64341
H 31.74229 -1.15376 0.92943
H 31.08724 1.29449 6.67540
H 29.87448 7.97663 1.68370
H 30.35472 6.81173 -0.83817
H 28.07371 6.63011 1.09312
H 28.29748 5.19615 0.04433
H 28.02781 6.73968 -0.71422
H 32.43618 7.38043 0.18919
H 32.56986 8.05888 1.86081
H 30.77008 9.67968 0.37057
H 31.92728 9.14671 -0.78903
H 31.18904 3.32761 -3.27034
H 31.01811 1.66178 -3.67260
H 32.66361 2.34275 -3.59551
H 32.14512 -0.27216 -3.75329
H 33.45312 -1.53296 -3.39552
H 33.75068 0.22236 -3.28049
H 32.18018 -1.98903 3.29819
H 30.41370 -1.02735 5.49427
H 30.37114 -3.32044 3.05293
H 29.45893 -1.87049 2.51048
H 29.41882 -2.32113 4.13600
H 32.48735 -2.41912 5.85662
H 32.33209 -1.02838 6.92414
H 34.06105 -1.55327 4.62591
H 34.52691 -0.85285 6.21307
H 33.71481 0.14290 4.92324
H 31.21111 4.41560 8.58209
H 30.87018 2.67869 8.25650
H 29.54212 3.89408 8.04518
H 29.64379 7.59591 4.51593
H 31.45683 11.50400 4.75930
H 31.93307 10.96038 3.03959
H 32.86354 10.61781 4.51017
