158

Mg 0.00000 0.00000 0.00000
C -0.21700 -2.21800 2.80100
C -1.25500 2.44200 2.02600
C -0.24500 1.85000 -2.56400
C 0.14600 -2.82400 -2.03700
N -0.61700 -0.00900 2.12600
C -0.59400 -0.90800 3.10500
C -0.93600 -0.30900 4.50200
C -1.77300 0.96400 4.03200
C -1.15500 1.16800 2.66000
C -3.26300 0.68500 3.86300
C 0.34500 0.11000 5.29900
C 0.12400 0.39700 6.78700
H 1.16800 0.03300 7.73300
N -0.18500 1.96100 -0.15200
C -0.70300 2.80000 0.77700
C -0.62000 4.15600 0.19300
C -0.18700 4.01500 -1.22500
C -0.21400 2.58300 -1.38000
C -0.88700 5.40600 0.97400
C 0.18100 5.01300 -2.27700
O 0.30300 4.69000 -3.50800
C 0.31000 6.41400 -1.83700
N -0.26500 -0.41300 -2.02900
C -0.27900 0.56900 -2.93700
C -0.19600 0.02400 -4.33200
C 0.12400 -1.53300 -4.18000
C 0.08600 -1.63200 -2.63500
C -1.45100 0.20500 -5.19700
C 1.37300 -2.07000 -4.92300
C 2.62600 -1.49000 -4.30600
N 0.15000 -2.14400 0.30300
C 0.17300 -3.13600 -0.68800
C 0.17300 -4.43800 0.00400
C 0.13300 -4.11100 1.35800
C 0.08300 -2.69500 1.50200
C 0.14900 -5.71500 -0.62300
C 0.09600 -4.62900 2.71600
O 0.20800 -5.74700 3.22100
C -0.25500 -3.42800 3.70100
C 0.71700 -3.48200 4.84800
O 1.93100 -3.25500 4.66900
O 0.03800 -3.55600 6.00300
C 0.94300 -3.58300 7.18300
H -1.85900 3.22000 2.49700
H -0.21800 2.45300 -3.47400
H 0.27600 -3.74700 -2.60500
H -1.55400 -0.94900 5.13200
H -1.58500 1.83100 4.66500
H -3.48400 -0.37700 3.96900
H -3.51100 1.02700 2.85800
H -3.85200 1.30100 4.54300
H 0.66900 1.09600 4.96600
H 1.13000 -0.63900 5.18900
H -0.84400 0.02600 7.12500
H 0.06200 1.47700 6.92100
H -1.34400 5.18600 1.93800
H -1.65100 5.96300 0.43200
H 0.00700 6.02000 1.08400
H -0.63500 6.74400 -1.40500
H 0.66500 6.97000 -2.70400
H 1.04800 6.46600 -1.03600
H 0.60800 0.50100 -4.89100
H -0.69200 -2.15600 -4.54700
H -1.26700 0.74000 -6.12900
H -2.20400 0.71400 -4.59600
H -1.96700 -0.72000 -5.45300
H 1.35600 -1.75900 -5.96700
H 1.45200 -3.15700 -4.90200
H 2.71400 -0.52200 -4.79800
H 3.48700 -2.12100 -4.52900
H 2.49500 -1.30300 -3.24000
H 0.86700 -6.33300 -0.08400
H 0.40400 -5.64200 -1.68000
H -0.89100 -5.99900 -0.46300
H -1.28300 -3.58100 4.02800
H 0.69800 -4.47800 7.75500
H 0.83300 -2.61900 7.68000
H 2.00000 -3.75400 6.97600
Mg 15.76628 1.41940 1.19766
C 15.57581 -0.97164 3.85452
C 14.51186 3.72271 3.38039
C 15.49784 3.42596 -1.24330
C 15.91342 -1.26995 -1.01398
N 15.16171 1.27347 3.32225
C 15.19455 0.31473 4.24252
C 14.85794 0.82286 5.67635
C 14.01236 2.11876 5.29211
C 14.62142 2.41182 3.93230
C 12.52270 1.84356 5.11410
C 16.14161 1.19719 6.49108
C 15.92796 1.38881 7.99540
H 16.97911 0.97115 8.91082
N 15.57137 3.38514 1.17054
C 15.05492 4.16139 2.15339
C 15.12828 5.55187 1.65554
C 15.55366 5.50260 0.22910
C 15.53235 4.08309 -0.01566
C 14.86007 6.74886 2.51520
C 15.91093 6.56668 -0.75995
O 16.02725 6.32245 -2.00951
C 16.03603 7.93781 -0.23328
N 15.49138 1.13369 -0.85183
C 15.46757 2.17084 -1.69607
C 15.54495 1.71519 -3.12307
C 15.87300 0.15331 -3.07124
C 15.84445 -0.04297 -1.53536
C 14.28412 1.94407 -3.96801
C 17.12012 -0.32962 -3.85347
C 18.37400 0.21658 -3.20808
N 15.92791 -0.73865 1.36415
C 15.94971 -1.66615 0.31251
C 15.95974 -3.00913 0.92110
C 15.92612 -2.76825 2.29321
C 15.87043 -1.36439 2.52641
C 15.93797 -4.24421 0.21503
C 15.89941 -3.37092 3.61606
O 16.01949 -4.51793 4.04899
C 15.54862 -2.23609 4.67669
C 16.52752 -2.35739 5.81263
O 17.73940 -2.11354 5.64159
O 15.85560 -2.50735 6.96440
C 16.76757 -2.60411 8.13534
H 13.90703 4.46649 3.90279
H 15.51676 4.08519 -2.11363
H 16.04436 -2.15470 -1.63971
H 14.24657 0.14140 6.26818
H 14.20005 2.94510 5.97743
H 12.30722 0.77591 5.15420
H 12.26728 2.24694 4.13403
H 11.93484 2.41259 5.83480
H 16.45912 2.20380 6.21908
H 16.92940 0.46051 6.32978
H 14.96366 0.99246 8.31470
H 15.86176 2.45791 8.19752
H 14.40971 6.46633 3.46593
H 14.09037 7.33509 2.01359
H 15.75186 7.35915 2.65873
H 15.09205 8.23526 0.22387
H 16.38341 8.54906 -1.06547
H 16.77844 7.94293 0.56532
H 16.34348 2.23043 -3.65534
H 15.05776 -0.44938 -3.47225
H 14.46022 2.53761 -4.86545
H 13.53229 2.41047 -3.33199
H 13.77090 1.03448 -4.27892
H 17.09561 0.04642 -4.87570
H 17.20424 -1.41538 -3.90144
H 18.45468 1.21407 -3.63860
H 19.23659 -0.39484 -3.47514
H 18.24835 0.33543 -2.13171
H 16.66194 -4.89136 0.71005
H 16.18647 -4.10353 -0.83666
H 14.90024 -4.54288 0.36256
H 14.52326 -2.41448 4.99907
H 16.53003 -3.53456 8.65116
H 16.65603 -1.67388 8.69269
H 17.82413 -2.75649 7.91215
