79

Mg 15.77286 1.42387 1.20467
C 15.39503 -0.79495 3.99987
C 14.65951 3.92924 3.23399
C 15.66448 3.30737 -1.34643
C 15.74806 -1.38847 -0.85345
N 15.14080 1.44065 3.32421
C 15.09783 0.54998 4.30361
C 14.79284 1.14750 5.70344
C 14.03346 2.48261 5.23475
C 14.67155 2.65624 3.85802
C 12.53780 2.28991 5.04710
C 16.09787 1.48134 6.50809
C 15.87955 1.77682 7.99362
H 16.89833 1.34450 8.94633
N 15.71527 3.40311 1.07112
C 15.25213 4.26808 1.99773
C 15.41002 5.60815 1.41169
C 15.85116 5.45325 -0.00115
C 15.73822 4.01687 -0.15660
C 15.22549 6.86969 2.20407
C 16.28847 6.43663 -1.04419
O 16.39944 6.10546 -2.27741
C 16.49275 7.82150 -0.59488
N 15.50242 1.04028 -0.82069
C 15.55068 2.03416 -1.72501
C 15.60606 1.48905 -3.13220
C 15.82988 -0.08654 -2.97409
C 15.77347 -0.19692 -1.43460
C 14.36895 1.74321 -3.99321
C 17.04830 -0.70216 -3.71513
C 18.33443 -0.20110 -3.09852
N 15.79006 -0.71690 1.49598
C 15.75030 -1.71404 0.49688
C 15.66373 -3.01781 1.18618
C 15.63569 -2.68480 2.54883
C 15.67986 -1.27222 2.69762
C 15.57361 -4.28933 0.55275
C 15.56804 -3.20660 3.89488
O 15.59897 -4.33107 4.39322
C 15.28162 -2.00107 4.89039
C 16.24074 -2.11315 6.04367
O 17.46343 -1.97304 5.86479
O 15.54406 -2.15003 7.19417
C 16.45221 -2.24989 8.36767
H 14.10826 4.73769 3.71506
H 15.73550 3.90597 -2.25753
H 15.83493 -2.31706 -1.42165
H 14.13825 0.54500 6.32172
H 14.27964 3.32351 5.87791
H 12.24951 1.25394 5.14605
H 12.31745 2.65045 4.05086
H 11.98518 2.93961 5.73182
H 16.48320 2.45450 6.17761
H 16.82383 0.69935 6.39808
H 14.88217 1.47122 8.33243
H 15.89123 2.85997 8.13736
H 14.74188 6.67177 3.16862
H 14.50263 7.48661 1.65932
H 16.15366 7.43313 2.32114
H 15.56921 8.20151 -0.16460
H 16.88890 8.35445 -1.46143
H 17.23792 7.82236 0.20845
H 16.44208 1.90981 -3.67729
H 14.97537 -0.66040 -3.36181
H 14.59463 2.28033 -4.93377
H 13.64990 2.29561 -3.40299
H 13.80663 0.85244 -4.26805
H 17.05868 -0.38019 -4.75934
H 17.05234 -1.78704 -3.71258
H 18.48079 0.76749 -3.58586
H 19.15490 -0.88133 -3.31794
H 18.20998 -0.01475 -2.02547
H 16.24095 -4.95174 1.08788
H 15.83462 -4.22762 -0.50169
H 14.51236 -4.50626 0.70091
H 14.24275 -2.08200 5.21255
H 16.14406 -3.13298 8.93590
H 16.38572 -1.27220 8.88093
H 17.49504 -2.47457 8.17671
