158

Mg 0.00000 0.00000 0.00000
C -0.21700 -2.21800 2.80100
C -1.25500 2.44200 2.02600
C -0.24500 1.85000 -2.56400
C 0.14600 -2.82400 -2.03700
N -0.61700 -0.00900 2.12600
C -0.59400 -0.90800 3.10500
C -0.93600 -0.30900 4.50200
C -1.77300 0.96400 4.03200
C -1.15500 1.16800 2.66000
C -3.26300 0.68500 3.86300
C 0.34500 0.11000 5.29900
C 0.12400 0.39700 6.78700
H 1.16800 0.03300 7.73300
N -0.18500 1.96100 -0.15200
C -0.70300 2.80000 0.77700
C -0.62000 4.15600 0.19300
C -0.18700 4.01500 -1.22500
C -0.21400 2.58300 -1.38000
C -0.88700 5.40600 0.97400
C 0.18100 5.01300 -2.27700
O 0.30300 4.69000 -3.50800
C 0.31000 6.41400 -1.83700
N -0.26500 -0.41300 -2.02900
C -0.27900 0.56900 -2.93700
C -0.19600 0.02400 -4.33200
C 0.12400 -1.53300 -4.18000
C 0.08600 -1.63200 -2.63500
C -1.45100 0.20500 -5.19700
C 1.37300 -2.07000 -4.92300
C 2.62600 -1.49000 -4.30600
N 0.15000 -2.14400 0.30300
C 0.17300 -3.13600 -0.68800
C 0.17300 -4.43800 0.00400
C 0.13300 -4.11100 1.35800
C 0.08300 -2.69500 1.50200
C 0.14900 -5.71500 -0.62300
C 0.09600 -4.62900 2.71600
O 0.20800 -5.74700 3.22100
C -0.25500 -3.42800 3.70100
C 0.71700 -3.48200 4.84800
O 1.93100 -3.25500 4.66900
O 0.03800 -3.55600 6.00300
C 0.94300 -3.58300 7.18300
H -1.85900 3.22000 2.49700
H -0.21800 2.45300 -3.47400
H 0.27600 -3.74700 -2.60500
H -1.55400 -0.94900 5.13200
H -1.58500 1.83100 4.66500
H -3.48400 -0.37700 3.96900
H -3.51100 1.02700 2.85800
H -3.85200 1.30100 4.54300
H 0.66900 1.09600 4.96600
H 1.13000 -0.63900 5.18900
H -0.84400 0.02600 7.12500
H 0.06200 1.47700 6.92100
H -1.34400 5.18600 1.93800
H -1.65100 5.96300 0.43200
H 0.00700 6.02000 1.08400
H -0.63500 6.74400 -1.40500
H 0.66500 6.97000 -2.70400
H 1.04800 6.46600 -1.03600
H 0.60800 0.50100 -4.89100
H -0.69200 -2.15600 -4.54700
H -1.26700 0.74000 -6.12900
H -2.20400 0.71400 -4.59600
H -1.96700 -0.72000 -5.45300
H 1.35600 -1.75900 -5.96700
H 1.45200 -3.15700 -4.90200
H 2.71400 -0.52200 -4.79800
H 3.48700 -2.12100 -4.52900
H 2.49500 -1.30300 -3.24000
H 0.86700 -6.33300 -0.08400
H 0.40400 -5.64200 -1.68000
H -0.89100 -5.99900 -0.46300
H -1.28300 -3.58100 4.02800
H 0.69800 -4.47800 7.75500
H 0.83300 -2.61900 7.68000
H 2.00000 -3.75400 6.97600
Mg 7.88989 0.71759 0.59670
C 7.27434 2.90662 3.37307
C 6.93109 3.27825 -1.44249
C 7.98885 -1.31546 -1.83730
C 7.69086 -1.94791 2.83304
N 7.21261 2.77851 1.02812
C 7.07713 3.51905 2.11789
C 6.78810 5.01941 1.84415
C 6.14723 4.87734 0.37856
C 6.82846 3.58321 -0.06171
C 4.64574 4.64392 0.39833
C 8.09655 5.88500 1.81748
C 7.86813 7.39744 1.86352
H 8.82754 8.22445 2.59021
N 7.99150 1.05620 -1.35614
C 7.57679 2.15954 -2.01336
C 7.85318 1.90800 -3.43620
C 8.31307 0.50028 -3.58299
C 8.09092 0.00879 -2.23793
C 7.75047 2.97584 -4.48625
C 8.85033 -0.27868 -4.74521
O 8.96316 -1.55484 -4.70604
C 9.15272 0.48646 -5.96365
N 7.63665 -1.34198 0.46869
C 7.78382 -1.98512 -0.70291
C 7.82837 -3.48114 -0.50212
C 7.92367 -3.69972 1.07925
C 7.82341 -2.23034 1.54431
C 6.63523 -4.26204 -1.05256
C 9.10650 -4.56096 1.60065
C 10.41360 -3.83855 1.36619
N 7.73168 0.49386 2.73982
C 7.63644 -0.71305 3.46672
C 7.43161 -0.35232 4.88459
C 7.39861 1.05031 4.88093
C 7.55051 1.52947 3.55171
C 7.25616 -1.26910 5.95923
C 7.25917 2.23431 5.69789
O 7.18996 2.45238 6.90677
C 7.04584 3.48586 4.74161
C 7.96640 4.58334 5.20055
O 9.20012 4.44720 5.12296
O 7.24275 5.68983 5.45028
C 8.11303 6.80966 5.89797
H 6.43435 3.93502 -2.15719
H 8.12771 -2.05867 -2.62586
H 7.71733 -2.71947 3.60548
H 6.07405 5.47507 2.51964
H 6.44406 5.70219 -0.26399
H 4.27453 4.49374 1.40122
H 4.47741 3.76055 -0.20364
H 4.13045 5.46095 -0.11477
H 8.56484 5.79573 0.82880
H 8.76098 5.59566 2.60832
H 6.84226 7.65061 2.15753
H 7.96181 7.79357 0.84946
H 7.23075 3.86432 -4.10692
H 7.09116 2.58998 -5.27129
H 8.71721 3.22638 -4.92818
H 8.25236 0.99108 -6.30596
H 9.60942 -0.22782 -6.65147
H 9.87700 1.26988 -5.71408
H 8.70724 -3.90805 -0.96948
H 7.03573 -4.21541 1.47354
H 6.92406 -5.04786 -1.77584
H 5.94858 -3.56046 -1.50735
H 6.01094 -4.74201 -0.30084
H 9.16618 -5.49922 1.04365
H 9.02499 -4.81531 2.65216
H 10.64698 -4.08218 0.32539
H 11.18276 -4.20975 2.04047
H 10.27962 -2.75235 1.42841
H 7.85678 -0.90356 6.78151
H 7.54536 -2.27798 5.67238
H 6.17800 -1.18040 6.11721
H 5.99670 3.77589 4.81073
H 7.72329 7.15153 6.86178
H 8.11200 7.53955 5.06670
H 9.13903 6.57476 6.15603
