158

Mg 0.00000 0.00000 0.00000
C -0.21700 -2.21800 2.80100
C -1.25500 2.44200 2.02600
C -0.24500 1.85000 -2.56400
C 0.14600 -2.82400 -2.03700
N -0.61700 -0.00900 2.12600
C -0.59400 -0.90800 3.10500
C -0.93600 -0.30900 4.50200
C -1.77300 0.96400 4.03200
C -1.15500 1.16800 2.66000
C -3.26300 0.68500 3.86300
C 0.34500 0.11000 5.29900
C 0.12400 0.39700 6.78700
H 1.16800 0.03300 7.73300
N -0.18500 1.96100 -0.15200
C -0.70300 2.80000 0.77700
C -0.62000 4.15600 0.19300
C -0.18700 4.01500 -1.22500
C -0.21400 2.58300 -1.38000
C -0.88700 5.40600 0.97400
C 0.18100 5.01300 -2.27700
O 0.30300 4.69000 -3.50800
C 0.31000 6.41400 -1.83700
N -0.26500 -0.41300 -2.02900
C -0.27900 0.56900 -2.93700
C -0.19600 0.02400 -4.33200
C 0.12400 -1.53300 -4.18000
C 0.08600 -1.63200 -2.63500
C -1.45100 0.20500 -5.19700
C 1.37300 -2.07000 -4.92300
C 2.62600 -1.49000 -4.30600
N 0.15000 -2.14400 0.30300
C 0.17300 -3.13600 -0.68800
C 0.17300 -4.43800 0.00400
C 0.13300 -4.11100 1.35800
C 0.08300 -2.69500 1.50200
C 0.14900 -5.71500 -0.62300
C 0.09600 -4.62900 2.71600
O 0.20800 -5.74700 3.22100
C -0.25500 -3.42800 3.70100
C 0.71700 -3.48200 4.84800
O 1.93100 -3.25500 4.66900
O 0.03800 -3.55600 6.00300
C 0.94300 -3.58300 7.18300
H -1.85900 3.22000 2.49700
H -0.21800 2.45300 -3.47400
H 0.27600 -3.74700 -2.60500
H -1.55400 -0.94900 5.13200
H -1.58500 1.83100 4.66500
H -3.48400 -0.37700 3.96900
H -3.51100 1.02700 2.85800
H -3.85200 1.30100 4.54300
H 0.66900 1.09600 4.96600
H 1.13000 -0.63900 5.18900
H -0.84400 0.02600 7.12500
H 0.06200 1.47700 6.92100
H -1.34400 5.18600 1.93800
H -1.65100 5.96300 0.43200
H 0.00700 6.02000 1.08400
H -0.63500 6.74400 -1.40500
H 0.66500 6.97000 -2.70400
H 1.04800 6.46600 -1.03600
H 0.60800 0.50100 -4.89100
H -0.69200 -2.15600 -4.54700
H -1.26700 0.74000 -6.12900
H -2.20400 0.71400 -4.59600
H -1.96700 -0.72000 -5.45300
H 1.35600 -1.75900 -5.96700
H 1.45200 -3.15700 -4.90200
H 2.71400 -0.52200 -4.79800
H 3.48700 -2.12100 -4.52900
H 2.49500 -1.30300 -3.24000
H 0.86700 -6.33300 -0.08400
H 0.40400 -5.64200 -1.68000
H -0.89100 -5.99900 -0.46300
H -1.28300 -3.58100 4.02800
H 0.69800 -4.47800 7.75500
H 0.83300 -2.61900 7.68000
H 2.00000 -3.75400 6.97600
Mg 31.53256 2.83880 2.39533
C 30.91339 5.51099 4.69495
C 30.64809 4.98485 -0.10572
C 31.63264 0.37867 0.39673
C 31.26158 0.65047 5.09411
N 30.88400 4.95529 2.41775
C 30.74535 5.88335 3.35937
C 30.47853 7.30807 2.78811
C 29.86447 6.90136 1.37407
C 30.53166 5.54846 1.19958
C 28.35230 6.70349 1.40069
C 31.79554 8.13875 2.62320
C 31.59661 9.63822 2.38370
H 32.55181 10.57227 2.96033
N 31.66631 2.79357 0.42482
C 31.27257 3.76265 -0.43608
C 31.58183 3.25518 -1.79015
C 32.01209 1.83561 -1.65677
C 31.75921 1.60156 -0.25796
C 31.50420 4.10149 -3.02363
C 32.55378 0.84373 -2.63701
O 32.64463 -0.40204 -2.36432
C 32.89726 1.36156 -3.97377
N 31.24138 0.78774 2.65225
C 31.40091 -0.06476 1.63403
C 31.42071 -1.48689 2.11058
C 31.48480 -1.41812 3.70460
C 31.40373 0.11864 3.87796
C 30.22654 -2.35211 1.68470
C 32.64498 -2.17809 4.39515
C 33.96333 -1.51850 4.05753
N 31.33228 3.02437 4.54858
C 31.21412 1.98038 5.47745
C 30.99347 2.59943 6.79736
C 30.98199 3.96899 6.54041
C 31.15651 4.19046 5.14442
C 30.77681 1.90271 8.01886
C 30.83825 5.29593 7.11698
O 30.76093 5.73946 8.26362
C 30.66622 6.34244 5.92910
C 31.59633 7.49362 6.19929
O 32.83402 7.33862 6.16112
O 30.89361 8.63647 6.22435
C 31.76132 9.82147 6.45890
H 30.16793 5.49249 -0.94459
H 31.77206 -0.49637 -0.24147
H 31.25247 0.03361 5.99458
H 29.75493 7.89606 3.35298
H 30.17731 7.58295 0.58332
H 27.96244 6.74867 2.41750
H 28.18027 5.71666 0.97051
H 27.85729 7.41100 0.73498
H 32.27898 7.86368 1.68582
H 32.45250 7.99481 3.48170
H 30.57583 9.94630 2.61174
H 31.70573 9.83105 1.31641
H 31.00067 5.04763 -2.82913
H 30.84897 3.58404 -3.72408
H 32.48277 4.25344 -3.47931
H 32.00960 1.80239 -4.42795
H 33.35212 0.52988 -4.51067
H 33.61958 2.17098 -3.86399
H 32.30055 -2.01128 1.74000
H 30.58639 -1.82645 4.16806
H 30.51043 -3.25142 1.13758
H 29.55397 -1.73089 1.09391
H 29.57393 -2.66352 2.49989
H 32.69667 -3.20344 4.03057
H 32.54873 -2.21639 5.48029
H 34.21382 -1.95549 3.09155
H 34.71619 -1.76804 4.80595
H 33.84481 -0.44505 3.90868
H 31.37695 2.41337 8.77188
H 31.05914 0.85374 7.93186
H 29.70208 2.03720 8.14015
H 29.62128 6.65101 5.93206
H 31.36611 10.34092 7.33196
H 31.79800 10.36989 5.51747
H 32.78091 9.61509 6.78629
