79

Mg 8.94387 0.80870 0.67836
C 10.72363 -1.30865 2.96492
C 9.70088 3.41881 2.73964
C 7.01104 2.61966 -1.06864
C 7.39138 -2.05888 -0.55145
N 10.07308 0.91521 2.57726
C 10.75639 0.05634 3.31872
C 11.58324 0.70737 4.45979
C 10.73483 2.06020 4.62985
C 10.15718 2.16532 3.21990
C 9.58111 1.92784 5.61004
C 13.06229 1.00709 4.03015
C 14.00840 1.35521 5.18143
H 15.39585 0.90671 5.10200
N 8.82296 2.78381 0.52707
C 9.19699 3.69500 1.44963
C 8.88439 5.00913 0.86695
C 8.14395 4.79375 -0.40586
C 7.94131 3.35978 -0.35354
C 9.35198 6.30021 1.47351
C 7.68205 5.72606 -1.48459
O 6.84826 5.35439 -2.38431
C 8.16217 7.11321 -1.40214
N 7.26887 0.37822 -0.47550
C 6.64518 1.34213 -1.17536
C 5.64408 0.75416 -2.14102
C 5.89909 -0.82442 -2.11606
C 6.99132 -0.88711 -1.02588
C 4.17450 1.03700 -1.83001
C 6.17565 -1.51429 -3.47998
C 7.50506 -1.05227 -4.03187
N 9.15201 -1.32132 0.97458
C 8.38259 -2.34457 0.37875
C 8.81973 -3.62255 0.97717
C 9.80489 -3.24889 1.90364
C 9.95582 -1.83585 1.89849
C 8.28265 -4.90690 0.68032
C 10.74395 -3.72760 2.89242
O 11.12191 -4.83728 3.26593
C 11.29126 -2.48205 3.71428
C 12.78828 -2.60226 3.79784
O 13.48710 -2.52119 2.77232
O 13.16107 -2.57488 5.09038
C 14.63850 -2.68006 5.22439
H 9.68727 4.26438 3.42791
H 6.39455 3.18765 -1.76922
H 7.02507 -3.00662 -0.95181
H 11.58877 0.15250 5.39031
H 11.38135 2.90796 4.84121
H 9.44982 0.90885 5.94252
H 8.70251 2.26838 5.07794
H 9.71493 2.62091 6.44555
H 13.08872 1.95233 3.47288
H 13.46729 0.19114 3.46373
H 13.57855 1.10368 6.15862
H 14.13087 2.44055 5.21385
H 9.73126 6.15199 2.49213
H 8.46653 6.93201 1.60263
H 10.07205 6.82560 0.84254
H 7.85525 7.54577 -0.45286
H 7.79835 7.60268 -2.30764
H 9.25786 7.10491 -1.40461
H 5.81387 1.12173 -3.14559
H 5.02997 -1.37138 -1.72196
H 3.64073 1.53595 -2.66080
H 4.12522 1.63743 -0.93135
H 3.58388 0.16408 -1.55730
H 5.41793 -1.22379 -4.21184
H 6.17134 -2.59777 -3.42473
H 7.25413 -0.10571 -4.51987
H 7.89459 -1.77395 -4.74705
H 8.21081 -0.82931 -3.22324
H 9.12300 -5.58198 0.58778
H 7.68523 -4.88758 -0.22879
H 7.67010 -5.07266 1.57059
H 10.82288 -2.50789 4.69893
H 14.83987 -3.53178 5.88144
H 14.97866 -1.68578 5.57002
H 15.20347 -2.95573 4.34163
