79

Mg 13.13189 1.18503 0.99012
C 13.83609 -1.52266 -1.25746
C 14.08855 3.30656 -1.50359
C 12.95336 3.56459 3.08136
C 13.33505 -1.11347 3.60188
N 13.84894 0.81909 -1.07002
C 14.01744 -0.24880 -1.83525
C 14.32372 0.06830 -3.32360
C 14.93292 1.54213 -3.13503
C 14.22341 1.93618 -1.84119
C 16.43077 1.54594 -2.87862
C 13.02832 0.09112 -4.20871
C 13.28059 0.08771 -5.71805
H 12.34860 -0.63657 -6.57787
N 12.99640 3.14342 0.69870
C 13.41462 3.83626 -0.38128
C 13.10603 5.24661 -0.09875
C 12.62193 5.34880 1.30479
C 12.86345 3.99640 1.76606
C 13.20394 6.32506 -1.13836
C 12.04974 6.48025 2.10393
O 11.91833 6.40671 3.37678
C 11.73472 7.71144 1.36471
N 13.35117 1.26601 3.05596
C 13.17083 2.41791 3.72568
C 13.10755 2.17863 5.21536
C 13.04059 0.59068 5.39296
C 13.17247 0.16488 3.91421
C 14.27743 2.73251 6.02837
C 11.85547 0.02463 6.22226
C 10.55507 0.25154 5.48547
N 13.32953 -0.95953 1.16285
C 13.42092 -1.71462 2.35263
C 13.65953 -3.11865 1.95996
C 13.71378 -3.07899 0.55854
C 13.54263 -1.74134 0.11032
C 13.84248 -4.21243 2.85232
C 13.88753 -3.86294 -0.64310
O 13.98422 -5.06435 -0.89010
C 14.10070 -2.87140 -1.86695
C 13.20630 -3.32050 -2.98983
O 11.96935 -3.27058 -2.87120
O 13.95155 -3.52800 -4.09070
C 13.10754 -3.96431 -5.23486
H 14.58083 4.04719 -2.13446
H 12.78745 4.33128 3.84171
H 13.31231 -1.90549 4.35345
H 15.05799 -0.58134 -3.78468
H 14.63587 2.19933 -3.94818
H 16.81964 0.54706 -2.74765
H 16.57357 2.12864 -1.97799
H 16.94806 2.08949 -3.67442
H 12.53904 1.06785 -4.10220
H 12.37551 -0.71965 -3.94963
H 14.31587 -0.17964 -5.96232
H 13.17268 1.10941 -6.09022
H 13.74460 5.97853 -2.02774
H 13.84146 7.11290 -0.72275
H 12.23247 6.75412 -1.39297
H 12.63562 8.08395 0.88298
H 11.25354 8.37194 2.08864
H 11.02757 7.46754 0.56404
H 12.21311 2.61774 5.63992
H 13.92829 0.20101 5.91255
H 13.96226 3.42994 6.82733
H 14.96543 3.21822 5.34921
H 14.90925 1.98131 6.49922
H 11.77038 0.55652 7.17305
H 11.95411 -1.03115 6.45158
H 10.29724 1.28109 5.75126
H 9.79400 -0.44684 5.82764
H 10.70678 0.21938 4.40029
H 13.26406 -5.03685 2.45703
H 13.53228 -3.95684 3.86337
H 14.92481 -4.34694 2.77666
H 15.15530 -2.91260 -2.14209
H 13.52163 -4.91135 -5.59447
H 13.10303 -3.11503 -5.94371
H 12.08345 -4.24828 -5.02261
