158

Mg 0.00000 0.00000 0.00000
C -0.21700 -2.21800 2.80100
C -1.25500 2.44200 2.02600
C -0.24500 1.85000 -2.56400
C 0.14600 -2.82400 -2.03700
N -0.61700 -0.00900 2.12600
C -0.59400 -0.90800 3.10500
C -0.93600 -0.30900 4.50200
C -1.77300 0.96400 4.03200
C -1.15500 1.16800 2.66000
C -3.26300 0.68500 3.86300
C 0.34500 0.11000 5.29900
C 0.12400 0.39700 6.78700
H 1.16800 0.03300 7.73300
N -0.18500 1.96100 -0.15200
C -0.70300 2.80000 0.77700
C -0.62000 4.15600 0.19300
C -0.18700 4.01500 -1.22500
C -0.21400 2.58300 -1.38000
C -0.88700 5.40600 0.97400
C 0.18100 5.01300 -2.27700
O 0.30300 4.69000 -3.50800
C 0.31000 6.41400 -1.83700
N -0.26500 -0.41300 -2.02900
C -0.27900 0.56900 -2.93700
C -0.19600 0.02400 -4.33200
C 0.12400 -1.53300 -4.18000
C 0.08600 -1.63200 -2.63500
C -1.45100 0.20500 -5.19700
C 1.37300 -2.07000 -4.92300
C 2.62600 -1.49000 -4.30600
N 0.15000 -2.14400 0.30300
C 0.17300 -3.13600 -0.68800
C 0.17300 -4.43800 0.00400
C 0.13300 -4.11100 1.35800
C 0.08300 -2.69500 1.50200
C 0.14900 -5.71500 -0.62300
C 0.09600 -4.62900 2.71600
O 0.20800 -5.74700 3.22100
C -0.25500 -3.42800 3.70100
C 0.71700 -3.48200 4.84800
O 1.93100 -3.25500 4.66900
O 0.03800 -3.55600 6.00300
C 0.94300 -3.58300 7.18300
H -1.85900 3.22000 2.49700
H -0.21800 2.45300 -3.47400
H 0.27600 -3.74700 -2.60500
H -1.55400 -0.94900 5.13200
H -1.58500 1.83100 4.66500
H -3.48400 -0.37700 3.96900
H -3.51100 1.02700 2.85800
H -3.85200 1.30100 4.54300
H 0.66900 1.09600 4.96600
H 1.13000 -0.63900 5.18900
H -0.84400 0.02600 7.12500
H 0.06200 1.47700 6.92100
H -1.34400 5.18600 1.93800
H -1.65100 5.96300 0.43200
H 0.00700 6.02000 1.08400
H -0.63500 6.74400 -1.40500
H 0.66500 6.97000 -2.70400
H 1.04800 6.46600 -1.03600
H 0.60800 0.50100 -4.89100
H -0.69200 -2.15600 -4.54700
H -1.26700 0.74000 -6.12900
H -2.20400 0.71400 -4.59600
H -1.96700 -0.72000 -5.45300
H 1.35600 -1.75900 -5.96700
H 1.45200 -3.15700 -4.90200
H 2.71400 -0.52200 -4.79800
H 3.48700 -2.12100 -4.52900
H 2.49500 -1.30300 -3.24000
H 0.86700 -6.33300 -0.08400
H 0.40400 -5.64200 -1.68000
H -0.89100 -5.99900 -0.46300
H -1.28300 -3.58100 4.02800
H 0.69800 -4.47800 7.75500
H 0.83300 -2.61900 7.68000
H 2.00000 -3.75400 6.97600
Mg 8.94118 0.80177 0.68626
C 9.08384 -2.76336 0.30086
C 7.86400 0.26388 3.87764
C 8.37459 3.91537 0.91406
C 8.91498 1.03730 -2.79075
N 8.56272 -1.05504 1.82700
C 8.71083 -2.35101 1.59711
C 8.52220 -3.25167 2.84723
C 7.60220 -2.26470 3.71807
C 8.05744 -0.92839 3.13524
C 6.11674 -2.42549 3.44077
C 9.87932 -3.56048 3.57171
C 9.81221 -4.67970 4.61316
H 10.96870 -5.55805 4.76647
N 8.69999 1.94947 2.28725
C 8.27664 1.56319 3.50907
C 8.25006 2.78361 4.33008
C 8.53419 3.94835 3.44840
C 8.52656 3.30434 2.15022
C 8.05290 2.75919 5.81801
C 8.76091 5.40352 3.72638
O 8.75441 6.27719 2.78857
C 8.89775 5.78757 5.13892
N 8.46893 2.25575 -0.72274
C 8.32607 3.54411 -0.36544
C 8.26239 4.44249 -1.57757
C 8.63656 3.51122 -2.82268
C 8.77055 2.15611 -2.09391
C 6.91579 5.11853 -1.83453
C 9.80772 3.98289 -3.72744
C 11.10987 3.91698 -2.96229
N 9.17465 -0.56905 -0.96734
C 9.10316 -0.26452 -2.34438
C 9.20930 -1.54190 -3.07885
C 9.31287 -2.51096 -2.06954
C 9.25371 -1.88387 -0.79567
C 9.15420 -1.69552 -4.49288
C 9.44811 -3.92282 -1.79198
O 9.63287 -4.92878 -2.47583
C 9.17870 -4.16156 -0.24381
C 10.27238 -5.04747 0.28678
O 11.44928 -4.64707 0.32119
O 9.72101 -6.13073 0.86376
C 10.76560 -7.03450 1.41500
H 7.30608 0.20801 4.81279
H 8.28713 5.00415 0.93385
H 9.01344 1.03560 -3.87839
H 7.99827 -4.18174 2.66216
H 7.84953 -2.32386 4.77480
H 5.93131 -3.09656 2.61528
H 5.75127 -1.43315 3.21108
H 5.59485 -2.73578 4.35054
H 10.13898 -2.71470 4.22131
H 10.65133 -3.77602 2.85886
H 8.89108 -5.26872 4.52645
H 9.74836 -4.22688 5.60558
H 7.70427 1.77743 6.16153
H 7.22129 3.43620 6.04152
H 8.93701 3.09262 6.36558
H 8.00201 5.49438 5.68128
H 9.14279 6.85141 5.13010
H 9.72912 5.22327 5.57595
H 8.98989 5.24163 -1.50528
H 7.79451 3.40951 -3.52299
H 6.98313 6.22188 -1.88098
H 6.22645 4.81194 -1.05906
H 6.40306 4.79735 -2.73961
H 9.66821 5.02838 -4.01317
H 9.90442 3.40896 -4.64300
H 11.11509 4.85711 -2.40263
H 11.95391 3.86037 -3.64670
H 11.09660 3.09904 -2.23259
H 9.93363 -2.39650 -4.76051
H 9.28364 -0.74255 -5.00167
H 8.13998 -2.08740 -4.60712
H 8.19543 -4.62410 -0.14991
H 10.60249 -8.02062 0.96930
H 10.67669 -6.95794 2.51499
H 11.79419 -6.84243 1.13293
