158

Mg 0.00000 0.00000 0.00000
C -0.21700 -2.21800 2.80100
C -1.25500 2.44200 2.02600
C -0.24500 1.85000 -2.56400
C 0.14600 -2.82400 -2.03700
N -0.61700 -0.00900 2.12600
C -0.59400 -0.90800 3.10500
C -0.93600 -0.30900 4.50200
C -1.77300 0.96400 4.03200
C -1.15500 1.16800 2.66000
C -3.26300 0.68500 3.86300
C 0.34500 0.11000 5.29900
C 0.12400 0.39700 6.78700
H 1.16800 0.03300 7.73300
N -0.18500 1.96100 -0.15200
C -0.70300 2.80000 0.77700
C -0.62000 4.15600 0.19300
C -0.18700 4.01500 -1.22500
C -0.21400 2.58300 -1.38000
C -0.88700 5.40600 0.97400
C 0.18100 5.01300 -2.27700
O 0.30300 4.69000 -3.50800
C 0.31000 6.41400 -1.83700
N -0.26500 -0.41300 -2.02900
C -0.27900 0.56900 -2.93700
C -0.19600 0.02400 -4.33200
C 0.12400 -1.53300 -4.18000
C 0.08600 -1.63200 -2.63500
C -1.45100 0.20500 -5.19700
C 1.37300 -2.07000 -4.92300
C 2.62600 -1.49000 -4.30600
N 0.15000 -2.14400 0.30300
C 0.17300 -3.13600 -0.68800
C 0.17300 -4.43800 0.00400
C 0.13300 -4.11100 1.35800
C 0.08300 -2.69500 1.50200
C 0.14900 -5.71500 -0.62300
C 0.09600 -4.62900 2.71600
O 0.20800 -5.74700 3.22100
C -0.25500 -3.42800 3.70100
C 0.71700 -3.48200 4.84800
O 1.93100 -3.25500 4.66900
O 0.03800 -3.55600 6.00300
C 0.94300 -3.58300 7.18300
H -1.85900 3.22000 2.49700
H -0.21800 2.45300 -3.47400
H 0.27600 -3.74700 -2.60500
H -1.55400 -0.94900 5.13200
H -1.58500 1.83100 4.66500
H -3.48400 -0.37700 3.96900
H -3.51100 1.02700 2.85800
H -3.85200 1.30100 4.54300
H 0.66900 1.09600 4.96600
H 1.13000 -0.63900 5.18900
H -0.84400 0.02600 7.12500
H 0.06200 1.47700 6.92100
H -1.34400 5.18600 1.93800
H -1.65100 5.96300 0.43200
H 0.00700 6.02000 1.08400
H -0.63500 6.74400 -1.40500
H 0.66500 6.97000 -2.70400
H 1.04800 6.46600 -1.03600
H 0.60800 0.50100 -4.89100
H -0.69200 -2.15600 -4.54700
H -1.26700 0.74000 -6.12900
H -2.20400 0.71400 -4.59600
H -1.96700 -0.72000 -5.45300
H 1.35600 -1.75900 -5.96700
H 1.45200 -3.15700 -4.90200
H 2.71400 -0.52200 -4.79800
H 3.48700 -2.12100 -4.52900
H 2.49500 -1.30300 -3.24000
H 0.86700 -6.33300 -0.08400
H 0.40400 -5.64200 -1.68000
H -0.89100 -5.99900 -0.46300
H -1.28300 -3.58100 4.02800
H 0.69800 -4.47800 7.75500
H 0.83300 -2.61900 7.68000
H 2.00000 -3.75400 6.97600
Mg 7.89075 0.71456 0.60438
C 8.15797 -1.46505 3.44285
C 7.08350 3.21022 2.78488
C 7.20881 2.54402 -1.89672
C 7.59025 -2.13450 -1.38012
N 7.68084 0.74534 2.80602
C 7.86703 -0.12784 3.78441
C 7.81313 0.48290 5.21047
C 6.92008 1.77708 4.88420
C 7.27143 1.95067 3.40802
C 5.42621 1.52034 4.99263
C 9.23347 0.88446 5.74281
C 9.29423 1.19859 7.23927
H 10.49597 0.82590 7.98047
N 7.72244 2.68699 0.46380
C 7.41029 3.54963 1.45359
C 7.39335 4.88380 0.83402
C 7.55895 4.72052 -0.63589
C 7.48059 3.27808 -0.75137
C 7.31107 6.15143 1.63388
C 7.74291 5.70114 -1.75425
O 7.62734 5.35172 -2.98201
C 7.96993 7.10134 -1.36772
N 7.25028 0.28246 -1.32576
C 7.07932 1.26038 -2.23261
C 6.88487 0.69172 -3.61796
C 7.20333 -0.87025 -3.48981
C 7.45086 -0.95399 -1.96761
C 5.49463 0.87928 -4.22495
C 8.28082 -1.44966 -4.44687
C 9.63898 -0.88535 -4.09707
N 8.05704 -1.41792 0.90924
C 7.86799 -2.43438 -0.05260
C 7.97324 -3.72745 0.65403
C 8.19507 -3.37041 1.99261
C 8.20578 -1.95465 2.11517
C 7.81755 -5.01322 0.06353
C 8.41203 -3.86923 3.33156
O 8.58768 -4.98199 3.82618
C 8.27163 -2.65790 4.35105
C 9.43980 -2.70933 5.29722
O 10.59747 -2.52308 4.88282
O 8.98130 -2.75292 6.56143
C 10.10291 -2.79385 7.53721
H 6.60121 4.00449 3.35535
H 7.07603 3.12785 -2.81049
H 7.60574 -3.06927 -1.94461
H 7.31742 -0.13400 5.95039
H 7.24934 2.63917 5.45844
H 5.20783 0.47555 5.15654
H 5.00171 1.85292 4.05441
H 4.98889 2.15977 5.76477
H 9.50487 1.86611 5.33360
H 9.95769 0.13067 5.50212
H 8.39555 0.85915 7.76851
H 9.28643 2.28382 7.36663
H 7.03240 5.95212 2.67600
H 6.47031 6.72818 1.23344
H 8.21896 6.75418 1.56254
H 7.13153 7.45153 -0.77030
H 8.16729 7.63361 -2.30025
H 8.85577 7.14748 -0.72446
H 7.58047 1.13579 -4.31942
H 6.31569 -1.48549 -3.69816
H 5.51040 1.40742 -5.19701
H 4.88014 1.41299 -3.51215
H 4.92900 -0.03857 -4.37599
H 8.07486 -1.14715 -5.47654
H 8.33243 -2.53325 -4.43377
H 9.64599 0.07909 -4.61369
H 10.43023 -1.53570 -4.46450
H 9.71663 -0.68415 -3.02230
H 8.60401 -5.63786 0.46579
H 7.86656 -4.96071 -1.02211
H 6.81550 -5.27024 0.41724
H 7.31930 -2.77489 4.86966
H 9.94927 -3.67793 8.16369
H 10.09461 -1.81022 8.04332
H 11.09781 -2.97953 7.14972
