158

Mg 0.00000 0.00000 0.00000
C -0.21700 -2.21800 2.80100
C -1.25500 2.44200 2.02600
C -0.24500 1.85000 -2.56400
C 0.14600 -2.82400 -2.03700
N -0.61700 -0.00900 2.12600
C -0.59400 -0.90800 3.10500
C -0.93600 -0.30900 4.50200
C -1.77300 0.96400 4.03200
C -1.15500 1.16800 2.66000
C -3.26300 0.68500 3.86300
C 0.34500 0.11000 5.29900
C 0.12400 0.39700 6.78700
H 1.16800 0.03300 7.73300
N -0.18500 1.96100 -0.15200
C -0.70300 2.80000 0.77700
C -0.62000 4.15600 0.19300
C -0.18700 4.01500 -1.22500
C -0.21400 2.58300 -1.38000
C -0.88700 5.40600 0.97400
C 0.18100 5.01300 -2.27700
O 0.30300 4.69000 -3.50800
C 0.31000 6.41400 -1.83700
N -0.26500 -0.41300 -2.02900
C -0.27900 0.56900 -2.93700
C -0.19600 0.02400 -4.33200
C 0.12400 -1.53300 -4.18000
C 0.08600 -1.63200 -2.63500
C -1.45100 0.20500 -5.19700
C 1.37300 -2.07000 -4.92300
C 2.62600 -1.49000 -4.30600
N 0.15000 -2.14400 0.30300
C 0.17300 -3.13600 -0.68800
C 0.17300 -4.43800 0.00400
C 0.13300 -4.11100 1.35800
C 0.08300 -2.69500 1.50200
C 0.14900 -5.71500 -0.62300
C 0.09600 -4.62900 2.71600
O 0.20800 -5.74700 3.22100
C -0.25500 -3.42800 3.70100
C 0.71700 -3.48200 4.84800
O 1.93100 -3.25500 4.66900
O 0.03800 -3.55600 6.00300
C 0.94300 -3.58300 7.18300
H -1.85900 3.22000 2.49700
H -0.21800 2.45300 -3.47400
H 0.27600 -3.74700 -2.60500
H -1.55400 -0.94900 5.13200
H -1.58500 1.83100 4.66500
H -3.48400 -0.37700 3.96900
H -3.51100 1.02700 2.85800
H -3.85200 1.30100 4.54300
H 0.66900 1.09600 4.96600
H 1.13000 -0.63900 5.18900
H -0.84400 0.02600 7.12500
H 0.06200 1.47700 6.92100
H -1.34400 5.18600 1.93800
H -1.65100 5.96300 0.43200
H 0.00700 6.02000 1.08400
H -0.63500 6.74400 -1.40500
H 0.66500 6.97000 -2.70400
H 1.04800 6.46600 -1.03600
H 0.60800 0.50100 -4.89100
H -0.69200 -2.15600 -4.54700
H -1.26700 0.74000 -6.12900
H -2.20400 0.71400 -4.59600
H -1.96700 -0.72000 -5.45300
H 1.35600 -1.75900 -5.96700
H 1.45200 -3.15700 -4.90200
H 2.71400 -0.52200 -4.79800
H 3.48700 -2.12100 -4.52900
H 2.49500 -1.30300 -3.24000
H 0.86700 -6.33300 -0.08400
H 0.40400 -5.64200 -1.68000
H -0.89100 -5.99900 -0.46300
H -1.28300 -3.58100 4.02800
H 0.69800 -4.47800 7.75500
H 0.83300 -2.61900 7.68000
H 2.00000 -3.75400 6.97600
Mg 10.51120 0.94878 0.78815
C 12.81821 -1.51429 -0.43254
C 12.69626 3.32479 -0.31398
C 8.72419 3.12702 2.24737
C 9.10454 -1.55122 2.76730
N 12.47060 0.80002 -0.22717
C 13.21866 -0.18765 -0.69542
C 14.42368 0.27202 -1.55925
C 14.59293 1.75478 -0.96625
C 13.15824 1.99767 -0.50219
C 15.50465 1.81691 0.24793
C 14.08449 0.30120 -3.09095
C 15.29599 0.44091 -4.01535
H 15.27640 -0.25584 -5.29856
N 10.41968 2.91486 0.53371
C 11.39095 3.71927 0.05326
C 10.83652 5.08158 0.08326
C 9.51922 5.03679 0.77423
C 9.51264 3.66469 1.24049
C 11.51014 6.24898 -0.57767
C 8.44895 6.06313 0.99180
O 7.49376 5.87365 1.82519
C 8.60339 7.33455 0.26990
N 9.25515 0.86377 2.44268
C 8.55533 1.94259 2.83553
C 7.51811 1.57326 3.86905
C 7.50401 -0.02536 3.91136
C 8.64868 -0.31497 2.91574
C 7.75887 2.11726 5.27705
C 6.13467 -0.72328 3.68665
C 5.67086 -0.50405 2.26461
N 10.74688 -1.18899 0.99414
C 10.07667 -2.03744 1.90245
C 10.65472 -3.38775 1.74453
C 11.64482 -3.22508 0.76385
C 11.69501 -1.86501 0.35496
C 10.28667 -4.54269 2.49070
C 12.66616 -3.89253 -0.01080
O 13.02218 -5.06137 -0.15497
C 13.55742 -2.78959 -0.72883
C 13.71735 -3.18797 -2.17044
O 12.73419 -3.21485 -2.93156
O 15.02826 -3.25993 -2.46488
C 15.23799 -3.64105 -3.88706
H 13.41066 4.14219 -0.41586
H 8.01083 3.81560 2.70610
H 8.65363 -2.40491 3.27775
H 15.33409 -0.29532 -1.40743
H 14.86697 2.46246 -1.74435
H 15.79536 0.83278 0.58424
H 14.93771 2.32696 1.01571
H 16.36884 2.45373 0.03823
H 13.56133 1.23753 -3.32406
H 13.51375 -0.56267 -3.37133
H 16.23969 0.25144 -3.48954
H 15.37119 1.48352 -4.33368
H 12.54217 6.00958 -0.86229
H 11.61246 7.03130 0.18218
H 10.93673 6.64558 -1.41825
H 9.54871 7.79483 0.54734
H 7.69648 7.90370 0.48311
H 8.65961 7.12269 -0.80368
H 6.53697 1.92569 3.57537
H 7.83229 -0.41002 4.88815
H 6.91769 2.72562 5.65967
H 8.67313 2.69569 5.26779
H 7.97010 1.36340 6.03354
H 5.37321 -0.28030 4.33326
H 6.15339 -1.78803 3.89389
H 5.20195 0.48356 2.30747
H 4.95396 -1.26904 1.97326
H 6.52328 -0.43475 1.57888
H 10.21699 -5.35998 1.78523
H 9.34788 -4.39184 3.01956
H 11.13666 -4.61195 3.17480
H 14.51402 -2.75038 -0.20640
H 15.87611 -4.53015 -3.88879
H 15.63444 -2.73554 -4.38367
H 14.37819 -3.99673 -4.44265
