158

Mg 0.00000 0.00000 0.00000
C -0.21700 -2.21800 2.80100
C -1.25500 2.44200 2.02600
C -0.24500 1.85000 -2.56400
C 0.14600 -2.82400 -2.03700
N -0.61700 -0.00900 2.12600
C -0.59400 -0.90800 3.10500
C -0.93600 -0.30900 4.50200
C -1.77300 0.96400 4.03200
C -1.15500 1.16800 2.66000
C -3.26300 0.68500 3.86300
C 0.34500 0.11000 5.29900
C 0.12400 0.39700 6.78700
H 1.16800 0.03300 7.73300
N -0.18500 1.96100 -0.15200
C -0.70300 2.80000 0.77700
C -0.62000 4.15600 0.19300
C -0.18700 4.01500 -1.22500
C -0.21400 2.58300 -1.38000
C -0.88700 5.40600 0.97400
C 0.18100 5.01300 -2.27700
O 0.30300 4.69000 -3.50800
C 0.31000 6.41400 -1.83700
N -0.26500 -0.41300 -2.02900
C -0.27900 0.56900 -2.93700
C -0.19600 0.02400 -4.33200
C 0.12400 -1.53300 -4.18000
C 0.08600 -1.63200 -2.63500
C -1.45100 0.20500 -5.19700
C 1.37300 -2.07000 -4.92300
C 2.62600 -1.49000 -4.30600
N 0.15000 -2.14400 0.30300
C 0.17300 -3.13600 -0.68800
C 0.17300 -4.43800 0.00400
C 0.13300 -4.11100 1.35800
C 0.08300 -2.69500 1.50200
C 0.14900 -5.71500 -0.62300
C 0.09600 -4.62900 2.71600
O 0.20800 -5.74700 3.22100
C -0.25500 -3.42800 3.70100
C 0.71700 -3.48200 4.84800
O 1.93100 -3.25500 4.66900
O 0.03800 -3.55600 6.00300
C 0.94300 -3.58300 7.18300
H -1.85900 3.22000 2.49700
H -0.21800 2.45300 -3.47400
H 0.27600 -3.74700 -2.60500
H -1.55400 -0.94900 5.13200
H -1.58500 1.83100 4.66500
H -3.48400 -0.37700 3.96900
H -3.51100 1.02700 2.85800
H -3.85200 1.30100 4.54300
H 0.66900 1.09600 4.96600
H 1.13000 -0.63900 5.18900
H -0.84400 0.02600 7.12500
H 0.06200 1.47700 6.92100
H -1.34400 5.18600 1.93800
H -1.65100 5.96300 0.43200
H 0.00700 6.02000 1.08400
H -0.63500 6.74400 -1.40500
H 0.66500 6.97000 -2.70400
H 1.04800 6.46600 -1.03600
H 0.60800 0.50100 -4.89100
H -0.69200 -2.15600 -4.54700
H -1.26700 0.74000 -6.12900
H -2.20400 0.71400 -4.59600
H -1.96700 -0.72000 -5.45300
H 1.35600 -1.75900 -5.96700
H 1.45200 -3.15700 -4.90200
H 2.71400 -0.52200 -4.79800
H 3.48700 -2.12100 -4.52900
H 2.49500 -1.30300 -3.24000
H 0.86700 -6.33300 -0.08400
H 0.40400 -5.64200 -1.68000
H -0.89100 -5.99900 -0.46300
H -1.28300 -3.58100 4.02800
H 0.69800 -4.47800 7.75500
H 0.83300 -2.61900 7.68000
H 2.00000 -3.75400 6.97600
Mg 8.93525 0.81291 0.68481
C 10.53381 -0.60246 3.56932
C 6.38366 1.75164 2.74461
C 7.29872 1.66741 -1.89570
C 11.00214 -1.19603 -1.27422
N 8.61547 0.55201 2.85781
C 9.31970 0.05287 3.86244
C 8.72653 0.33858 5.26817
C 7.19333 0.55562 4.84264
C 7.40251 1.01655 3.40164
C 6.38698 -0.73226 4.81988
C 9.33029 1.63180 5.92013
C 9.02917 1.80109 7.41091
H 10.05028 2.40398 8.26317
N 7.36341 2.01014 0.49901
C 6.44258 2.29656 1.44311
C 5.48116 3.20829 0.80389
C 5.81793 3.30628 -0.64239
C 6.84955 2.29341 -0.74204
C 4.42436 3.94628 1.57328
C 5.28894 4.16018 -1.75469
O 5.56078 3.91132 -2.98229
C 4.36790 5.23999 -1.37105
N 8.97120 0.15871 -1.28828
C 8.19388 0.73490 -2.22193
C 8.58818 0.29027 -3.61017
C 9.95442 -0.52111 -3.42959
C 10.07184 -0.47955 -1.89015
C 7.57055 -0.58375 -4.34290
C 11.16896 -0.05166 -4.27646
C 11.62325 1.31418 -3.81441
N 10.61328 -0.50184 1.03651
C 11.31465 -1.26495 0.07743
C 12.29771 -2.08860 0.81067
C 12.08266 -1.76197 2.15809
C 11.02558 -0.81757 2.25912
C 13.19533 -3.02752 0.22858
C 12.50236 -2.00931 3.51874
O 13.41285 -2.64839 4.04441
C 11.43328 -1.36454 4.50248
C 12.17798 -0.58421 5.55082
O 12.83599 0.42416 5.23968
O 11.81607 -1.02611 6.76906
C 12.51994 -0.27508 7.84253
H 5.43110 1.88987 3.25686
H 6.84097 2.00978 -2.82668
H 11.74969 -1.77527 -1.82042
H 8.80490 -0.48316 5.96986
H 6.72773 1.34217 5.43078
H 7.00938 -1.60016 4.97963
H 5.92496 -0.77281 3.84216
H 5.56519 -0.67525 5.53942
H 8.80767 2.51101 5.52187
H 10.38938 1.68163 5.75747
H 8.64876 0.87665 7.86216
H 8.20588 2.51121 7.52019
H 4.31361 3.54695 2.58900
H 3.46594 3.72835 1.08975
H 4.58180 5.02696 1.57477
H 3.50845 4.81603 -0.85718
H 4.16870 5.79450 -2.29014
H 4.87445 5.89269 -0.65133
H 8.76836 1.14327 -4.25286
H 9.83976 -1.57914 -3.70755
H 7.25693 -0.16475 -5.31766
H 6.71441 -0.72554 -3.69679
H 7.89076 -1.60730 -4.53006
H 10.88072 0.05543 -5.32508
H 12.00999 -0.73611 -4.24193
H 10.94596 1.99148 -4.34321
H 12.65874 1.48998 -4.09884
H 11.44773 1.44479 -2.74027
H 14.15333 -2.88197 0.70977
H 13.26644 -2.89428 -0.84890
H 12.69755 -3.96390 0.49443
H 10.85225 -2.18004 4.93485
H 13.03229 -1.01410 8.46626
H 11.74493 0.34539 8.33050
H 13.34543 0.36290 7.54927
