158

Mg 0.00000 0.00000 0.00000
C -0.21700 -2.21800 2.80100
C -1.25500 2.44200 2.02600
C -0.24500 1.85000 -2.56400
C 0.14600 -2.82400 -2.03700
N -0.61700 -0.00900 2.12600
C -0.59400 -0.90800 3.10500
C -0.93600 -0.30900 4.50200
C -1.77300 0.96400 4.03200
C -1.15500 1.16800 2.66000
C -3.26300 0.68500 3.86300
C 0.34500 0.11000 5.29900
C 0.12400 0.39700 6.78700
H 1.16800 0.03300 7.73300
N -0.18500 1.96100 -0.15200
C -0.70300 2.80000 0.77700
C -0.62000 4.15600 0.19300
C -0.18700 4.01500 -1.22500
C -0.21400 2.58300 -1.38000
C -0.88700 5.40600 0.97400
C 0.18100 5.01300 -2.27700
O 0.30300 4.69000 -3.50800
C 0.31000 6.41400 -1.83700
N -0.26500 -0.41300 -2.02900
C -0.27900 0.56900 -2.93700
C -0.19600 0.02400 -4.33200
C 0.12400 -1.53300 -4.18000
C 0.08600 -1.63200 -2.63500
C -1.45100 0.20500 -5.19700
C 1.37300 -2.07000 -4.92300
C 2.62600 -1.49000 -4.30600
N 0.15000 -2.14400 0.30300
C 0.17300 -3.13600 -0.68800
C 0.17300 -4.43800 0.00400
C 0.13300 -4.11100 1.35800
C 0.08300 -2.69500 1.50200
C 0.14900 -5.71500 -0.62300
C 0.09600 -4.62900 2.71600
O 0.20800 -5.74700 3.22100
C -0.25500 -3.42800 3.70100
C 0.71700 -3.48200 4.84800
O 1.93100 -3.25500 4.66900
O 0.03800 -3.55600 6.00300
C 0.94300 -3.58300 7.18300
H -1.85900 3.22000 2.49700
H -0.21800 2.45300 -3.47400
H 0.27600 -3.74700 -2.60500
H -1.55400 -0.94900 5.13200
H -1.58500 1.83100 4.66500
H -3.48400 -0.37700 3.96900
H -3.51100 1.02700 2.85800
H -3.85200 1.30100 4.54300
H 0.66900 1.09600 4.96600
H 1.13000 -0.63900 5.18900
H -0.84400 0.02600 7.12500
H 0.06200 1.47700 6.92100
H -1.34400 5.18600 1.93800
H -1.65100 5.96300 0.43200
H 0.00700 6.02000 1.08400
H -0.63500 6.74400 -1.40500
H 0.66500 6.97000 -2.70400
H 1.04800 6.46600 -1.03600
H 0.60800 0.50100 -4.89100
H -0.69200 -2.15600 -4.54700
H -1.26700 0.74000 -6.12900
H -2.20400 0.71400 -4.59600
H -1.96700 -0.72000 -5.45300
H 1.35600 -1.75900 -5.96700
H 1.45200 -3.15700 -4.90200
H 2.71400 -0.52200 -4.79800
H 3.48700 -2.12100 -4.52900
H 2.49500 -1.30300 -3.24000
H 0.86700 -6.33300 -0.08400
H 0.40400 -5.64200 -1.68000
H -0.89100 -5.99900 -0.46300
H -1.28300 -3.58100 4.02800
H 0.69800 -4.47800 7.75500
H 0.83300 -2.61900 7.68000
H 2.00000 -3.75400 6.97600
Mg 31.53256 2.83880 2.39533
C 30.92780 4.83945 5.30116
C 30.55176 5.52062 0.52746
C 31.62253 0.95714 -0.15573
C 31.36402 0.04158 4.46724
N 30.85076 4.86827 2.95840
C 30.72064 5.52914 4.10448
C 30.41680 7.04511 3.91243
C 29.77440 6.99034 2.45424
C 30.45875 5.73848 1.93420
C 28.26675 6.75918 2.46095
C 31.71575 7.91918 3.93375
C 31.48682 9.42633 4.08019
H 32.44089 10.20779 4.85247
N 31.61800 3.28899 0.47364
C 31.18743 4.43322 -0.11000
C 31.47107 4.28607 -1.55380
C 31.92731 2.88777 -1.78769
C 31.71308 2.30706 -0.48682
C 31.34919 5.41117 -2.53515
C 32.46037 2.18352 -2.99517
O 32.57802 0.91137 -3.04398
C 32.76213 3.02550 -4.16694
N 31.28092 0.78258 2.13788
C 31.42879 0.21441 0.93609
C 31.48333 -1.28083 1.04203
C 31.58591 -1.61009 2.60114
C 31.48444 -0.16716 3.15423
C 30.29303 -2.03843 0.43768
C 32.77497 -2.49270 3.05670
C 34.07373 -1.74122 2.86806
N 31.38290 2.47750 4.53030
C 31.30469 1.23265 5.17132
C 31.10698 1.49828 6.60812
C 31.06706 2.88807 6.70149
C 31.20325 3.45419 5.40178
C 30.93200 0.51458 7.62111
C 30.91636 4.02600 7.59382
O 30.86043 4.16800 8.81620
C 30.69803 5.33152 6.70851
C 31.61590 6.39903 7.23881
O 32.85460 6.28544 7.13834
O 30.89572 7.48399 7.56246
C 31.74979 8.59177 8.06797
H 30.04279 6.21071 -0.14832
H 31.76011 0.27200 -0.99483
H 31.38722 -0.78027 5.18521
H 29.69808 7.45787 4.62060
H 30.05648 7.85414 1.85257
H 27.90160 6.54103 3.46444
H 28.09998 5.90718 1.80157
H 27.74401 7.59930 2.00300
H 32.18011 7.89699 2.94788
H 32.39608 7.58019 4.71578
H 30.46719 9.64553 4.39834
H 31.56626 9.88138 3.09287
H 30.83548 6.26778 -2.10056
H 30.68516 5.07045 -3.32931
H 32.31355 5.69318 -2.95800
H 31.85648 3.54615 -4.47879
H 33.21684 2.36397 -4.90347
H 33.47383 3.79756 -3.87308
H 32.36201 -1.67702 0.53471
H 30.70598 -2.14052 2.96591
H 30.57767 -2.76662 -0.32221
H 29.59606 -1.30440 0.03428
H 29.66598 -2.55731 1.16224
H 32.83410 -3.39347 2.44673
H 32.70636 -2.80231 4.09962
H 34.30714 -1.91812 1.81875
H 34.84889 -2.15293 3.51523
H 33.93428 -0.66739 2.99430
H 31.54236 0.83442 8.46558
H 31.22892 -0.47320 7.26936
H 29.85858 0.59114 7.79367
H 29.64865 5.60677 6.80936
H 31.36810 8.86851 9.05079
H 31.75423 9.35816 7.29270
H 32.78040 8.33259 8.31295
