158

Mg 0.00000 0.00000 0.00000
C -0.21700 -2.21800 2.80100
C -1.25500 2.44200 2.02600
C -0.24500 1.85000 -2.56400
C 0.14600 -2.82400 -2.03700
N -0.61700 -0.00900 2.12600
C -0.59400 -0.90800 3.10500
C -0.93600 -0.30900 4.50200
C -1.77300 0.96400 4.03200
C -1.15500 1.16800 2.66000
C -3.26300 0.68500 3.86300
C 0.34500 0.11000 5.29900
C 0.12400 0.39700 6.78700
H 1.16800 0.03300 7.73300
N -0.18500 1.96100 -0.15200
C -0.70300 2.80000 0.77700
C -0.62000 4.15600 0.19300
C -0.18700 4.01500 -1.22500
C -0.21400 2.58300 -1.38000
C -0.88700 5.40600 0.97400
C 0.18100 5.01300 -2.27700
O 0.30300 4.69000 -3.50800
C 0.31000 6.41400 -1.83700
N -0.26500 -0.41300 -2.02900
C -0.27900 0.56900 -2.93700
C -0.19600 0.02400 -4.33200
C 0.12400 -1.53300 -4.18000
C 0.08600 -1.63200 -2.63500
C -1.45100 0.20500 -5.19700
C 1.37300 -2.07000 -4.92300
C 2.62600 -1.49000 -4.30600
N 0.15000 -2.14400 0.30300
C 0.17300 -3.13600 -0.68800
C 0.17300 -4.43800 0.00400
C 0.13300 -4.11100 1.35800
C 0.08300 -2.69500 1.50200
C 0.14900 -5.71500 -0.62300
C 0.09600 -4.62900 2.71600
O 0.20800 -5.74700 3.22100
C -0.25500 -3.42800 3.70100
C 0.71700 -3.48200 4.84800
O 1.93100 -3.25500 4.66900
O 0.03800 -3.55600 6.00300
C 0.94300 -3.58300 7.18300
H -1.85900 3.22000 2.49700
H -0.21800 2.45300 -3.47400
H 0.27600 -3.74700 -2.60500
H -1.55400 -0.94900 5.13200
H -1.58500 1.83100 4.66500
H -3.48400 -0.37700 3.96900
H -3.51100 1.02700 2.85800
H -3.85200 1.30100 4.54300
H 0.66900 1.09600 4.96600
H 1.13000 -0.63900 5.18900
H -0.84400 0.02600 7.12500
H 0.06200 1.47700 6.92100
H -1.34400 5.18600 1.93800
H -1.65100 5.96300 0.43200
H 0.00700 6.02000 1.08400
H -0.63500 6.74400 -1.40500
H 0.66500 6.97000 -2.70400
H 1.04800 6.46600 -1.03600
H 0.60800 0.50100 -4.89100
H -0.69200 -2.15600 -4.54700
H -1.26700 0.74000 -6.12900
H -2.20400 0.71400 -4.59600
H -1.96700 -0.72000 -5.45300
H 1.35600 -1.75900 -5.96700
H 1.45200 -3.15700 -4.90200
H 2.71400 -0.52200 -4.79800
H 3.48700 -2.12100 -4.52900
H 2.49500 -1.30300 -3.24000
H 0.86700 -6.33300 -0.08400
H 0.40400 -5.64200 -1.68000
H -0.89100 -5.99900 -0.46300
H -1.28300 -3.58100 4.02800
H 0.69800 -4.47800 7.75500
H 0.83300 -2.61900 7.68000
H 2.00000 -3.75400 6.97600
Mg 15.76628 1.41940 1.19766
C 15.24234 4.96022 1.21426
C 15.13319 1.49135 -2.15451
C 15.77546 -1.75155 1.23810
C 15.23680 1.47355 4.64184
N 15.26551 3.07701 -0.18154
C 15.15398 4.39612 -0.06034
C 15.00951 5.13199 -1.42599
C 14.42572 3.93178 -2.29815
C 15.00404 2.76271 -1.52049
C 12.90363 3.83879 -2.26513
C 16.38643 5.62785 -1.98273
C 16.30157 6.63156 -3.13630
H 17.29538 7.69137 -3.21696
N 15.97518 0.11993 -0.27563
C 15.68421 0.32409 -1.58289
C 16.01141 -0.94072 -2.27562
C 16.33664 -1.95740 -1.23702
C 16.01248 -1.23496 -0.03354
C 16.04192 -1.07805 -3.76692
C 16.84704 -3.36141 -1.31699
O 16.84042 -4.14606 -0.30761
C 17.27869 -3.82874 -2.64678
N 15.32370 0.01686 2.67909
C 15.46434 -1.29383 2.45257
C 15.36653 -2.08149 3.72535
C 15.37151 -1.01036 4.90958
C 15.39023 0.28293 4.05792
C 14.13326 -2.98534 3.85994
C 16.44775 -1.18419 6.01045
C 17.82105 -0.93028 5.43022
N 15.49349 2.94543 2.71683
C 15.26629 2.74144 4.08557
C 15.03651 4.06762 4.68768
C 15.13019 4.95521 3.61751
C 15.37526 4.22707 2.41832
C 14.72350 4.32030 6.05245
C 15.05580 6.34714 3.20418
O 14.96365 7.42368 3.79585
C 15.00426 6.39536 1.61332
C 16.00033 7.42649 1.15734
O 17.22485 7.24873 1.31959
O 15.37803 8.33961 0.39611
C 16.31567 9.37565 -0.11342
H 14.72324 1.35765 -3.15751
H 15.87931 -2.83579 1.31604
H 15.14902 1.57637 5.72498
H 14.30639 5.96507 -1.42122
H 14.81636 3.94047 -3.31552
H 12.47753 4.53499 -1.54287
H 12.68097 2.81046 -1.97974
H 12.48580 3.96979 -3.26365
H 16.88671 4.80334 -2.49063
H 16.99702 6.04850 -1.18301
H 15.29629 7.04236 -3.23404
H 16.46633 6.09360 -4.06992
H 15.59777 -0.21307 -4.25792
H 15.38092 -1.90549 -4.02406
H 17.04608 -1.28010 -4.13997
H 16.44254 -3.75627 -3.34259
H 17.69592 -4.82360 -2.49505
H 18.05037 -3.15695 -3.02379
H 16.22203 -2.74571 3.84089
H 14.42918 -1.00242 5.45787
H 14.37581 -4.03394 4.03407
H 13.52947 -2.86774 2.96056
H 13.42861 -2.68470 4.63486
H 16.44282 -2.20632 6.38749
H 16.30582 -0.51650 6.86033
H 18.07906 -1.89098 4.98600
H 18.52433 -0.66383 6.21991
H 17.78321 -0.19794 4.62354
H 15.32700 5.17771 6.35012
H 14.93573 3.45128 6.67484
H 13.65667 4.53099 5.97928
H 13.98392 6.66317 1.34072
H 15.92284 10.34420 0.19611
H 16.42782 9.19329 -1.18234
H 17.30462 9.39842 0.34570
