79

Mg 31.53256 2.83880 2.39533
C 31.30754 5.27661 -0.21593
C 31.04772 0.45197 0.00555
C 31.27376 0.70847 4.73014
C 30.86670 5.41007 4.65162
N 31.23053 2.97203 0.20634
C 31.22522 3.96213 -0.68071
C 31.19998 3.46794 -2.15804
C 30.55425 2.02801 -1.93080
C 30.99952 1.78527 -0.49946
C 29.02967 2.02974 -1.97733
C 32.63563 3.36128 -2.77389
C 32.68340 3.20308 -4.29640
H 33.76517 3.83916 -5.03295
N 31.69271 0.87011 2.35695
C 31.47453 0.06043 1.29295
C 31.72290 -1.31668 1.77103
C 31.91813 -1.25790 3.24633
C 31.60601 0.12347 3.51051
C 31.80378 -2.50223 0.85907
C 32.31173 -2.28636 4.25899
O 32.19727 -2.08202 5.51585
C 32.75754 -3.58928 3.73296
N 30.91254 2.97943 4.38365
C 30.95193 1.91723 5.19553
C 30.73548 2.31471 6.62560
C 30.78113 3.91062 6.65261
C 30.94377 4.16778 5.13416
C 29.42615 1.83074 7.26391
C 31.79224 4.56883 7.62462
C 33.20496 4.28029 7.16846
N 31.32592 4.99708 2.29438
C 31.02566 5.86578 3.35357
C 30.88321 7.21576 2.77795
C 31.09551 7.03470 1.41267
C 31.32824 5.65473 1.14844
C 30.53602 8.39489 3.49457
C 31.15551 7.68228 0.11233
O 31.12955 8.85089 -0.27646
C 31.17441 6.55244 -1.00970
C 32.27165 6.89431 -1.98052
O 33.46911 6.85906 -1.63092
O 31.76042 6.97594 -3.21847
C 32.80212 7.28353 -4.23455
H 30.67007 -0.36198 -0.61638
H 31.28288 0.02426 5.58114
H 30.74289 6.27500 5.30585
H 30.56970 4.05771 -2.82388
H 30.98622 1.27900 -2.59422
H 28.63387 3.04385 -2.03061
H 28.70978 1.54418 -1.05517
H 28.66621 1.39956 -2.78946
H 33.08560 2.41464 -2.47479
H 33.24559 4.21654 -2.48097
H 31.72109 3.43836 -4.75195
H 32.84109 2.14911 -4.52549
H 31.45463 -2.26045 -0.14402
H 31.08690 -3.23618 1.22665
H 32.80207 -2.93979 0.84237
H 31.96011 -4.02659 3.13179
H 33.08310 -4.16705 4.59727
H 33.59792 -3.42834 3.05708
H 31.52664 1.92387 7.26415
H 29.82080 4.34254 6.93527
H 29.57233 1.23745 8.16687
H 28.87230 1.26897 6.51228
H 28.71761 2.62145 7.50918
H 31.68583 4.14870 8.62418
H 31.67165 5.64927 7.70442
H 33.39964 3.29401 7.58819
H 33.89467 5.02070 7.57504
H 33.26233 4.18983 6.08356
H 31.19648 9.18045 3.12760
H 30.64847 8.25273 4.56916
H 29.49462 8.51352 3.19577
H 30.19239 6.56280 -1.48155
H 32.47946 8.18024 -4.76373
H 32.94292 6.37418 -4.81906
H 33.76954 7.60841 -3.84998
