158

Mg 0.00000 0.00000 0.00000
C -0.21700 -2.21800 2.80100
C -1.25500 2.44200 2.02600
C -0.24500 1.85000 -2.56400
C 0.14600 -2.82400 -2.03700
N -0.61700 -0.00900 2.12600
C -0.59400 -0.90800 3.10500
C -0.93600 -0.30900 4.50200
C -1.77300 0.96400 4.03200
C -1.15500 1.16800 2.66000
C -3.26300 0.68500 3.86300
C 0.34500 0.11000 5.29900
C 0.12400 0.39700 6.78700
H 1.16800 0.03300 7.73300
N -0.18500 1.96100 -0.15200
C -0.70300 2.80000 0.77700
C -0.62000 4.15600 0.19300
C -0.18700 4.01500 -1.22500
C -0.21400 2.58300 -1.38000
C -0.88700 5.40600 0.97400
C 0.18100 5.01300 -2.27700
O 0.30300 4.69000 -3.50800
C 0.31000 6.41400 -1.83700
N -0.26500 -0.41300 -2.02900
C -0.27900 0.56900 -2.93700
C -0.19600 0.02400 -4.33200
C 0.12400 -1.53300 -4.18000
C 0.08600 -1.63200 -2.63500
C -1.45100 0.20500 -5.19700
C 1.37300 -2.07000 -4.92300
C 2.62600 -1.49000 -4.30600
N 0.15000 -2.14400 0.30300
C 0.17300 -3.13600 -0.68800
C 0.17300 -4.43800 0.00400
C 0.13300 -4.11100 1.35800
C 0.08300 -2.69500 1.50200
C 0.14900 -5.71500 -0.62300
C 0.09600 -4.62900 2.71600
O 0.20800 -5.74700 3.22100
C -0.25500 -3.42800 3.70100
C 0.71700 -3.48200 4.84800
O 1.93100 -3.25500 4.66900
O 0.03800 -3.55600 6.00300
C 0.94300 -3.58300 7.18300
H -1.85900 3.22000 2.49700
H -0.21800 2.45300 -3.47400
H 0.27600 -3.74700 -2.60500
H -1.55400 -0.94900 5.13200
H -1.58500 1.83100 4.66500
H -3.48400 -0.37700 3.96900
H -3.51100 1.02700 2.85800
H -3.85200 1.30100 4.54300
H 0.66900 1.09600 4.96600
H 1.13000 -0.63900 5.18900
H -0.84400 0.02600 7.12500
H 0.06200 1.47700 6.92100
H -1.34400 5.18600 1.93800
H -1.65100 5.96300 0.43200
H 0.00700 6.02000 1.08400
H -0.63500 6.74400 -1.40500
H 0.66500 6.97000 -2.70400
H 1.04800 6.46600 -1.03600
H 0.60800 0.50100 -4.89100
H -0.69200 -2.15600 -4.54700
H -1.26700 0.74000 -6.12900
H -2.20400 0.71400 -4.59600
H -1.96700 -0.72000 -5.45300
H 1.35600 -1.75900 -5.96700
H 1.45200 -3.15700 -4.90200
H 2.71400 -0.52200 -4.79800
H 3.48700 -2.12100 -4.52900
H 2.49500 -1.30300 -3.24000
H 0.86700 -6.33300 -0.08400
H 0.40400 -5.64200 -1.68000
H -0.89100 -5.99900 -0.46300
H -1.28300 -3.58100 4.02800
H 0.69800 -4.47800 7.75500
H 0.83300 -2.61900 7.68000
H 2.00000 -3.75400 6.97600
Mg 13.14807 1.18699 0.99586
C 15.28400 -0.93872 2.94476
C 14.32873 3.80688 2.83347
C 10.95713 3.01701 -0.38916
C 11.33724 -1.66152 0.12833
N 14.61537 1.29368 2.64749
C 15.40894 0.42980 3.26255
C 16.44765 1.07744 4.21712
C 15.67254 2.45095 4.51970
C 14.84272 2.55007 3.24132
C 14.72090 2.35735 5.70079
C 17.82532 1.33846 3.51291
C 18.97721 1.68078 4.46039
H 20.31618 1.20054 4.13023
N 13.03912 3.16211 0.83582
C 13.59717 4.07698 1.65611
C 13.20625 5.38985 1.11971
C 12.23610 5.17402 0.01203
C 12.01919 3.74573 0.12614
C 13.80422 6.67818 1.60555
C 11.59810 6.10190 -0.97701
O 10.60327 5.73689 -1.69806
C 12.11189 7.47901 -1.00992
N 11.27830 0.77850 0.18380
C 10.55311 1.74662 -0.40338
C 9.37742 1.16822 -1.15411
C 9.60202 -0.41517 -1.15012
C 10.87799 -0.48758 -0.28292
C 7.99805 1.48778 -0.57826
C 9.60434 -1.12914 -2.52958
C 10.81526 -0.70418 -3.32862
N 13.36687 -0.94299 1.28458
C 12.47968 -1.95675 0.86118
C 12.99655 -3.23603 1.38910
C 14.14509 -2.87205 2.10803
C 14.31966 -1.46290 2.05031
C 12.38858 -4.51197 1.22033
C 15.24358 -3.35828 2.91152
O 15.66338 -4.47100 3.22671
C 15.95936 -2.11435 3.59467
C 17.44286 -2.26669 3.39839
O 17.93826 -2.21485 2.25888
O 18.05202 -2.23036 4.59755
C 19.52604 -2.36656 4.45423
H 14.46087 4.66164 3.49740
H 10.23123 3.58917 -0.97155
H 10.88405 -2.60613 -0.17989
H 16.61696 0.53505 5.13957
H 16.36350 3.28687 4.59155
H 14.63465 1.34605 6.06953
H 13.76481 2.71020 5.33690
H 15.02249 3.05835 6.48436
H 17.76498 2.27537 2.94431
H 18.10099 0.50623 2.89483
H 18.73358 1.45192 5.50501
H 19.12455 2.76347 4.45056
H 14.36497 6.53517 2.53749
H 12.97111 7.33118 1.88732
H 14.40313 7.17898 0.84189
H 11.99697 7.93091 -0.02756
H 11.59415 7.96433 -1.83956
H 13.18729 7.44632 -1.21745
H 9.36276 1.51849 -2.17890
H 8.81188 -0.93737 -0.59080
H 7.32762 1.98735 -1.30284
H 8.12989 2.10109 0.30322
H 7.45233 0.63192 -0.18470
H 8.72851 -0.83166 -3.11145
H 9.58953 -2.21142 -2.45580
H 10.49557 0.24113 -3.77725
H 11.04965 -1.44381 -4.09154
H 11.66438 -0.48620 -2.67049
H 13.18343 -5.20674 0.98368
H 11.63167 -4.49150 0.43903
H 11.95088 -4.65219 2.21231
H 15.68365 -2.11665 4.64993
H 19.83062 -3.21371 5.07653
H 19.94417 -1.37557 4.71280
H 19.90989 -2.66647 3.48616
