79

Mg 7.89044 0.71226 0.60608
C 6.89737 -1.39231 3.33805
C 7.38135 3.37909 2.67089
C 8.32276 2.60899 -1.90050
C 7.22199 -1.96747 -1.51946
N 7.22567 0.84788 2.71130
C 6.93612 -0.02146 3.66773
C 6.75187 0.60788 5.07470
C 6.36146 2.09841 4.62216
C 7.05947 2.13225 3.26410
C 4.87050 2.28814 4.39772
C 8.07679 0.59121 5.91512
C 7.89900 0.90495 7.40230
H 8.75216 0.21515 8.36602
N 8.33076 2.64542 0.51919
C 8.07266 3.58169 1.45625
C 8.57473 4.85041 0.90630
C 9.00128 4.61592 -0.50004
C 8.53871 3.25612 -0.69255
C 8.68867 6.10362 1.72478
C 9.69741 5.47784 -1.50934
O 9.75560 5.15176 -2.74753
C 10.22770 6.75970 -1.02239
N 7.58762 0.44481 -1.43331
C 7.90596 1.41141 -2.31210
C 7.86178 0.89519 -3.73053
C 7.68218 -0.68904 -3.60576
C 7.55870 -0.80962 -2.07096
C 6.75043 1.46527 -4.61161
C 8.72857 -1.57555 -4.33503
C 10.08186 -1.42221 -3.67893
N 7.36657 -1.37008 0.84588
C 7.10683 -2.30762 -0.17766
C 6.68007 -3.56083 0.47791
C 6.69914 -3.25599 1.84728
C 7.08939 -1.90195 2.03110
C 6.29347 -4.75809 -0.18786
C 6.46762 -3.76863 3.17856
O 6.20436 -4.87409 3.65014
C 6.46351 -2.54792 4.19652
C 7.33320 -2.91639 5.36715
O 8.55665 -3.08238 5.21809
O 6.61858 -2.79914 6.50114
C 7.44143 -3.14344 7.69119
H 7.03587 4.29063 3.15938
H 8.56498 3.18731 -2.79512
H 7.09031 -2.87799 -2.10793
H 5.95156 0.17658 5.66399
H 6.79175 2.83962 5.29060
H 4.33095 1.35516 4.46537
H 4.77366 2.71014 3.40597
H 4.47872 3.04265 5.08587
H 8.70089 1.44336 5.61663
H 8.58803 -0.34498 5.80191
H 6.84821 0.85163 7.71206
H 8.17595 1.94820 7.57239
H 8.14527 6.01516 2.67362
H 8.15697 6.89101 1.17965
H 9.72435 6.41562 1.87541
H 9.41654 7.35017 -0.60306
H 10.76715 7.19258 -1.86707
H 10.92777 6.56024 -0.20341
H 8.79055 1.10395 -4.24715
H 6.72250 -1.02462 -4.02556
H 7.12787 1.94603 -5.53383
H 6.17585 2.16878 -4.02383
H 5.99176 0.74796 -4.91995
H 8.84681 -1.24756 -5.37070
H 8.46246 -2.62703 -4.35861
H 10.47768 -0.51209 -4.13945
H 10.71286 -2.28147 -3.89699
H 9.97889 -1.23010 -2.60462
H 6.76036 -5.57552 0.34536
H 6.58988 -4.74440 -1.23463
H 5.20803 -4.70618 -0.06789
H 5.42890 -2.37305 4.49416
H 6.90807 -3.93190 8.23113
H 7.60653 -2.18946 8.22637
H 8.40030 -3.61756 7.51736
