79

Mg 13.14531 1.18214 1.00620
C 13.21794 -2.36815 1.52509
C 11.99288 1.47539 4.20315
C 12.64226 4.26274 0.43673
C 13.19399 0.54261 -2.41934
N 12.70367 -0.32476 2.56391
C 12.82808 -1.63931 2.66800
C 12.59484 -2.19621 4.09804
C 11.67929 -1.00841 4.67230
C 12.17515 0.13258 3.78634
C 10.19654 -1.20939 4.40698
C 13.93011 -2.33619 4.91013
C 13.81775 -3.15876 6.19563
H 14.95152 -3.98953 6.59169
N 12.89713 2.69690 2.26416
C 12.44105 2.63474 3.53279
C 12.42462 4.02173 4.02283
C 12.75168 4.92477 2.88605
C 12.75605 3.97727 1.78955
C 12.19716 4.37272 5.46453
C 13.00445 6.39942 2.79817
O 13.03579 7.01129 1.67236
C 13.12126 7.12168 4.07339
N 12.73321 2.24576 -0.73197
C 12.61132 3.58464 -0.71068
C 12.59156 4.15289 -2.10964
C 12.97024 2.93438 -3.07370
C 13.06002 1.80212 -2.02712
C 11.26543 4.76496 -2.56036
C 14.16931 3.14632 -4.03806
C 15.45410 3.25256 -3.24849
N 13.38196 -0.56166 -0.24728
C 13.34475 -0.60942 -1.65810
C 13.43774 -2.03126 -2.04819
C 13.49991 -2.71920 -0.82698
C 13.42890 -1.79309 0.24855
C 13.40767 -2.53210 -3.38024
C 13.59875 -4.01906 -0.20305
O 13.77523 -5.16673 -0.60982
C 13.29321 -3.85939 1.34857
C 14.35646 -4.60229 2.11022
O 15.54089 -4.22497 2.07301
O 13.77016 -5.49819 2.92506
C 14.78354 -6.25243 3.70992
H 11.41524 1.66373 5.10855
H 12.57816 5.32325 0.18239
H 13.31417 0.26785 -3.46945
H 12.05458 -3.13447 4.13762
H 11.90404 -0.80588 5.71625
H 10.01312 -2.06222 3.77043
H 9.85746 -0.30007 3.92823
H 9.64987 -1.27430 5.35211
H 14.19505 -1.35932 5.33470
H 14.71138 -2.73527 4.29289
H 12.88593 -3.73587 6.23558
H 13.74390 -2.47156 7.04199
H 11.82041 3.51354 6.03310
H 11.37619 5.09739 5.49152
H 13.07718 4.81801 5.93353
H 12.20865 6.98762 4.64926
H 13.38956 8.14555 3.80582
H 13.93121 6.67103 4.65778
H 13.33471 4.93295 -2.22073
H 12.14038 2.67463 -3.74727
H 11.35772 5.82055 -2.87862
H 10.55416 4.67282 -1.75034
H 10.76408 4.23632 -3.36930
H 14.05838 4.08949 -4.57869
H 14.27181 2.36053 -4.77901
H 15.46859 4.30243 -2.94083
H 16.31027 3.01330 -3.87601
H 15.40839 2.64301 -2.33854
H 14.17685 -3.29015 -3.44528
H 13.56803 -1.73853 -4.10709
H 12.38765 -2.92371 -3.41839
H 12.29841 -4.26795 1.53031
H 14.60795 -7.31583 3.52012
H 14.67427 -5.90227 4.75357
H 15.82152 -6.15344 3.41455
