79

Mg 15.76628 1.41940 1.19766
C 15.62863 -1.28840 3.53456
C 14.51767 3.41715 3.66607
C 15.45104 3.71394 -0.96852
C 15.91080 -0.96905 -1.33613
N 15.18840 1.00144 3.29337
C 15.24068 -0.06497 4.08535
C 14.91670 0.25546 5.57523
C 14.05518 1.58063 5.36612
C 14.64537 2.04849 4.04752
C 12.56600 1.31471 5.17088
C 16.20664 0.53760 6.41677
C 16.00925 0.53645 7.93545
H 17.07489 0.01787 8.77974
N 15.55370 3.37086 1.42009
C 15.04217 4.01210 2.49825
C 15.09729 5.45480 2.17848
C 15.50606 5.58955 0.75270
C 15.49438 4.21190 0.33159
C 14.82879 6.53145 3.18470
C 15.84209 6.77310 -0.09843
O 15.94566 6.68904 -1.36995
C 15.96135 8.06838 0.59515
N 15.46950 1.39070 -0.86843
C 15.42646 2.52543 -1.57521
C 15.49086 2.25354 -3.04893
C 15.83329 0.70098 -3.19748
C 15.82479 0.31295 -1.69826
C 14.21807 2.57383 -3.84481
C 17.07520 0.33300 -4.04756
C 18.33182 0.80661 -3.35207
N 15.94895 -0.74069 1.08965
C 15.96640 -1.52841 -0.07047
C 15.99555 -2.93704 0.36423
C 15.97616 -2.87086 1.75602
C 15.91086 -1.50809 2.16452
C 15.97628 -4.07376 -0.49130
C 15.97055 -3.63524 2.99277
O 16.10592 -4.82627 3.27669
C 15.62242 -2.64635 4.19142
C 16.61582 -2.89939 5.29252
O 17.82338 -2.62356 5.14053
O 15.95904 -3.19979 6.42342
C 16.88572 -3.43357 7.56305
H 13.91256 4.08314 4.28433
H 15.45376 4.47748 -1.74918
H 16.04209 -1.76675 -2.06954
H 14.31848 -0.50121 6.08316
H 14.24372 2.31618 6.14788
H 12.36045 0.24833 5.07868
H 12.29536 1.83541 4.25212
H 11.98177 1.78259 5.96368
H 16.51198 1.57361 6.27015
H 16.99893 -0.16485 6.15566
H 15.05237 0.09324 8.21267
H 15.93603 1.57094 8.27112
H 14.39231 6.12707 4.09711
H 14.04801 7.16814 2.76909
H 15.71680 7.12798 3.39428
H 15.02029 8.29632 1.09616
H 16.29337 8.78290 -0.15723
H 16.71314 7.98072 1.38005
H 16.27840 2.83975 -3.52069
H 15.01868 0.14512 -3.66235
H 14.37821 3.27722 -4.66231
H 13.46978 2.94886 -3.14716
H 13.70924 1.70530 -4.26215
H 17.03519 0.83425 -5.01405
H 17.16834 -0.73720 -4.23261
H 18.39854 1.85107 -3.65455
H 19.19653 0.24249 -3.70314
H 18.21796 0.78795 -2.26802
H 16.71179 -4.77052 -0.08939
H 16.21098 -3.79949 -1.51955
H 14.94306 -4.39924 -0.37140
H 14.60259 -2.87436 4.49977
H 16.66258 -4.42386 7.96026
H 16.77261 -2.58195 8.23413
H 17.94084 -3.54584 7.31115
