79

Mg 10.51087 0.95095 0.80795
C 8.75707 -1.49101 2.76758
C 8.04393 3.16010 1.62555
C 11.78406 2.98735 -1.26557
C 12.16714 -1.69099 -0.74854
N 8.68885 0.74321 2.04462
C 8.15789 -0.21432 2.78997
C 6.96183 0.24243 3.66769
C 6.49777 1.51161 2.80011
C 7.83041 1.85551 2.13794
C 5.49866 1.16236 1.70963
C 7.40719 0.66545 5.11154
C 6.26386 0.82676 6.11580
H 6.49984 0.44719 7.50602
N 10.28550 2.91493 0.63322
C 9.23107 3.65240 1.04017
C 9.54153 5.04024 0.66375
C 10.79048 5.03859 -0.14546
C 10.99490 3.61360 -0.31184
C 8.73151 6.21225 1.13672
C 11.65057 6.13784 -0.69146
O 12.55752 5.91077 -1.56822
C 11.33757 7.50126 -0.23912
N 11.63283 0.68486 -0.92200
C 12.10664 1.73990 -1.60781
C 13.10950 1.30693 -2.65050
C 13.39229 -0.23978 -2.35846
C 12.39316 -0.46587 -1.20259
C 12.67271 1.47834 -4.10522
C 14.87358 -0.65675 -2.14725
C 15.40064 -0.05676 -0.86366
N 10.62755 -1.18901 1.08184
C 11.36100 -2.11000 0.30215
C 11.03507 -3.46107 0.80296
C 10.10965 -3.23193 1.83232
C 9.86005 -1.83792 1.95036
C 11.53624 -4.68589 0.27877
C 9.27912 -3.85308 2.83884
O 9.13937 -4.99934 3.26346
C 8.27064 -2.76282 3.40514
C 8.29156 -2.84631 4.90684
O 9.32021 -2.55427 5.54182
O 7.03844 -3.04524 5.35460
C 7.00601 -3.12392 6.83938
H 7.21071 3.86335 1.63330
H 12.33258 3.65385 -1.93518
H 12.71645 -2.56037 -1.11611
H 6.15239 -0.47398 3.74085
H 6.16754 2.32699 3.43845
H 5.35489 0.09573 1.62153
H 5.91009 1.56561 0.79358
H 4.55726 1.69359 1.87669
H 7.77957 1.69758 5.08340
H 8.13642 -0.01810 5.50092
H 5.32880 0.38517 5.75028
H 6.03681 1.89100 6.21514
H 7.78014 5.89153 1.57880
H 8.43971 6.77948 0.24624
H 9.29159 6.86871 1.80608
H 10.30928 7.74090 -0.49924
H 12.11534 8.13684 -0.66688
H 11.40048 7.53015 0.85441
H 14.03586 1.85885 -2.54878
H 13.06060 -0.87874 -3.19005
H 13.36628 2.10379 -4.69839
H 11.67674 1.90082 -4.11504
H 12.53570 0.55087 -4.65860
H 15.49681 -0.26178 -2.95331
H 15.02062 -1.73137 -2.12353
H 15.68988 0.95462 -1.16454
H 16.25746 -0.62080 -0.50066
H 14.60383 0.03675 -0.11666
H 11.79778 -5.30389 1.12740
H 12.39242 -4.51926 -0.37159
H 10.66068 -5.03331 -0.27618
H 7.28422 -2.98538 2.99645
H 6.53062 -4.07497 7.09861
H 6.50033 -2.19961 7.17655
H 7.95374 -3.21310 7.35737
