79

Mg 10.51716 0.95352 0.80291
C 10.11787 0.15089 4.27788
C 9.29931 4.05488 1.53299
C 10.43168 1.54472 -2.31328
C 10.60487 -2.47151 0.16480
N 9.83212 1.86578 2.69784
C 9.78405 1.48524 3.96560
C 9.43127 2.61964 4.96472
C 8.65502 3.59714 3.95437
C 9.32339 3.17781 2.64666
C 7.16906 3.29691 3.84901
C 10.70823 3.30803 5.56263
C 10.44649 4.20992 6.77087
H 11.45029 4.26316 7.83013
N 10.41996 2.67773 -0.17495
C 9.91514 3.84377 0.27978
C 10.05849 4.80288 -0.82644
C 10.53805 4.06587 -2.02709
C 10.46025 2.70077 -1.54694
C 9.82687 6.27675 -0.66070
C 10.97983 4.51444 -3.38717
O 11.12875 3.68620 -4.35395
C 11.14270 5.96296 -3.57894
N 10.30580 -0.27601 -0.86020
C 10.35505 0.23017 -2.10490
C 10.45739 -0.86777 -3.13661
C 10.71135 -2.21254 -2.30915
C 10.61891 -1.64816 -0.87447
C 9.23696 -1.04856 -4.03896
C 11.96099 -3.05069 -2.69463
C 13.22013 -2.29348 -2.33884
N 10.57355 -0.84928 1.99236
C 10.58043 -2.18106 1.52289
C 10.50499 -3.06064 2.70741
C 10.43569 -2.17227 3.79115
C 10.44545 -0.83357 3.31440
C 10.45836 -4.48312 2.68566
C 10.34578 -2.06263 5.22941
O 10.38865 -2.85961 6.16574
C 10.00846 -0.55451 5.60115
C 10.94067 -0.12777 6.70179
O 12.16412 -0.04169 6.49596
O 10.21643 0.31522 7.74563
C 11.09693 0.76017 8.85854
H 8.71879 4.97468 1.60944
H 10.51244 1.69244 -3.39269
H 10.72605 -3.55137 0.05572
H 8.77467 2.32408 5.77422
H 8.86674 4.64050 4.17334
H 6.90095 2.39731 4.38284
H 6.96589 3.18442 2.79207
H 6.58552 4.16165 4.17771
H 11.08047 4.05388 4.84857
H 11.45352 2.57781 5.81149
H 9.44783 4.05069 7.19545
H 10.43106 5.24856 6.43174
H 9.32372 6.50069 0.28804
H 9.10462 6.57524 -1.42825
H 10.73937 6.86334 -0.78688
H 10.20067 6.46338 -3.36772
H 11.54872 6.08065 -4.58551
H 11.86738 6.33367 -2.84543
H 11.29745 -0.69884 -3.79909
H 9.87946 -2.92330 -2.42145
H 9.47435 -0.96428 -5.11628
H 8.49157 -0.31741 -3.75550
H 8.70116 -1.98723 -3.90850
H 11.99046 -3.21167 -3.77508
H 11.98852 -4.02716 -2.22268
H 13.35756 -1.62683 -3.19545
H 14.06040 -2.97643 -2.23140
H 13.06489 -1.66540 -1.45392
H 11.12635 -4.82846 3.46350
H 10.74423 -4.87545 1.71194
H 9.39870 -4.64682 2.89917
H 8.96387 -0.51973 5.91293
H 10.79392 0.20062 9.74892
H 10.99642 1.86115 8.89710
H 12.14884 0.50682 8.79735
