158

Mg 0.00000 0.00000 0.00000
C -0.21700 -2.21800 2.80100
C -1.25500 2.44200 2.02600
C -0.24500 1.85000 -2.56400
C 0.14600 -2.82400 -2.03700
N -0.61700 -0.00900 2.12600
C -0.59400 -0.90800 3.10500
C -0.93600 -0.30900 4.50200
C -1.77300 0.96400 4.03200
C -1.15500 1.16800 2.66000
C -3.26300 0.68500 3.86300
C 0.34500 0.11000 5.29900
C 0.12400 0.39700 6.78700
H 1.16800 0.03300 7.73300
N -0.18500 1.96100 -0.15200
C -0.70300 2.80000 0.77700
C -0.62000 4.15600 0.19300
C -0.18700 4.01500 -1.22500
C -0.21400 2.58300 -1.38000
C -0.88700 5.40600 0.97400
C 0.18100 5.01300 -2.27700
O 0.30300 4.69000 -3.50800
C 0.31000 6.41400 -1.83700
N -0.26500 -0.41300 -2.02900
C -0.27900 0.56900 -2.93700
C -0.19600 0.02400 -4.33200
C 0.12400 -1.53300 -4.18000
C 0.08600 -1.63200 -2.63500
C -1.45100 0.20500 -5.19700
C 1.37300 -2.07000 -4.92300
C 2.62600 -1.49000 -4.30600
N 0.15000 -2.14400 0.30300
C 0.17300 -3.13600 -0.68800
C 0.17300 -4.43800 0.00400
C 0.13300 -4.11100 1.35800
C 0.08300 -2.69500 1.50200
C 0.14900 -5.71500 -0.62300
C 0.09600 -4.62900 2.71600
O 0.20800 -5.74700 3.22100
C -0.25500 -3.42800 3.70100
C 0.71700 -3.48200 4.84800
O 1.93100 -3.25500 4.66900
O 0.03800 -3.55600 6.00300
C 0.94300 -3.58300 7.18300
H -1.85900 3.22000 2.49700
H -0.21800 2.45300 -3.47400
H 0.27600 -3.74700 -2.60500
H -1.55400 -0.94900 5.13200
H -1.58500 1.83100 4.66500
H -3.48400 -0.37700 3.96900
H -3.51100 1.02700 2.85800
H -3.85200 1.30100 4.54300
H 0.66900 1.09600 4.96600
H 1.13000 -0.63900 5.18900
H -0.84400 0.02600 7.12500
H 0.06200 1.47700 6.92100
H -1.34400 5.18600 1.93800
H -1.65100 5.96300 0.43200
H 0.00700 6.02000 1.08400
H -0.63500 6.74400 -1.40500
H 0.66500 6.97000 -2.70400
H 1.04800 6.46600 -1.03600
H 0.60800 0.50100 -4.89100
H -0.69200 -2.15600 -4.54700
H -1.26700 0.74000 -6.12900
H -2.20400 0.71400 -4.59600
H -1.96700 -0.72000 -5.45300
H 1.35600 -1.75900 -5.96700
H 1.45200 -3.15700 -4.90200
H 2.71400 -0.52200 -4.79800
H 3.48700 -2.12100 -4.52900
H 2.49500 -1.30300 -3.24000
H 0.86700 -6.33300 -0.08400
H 0.40400 -5.64200 -1.68000
H -0.89100 -5.99900 -0.46300
H -1.28300 -3.58100 4.02800
H 0.69800 -4.47800 7.75500
H 0.83300 -2.61900 7.68000
H 2.00000 -3.75400 6.97600
Mg 8.93822 0.80724 0.66930
C 11.64437 -1.52544 0.33107
C 11.26227 3.29842 0.50395
C 6.64064 2.86468 1.41463
C 7.02058 -1.81366 1.93393
N 11.13829 0.76582 0.44520
C 12.05119 -0.17658 0.26401
C 13.46656 0.35742 -0.08402
C 13.33679 1.82171 0.56244
C 11.82233 1.99639 0.46991
C 13.73446 1.86979 2.02835
C 13.71315 0.43263 -1.63177
C 15.17169 0.64963 -2.04081
H 15.65758 0.00167 -3.25594
N 8.85521 2.77711 0.44287
C 9.89650 3.63271 0.37255
C 9.30709 4.97261 0.22626
C 7.83165 4.85554 0.38147
C 7.71804 3.46740 0.78177
C 10.12137 6.18710 -0.11347
C 6.70980 5.83474 0.21174
O 5.52509 5.58048 0.62964
C 7.05942 7.13720 -0.37382
N 7.16738 0.61568 1.74158
C 6.32275 1.65365 1.87253
C 4.99666 1.20933 2.44213
C 5.04242 -0.38926 2.44067
C 6.48505 -0.60066 1.93125
C 4.67744 1.70778 3.85140
C 3.88561 -1.12577 1.71128
C 3.96727 -0.86929 0.22369
N 9.18092 -1.32722 0.90005
C 8.26404 -2.23241 1.47801
C 8.92185 -3.55467 1.51442
C 10.19438 -3.32038 0.97193
C 10.32797 -1.94489 0.64076
C 8.35950 -4.74922 2.04633
C 11.45882 -3.92181 0.61395
O 11.89691 -5.07115 0.58528
C 12.49924 -2.76191 0.29999
C 13.19620 -3.09960 -0.98947
O 12.56401 -3.13213 -2.05994
O 14.52540 -3.11434 -0.78118
C 15.26067 -3.43379 -2.03383
H 11.92523 4.14365 0.69096
H 5.77738 3.50997 1.59312
H 6.45387 -2.70134 2.22296
H 14.28280 -0.18297 0.38022
H 13.84438 2.56751 -0.04377
H 13.92668 0.88444 2.42618
H 12.90193 2.33023 2.54404
H 14.58458 2.54401 2.16639
H 13.26931 1.35818 -2.02050
H 13.32628 -0.43949 -2.12204
H 15.86379 0.47361 -1.20836
H 15.31001 1.70553 -2.28567
H 11.19571 5.99498 -0.00264
H 9.90070 6.94321 0.64775
H 9.87926 6.59486 -1.09723
H 7.81406 7.61953 0.24289
H 6.11219 7.66571 -0.49751
H 7.51609 6.96822 -1.35540
H 4.17687 1.53799 1.81521
H 5.00621 -0.79885 3.46085
H 3.72717 2.27134 3.91022
H 5.50312 2.31785 4.19286
H 4.63067 0.93370 4.61548
H 2.92005 -0.73456 2.04114
H 3.87638 -2.19629 1.88706
H 3.47001 0.09894 0.11255
H 3.44409 -1.64739 -0.32848
H 5.00785 -0.74424 -0.09758
H 8.59211 -5.54116 1.34690
H 7.28611 -4.65151 2.19487
H 8.90077 -4.81446 2.99398
H 13.19392 -2.70897 1.13916
H 15.89539 -4.29926 -1.81987
H 15.76928 -2.49678 -2.32893
H 14.68283 -3.79813 -2.87514
