79

Mg 15.76628 1.41940 1.19766
C 15.39515 0.39895 4.60840
C 14.54006 4.46388 2.13074
C 15.65660 2.19561 -1.87513
C 15.87175 -1.95995 0.35239
N 15.09034 2.21017 3.15174
C 15.05511 1.73639 4.39330
C 14.69513 2.81656 5.45679
C 13.91583 3.84354 4.51870
C 14.57847 3.51256 3.19307
C 12.42241 3.55420 4.40707
C 15.96708 3.47258 6.09201
C 15.71471 4.29393 7.35970
H 16.71880 4.28280 8.41280
N 15.65315 3.18889 0.32647
C 15.13864 4.32285 0.86003
C 15.28447 5.36485 -0.17903
C 15.75171 4.70040 -1.42734
C 15.67979 3.31345 -1.04447
C 15.03897 6.82047 0.07526
C 16.18299 5.23069 -2.75810
O 16.32806 4.47303 -3.77765
C 16.34780 6.69196 -2.86091
N 15.54387 0.29159 -0.54481
C 15.58896 0.86852 -1.75067
C 15.69200 -0.15514 -2.84220
C 15.95389 -1.55225 -2.11473
C 15.86947 -1.07237 -0.64474
C 14.46856 -0.27949 -3.76076
C 17.20390 -2.35278 -2.55865
C 18.45843 -1.61312 -2.15103
N 15.83394 -0.46351 2.27521
C 15.85040 -1.75179 1.72136
C 15.78633 -2.70551 2.84402
C 15.71989 -1.90045 3.97950
C 15.71464 -0.53076 3.58934
C 15.73590 -4.12298 2.73149
C 15.62727 -1.87893 5.43030
O 15.68663 -2.73327 6.31578
C 15.29049 -0.39161 5.88887
C 16.22772 -0.03892 7.01160
O 17.45332 0.07947 6.80853
O 15.51465 0.33394 8.08541
C 16.38496 0.72536 9.22625
H 13.95029 5.37376 2.25808
H 15.72967 2.41885 -2.94156
H 15.98570 -3.03011 0.17010
H 14.03816 2.46828 6.25399
H 14.11584 4.87881 4.79427
H 12.16214 2.61163 4.88847
H 12.21442 3.50583 3.33801
H 11.83623 4.39052 4.78883
H 16.33396 4.25842 5.43177
H 16.72861 2.71913 6.29625
H 14.72548 4.09520 7.77303
H 15.68618 5.34806 7.08365
H 14.54799 6.98229 1.03405
H 14.30998 7.15413 -0.66295
H 15.95015 7.41211 -0.01441
H 15.40304 7.17866 -2.61780
H 16.74573 6.88032 -3.85741
H 17.06455 7.02031 -2.10764
H 16.52720 0.06394 -3.50619
H 15.12749 -2.24894 -2.25743
H 14.69675 -0.13096 -4.81649
H 13.71706 0.43179 -3.41926
H 13.92838 -1.22219 -3.67746
H 17.22670 -2.44937 -3.64359
H 17.24484 -3.35649 -2.13540
H 18.59335 -0.89765 -2.96143
H 19.30309 -2.30036 -2.09231
H 18.30429 -1.04258 -1.23495
H 16.41692 -4.51342 3.48763
H 16.02261 -4.45136 1.73271
H 14.68269 -4.30512 2.94465
H 14.24912 -0.39060 6.20931
H 16.09347 0.11067 10.07797
H 16.29438 1.80693 9.32825
H 17.44081 0.46709 9.13782
