79

Mg 15.76628 1.41940 1.19766
C 15.54928 -0.79860 3.99866
C 14.51128 3.86140 3.22366
C 15.52128 3.26940 -1.36634
C 15.91228 -1.40460 -0.83934
N 15.14928 1.41040 3.32366
C 15.17228 0.51140 4.30266
C 14.83028 1.11040 5.69966
C 13.99328 2.38340 5.22966
C 14.61128 2.58740 3.85766
C 12.50328 2.10440 5.06066
C 16.11128 1.52940 6.49666
C 15.89028 1.81640 7.98466
H 16.93428 1.45240 8.93066
N 15.58128 3.38040 1.04566
C 15.06328 4.21940 1.97466
C 15.14628 5.57540 1.39066
C 15.57928 5.43440 -0.02734
C 15.55228 4.00240 -0.18234
C 14.87928 6.82540 2.17166
C 15.94728 6.43240 -1.07934
O 16.06928 6.10940 -2.31034
C 16.07628 7.83340 -0.63934
N 15.50128 1.00640 -0.83134
C 15.48728 1.98840 -1.73934
C 15.57028 1.44340 -3.13434
C 15.89028 -0.11360 -2.98234
C 15.85228 -0.21260 -1.43734
C 14.31528 1.62440 -3.99934
C 17.13928 -0.65060 -3.72534
C 18.39228 -0.07060 -3.10834
N 15.91628 -0.72460 1.50066
C 15.93928 -1.71660 0.50966
C 15.93928 -3.01860 1.20166
C 15.89928 -2.69160 2.55566
C 15.84928 -1.27560 2.69966
C 15.91528 -4.29560 0.57466
C 15.86228 -3.20960 3.91366
O 15.97428 -4.32760 4.41866
C 15.51128 -2.00860 4.89866
C 16.48328 -2.06260 6.04566
O 17.69728 -1.83560 5.86666
O 15.80428 -2.13660 7.20066
C 16.70928 -2.16360 8.38066
H 13.90728 4.63940 3.69466
H 15.54828 3.87240 -2.27634
H 16.04228 -2.32760 -1.40734
H 14.21228 0.47040 6.32966
H 14.18128 3.25040 5.86266
H 12.28228 1.04240 5.16666
H 12.25528 2.44640 4.05566
H 11.91428 2.72040 5.74066
H 16.43528 2.51540 6.16366
H 16.89628 0.78040 6.38666
H 14.92228 1.44540 8.32266
H 15.82828 2.89640 8.11866
H 14.42228 6.60540 3.13566
H 14.11528 7.38240 1.62966
H 15.77328 7.43940 2.28166
H 15.13128 8.16340 -0.20734
H 16.43128 8.38940 -1.50634
H 16.81428 7.88540 0.16166
H 16.37428 1.92040 -3.69334
H 15.07428 -0.73660 -3.34934
H 14.49928 2.15940 -4.93134
H 13.56228 2.13340 -3.39834
H 13.79928 0.69940 -4.25534
H 17.12228 -0.33960 -4.76934
H 17.21828 -1.73760 -3.70434
H 18.48028 0.89740 -3.60034
H 19.25328 -0.70160 -3.33134
H 18.26128 0.11640 -2.04234
H 16.63328 -4.91360 1.11366
H 16.17028 -4.22260 -0.48234
H 14.87528 -4.57960 0.73466
H 14.48328 -2.16160 5.22566
H 16.46428 -3.05860 8.95266
H 16.59928 -1.19960 8.87766
H 17.76628 -2.33460 8.17366
