79

Mg 15.76628 1.41940 1.19766
C 15.46270 4.30040 -0.90469
C 15.26814 -0.48347 -1.59053
C 15.57722 -1.11539 3.09389
C 15.10923 3.51020 3.90737
N 15.42264 1.95661 -0.92223
C 15.38856 3.09548 -1.60705
C 15.34260 2.88723 -3.15039
C 14.71943 1.42018 -3.18799
C 15.19382 0.92002 -1.83495
C 13.19436 1.40641 -3.20963
C 16.76799 2.92096 -3.79758
C 16.78993 3.05234 -5.32323
H 17.84991 3.83254 -5.94375
N 15.95064 -0.50424 0.78723
C 15.72333 -1.10302 -0.40654
C 15.99783 -2.54130 -0.19992
C 16.21923 -2.75758 1.25689
C 15.89450 -1.45556 1.78099
C 16.07704 -3.53302 -1.31972
C 16.64427 -3.95156 2.05180
O 16.55021 -3.98877 3.32629
C 17.09687 -5.12524 1.28324
N 15.18097 1.17420 3.18636
C 15.24865 -0.02084 3.78327
C 15.05335 0.09747 5.26576
C 15.07925 1.66043 5.59172
C 15.21085 2.20077 4.14639
C 13.76214 -0.51851 5.82196
C 16.09954 2.14032 6.65433
C 17.50723 1.96508 6.13010
N 15.53049 3.55466 1.50767
C 15.23866 4.20408 2.71588
C 15.06861 5.63571 2.40671
C 15.25821 5.71771 1.02861
C 15.50354 4.41581 0.50597
C 14.71966 6.65359 3.33762
C 15.28623 6.59888 -0.12751
O 15.23836 7.81916 -0.28912
C 15.29893 5.70035 -1.44217
C 16.37383 6.23586 -2.34833
O 17.57782 6.15459 -2.03028
O 15.83906 6.54043 -3.54073
C 16.85804 7.04990 -4.49691
H 14.88953 -1.17201 -2.34849
H 15.61055 -1.94704 3.80078
H 14.98645 4.23478 4.71444
H 14.69283 3.58149 -3.68353
H 15.14866 0.81607 -3.98708
H 12.78482 2.40606 -3.06506
H 12.89755 0.75126 -2.39037
H 12.82413 0.93429 -4.12002
H 17.23531 1.94226 -3.68890
H 17.37232 3.71556 -3.35857
H 15.81656 3.35368 -5.71136
H 16.95675 2.06279 -5.74888
H 15.70659 -3.11271 -2.25388
H 15.37636 -4.33424 -1.08562
H 17.08033 -3.94375 -1.43395
H 16.29418 -5.45446 0.62304
H 17.44546 -5.84983 2.01829
H 17.92265 -4.82689 0.63669
H 15.86093 -0.39373 5.80702
H 14.11886 2.01626 5.96549
H 13.93231 -1.26844 6.59485
H 13.20181 -0.93783 4.98680
H 13.04823 0.20071 6.22257
H 16.01674 1.53829 7.55856
H 15.96674 3.18449 6.93777
H 17.72203 0.92073 6.35377
H 18.19481 2.62680 6.65789
H 17.54590 2.08093 5.04679
H 15.36330 7.50448 3.11471
H 14.85352 6.31392 4.36441
H 13.67156 6.80967 3.08271
H 14.30840 5.78355 -1.88831
H 16.51443 8.02481 -4.84291
H 16.99965 6.26888 -5.24414
H 17.82813 7.31209 -4.07321
