158

Mg 0.00000 0.00000 0.00000
C -0.21700 -2.21800 2.80100
C -1.25500 2.44200 2.02600
C -0.24500 1.85000 -2.56400
C 0.14600 -2.82400 -2.03700
N -0.61700 -0.00900 2.12600
C -0.59400 -0.90800 3.10500
C -0.93600 -0.30900 4.50200
C -1.77300 0.96400 4.03200
C -1.15500 1.16800 2.66000
C -3.26300 0.68500 3.86300
C 0.34500 0.11000 5.29900
C 0.12400 0.39700 6.78700
H 1.16800 0.03300 7.73300
N -0.18500 1.96100 -0.15200
C -0.70300 2.80000 0.77700
C -0.62000 4.15600 0.19300
C -0.18700 4.01500 -1.22500
C -0.21400 2.58300 -1.38000
C -0.88700 5.40600 0.97400
C 0.18100 5.01300 -2.27700
O 0.30300 4.69000 -3.50800
C 0.31000 6.41400 -1.83700
N -0.26500 -0.41300 -2.02900
C -0.27900 0.56900 -2.93700
C -0.19600 0.02400 -4.33200
C 0.12400 -1.53300 -4.18000
C 0.08600 -1.63200 -2.63500
C -1.45100 0.20500 -5.19700
C 1.37300 -2.07000 -4.92300
C 2.62600 -1.49000 -4.30600
N 0.15000 -2.14400 0.30300
C 0.17300 -3.13600 -0.68800
C 0.17300 -4.43800 0.00400
C 0.13300 -4.11100 1.35800
C 0.08300 -2.69500 1.50200
C 0.14900 -5.71500 -0.62300
C 0.09600 -4.62900 2.71600
O 0.20800 -5.74700 3.22100
C -0.25500 -3.42800 3.70100
C 0.71700 -3.48200 4.84800
O 1.93100 -3.25500 4.66900
O 0.03800 -3.55600 6.00300
C 0.94300 -3.58300 7.18300
H -1.85900 3.22000 2.49700
H -0.21800 2.45300 -3.47400
H 0.27600 -3.74700 -2.60500
H -1.55400 -0.94900 5.13200
H -1.58500 1.83100 4.66500
H -3.48400 -0.37700 3.96900
H -3.51100 1.02700 2.85800
H -3.85200 1.30100 4.54300
H 0.66900 1.09600 4.96600
H 1.13000 -0.63900 5.18900
H -0.84400 0.02600 7.12500
H 0.06200 1.47700 6.92100
H -1.34400 5.18600 1.93800
H -1.65100 5.96300 0.43200
H 0.00700 6.02000 1.08400
H -0.63500 6.74400 -1.40500
H 0.66500 6.97000 -2.70400
H 1.04800 6.46600 -1.03600
H 0.60800 0.50100 -4.89100
H -0.69200 -2.15600 -4.54700
H -1.26700 0.74000 -6.12900
H -2.20400 0.71400 -4.59600
H -1.96700 -0.72000 -5.45300
H 1.35600 -1.75900 -5.96700
H 1.45200 -3.15700 -4.90200
H 2.71400 -0.52200 -4.79800
H 3.48700 -2.12100 -4.52900
H 2.49500 -1.30300 -3.24000
H 0.86700 -6.33300 -0.08400
H 0.40400 -5.64200 -1.68000
H -0.89100 -5.99900 -0.46300
H -1.28300 -3.58100 4.02800
H 0.69800 -4.47800 7.75500
H 0.83300 -2.61900 7.68000
H 2.00000 -3.75400 6.97600
Mg 15.77318 1.41730 1.20543
C 15.90027 -2.16566 1.04615
C 14.67574 1.08651 4.41803
C 15.22080 4.54164 1.23340
C 15.76735 1.43342 -2.27960
N 15.37921 -0.36219 2.45862
C 15.52216 -1.67075 2.31167
C 15.32216 -2.48998 3.61490
C 14.40228 -1.44588 4.41649
C 14.86736 -0.15105 3.75332
C 12.91759 -1.61697 4.14122
C 16.67371 -2.75878 4.36529
C 16.59530 -3.80984 5.47473
H 17.74655 -4.68210 5.68978
N 15.52885 2.66468 2.72954
C 15.09686 2.35810 3.97077
C 15.07181 3.62792 4.71313
C 15.36657 4.73349 3.76152
C 15.36291 4.00900 2.50645
C 14.86631 3.69821 6.19847
C 15.59898 6.20222 3.94863
O 15.60199 7.01509 2.95763
C 15.72992 6.67387 5.33495
N 15.31594 2.78178 -0.29506
C 15.17750 4.09073 -0.02044
C 15.12497 4.91125 -1.28709
C 15.50139 3.90167 -2.46889
C 15.62462 2.59456 -1.65546
C 13.78318 5.57594 -1.59395
C 16.67985 4.30999 -3.39472
C 17.97741 4.28643 -2.61936
N 16.00896 -0.05604 -0.35717
C 15.94659 0.16146 -1.75105
C 16.05044 -1.16014 -2.40298
C 16.14363 -2.06415 -1.33407
C 16.08055 -1.35778 -0.10258
C 16.00239 -1.40229 -3.80483
C 16.27033 -3.45633 -0.96736
O 16.45386 -4.50421 -1.58541
C 15.99119 -3.59581 0.59117
C 17.07751 -4.45157 1.18286
O 18.25618 -4.05521 1.19884
O 16.51760 -5.49377 1.82369
C 17.55463 -6.36581 2.43682
H 14.11240 1.09223 5.35158
H 15.13864 5.62989 1.18408
H 15.87179 1.36274 -3.36439
H 14.79465 -3.42743 3.48572
H 14.64348 -1.43948 5.47627
H 12.73340 -2.33785 3.35857
H 12.55832 -0.63940 3.84738
H 12.38916 -1.86692 5.06567
H 16.93397 -1.87496 4.96183
H 17.44857 -3.02235 3.67192
H 15.67175 -4.39890 5.41994
H 16.52822 -3.29510 6.43628
H 14.51092 2.74166 6.60110
H 14.03685 4.39178 6.37405
H 15.74903 4.06140 6.72910
H 14.82976 6.41955 5.88947
H 15.98028 7.73390 5.26058
H 16.55606 6.13439 5.81147
H 15.85602 5.70999 -1.26104
H 14.66272 3.75991 -3.16629
H 13.85626 6.67385 -1.70939
H 13.08806 5.32200 -0.80474
H 13.27387 5.20075 -2.47997
H 16.54711 5.33604 -3.74653
H 16.77875 3.67909 -4.27174
H 17.98421 5.25992 -2.12001
H 18.82493 4.18292 -3.29393
H 17.95606 3.51616 -1.83969
H 16.77979 -2.12232 -4.02324
H 16.13936 -0.48387 -4.37186
H 14.98688 -1.79591 -3.90007
H 15.00513 -4.04699 0.70829
H 17.38909 -7.37729 2.05316
H 17.46003 -6.21970 3.52927
H 18.58570 -6.19664 2.14921
