158

Mg 0.00000 0.00000 0.00000
C -0.21700 -2.21800 2.80100
C -1.25500 2.44200 2.02600
C -0.24500 1.85000 -2.56400
C 0.14600 -2.82400 -2.03700
N -0.61700 -0.00900 2.12600
C -0.59400 -0.90800 3.10500
C -0.93600 -0.30900 4.50200
C -1.77300 0.96400 4.03200
C -1.15500 1.16800 2.66000
C -3.26300 0.68500 3.86300
C 0.34500 0.11000 5.29900
C 0.12400 0.39700 6.78700
H 1.16800 0.03300 7.73300
N -0.18500 1.96100 -0.15200
C -0.70300 2.80000 0.77700
C -0.62000 4.15600 0.19300
C -0.18700 4.01500 -1.22500
C -0.21400 2.58300 -1.38000
C -0.88700 5.40600 0.97400
C 0.18100 5.01300 -2.27700
O 0.30300 4.69000 -3.50800
C 0.31000 6.41400 -1.83700
N -0.26500 -0.41300 -2.02900
C -0.27900 0.56900 -2.93700
C -0.19600 0.02400 -4.33200
C 0.12400 -1.53300 -4.18000
C 0.08600 -1.63200 -2.63500
C -1.45100 0.20500 -5.19700
C 1.37300 -2.07000 -4.92300
C 2.62600 -1.49000 -4.30600
N 0.15000 -2.14400 0.30300
C 0.17300 -3.13600 -0.68800
C 0.17300 -4.43800 0.00400
C 0.13300 -4.11100 1.35800
C 0.08300 -2.69500 1.50200
C 0.14900 -5.71500 -0.62300
C 0.09600 -4.62900 2.71600
O 0.20800 -5.74700 3.22100
C -0.25500 -3.42800 3.70100
C 0.71700 -3.48200 4.84800
O 1.93100 -3.25500 4.66900
O 0.03800 -3.55600 6.00300
C 0.94300 -3.58300 7.18300
H -1.85900 3.22000 2.49700
H -0.21800 2.45300 -3.47400
H 0.27600 -3.74700 -2.60500
H -1.55400 -0.94900 5.13200
H -1.58500 1.83100 4.66500
H -3.48400 -0.37700 3.96900
H -3.51100 1.02700 2.85800
H -3.85200 1.30100 4.54300
H 0.66900 1.09600 4.96600
H 1.13000 -0.63900 5.18900
H -0.84400 0.02600 7.12500
H 0.06200 1.47700 6.92100
H -1.34400 5.18600 1.93800
H -1.65100 5.96300 0.43200
H 0.00700 6.02000 1.08400
H -0.63500 6.74400 -1.40500
H 0.66500 6.97000 -2.70400
H 1.04800 6.46600 -1.03600
H 0.60800 0.50100 -4.89100
H -0.69200 -2.15600 -4.54700
H -1.26700 0.74000 -6.12900
H -2.20400 0.71400 -4.59600
H -1.96700 -0.72000 -5.45300
H 1.35600 -1.75900 -5.96700
H 1.45200 -3.15700 -4.90200
H 2.71400 -0.52200 -4.79800
H 3.48700 -2.12100 -4.52900
H 2.49500 -1.30300 -3.24000
H 0.86700 -6.33300 -0.08400
H 0.40400 -5.64200 -1.68000
H -0.89100 -5.99900 -0.46300
H -1.28300 -3.58100 4.02800
H 0.69800 -4.47800 7.75500
H 0.83300 -2.61900 7.68000
H 2.00000 -3.75400 6.97600
Mg 8.94231 0.79825 0.67552
C 8.94381 1.45317 -2.85296
C 8.41245 -2.48428 -0.08533
C 8.48705 0.25758 3.76871
C 8.33031 4.19409 1.16482
N 8.72505 -0.25639 -1.25653
C 8.80516 0.08638 -2.53341
C 8.81325 -1.11080 -3.52146
C 8.07523 -2.19366 -2.59323
C 8.45224 -1.63740 -1.22169
C 6.56125 -2.16386 -2.72102
C 10.26711 -1.56885 -3.89362
C 10.35494 -2.52474 -5.08538
H 11.50229 -2.41557 -5.98212
N 9.00051 -0.89740 1.70506
C 8.78315 -2.14325 1.23400
C 8.92170 -3.04081 2.39130
C 9.07578 -2.20802 3.61500
C 8.83429 -0.88809 3.06770
C 8.97987 -4.53505 2.25981
C 9.37643 -2.54519 5.04403
O 9.22862 -1.68639 5.98394
C 9.75928 -3.93706 5.32264
N 8.26752 1.99945 2.23247
C 8.21408 1.53291 3.49239
C 7.96382 2.64976 4.47748
C 8.10160 4.00314 3.63667
C 8.32954 3.40557 2.23085
C 6.60737 2.62423 5.18160
C 9.11139 5.05928 4.16352
C 10.52301 4.53471 4.03109
N 8.86296 2.56003 -0.57263
C 8.56472 3.87956 -0.16766
C 8.51810 4.70971 -1.38877
C 8.77172 3.80398 -2.42984
C 8.94292 2.49770 -1.89709
C 8.22027 6.10074 -1.43814
C 8.92302 3.65405 -3.85929
O 8.96806 4.42873 -4.81405
C 8.91584 2.10340 -4.20833
C 10.06529 1.83160 -5.13967
O 11.23892 1.97080 -4.75260
O 9.59779 1.24678 -6.25762
C 10.70202 0.94755 -7.20787
H 8.02059 -3.49475 -0.20480
H 8.42669 0.14628 4.85381
H 8.24238 5.27991 1.24182
H 8.24641 -0.95285 -4.43114
H 8.49733 -3.18566 -2.73153
H 6.22440 -1.33695 -3.32839
H 6.18261 -2.07073 -1.71157
H 6.19533 -3.12527 -3.09267
H 10.65080 -2.22255 -3.09977
H 10.90210 -0.72104 -4.06284
H 9.42053 -2.55549 -5.65886
H 10.47008 -3.54292 -4.70582
H 8.67454 -4.86293 1.25847
H 8.21251 -4.94474 2.92551
H 9.95089 -4.94550 2.54499
H 8.96292 -4.60255 4.99800
H 10.02114 -3.96161 6.38222
H 10.64102 -4.18449 4.72104
H 8.70935 2.64672 5.26315
H 7.15084 4.55451 3.59339
H 6.68859 2.60347 6.28480
H 6.05371 1.76590 4.82486
H 5.94174 3.44866 4.93171
H 8.94694 5.24238 5.22822
H 9.03918 6.01610 3.65728
H 10.64269 3.91922 4.92771
H 11.23708 5.35566 4.01769
H 10.61711 3.87310 3.16213
H 8.92823 6.54656 -2.12409
H 8.28097 6.55558 -0.45162
H 7.19353 6.06721 -1.81222
H 7.95351 1.87562 -4.66836
H 10.44521 1.42730 -8.15739
H 10.80299 -0.15406 -7.21121
H 11.67143 1.38711 -7.00421
