79

Mg 13.14598 1.18691 0.99167
C 12.58659 4.70091 1.45852
C 12.47054 1.67086 -2.31653
C 13.18864 -1.96435 0.62397
C 12.65186 0.79421 4.41911
N 12.61142 2.99814 -0.15982
C 12.48850 4.28835 0.11330
C 12.32670 5.19737 -1.13452
C 11.73746 4.10472 -2.15324
C 12.33504 2.84395 -1.53192
C 10.22296 3.99019 -2.10308
C 13.69759 5.77139 -1.63767
C 13.58399 6.90726 -2.65681
H 14.57332 7.98059 -2.61593
N 13.35321 0.08792 -0.64780
C 13.05152 0.44866 -1.91276
C 13.36594 -0.71934 -2.75006
C 13.72229 -1.85479 -1.85648
C 13.40818 -1.28114 -0.56329
C 13.38846 -0.66291 -4.24997
C 14.24551 -3.23375 -2.12278
O 14.25856 -4.13635 -1.21285
C 14.65531 -3.52394 -3.50457
N 12.74120 -0.38922 2.28563
C 12.88659 -1.66528 1.88755
C 12.80816 -2.61454 3.05936
C 12.82152 -1.68912 4.36358
C 12.81511 -0.30009 3.68835
C 11.58228 -3.52686 3.09553
C 13.91253 -1.98858 5.42786
C 15.27964 -1.66126 4.87176
N 12.88336 2.50161 2.68596
C 12.66624 2.12762 4.03024
C 12.43168 3.36948 4.79520
C 12.50639 4.38612 3.83116
C 12.74891 3.81632 2.55210
C 12.14262 3.44729 6.18679
C 12.42467 5.81088 3.60299
O 12.32285 6.80184 4.32504
C 12.34720 6.06815 2.03640
C 13.32953 7.15490 1.69503
O 14.55134 6.96878 1.83346
O 12.68313 8.14969 1.06026
C 13.61752 9.24632 0.69132
H 12.05528 1.67017 -3.32472
H 13.30240 -3.04960 0.57144
H 12.58746 0.76420 5.50889
H 11.62255 6.01201 -1.01486
H 12.12269 4.25378 -3.15859
H 9.80053 4.58058 -1.30362
H 10.01229 2.93987 -1.94980
H 9.79323 4.24489 -3.07612
H 14.19781 5.01427 -2.25516
H 14.30493 6.08652 -0.81156
H 12.56934 7.32134 -2.70113
H 13.74923 6.49538 -3.65534
H 12.92320 0.25706 -4.62493
H 12.73428 -1.46436 -4.60997
H 14.38886 -0.81135 -4.66209
H 13.81104 -3.36807 -4.17193
H 15.08378 -4.52772 -3.47762
H 15.42663 -2.80366 -3.79932
H 13.67017 -3.26983 3.08458
H 11.88128 -1.76808 4.92886
H 11.83949 -4.60231 3.13182
H 10.97061 -3.31117 2.22958
H 10.89277 -3.34151 3.91737
H 13.92297 -3.05413 5.67006
H 13.76874 -1.44838 6.35765
H 15.53614 -2.55979 4.30261
H 15.98981 -1.48854 5.67790
H 15.22681 -0.82630 4.16344
H 12.73525 4.26119 6.58284
H 12.36521 2.50981 6.69211
H 11.06884 3.64993 6.15191
H 11.32142 6.35508 1.80186
H 13.21593 10.16756 1.12459
H 13.70649 9.20495 -0.41056
H 14.61107 9.22489 1.12358
