79

Mg 15.76628 1.41940 1.19766
C 15.75440 -1.88153 2.58184
C 14.55845 2.51917 4.19345
C 15.33887 4.26202 -0.14153
C 15.87617 -0.06236 -1.95479
N 15.26309 0.35724 3.07363
C 15.36076 -0.90004 3.49419
C 15.07802 -1.06574 5.01734
C 14.18516 0.23442 5.25053
C 14.72429 1.10379 4.12828
C 12.69590 0.00045 5.01846
C 16.38832 -1.02200 5.87347
C 16.23913 -1.49873 7.32117
H 17.34067 -2.22317 7.93692
N 15.52359 3.19940 2.01958
C 15.03427 3.46082 3.25550
C 15.05168 4.93260 3.39784
C 15.41248 5.51346 2.07477
C 15.41381 4.33408 1.24746
C 14.79462 5.63694 4.69460
C 15.69874 6.91126 1.62495
O 15.76361 7.22787 0.38797
C 15.81511 7.93103 2.68305
N 15.40488 2.02339 -0.76759
C 15.31783 3.31949 -1.08622
C 15.34075 3.51907 -2.57269
C 15.70791 2.09897 -3.20377
C 15.75426 1.26584 -1.89916
C 14.03752 4.03426 -3.19894
C 16.92911 2.04711 -4.15582
C 18.19782 2.31712 -3.37828
N 15.98668 -0.59516 0.42048
C 15.98247 -0.98425 -0.92684
C 16.05226 -2.45686 -0.95143
C 16.07566 -2.82534 0.39227
C 15.99729 -1.65834 1.20484
C 16.02766 -3.27299 -2.11666
C 16.12379 -3.93485 1.33063
O 16.29080 -5.15099 1.22769
C 15.79492 -3.37573 2.78496
C 16.82732 -3.92930 3.72890
O 18.02397 -3.58630 3.64085
O 16.21251 -4.58326 4.72633
C 17.17908 -5.13232 5.71447
H 13.96060 2.94386 5.00224
H 15.30231 5.22948 -0.64663
H 15.99941 -0.58985 -2.90243
H 14.51074 -1.95891 5.27977
H 14.38425 0.69681 6.21711
H 12.50795 -0.99033 4.60498
H 12.38643 0.77219 4.31339
H 12.12821 0.18339 5.93117
H 16.66901 0.01663 6.04815
H 17.18522 -1.58666 5.38826
H 15.30014 -2.03257 7.47024
H 16.15682 -0.62144 7.96287
H 14.39503 4.95793 5.44681
H 13.98907 6.34890 4.51600
H 15.67726 6.16388 5.05739
H 14.88619 7.96626 3.25263
H 16.10945 8.85235 2.18166
H 16.59290 7.62577 3.38362
H 16.10162 4.24431 -2.85819
H 14.88977 1.69176 -3.79833
H 14.15825 4.96035 -3.76151
H 13.30466 4.15383 -2.40150
H 13.53243 3.32371 -3.85271
H 16.84897 2.82159 -4.91785
H 17.03678 1.08980 -4.66593
H 18.23497 3.40535 -3.34333
H 19.06161 1.91380 -3.90782
H 18.11870 1.96063 -2.35108
H 16.78869 -4.03907 -1.96863
H 16.22442 -2.68743 -3.01444
H 15.00516 -3.64836 -2.07872
H 14.78990 -3.71642 3.03190
H 16.98758 -6.20276 5.79014
H 17.07101 -4.53378 6.61917
H 18.22766 -5.13154 5.41476
