79

Mg 8.94163 0.79877 0.68383
C 9.15449 -2.12762 -1.38256
C 8.04891 -1.26166 3.25138
C 8.30875 3.38580 2.40841
C 8.72547 2.67951 -2.24222
N 8.67150 -1.39364 0.79621
C 8.84021 -2.40954 -0.03676
C 8.74101 -3.80908 0.62732
C 7.84354 -3.40943 1.89763
C 8.23311 -1.93762 2.01880
C 6.35007 -3.48755 1.62787
C 10.14200 -4.36347 1.06538
C 10.15864 -5.84783 1.43710
H 11.34362 -6.63478 1.10697
N 8.75634 1.01961 2.64737
C 8.40823 0.07247 3.54349
C 8.39406 0.74315 4.85274
C 8.60135 2.20072 4.63539
C 8.54144 2.26266 3.18878
C 8.27660 -0.00484 6.14894
C 8.80533 3.35065 5.57467
O 8.72694 4.56671 5.17731
C 9.00689 3.01234 6.99115
N 8.35859 2.72733 0.17094
C 8.20206 3.67540 1.11147
C 8.05145 5.04256 0.48811
C 8.38281 4.84591 -1.06402
C 8.58966 3.31552 -1.08670
C 6.67635 5.69338 0.63619
C 9.49205 5.75072 -1.66699
C 10.83412 5.38660 -1.07399
N 9.12211 0.40772 -1.43337
C 8.97011 1.33447 -2.48795
C 9.06975 0.57603 -3.75178
C 9.25124 -0.75328 -3.34134
C 9.24363 -0.82152 -1.92191
C 8.94382 1.12058 -5.06088
C 9.43691 -2.11578 -3.78612
O 9.61079 -2.65738 -4.87707
C 9.25597 -3.08376 -2.53846
C 10.39842 -4.06219 -2.54016
O 11.56491 -3.67214 -2.35642
O 9.90614 -5.31440 -2.54078
C 11.00112 -6.32075 -2.53138
H 7.54287 -1.78800 4.06118
H 8.19474 4.32459 2.95535
H 8.76624 3.20699 -3.19762
H 8.23189 -4.55864 0.03340
H 8.14788 -3.95869 2.78478
H 6.13837 -3.68564 0.58763
H 5.94779 -2.52619 1.91943
H 5.88513 -4.22252 2.29119
H 10.41404 -3.92422 2.03378
H 10.88045 -4.17147 0.31142
H 9.24952 -6.36545 1.10769
H 10.13588 -5.93308 2.52624
H 7.97177 -1.04601 5.98634
H 7.44100 0.43990 6.70017
H 9.17967 0.06526 6.75904
H 8.14887 2.45153 7.35412
H 9.22394 3.95903 7.48968
H 9.87434 2.34781 7.07211
H 8.76116 5.74168 0.91313
H 7.50774 5.05415 -1.69704
H 6.71301 6.68426 1.12698
H 6.03705 5.01837 1.18954
H 6.12479 5.82410 -0.29327
H 9.31102 6.79642 -1.40642
H 9.55475 5.69455 -2.74861
H 10.84500 5.93957 -0.12996
H 11.64193 5.70738 -1.72865
H 10.88034 4.31867 -0.83101
H 9.72560 0.67364 -5.66053
H 9.02183 2.20573 -5.04930
H 7.93529 0.78424 -5.31584
H 8.29116 -3.58077 -2.64663
H 10.83983 -6.97645 -3.39262
H 10.96863 -6.78824 -1.52930
H 12.00812 -5.96752 -2.72015
