79

Mg 13.14535 1.18773 1.00456
C 13.08637 -1.01954 3.83360
C 12.03495 3.64810 3.08979
C 12.75574 3.03566 -1.54511
C 13.13742 -1.64284 -1.02855
N 12.66072 1.19127 3.16265
C 12.73550 0.30982 4.14845
C 12.49440 0.90391 5.56213
C 11.63056 2.18968 5.13850
C 12.16159 2.38430 3.71977
C 10.13877 1.91197 5.05621
C 13.83083 1.31832 6.27222
C 13.69896 1.61658 7.76735
H 14.80362 1.25164 8.64997
N 12.96732 3.15920 0.86244
C 12.52106 4.00658 1.81326
C 12.56251 5.34721 1.20898
C 12.91339 5.20247 -0.23000
C 12.87111 3.76050 -0.36789
C 12.36218 6.60467 2.00402
C 13.22179 6.19781 -1.30721
O 13.26611 5.86055 -2.54298
C 13.37818 7.59651 -0.88216
N 12.75820 0.76865 -0.99465
C 12.68805 1.75423 -1.90659
C 12.67707 1.19847 -3.31066
C 12.99963 -0.36047 -3.15819
C 13.05562 -0.45783 -1.61780
C 11.37129 1.37431 -4.08552
C 14.19690 -0.91488 -3.97785
C 15.49215 -0.33653 -3.45513
N 13.30311 -0.94561 1.30791
C 13.25092 -1.95374 0.32047
C 13.28556 -3.25307 1.02259
C 13.33266 -2.90801 2.38171
C 13.30733 -1.49369 2.51789
C 13.22383 -4.53415 0.40522
C 13.38731 -3.41876 3.73258
O 13.51575 -4.53452 4.23489
C 13.10263 -2.22079 4.73768
C 14.14363 -2.26725 5.82243
O 15.34127 -2.06107 5.55834
O 13.53097 -2.33096 7.01865
C 14.52191 -2.36784 8.12703
H 11.47346 4.42951 3.60264
H 12.73006 3.62780 -2.46282
H 13.23714 -2.57099 -1.59535
H 11.91888 0.27231 6.22819
H 11.87267 3.04962 5.75757
H 9.91679 0.86262 5.18164
H 9.83042 2.24929 4.07530
H 9.59887 2.53693 5.77333
H 14.13707 2.30796 5.90950
H 14.59039 0.57691 6.11726
H 12.74607 1.25940 8.17644
H 13.65948 2.70013 7.90288
H 11.95802 6.39012 3.00102
H 11.56995 7.17464 1.50666
H 13.26300 7.22015 2.05282
H 12.46651 7.92890 -0.39141
H 13.68311 8.14168 -1.77753
H 14.17564 7.64725 -0.13243
H 13.44857 1.65948 -3.91510
H 12.15415 -0.98507 -3.48202
H 11.50109 1.91338 -5.04292
H 10.66460 1.89188 -3.45049
H 10.84246 0.45078 -4.31492
H 14.11724 -0.60370 -5.02235
H 14.26221 -1.99776 -3.96852
H 15.54983 0.63359 -3.95774
H 16.33259 -0.97222 -3.72644
H 15.43154 -0.14627 -2.37727
H 13.96267 -5.15274 0.89712
H 13.40776 -4.46894 -0.66515
H 12.18920 -4.80835 0.62797
H 12.09461 -2.35616 5.13157
H 14.30383 -3.26079 8.72098
H 14.43594 -1.39009 8.63729
H 15.56012 -2.53601 7.86572
