158

Mg 0.00000 0.00000 0.00000
C -0.21700 -2.21800 2.80100
C -1.25500 2.44200 2.02600
C -0.24500 1.85000 -2.56400
C 0.14600 -2.82400 -2.03700
N -0.61700 -0.00900 2.12600
C -0.59400 -0.90800 3.10500
C -0.93600 -0.30900 4.50200
C -1.77300 0.96400 4.03200
C -1.15500 1.16800 2.66000
C -3.26300 0.68500 3.86300
C 0.34500 0.11000 5.29900
C 0.12400 0.39700 6.78700
H 1.16800 0.03300 7.73300
N -0.18500 1.96100 -0.15200
C -0.70300 2.80000 0.77700
C -0.62000 4.15600 0.19300
C -0.18700 4.01500 -1.22500
C -0.21400 2.58300 -1.38000
C -0.88700 5.40600 0.97400
C 0.18100 5.01300 -2.27700
O 0.30300 4.69000 -3.50800
C 0.31000 6.41400 -1.83700
N -0.26500 -0.41300 -2.02900
C -0.27900 0.56900 -2.93700
C -0.19600 0.02400 -4.33200
C 0.12400 -1.53300 -4.18000
C 0.08600 -1.63200 -2.63500
C -1.45100 0.20500 -5.19700
C 1.37300 -2.07000 -4.92300
C 2.62600 -1.49000 -4.30600
N 0.15000 -2.14400 0.30300
C 0.17300 -3.13600 -0.68800
C 0.17300 -4.43800 0.00400
C 0.13300 -4.11100 1.35800
C 0.08300 -2.69500 1.50200
C 0.14900 -5.71500 -0.62300
C 0.09600 -4.62900 2.71600
O 0.20800 -5.74700 3.22100
C -0.25500 -3.42800 3.70100
C 0.71700 -3.48200 4.84800
O 1.93100 -3.25500 4.66900
O 0.03800 -3.55600 6.00300
C 0.94300 -3.58300 7.18300
H -1.85900 3.22000 2.49700
H -0.21800 2.45300 -3.47400
H 0.27600 -3.74700 -2.60500
H -1.55400 -0.94900 5.13200
H -1.58500 1.83100 4.66500
H -3.48400 -0.37700 3.96900
H -3.51100 1.02700 2.85800
H -3.85200 1.30100 4.54300
H 0.66900 1.09600 4.96600
H 1.13000 -0.63900 5.18900
H -0.84400 0.02600 7.12500
H 0.06200 1.47700 6.92100
H -1.34400 5.18600 1.93800
H -1.65100 5.96300 0.43200
H 0.00700 6.02000 1.08400
H -0.63500 6.74400 -1.40500
H 0.66500 6.97000 -2.70400
H 1.04800 6.46600 -1.03600
H 0.60800 0.50100 -4.89100
H -0.69200 -2.15600 -4.54700
H -1.26700 0.74000 -6.12900
H -2.20400 0.71400 -4.59600
H -1.96700 -0.72000 -5.45300
H 1.35600 -1.75900 -5.96700
H 1.45200 -3.15700 -4.90200
H 2.71400 -0.52200 -4.79800
H 3.48700 -2.12100 -4.52900
H 2.49500 -1.30300 -3.24000
H 0.86700 -6.33300 -0.08400
H 0.40400 -5.64200 -1.68000
H -0.89100 -5.99900 -0.46300
H -1.28300 -3.58100 4.02800
H 0.69800 -4.47800 7.75500
H 0.83300 -2.61900 7.68000
H 2.00000 -3.75400 6.97600
Mg 8.93084 0.80659 0.66889
C 10.53706 -1.78775 -1.22016
C 10.63724 3.05320 -1.24828
C 7.88560 3.09758 2.59924
C 8.26656 -1.58056 3.11960
N 10.37111 0.54423 -0.98914
C 10.85859 -0.48737 -1.66183
C 11.67537 -0.10363 -2.92483
C 12.10329 1.38248 -2.49211
C 10.95038 1.70215 -1.54276
C 13.40013 1.42911 -1.70131
C 10.79641 -0.09278 -4.22457
C 11.58566 -0.03022 -5.53413
H 11.06974 -0.75369 -6.69297
N 8.82095 2.76865 0.39170
C 9.57410 3.51609 -0.44218
C 9.11798 4.90306 -0.26207
C 8.14770 4.93502 0.86587
C 8.26543 3.57543 1.35348
C 9.54084 6.02284 -1.16799
C 7.26983 6.01466 1.42260
O 6.68335 5.88844 2.55526
C 7.19162 7.26112 0.64690
N 8.37143 0.81698 2.67121
C 7.90414 1.93568 3.25266
C 7.30897 1.63812 4.60825
C 7.25541 0.04323 4.71324
C 7.94125 -0.32143 3.37831
C 8.07099 2.20153 5.80754
C 5.87616 -0.59502 5.03416
C 4.92856 -0.38614 3.87493
N 9.15075 -1.33472 0.85456
C 8.83347 -2.13062 1.97704
C 9.26479 -3.50956 1.66893
C 9.82843 -3.41501 0.38757
C 9.77194 -2.06819 -0.06228
C 9.15763 -4.62922 2.54127
C 10.46797 -4.14636 -0.68239
O 10.70449 -5.33343 -0.90299
C 11.06965 -3.10236 -1.71894
C 10.67253 -3.53973 -3.10223
O 9.47767 -3.53775 -3.44710
O 11.77903 -3.67916 -3.85495
C 11.43593 -4.10120 -5.23914
H 11.29189 3.83399 -1.63647
H 7.41635 3.82866 3.26166
H 8.00607 -2.40076 3.79197
H 12.55709 -0.70920 -3.09691
H 12.09567 2.05915 -3.34265
H 13.75969 0.44024 -1.45842
H 13.17461 1.98196 -0.79879
H 14.14782 2.02019 -2.23791
H 10.25734 0.86146 -4.28432
H 10.13258 -0.93517 -4.24264
H 12.64949 -0.25167 -5.38523
H 11.57466 1.00041 -5.89702
H 10.38605 5.72938 -1.80274
H 9.94356 6.81627 -0.52913
H 8.71211 6.42689 -1.75334
H 8.18814 7.68297 0.53984
H 6.44785 7.87647 1.15683
H 6.84044 7.02304 -0.36335
H 6.30169 2.02922 4.68265
H 7.90710 -0.33445 5.51480
H 7.45212 2.85675 6.44924
H 8.93705 2.73643 5.44100
H 8.51975 1.45568 6.46138
H 5.42291 -0.10279 5.89812
H 5.93264 -1.65461 5.26014
H 4.54346 0.62294 4.04974
H 4.12839 -1.12323 3.89664
H 5.46983 -0.37187 2.92179
H 8.80405 -5.45788 1.94227
H 8.48600 -4.42311 3.37205
H 10.19701 -4.72273 2.86717
H 12.15225 -3.09609 -1.58656
H 11.99681 -5.01885 -5.44165
H 11.65276 -3.22639 -5.88059
H 10.41993 -4.42874 -5.42594
