79

Mg 7.89082 0.71145 0.59174
C 7.41883 4.20692 -0.07006
C 7.30929 0.15804 -2.72340
C 7.85418 -2.39861 1.21913
C 7.30325 1.41094 3.95495
N 7.43511 2.08596 -1.08017
C 7.34176 3.39935 -1.22389
C 7.23565 3.87933 -2.69628
C 6.64085 2.53602 -3.34483
C 7.18775 1.51903 -2.34517
C 5.12297 2.47166 -3.30963
C 8.63382 4.24263 -3.30876
C 8.57669 5.00825 -4.63252
H 9.59438 6.02220 -4.89462
N 8.10677 -0.84567 -0.61959
C 7.84593 -0.88946 -1.94296
C 8.14769 -2.26537 -2.36719
C 8.45045 -3.07418 -1.15521
C 8.12136 -2.12176 -0.11373
C 8.20801 -2.67749 -3.80939
C 8.94117 -4.47745 -0.96487
O 8.90698 -5.05331 0.17970
C 9.37596 -5.18977 -2.17527
N 7.41097 -0.37746 2.29655
C 7.53017 -1.71658 2.31784
C 7.39693 -2.25381 3.72284
C 7.40467 -0.96987 4.67627
C 7.45343 0.14101 3.60438
C 6.14550 -3.08629 4.00085
C 8.46084 -0.94518 5.81494
C 9.84961 -0.83271 5.22837
N 7.62423 2.49167 1.78664
C 7.36431 2.55738 3.17308
C 7.14617 3.97953 3.50822
C 7.27256 4.64531 2.27970
C 7.52987 3.70231 1.24819
C 6.82587 4.49072 4.79749
C 7.23626 5.93029 1.61923
O 7.14480 7.09811 1.99546
C 7.20390 5.69030 0.04832
C 8.22420 6.59854 -0.58143
O 9.43662 6.44125 -0.35360
O 7.62140 7.35949 -1.51307
C 8.59475 8.26949 -2.17361
H 6.91866 -0.14745 -3.69447
H 7.93877 -3.44858 1.50875
H 7.21172 1.72172 4.99789
H 6.55188 4.70419 -2.85701
H 7.05428 2.35844 -4.33422
H 4.69804 3.28889 -2.74597
H 4.87937 1.52494 -2.84549
H 4.72417 2.42010 -4.32679
H 9.12743 3.32189 -3.64540
H 9.22959 4.78683 -2.60199
H 7.57538 5.40745 -4.83492
H 8.75442 4.30384 -5.44875
H 7.77787 -1.91051 -4.46524
H 7.54055 -3.53842 -3.92412
H 9.21353 -2.96554 -4.12345
H 8.55274 -5.23252 -2.88446
H 9.77540 -6.14365 -1.82538
H 10.17401 -4.61134 -2.65395
H 8.23942 -2.88528 3.97693
H 6.44920 -0.85159 5.20818
H 6.37158 -4.10213 4.37638
H 5.56120 -3.13824 3.09176
H 5.44179 -2.64199 4.70270
H 8.43561 -1.88301 6.37528
H 8.30980 -0.14054 6.52679
H 10.09455 -1.86820 4.97374
H 10.54465 -0.43203 5.96350
H 9.83728 -0.25783 4.29509
H 7.43129 5.37585 4.94069
H 7.00988 3.75219 5.57497
H 5.75934 4.69301 4.66764
H 6.19250 5.90985 -0.29585
H 8.20873 9.28719 -2.05972
H 8.70912 7.88664 -3.20516
H 9.57658 8.36424 -1.72474
