158

Mg 0.00000 0.00000 0.00000
C -0.21700 -2.21800 2.80100
C -1.25500 2.44200 2.02600
C -0.24500 1.85000 -2.56400
C 0.14600 -2.82400 -2.03700
N -0.61700 -0.00900 2.12600
C -0.59400 -0.90800 3.10500
C -0.93600 -0.30900 4.50200
C -1.77300 0.96400 4.03200
C -1.15500 1.16800 2.66000
C -3.26300 0.68500 3.86300
C 0.34500 0.11000 5.29900
C 0.12400 0.39700 6.78700
H 1.16800 0.03300 7.73300
N -0.18500 1.96100 -0.15200
C -0.70300 2.80000 0.77700
C -0.62000 4.15600 0.19300
C -0.18700 4.01500 -1.22500
C -0.21400 2.58300 -1.38000
C -0.88700 5.40600 0.97400
C 0.18100 5.01300 -2.27700
O 0.30300 4.69000 -3.50800
C 0.31000 6.41400 -1.83700
N -0.26500 -0.41300 -2.02900
C -0.27900 0.56900 -2.93700
C -0.19600 0.02400 -4.33200
C 0.12400 -1.53300 -4.18000
C 0.08600 -1.63200 -2.63500
C -1.45100 0.20500 -5.19700
C 1.37300 -2.07000 -4.92300
C 2.62600 -1.49000 -4.30600
N 0.15000 -2.14400 0.30300
C 0.17300 -3.13600 -0.68800
C 0.17300 -4.43800 0.00400
C 0.13300 -4.11100 1.35800
C 0.08300 -2.69500 1.50200
C 0.14900 -5.71500 -0.62300
C 0.09600 -4.62900 2.71600
O 0.20800 -5.74700 3.22100
C -0.25500 -3.42800 3.70100
C 0.71700 -3.48200 4.84800
O 1.93100 -3.25500 4.66900
O 0.03800 -3.55600 6.00300
C 0.94300 -3.58300 7.18300
H -1.85900 3.22000 2.49700
H -0.21800 2.45300 -3.47400
H 0.27600 -3.74700 -2.60500
H -1.55400 -0.94900 5.13200
H -1.58500 1.83100 4.66500
H -3.48400 -0.37700 3.96900
H -3.51100 1.02700 2.85800
H -3.85200 1.30100 4.54300
H 0.66900 1.09600 4.96600
H 1.13000 -0.63900 5.18900
H -0.84400 0.02600 7.12500
H 0.06200 1.47700 6.92100
H -1.34400 5.18600 1.93800
H -1.65100 5.96300 0.43200
H 0.00700 6.02000 1.08400
H -0.63500 6.74400 -1.40500
H 0.66500 6.97000 -2.70400
H 1.04800 6.46600 -1.03600
H 0.60800 0.50100 -4.89100
H -0.69200 -2.15600 -4.54700
H -1.26700 0.74000 -6.12900
H -2.20400 0.71400 -4.59600
H -1.96700 -0.72000 -5.45300
H 1.35600 -1.75900 -5.96700
H 1.45200 -3.15700 -4.90200
H 2.71400 -0.52200 -4.79800
H 3.48700 -2.12100 -4.52900
H 2.49500 -1.30300 -3.24000
H 0.86700 -6.33300 -0.08400
H 0.40400 -5.64200 -1.68000
H -0.89100 -5.99900 -0.46300
H -1.28300 -3.58100 4.02800
H 0.69800 -4.47800 7.75500
H 0.83300 -2.61900 7.68000
H 2.00000 -3.75400 6.97600
Mg 31.53256 2.83880 2.39533
C 31.71281 1.29048 -0.82685
C 30.83193 -0.24626 3.67383
C 30.92175 4.24724 5.17019
C 31.12087 5.88160 0.74683
N 31.32754 0.85078 1.44329
C 31.47993 0.38250 0.20852
C 31.44407 -1.17305 0.12888
C 30.61229 -1.47391 1.45539
C 30.97209 -0.23363 2.25425
C 29.10300 -1.49627 1.23622
C 32.87524 -1.80487 0.19441
C 32.95621 -3.28187 -0.20215
H 34.13564 -3.75257 -0.91259
N 31.44149 2.08817 4.22046
C 31.15953 0.80624 4.55576
C 31.21314 0.74997 6.03246
C 31.36201 2.14373 6.53581
C 31.21953 2.89423 5.31441
C 31.17427 -0.53033 6.80904
C 31.58515 2.71000 7.90244
O 31.45335 3.95700 8.15183
C 31.87940 1.74205 8.97461
N 30.86568 4.75127 2.90069
C 30.74052 5.12292 4.17944
C 30.52615 6.60264 4.29950
C 30.77404 7.20496 2.84159
C 31.02172 5.88059 2.07808
C 29.14404 7.03988 4.80409
C 31.82589 8.33572 2.71743
C 33.20548 7.78720 3.00546
N 31.60666 3.52883 0.33877
C 31.38244 4.83458 -0.12104
C 31.43381 4.78869 -1.59390
C 31.66939 3.44777 -1.89100
C 31.73335 2.69879 -0.68136
C 31.21479 5.88815 -2.47007
C 31.85744 2.46939 -2.94990
O 31.99453 2.53044 -4.17260
C 31.77167 1.01430 -2.30867
C 32.93718 0.21852 -2.82987
O 34.10724 0.51560 -2.51355
O 32.48460 -0.89895 -3.41891
C 33.59228 -1.74857 -3.93209
H 30.37573 -1.11557 4.15146
H 30.81342 4.79261 6.11001
H 31.08538 6.80617 0.16773
H 30.91811 -1.57172 -0.73879
H 30.96834 -2.36920 1.96472
H 28.84194 -1.17350 0.22846
H 28.69139 -0.80826 1.97494
H 28.69104 -2.47652 1.47744
H 33.18991 -1.87482 1.23564
H 33.57860 -1.23038 -0.40938
H 32.04849 -3.60844 -0.71040
H 32.98615 -3.87907 0.70925
H 30.89449 -1.37308 6.17814
H 30.35708 -0.44384 7.52488
H 32.10854 -0.71764 7.33855
H 31.05443 1.03406 9.05664
H 32.09784 2.33413 9.86262
H 32.75680 1.15912 8.69300
H 31.23791 7.04574 4.99482
H 29.86729 7.63763 2.41819
H 29.18134 7.66477 5.69674
H 28.54995 6.14333 4.97889
H 28.53395 7.56423 4.06906
H 31.63149 9.11671 3.45175
H 31.84137 8.80286 1.73265
H 33.25778 7.81876 4.09317
H 33.96921 8.42499 2.55920
H 33.28914 6.74248 2.70539
H 31.98263 5.82167 -3.24077
H 31.27014 6.83678 -1.93654
H 30.20825 5.66651 -2.82449
H 30.81629 0.59138 -2.61770
H 33.40557 -1.91286 -4.99340
H 33.63649 -2.62448 -3.28459
H 34.57904 -1.28545 -3.96601
