158

Mg 0.00000 0.00000 0.00000
C -0.21700 -2.21800 2.80100
C -1.25500 2.44200 2.02600
C -0.24500 1.85000 -2.56400
C 0.14600 -2.82400 -2.03700
N -0.61700 -0.00900 2.12600
C -0.59400 -0.90800 3.10500
C -0.93600 -0.30900 4.50200
C -1.77300 0.96400 4.03200
C -1.15500 1.16800 2.66000
C -3.26300 0.68500 3.86300
C 0.34500 0.11000 5.29900
C 0.12400 0.39700 6.78700
H 1.16800 0.03300 7.73300
N -0.18500 1.96100 -0.15200
C -0.70300 2.80000 0.77700
C -0.62000 4.15600 0.19300
C -0.18700 4.01500 -1.22500
C -0.21400 2.58300 -1.38000
C -0.88700 5.40600 0.97400
C 0.18100 5.01300 -2.27700
O 0.30300 4.69000 -3.50800
C 0.31000 6.41400 -1.83700
N -0.26500 -0.41300 -2.02900
C -0.27900 0.56900 -2.93700
C -0.19600 0.02400 -4.33200
C 0.12400 -1.53300 -4.18000
C 0.08600 -1.63200 -2.63500
C -1.45100 0.20500 -5.19700
C 1.37300 -2.07000 -4.92300
C 2.62600 -1.49000 -4.30600
N 0.15000 -2.14400 0.30300
C 0.17300 -3.13600 -0.68800
C 0.17300 -4.43800 0.00400
C 0.13300 -4.11100 1.35800
C 0.08300 -2.69500 1.50200
C 0.14900 -5.71500 -0.62300
C 0.09600 -4.62900 2.71600
O 0.20800 -5.74700 3.22100
C -0.25500 -3.42800 3.70100
C 0.71700 -3.48200 4.84800
O 1.93100 -3.25500 4.66900
O 0.03800 -3.55600 6.00300
C 0.94300 -3.58300 7.18300
H -1.85900 3.22000 2.49700
H -0.21800 2.45300 -3.47400
H 0.27600 -3.74700 -2.60500
H -1.55400 -0.94900 5.13200
H -1.58500 1.83100 4.66500
H -3.48400 -0.37700 3.96900
H -3.51100 1.02700 2.85800
H -3.85200 1.30100 4.54300
H 0.66900 1.09600 4.96600
H 1.13000 -0.63900 5.18900
H -0.84400 0.02600 7.12500
H 0.06200 1.47700 6.92100
H -1.34400 5.18600 1.93800
H -1.65100 5.96300 0.43200
H 0.00700 6.02000 1.08400
H -0.63500 6.74400 -1.40500
H 0.66500 6.97000 -2.70400
H 1.04800 6.46600 -1.03600
H 0.60800 0.50100 -4.89100
H -0.69200 -2.15600 -4.54700
H -1.26700 0.74000 -6.12900
H -2.20400 0.71400 -4.59600
H -1.96700 -0.72000 -5.45300
H 1.35600 -1.75900 -5.96700
H 1.45200 -3.15700 -4.90200
H 2.71400 -0.52200 -4.79800
H 3.48700 -2.12100 -4.52900
H 2.49500 -1.30300 -3.24000
H 0.86700 -6.33300 -0.08400
H 0.40400 -5.64200 -1.68000
H -0.89100 -5.99900 -0.46300
H -1.28300 -3.58100 4.02800
H 0.69800 -4.47800 7.75500
H 0.83300 -2.61900 7.68000
H 2.00000 -3.75400 6.97600
Mg 31.53256 2.83880 2.39533
C 30.91449 5.35776 4.86212
C 30.62367 5.13368 0.03937
C 31.63233 0.50994 0.24519
C 31.28738 0.48354 4.95233
N 30.87440 4.94643 2.55463
C 30.73696 5.81265 3.55360
C 30.46026 7.26917 3.07471
C 29.83985 6.94928 1.64127
C 30.51225 5.61338 1.37821
C 28.32880 6.74263 1.66372
C 31.77245 8.11512 2.95520
C 31.56522 9.62569 2.81175
H 32.51945 10.52630 3.44080
N 31.65505 2.91842 0.42517
C 31.25184 3.93783 -0.37077
C 31.55555 3.51817 -1.75581
C 31.99311 2.09517 -1.71451
C 31.74945 1.77225 -0.33185
C 31.46684 4.44009 -2.93307
C 32.53365 1.16970 -2.75827
O 32.63182 -0.09031 -2.56511
C 32.86695 1.77238 -4.06162
N 31.25233 0.77421 2.52413
C 31.40985 -0.01167 1.45336
C 31.43898 -1.46088 1.83924
C 31.51203 -1.49231 3.43405
C 31.42490 0.03007 3.70432
C 30.24635 -2.30347 1.36629
C 32.67970 -2.28849 4.06893
C 33.99301 -1.60241 3.76627
N 31.34397 2.88740 4.55707
C 31.23603 1.78642 5.41896
C 31.02022 2.32002 6.77644
C 31.00093 3.70296 6.60636
C 31.16630 4.01277 5.22615
C 30.81388 1.54668 7.95280
C 30.85444 4.99023 7.26616
O 30.78175 5.36028 8.43888
C 30.67068 6.10861 6.14755
C 31.59703 7.24509 6.48458
O 32.83518 7.09894 6.42990
O 30.88922 8.38059 6.58547
C 31.75281 9.55276 6.88943
H 30.13630 5.69075 -0.76318
H 31.77206 -0.32247 -0.44763
H 31.28635 -0.18884 5.81219
H 29.73726 7.81683 3.67949
H 30.14495 7.68086 0.89332
H 27.94465 6.72175 2.68349
H 28.15881 5.78400 1.17318
H 27.82666 7.48819 1.04665
H 32.25169 7.90203 1.99970
H 32.43505 7.92067 3.79929
H 30.54438 9.91372 3.06438
H 31.66724 9.88589 1.75814
H 30.96010 5.36958 -2.67658
H 30.80993 3.96453 -3.66110
H 32.44203 4.62529 -3.38367
H 31.97464 2.23652 -4.48222
H 33.32250 0.97843 -4.65236
H 33.58616 2.57685 -3.90506
H 32.31905 -1.95651 1.43151
H 30.61822 -1.93347 3.87582
H 30.53119 -3.16513 0.76204
H 29.56749 -1.64963 0.81954
H 29.59993 -2.66884 2.16384
H 32.73399 -3.28858 3.64020
H 32.58994 -2.39553 5.15002
H 34.23988 -1.97645 2.77330
H 34.75136 -1.89485 4.49331
H 33.86868 -0.52232 3.68600
H 31.41603 2.01188 8.73317
H 31.10052 0.50670 7.79833
H 29.73927 1.66793 8.08825
H 29.62436 6.41119 6.17571
H 31.36030 10.01422 7.79564
H 31.78148 10.15955 5.98423
H 32.77522 9.33124 7.19753
