158

Mg 0.00000 0.00000 0.00000
C -0.21700 -2.21800 2.80100
C -1.25500 2.44200 2.02600
C -0.24500 1.85000 -2.56400
C 0.14600 -2.82400 -2.03700
N -0.61700 -0.00900 2.12600
C -0.59400 -0.90800 3.10500
C -0.93600 -0.30900 4.50200
C -1.77300 0.96400 4.03200
C -1.15500 1.16800 2.66000
C -3.26300 0.68500 3.86300
C 0.34500 0.11000 5.29900
C 0.12400 0.39700 6.78700
H 1.16800 0.03300 7.73300
N -0.18500 1.96100 -0.15200
C -0.70300 2.80000 0.77700
C -0.62000 4.15600 0.19300
C -0.18700 4.01500 -1.22500
C -0.21400 2.58300 -1.38000
C -0.88700 5.40600 0.97400
C 0.18100 5.01300 -2.27700
O 0.30300 4.69000 -3.50800
C 0.31000 6.41400 -1.83700
N -0.26500 -0.41300 -2.02900
C -0.27900 0.56900 -2.93700
C -0.19600 0.02400 -4.33200
C 0.12400 -1.53300 -4.18000
C 0.08600 -1.63200 -2.63500
C -1.45100 0.20500 -5.19700
C 1.37300 -2.07000 -4.92300
C 2.62600 -1.49000 -4.30600
N 0.15000 -2.14400 0.30300
C 0.17300 -3.13600 -0.68800
C 0.17300 -4.43800 0.00400
C 0.13300 -4.11100 1.35800
C 0.08300 -2.69500 1.50200
C 0.14900 -5.71500 -0.62300
C 0.09600 -4.62900 2.71600
O 0.20800 -5.74700 3.22100
C -0.25500 -3.42800 3.70100
C 0.71700 -3.48200 4.84800
O 1.93100 -3.25500 4.66900
O 0.03800 -3.55600 6.00300
C 0.94300 -3.58300 7.18300
H -1.85900 3.22000 2.49700
H -0.21800 2.45300 -3.47400
H 0.27600 -3.74700 -2.60500
H -1.55400 -0.94900 5.13200
H -1.58500 1.83100 4.66500
H -3.48400 -0.37700 3.96900
H -3.51100 1.02700 2.85800
H -3.85200 1.30100 4.54300
H 0.66900 1.09600 4.96600
H 1.13000 -0.63900 5.18900
H -0.84400 0.02600 7.12500
H 0.06200 1.47700 6.92100
H -1.34400 5.18600 1.93800
H -1.65100 5.96300 0.43200
H 0.00700 6.02000 1.08400
H -0.63500 6.74400 -1.40500
H 0.66500 6.97000 -2.70400
H 1.04800 6.46600 -1.03600
H 0.60800 0.50100 -4.89100
H -0.69200 -2.15600 -4.54700
H -1.26700 0.74000 -6.12900
H -2.20400 0.71400 -4.59600
H -1.96700 -0.72000 -5.45300
H 1.35600 -1.75900 -5.96700
H 1.45200 -3.15700 -4.90200
H 2.71400 -0.52200 -4.79800
H 3.48700 -2.12100 -4.52900
H 2.49500 -1.30300 -3.24000
H 0.86700 -6.33300 -0.08400
H 0.40400 -5.64200 -1.68000
H -0.89100 -5.99900 -0.46300
H -1.28300 -3.58100 4.02800
H 0.69800 -4.47800 7.75500
H 0.83300 -2.61900 7.68000
H 2.00000 -3.75400 6.97600
Mg 31.53895 2.83542 2.40308
C 29.13791 1.90253 4.90185
C 32.80381 5.05675 4.66149
C 33.37109 3.99527 0.08674
C 29.41621 1.41519 0.03187
N 30.96049 3.32395 4.48129
C 30.07166 2.86118 5.34743
C 30.24126 3.40039 6.79313
C 31.01527 4.76531 6.45145
C 31.66653 4.35347 5.13277
C 30.08284 5.93397 6.17915
C 31.11609 2.45199 7.68601
C 31.06788 2.75501 9.18522
H 31.13013 1.63777 10.12349
N 33.18502 3.93988 2.49892
C 33.55249 4.76754 3.49952
C 34.83157 5.36163 3.08100
C 35.10711 4.94281 1.67979
C 33.86106 4.27888 1.35324
C 35.69585 6.16777 4.00652
C 36.29067 5.12268 0.77810
O 36.22136 4.88496 -0.47948
C 37.50632 5.67421 1.39412
N 31.31942 2.91346 0.33715
C 32.28854 3.42465 -0.44223
C 32.03136 3.12482 -1.89974
C 30.80914 2.09358 -1.91707
C 30.49981 2.04235 -0.40475
C 31.69269 4.32978 -2.77709
C 31.02905 0.75421 -2.67232
C 32.05695 -0.08436 -1.94734
N 29.71680 1.67516 2.44323
C 28.98042 1.20486 1.33388
C 27.75710 0.56700 1.86213
C 27.85624 0.73210 3.25188
C 29.04666 1.44177 3.56614
C 26.71944 -0.01609 1.08150
C 27.21928 0.47673 4.52380
O 26.23188 -0.16029 4.88848
C 27.95785 1.33403 5.64001
C 28.23276 0.43230 6.81210
O 29.02072 -0.52364 6.70296
O 27.69259 0.97236 7.91976
C 27.94826 0.11973 9.11118
H 33.13118 5.94061 5.20967
H 34.02150 4.27722 -0.74449
H 28.75223 0.86287 -0.63653
H 29.31348 3.61806 7.30852
H 31.77329 4.98710 7.19816
H 29.04879 5.62469 6.14426
H 30.38928 6.33826 5.22328
H 30.25160 6.72927 6.91082
H 32.17703 2.65179 7.48796
H 30.85858 1.42457 7.51655
H 30.24123 3.42804 9.44334
H 31.96531 3.31719 9.45465
H 35.15619 6.44671 4.91995
H 35.89597 7.12195 3.50716
H 36.64678 5.67847 4.22787
H 37.28292 6.64681 1.82609
H 38.26875 5.64485 0.61327
H 37.80493 5.02279 2.22303
H 32.89405 2.65501 -2.35598
H 29.92139 2.52206 -2.40506
H 32.37716 4.44890 -3.63814
H 31.70299 5.21673 -2.15761
H 30.68042 4.33947 -3.17760
H 31.43137 0.94393 -3.67048
H 30.12077 0.17398 -2.79613
H 33.00630 0.31941 -2.31174
H 31.94823 -1.13484 -2.20947
H 32.01706 0.09197 -0.86615
H 26.45287 -0.94721 1.56363
H 27.03764 -0.17665 0.05352
H 25.95642 0.76313 1.15806
H 27.29969 2.16206 5.90603
H 26.97498 -0.10374 9.55892
H 28.67091 0.68235 9.73166
H 28.33623 -0.87755 8.93986
