79

Mg 31.53985 2.84136 2.40258
C 30.54679 0.73679 5.13455
C 31.03077 5.50819 4.46739
C 31.97218 4.73809 -0.10400
C 30.87141 0.16163 0.27704
N 30.87508 2.97698 4.50780
C 30.58553 2.10764 5.46423
C 30.40128 2.73698 6.87119
C 30.01088 4.22751 6.41865
C 30.70889 4.26135 5.06060
C 28.51992 4.41725 6.19422
C 31.72621 2.72031 7.71161
C 31.54841 3.03405 9.19879
H 32.40158 2.34425 10.16251
N 31.98018 4.77453 2.31569
C 31.72208 5.71079 3.25274
C 32.22415 6.97951 2.70279
C 32.65069 6.74502 1.29646
C 32.18812 5.38522 1.10395
C 32.33809 8.23272 3.52127
C 33.34683 7.60694 0.28716
O 33.40502 7.28086 -0.95103
C 33.87712 8.88880 0.77410
N 31.23704 2.57392 0.36319
C 31.55538 3.54051 -0.51560
C 31.51120 3.02429 -1.93403
C 31.33160 1.44007 -1.80926
C 31.20812 1.31949 -0.27446
C 30.39985 3.59437 -2.81511
C 32.37798 0.55355 -2.53854
C 33.73128 0.70689 -1.88243
N 31.01599 0.75902 2.64237
C 30.75625 -0.17852 1.61884
C 30.32949 -1.43173 2.27440
C 30.34856 -1.12689 3.64378
C 30.73881 0.22715 3.82759
C 29.94288 -2.62898 1.60864
C 30.11703 -1.63953 4.97506
O 29.85378 -2.74499 5.44663
C 30.11292 -0.41882 5.99301
C 30.98262 -0.78729 7.16364
O 32.20607 -0.95328 7.01459
O 30.26800 -0.67004 8.29764
C 31.09084 -1.01434 9.48768
H 30.68529 6.41973 4.95587
H 32.21439 5.31641 -0.99863
H 30.73973 -0.74889 -0.31144
H 29.60098 2.30568 7.46048
H 30.44117 4.96872 7.08710
H 27.98037 3.48427 6.26187
H 28.42308 4.83925 5.20246
H 28.12813 5.17176 6.88237
H 32.35031 3.57246 7.41313
H 32.23745 1.78413 7.59841
H 30.49763 2.98074 9.50855
H 31.82537 4.07730 9.36889
H 31.79469 8.14427 4.47011
H 31.80639 9.02011 2.97614
H 33.37377 8.54472 3.67190
H 33.06596 9.47927 1.19343
H 34.41657 9.32168 -0.07058
H 34.57719 8.68934 1.59308
H 32.43997 3.23305 -2.45066
H 30.37191 1.10448 -2.22906
H 30.77729 4.07513 -3.73733
H 29.82527 4.29788 -2.22734
H 29.64118 2.87706 -3.12345
H 32.49623 0.88154 -3.57420
H 32.11188 -0.49793 -2.56212
H 34.12710 1.61701 -2.34295
H 34.36228 -0.15237 -2.10049
H 33.62831 0.89900 -0.80812
H 30.40977 -3.44641 2.14185
H 30.23929 -2.61530 0.56187
H 28.85744 -2.57708 1.72861
H 29.07832 -0.24395 6.29066
H 30.55749 -1.80280 10.02763
H 31.25594 -0.06036 10.02287
H 32.04972 -1.48846 9.31386
