79

Mg 10.50347 0.95002 0.80506
C 8.14918 -1.75855 0.80136
C 7.99671 2.93336 -0.38539
C 12.65637 3.23982 0.37001
C 13.04014 -1.43830 0.88847
N 8.38906 0.52678 0.31273
C 7.58929 -0.52452 0.41006
C 6.09040 -0.21900 0.14633
C 6.26838 1.09898 -0.75374
C 7.61879 1.57649 -0.22359
C 6.41600 0.79985 -2.23633
C 5.30188 0.08971 1.46729
C 3.77859 0.09251 1.32123
H 2.97185 -0.40301 2.43303
N 10.26776 2.90638 0.56912
C 9.17664 3.54314 0.09448
C 9.51311 4.97525 0.09832
C 10.94992 5.11855 0.45855
C 11.36129 3.72900 0.45957
C 8.49425 6.05114 -0.14210
C 11.81411 6.30998 0.74118
O 13.09110 6.21680 0.79995
C 11.12811 7.60538 0.85446
N 12.54941 0.91038 0.43775
C 13.25675 2.04984 0.34169
C 14.74120 1.77292 0.35227
C 14.88656 0.22342 0.72040
C 13.39274 -0.16524 0.77367
C 15.48017 2.05658 -0.95534
C 15.78601 -0.12964 1.93654
C 15.15044 0.37459 3.21216
N 10.61207 -1.19658 1.02494
C 11.77444 -1.99822 1.00626
C 11.33335 -3.40637 1.07690
C 9.93296 -3.32654 1.10882
C 9.52918 -1.96571 1.04104
C 12.18476 -4.54688 1.05544
C 8.70418 -4.08457 1.17371
O 8.42325 -5.27171 1.33338
C 7.49129 -3.10964 0.84998
C 6.42587 -3.33318 1.88797
O 6.63461 -3.04631 3.07992
O 5.26958 -3.64199 1.27315
C 4.17960 -3.86208 2.26073
H 7.34916 3.58592 -0.97167
H 13.44416 3.99565 0.33010
H 13.77296 -2.23763 1.01773
H 5.56268 -0.98247 -0.41260
H 5.49415 1.83112 -0.53949
H 6.49552 -0.25999 -2.42753
H 7.31714 1.30973 -2.55100
H 5.59765 1.26044 -2.79713
H 5.46590 1.13877 1.74535
H 5.58869 -0.58645 2.24908
H 3.45413 -0.36329 0.37788
H 3.43881 1.12854 1.24912
H 7.56041 5.63838 -0.54332
H 8.88077 6.68298 -0.94909
H 8.32039 6.67127 0.73987
H 10.59130 7.81167 -0.06844
H 11.89991 8.32024 1.14631
H 10.37518 7.53437 1.64735
H 15.23923 2.36282 1.11194
H 15.33160 -0.35146 -0.10501
H 16.31564 2.77235 -0.83812
H 14.76446 2.42277 -1.67936
H 15.88675 1.17935 -1.45570
H 16.75245 0.37325 1.85146
H 15.98324 -1.19200 2.03392
H 15.45778 1.42420 3.24286
H 15.53050 -0.17328 4.07207
H 14.05669 0.35329 3.14204
H 11.81338 -5.22690 1.81052
H 13.22118 -4.27286 1.24122
H 12.02808 -4.88793 0.02860
H 7.13986 -3.34647 -0.15500
H 3.76933 -4.85801 2.06709
H 3.49267 -3.00288 2.14394
H 4.45864 -3.94756 3.30441
