158

Mg 0.00000 0.00000 0.00000
C -0.21700 -2.21800 2.80100
C -1.25500 2.44200 2.02600
C -0.24500 1.85000 -2.56400
C 0.14600 -2.82400 -2.03700
N -0.61700 -0.00900 2.12600
C -0.59400 -0.90800 3.10500
C -0.93600 -0.30900 4.50200
C -1.77300 0.96400 4.03200
C -1.15500 1.16800 2.66000
C -3.26300 0.68500 3.86300
C 0.34500 0.11000 5.29900
C 0.12400 0.39700 6.78700
H 1.16800 0.03300 7.73300
N -0.18500 1.96100 -0.15200
C -0.70300 2.80000 0.77700
C -0.62000 4.15600 0.19300
C -0.18700 4.01500 -1.22500
C -0.21400 2.58300 -1.38000
C -0.88700 5.40600 0.97400
C 0.18100 5.01300 -2.27700
O 0.30300 4.69000 -3.50800
C 0.31000 6.41400 -1.83700
N -0.26500 -0.41300 -2.02900
C -0.27900 0.56900 -2.93700
C -0.19600 0.02400 -4.33200
C 0.12400 -1.53300 -4.18000
C 0.08600 -1.63200 -2.63500
C -1.45100 0.20500 -5.19700
C 1.37300 -2.07000 -4.92300
C 2.62600 -1.49000 -4.30600
N 0.15000 -2.14400 0.30300
C 0.17300 -3.13600 -0.68800
C 0.17300 -4.43800 0.00400
C 0.13300 -4.11100 1.35800
C 0.08300 -2.69500 1.50200
C 0.14900 -5.71500 -0.62300
C 0.09600 -4.62900 2.71600
O 0.20800 -5.74700 3.22100
C -0.25500 -3.42800 3.70100
C 0.71700 -3.48200 4.84800
O 1.93100 -3.25500 4.66900
O 0.03800 -3.55600 6.00300
C 0.94300 -3.58300 7.18300
H -1.85900 3.22000 2.49700
H -0.21800 2.45300 -3.47400
H 0.27600 -3.74700 -2.60500
H -1.55400 -0.94900 5.13200
H -1.58500 1.83100 4.66500
H -3.48400 -0.37700 3.96900
H -3.51100 1.02700 2.85800
H -3.85200 1.30100 4.54300
H 0.66900 1.09600 4.96600
H 1.13000 -0.63900 5.18900
H -0.84400 0.02600 7.12500
H 0.06200 1.47700 6.92100
H -1.34400 5.18600 1.93800
H -1.65100 5.96300 0.43200
H 0.00700 6.02000 1.08400
H -0.63500 6.74400 -1.40500
H 0.66500 6.97000 -2.70400
H 1.04800 6.46600 -1.03600
H 0.60800 0.50100 -4.89100
H -0.69200 -2.15600 -4.54700
H -1.26700 0.74000 -6.12900
H -2.20400 0.71400 -4.59600
H -1.96700 -0.72000 -5.45300
H 1.35600 -1.75900 -5.96700
H 1.45200 -3.15700 -4.90200
H 2.71400 -0.52200 -4.79800
H 3.48700 -2.12100 -4.52900
H 2.49500 -1.30300 -3.24000
H 0.86700 -6.33300 -0.08400
H 0.40400 -5.64200 -1.68000
H -0.89100 -5.99900 -0.46300
H -1.28300 -3.58100 4.02800
H 0.69800 -4.47800 7.75500
H 0.83300 -2.61900 7.68000
H 2.00000 -3.75400 6.97600
Mg 7.88515 0.71803 0.60507
C 9.25618 -0.91533 3.49151
C 5.44522 1.94947 2.64588
C 6.40216 1.79676 -1.98423
C 9.70867 -1.51521 -1.35277
N 7.50721 0.47793 2.77112
C 8.13023 -0.11560 3.77805
C 7.55955 0.22847 5.18001
C 6.07132 0.64058 4.73932
C 6.35523 1.08577 3.30619
C 5.11009 -0.53552 4.69257
C 8.31238 1.42911 5.85360
C 8.01571 1.62017 7.34264
H 9.09334 2.08157 8.21344
N 6.47850 2.10500 0.41482
C 5.58881 2.49549 1.35143
C 4.75772 3.52703 0.71161
C 5.12271 3.59621 -0.72947
C 6.02028 2.46281 -0.82877
C 3.79206 4.38430 1.47713
C 4.71943 4.52073 -1.83800
O 4.97368 4.25181 -3.06514
C 3.93631 5.70385 -1.45272
N 7.86414 0.08399 -1.37480
C 7.17735 0.76245 -2.31072
C 7.53058 0.28553 -3.69931
C 8.78177 -0.69279 -3.51224
C 8.88364 -0.68151 -1.97117
C 6.42084 -0.44647 -4.45365
C 10.05642 -0.37129 -4.33963
C 10.67253 0.92203 -3.85682
N 9.38027 -0.80050 0.96109
C 9.99262 -1.63618 0.00153
C 10.85503 -2.58399 0.73662
C 10.66533 -2.24624 2.08511
C 9.73391 -1.17758 2.18470
C 11.63515 -3.62243 0.15425
C 11.03312 -2.55776 3.44760
O 11.84937 -3.31130 3.97641
C 10.04082 -1.79354 4.42623
C 10.86399 -1.12332 5.49192
O 11.64729 -0.20257 5.19991
O 10.43383 -1.52826 6.70079
C 11.21250 -0.88222 7.79080
H 4.51101 2.20121 3.14864
H 6.00301 2.20308 -2.91646
H 10.38459 -2.17835 -1.89688
H 7.52514 -0.60349 5.87315
H 5.70057 1.47355 5.33099
H 5.61655 -1.47626 4.84959
H 4.65927 -0.50806 3.70919
H 4.29275 -0.38283 5.40319
H 7.90940 2.37089 5.45939
H 9.37136 1.34710 5.70375
H 7.51652 0.74642 7.77890
H 7.28670 2.42696 7.45051
H 3.61900 3.99205 2.48687
H 2.82018 4.29327 0.98011
H 4.08383 5.43658 1.49275
H 3.02390 5.38616 -0.95366
H 3.82012 6.28803 -2.36766
H 4.51145 6.28061 -0.71980
H 7.82464 1.11543 -4.33010
H 8.53883 -1.72524 -3.80356
H 6.17486 0.01821 -5.42712
H 5.54542 -0.48595 -3.81912
H 6.61246 -1.50023 -4.64877
H 9.79742 -0.21850 -5.39022
H 10.80440 -1.15627 -4.30322
H 10.09245 1.68423 -4.38564
H 11.72547 0.96916 -4.12727
H 10.50097 1.06305 -2.78336
H 12.59757 -3.60314 0.64809
H 11.73629 -3.48856 -0.92075
H 11.02042 -4.49144 0.40364
H 9.35653 -2.53381 4.84253
H 11.61999 -1.68586 8.41193
H 10.51526 -0.17415 8.27684
H 12.11523 -0.35013 7.51438
