79

Mg 31.53256 2.83880 2.39533
C 31.73142 0.89597 -0.60435
C 30.78664 -0.05464 4.04295
C 30.90654 4.59041 4.96371
C 31.16981 5.65361 0.37272
N 31.31736 0.74871 1.69829
C 31.47816 0.12752 0.53406
C 31.42719 -1.42532 0.65012
C 30.57820 -1.54958 1.99391
C 30.94213 -0.22190 2.63480
C 29.07119 -1.58600 1.76131
C 32.85101 -2.05650 0.81159
C 32.92106 -3.57231 0.60477
H 34.10314 -4.13903 -0.02677
N 31.41424 2.32453 4.29911
C 31.11556 1.09749 4.78946
C 31.15275 1.22693 6.26206
C 31.31053 2.67156 6.58801
C 31.18886 3.26371 5.28036
C 31.09243 0.05487 7.19286
C 31.52481 3.40323 7.87520
O 31.40315 4.67281 7.96432
C 31.79760 2.57527 9.06394
N 30.87997 4.80546 2.64836
C 30.74493 5.33609 3.86868
C 30.54449 6.82099 3.79928
C 30.81416 7.23295 2.28029
C 31.05640 5.82092 1.69227
C 29.16161 7.33043 4.22840
C 31.87883 8.32978 2.02756
C 33.24955 7.80967 2.39866
N 31.63577 3.26400 0.26939
C 31.42991 4.50348 -0.35351
C 31.49658 4.27225 -1.80821
C 31.72156 2.90258 -1.93161
C 31.76486 2.31116 -0.63676
C 31.29826 5.25466 -2.81814
C 31.91089 1.79716 -2.85685
O 32.06170 1.70272 -4.07580
C 31.80332 0.43509 -2.03891
C 32.96612 -0.43019 -2.44204
O 34.13571 -0.10603 -2.15164
O 32.50843 -1.60884 -2.89133
C 33.61277 -2.52601 -3.28042
H 30.31645 -0.85290 4.62056
H 30.79375 5.25059 5.82619
H 31.15003 6.49828 -0.31836
H 30.90649 -1.92529 -0.16678
H 30.91956 -2.37681 2.61592
H 28.82427 -1.39025 0.71794
H 28.65877 -0.80692 2.40275
H 28.64663 -2.52444 2.11888
H 33.15377 -1.99771 1.85703
H 33.56666 -1.56875 0.14881
H 32.01553 -3.95217 0.13081
H 32.93510 -4.05037 1.58429
H 30.81079 -0.85804 6.66958
H 30.26854 0.23793 7.88236
H 32.01900 -0.07260 7.75281
H 30.96458 1.89053 9.22445
H 32.01257 3.27238 9.87305
H 32.67194 1.95381 8.86830
H 31.25327 7.34173 4.44184
H 29.91648 7.61692 1.79509
H 29.19576 8.06227 5.03583
H 28.55652 6.46827 4.50739
H 28.56485 7.76353 3.42609
H 31.68460 9.19860 2.65554
H 31.90966 8.66919 0.99214
H 33.29052 7.97733 3.47432
H 34.02453 8.37949 1.88493
H 33.32569 6.73481 2.23328
H 32.07359 5.08500 -3.56517
H 31.35763 6.26234 -2.40744
H 30.29336 4.99911 -3.15388
H 30.84702 -0.01488 -2.30371
H 33.43576 -2.82082 -4.31483
H 33.64104 -3.31387 -2.52751
H 34.60454 -2.07956 -3.36051
