79

Mg 7.88995 0.71371 0.60590
C 7.35577 -1.49127 3.38651
C 6.92362 3.27372 2.64236
C 7.91626 2.61337 -1.93536
C 7.70127 -2.08089 -1.46783
N 7.24688 0.75934 2.72171
C 7.14184 -0.13188 3.69590
C 6.86624 0.47644 5.09717
C 6.19527 1.85908 4.63135
C 6.85166 1.99929 3.25942
C 4.69167 1.76184 4.43375
C 8.18459 0.72338 5.91140
C 7.97595 1.02437 7.39721
H 8.95952 0.52392 8.35356
N 7.95778 2.69332 0.48294
C 7.54413 3.58094 1.41154
C 7.78966 4.91141 0.83386
C 8.22906 4.73632 -0.57717
C 8.02699 3.31071 -0.74121
C 7.67986 6.17798 1.63209
C 8.73389 5.69558 -1.61214
O 8.83156 5.36442 -2.84649
C 9.02203 7.06253 -1.15398
N 7.60865 0.35831 -1.42312
C 7.72500 1.35181 -2.32163
C 7.75483 0.81153 -3.73146
C 7.87812 -0.77581 -3.58072
C 7.80522 -0.89033 -2.04223
C 6.54158 1.14745 -4.59840
C 9.06005 -1.46306 -4.31789
C 10.37124 -1.04709 -3.69088
N 7.77065 -1.42537 0.88548
C 7.67455 -2.41289 -0.11933
C 7.50182 -3.71215 0.56224
C 7.48622 -3.38504 1.92651
C 7.61820 -1.97881 2.08337
C 7.33591 -4.97221 -0.07873
C 7.37744 -3.90846 3.26923
O 7.33446 -5.03519 3.76154
C 7.16114 -2.69242 4.26967
C 8.10404 -2.87055 5.42800
O 9.33423 -2.80673 5.25717
O 7.39921 -2.86943 6.57411
C 8.29189 -3.03226 7.75243
H 6.42130 4.11276 3.12461
H 8.03051 3.21100 -2.84270
H 7.73314 -3.01017 -2.04062
H 6.17117 -0.08685 5.70821
H 6.48981 2.67951 5.28059
H 4.33818 0.74556 4.52526
H 4.50069 2.14063 3.43821
H 4.17671 2.44149 5.11874
H 8.63242 1.67205 5.58859
H 8.86062 -0.10216 5.80139
H 6.95922 0.78039 7.72839
H 8.05482 2.10389 7.54699
H 7.17871 6.00592 2.59263
H 7.00066 6.84194 1.08646
H 8.64087 6.68129 1.75778
H 8.12153 7.49768 -0.72712
H 9.45635 7.57394 -2.01520
H 9.76072 7.01237 -0.34624
H 8.61907 1.18165 -4.26923
H 6.99167 -1.29277 -3.97668
H 6.80650 1.67413 -5.53461
H 5.85501 1.74096 -4.00942
H 5.92610 0.29525 -4.88149
H 9.09722 -1.13702 -5.36023
H 8.99584 -2.54604 -4.32130
H 10.58129 -0.08714 -4.17199
H 11.14868 -1.77646 -3.90917
H 10.25202 -0.85879 -2.61758
H 7.95689 -5.67804 0.45669
H 7.60690 -4.92163 -1.13124
H 6.26220 -5.12269 0.06192
H 6.11724 -2.70948 4.58519
H 7.92525 -3.89712 8.31392
H 8.28380 -2.05497 8.27067
H 9.31971 -3.32112 7.56643
