79

Mg 15.76628 1.41940 1.19766
C 15.60229 -1.13512 3.69961
C 14.51399 3.57442 3.52805
C 15.47439 3.57434 -1.11051
C 15.91293 -1.12457 -1.17980
N 15.17477 1.13697 3.31214
C 15.21738 0.12235 4.16998
C 14.88678 0.53750 5.63482
C 14.03302 1.85081 5.33766
C 14.63280 2.23194 3.99567
C 12.54364 1.57998 5.15089
C 16.17344 0.86614 6.46441
C 15.96767 0.96159 7.97898
H 17.02605 0.49233 8.86044
N 15.56216 3.38195 1.29551
C 15.04788 4.09219 2.32816
C 15.11193 5.51161 1.91849
C 15.52922 5.55438 0.48946
C 15.51303 4.15301 0.15588
C 14.84322 6.65075 2.85333
C 15.87582 6.68040 -0.43254
O 15.98598 6.51593 -1.69562
C 15.99767 8.01625 0.17877
N 15.48077 1.26196 -0.86421
C 15.44727 2.35009 -1.64129
C 15.51844 1.98560 -3.09456
C 15.85398 0.42520 -3.14304
C 15.83528 0.13245 -1.62245
C 14.25167 2.26097 -3.91643
C 17.09873 -0.00132 -3.96103
C 18.35382 0.50938 -3.28944
N 15.93882 -0.74403 1.22697
C 15.95877 -1.60334 0.11888
C 15.97852 -2.98191 0.64158
C 15.95178 -2.82808 2.02630
C 15.89099 -1.44199 2.34779
C 15.95833 -4.17017 -0.14077
C 15.93555 -3.51299 3.30868
O 16.06343 -4.68438 3.66783
C 15.58572 -2.44896 4.44063
C 16.57176 -2.63669 5.56124
O 17.78149 -2.37655 5.39922
O 15.90726 -2.86222 6.70497
C 16.82647 -3.02800 7.86244
H 13.90880 4.28082 4.09961
H 15.48521 4.28716 -1.93768
H 16.04430 -1.96749 -1.86074
H 14.28202 -0.18291 6.18590
H 14.22089 2.63327 6.07263
H 12.33331 0.51087 5.12483
H 12.28066 2.04300 4.19960
H 11.95737 2.09956 5.90924
H 16.48472 1.88945 6.25462
H 16.96366 0.14500 6.25267
H 15.00708 0.54114 8.27798
H 15.89773 2.01549 8.24841
H 14.39971 6.30667 3.78684
H 14.06792 7.26357 2.39391
H 15.73301 7.25520 3.03010
H 15.05501 8.27962 0.65895
H 16.33738 8.68041 -0.61516
H 16.74468 7.97475 0.97200
H 16.31148 2.53729 -3.59771
H 15.03920 -0.15508 -3.57672
H 14.41981 2.91071 -4.77566
H 13.50142 2.68265 -3.24815
H 13.74085 1.37023 -4.28120
H 17.06654 0.43822 -4.95738
H 17.18758 -1.08147 -4.07776
H 18.42739 1.53239 -3.65669
H 19.21764 -0.07972 -3.59925
H 18.23389 0.55958 -2.20704
H 16.68814 -4.84360 0.30850
H 16.20006 -3.96230 -1.18286
H 14.92286 -4.48268 -0.00662
H 14.56308 -2.65238 4.75678
H 16.59622 -3.99026 8.31992
H 16.71388 -2.13528 8.47789
H 17.88239 -3.16078 7.62426
