158

Mg 0.00000 0.00000 0.00000
C -0.21700 -2.21800 2.80100
C -1.25500 2.44200 2.02600
C -0.24500 1.85000 -2.56400
C 0.14600 -2.82400 -2.03700
N -0.61700 -0.00900 2.12600
C -0.59400 -0.90800 3.10500
C -0.93600 -0.30900 4.50200
C -1.77300 0.96400 4.03200
C -1.15500 1.16800 2.66000
C -3.26300 0.68500 3.86300
C 0.34500 0.11000 5.29900
C 0.12400 0.39700 6.78700
H 1.16800 0.03300 7.73300
N -0.18500 1.96100 -0.15200
C -0.70300 2.80000 0.77700
C -0.62000 4.15600 0.19300
C -0.18700 4.01500 -1.22500
C -0.21400 2.58300 -1.38000
C -0.88700 5.40600 0.97400
C 0.18100 5.01300 -2.27700
O 0.30300 4.69000 -3.50800
C 0.31000 6.41400 -1.83700
N -0.26500 -0.41300 -2.02900
C -0.27900 0.56900 -2.93700
C -0.19600 0.02400 -4.33200
C 0.12400 -1.53300 -4.18000
C 0.08600 -1.63200 -2.63500
C -1.45100 0.20500 -5.19700
C 1.37300 -2.07000 -4.92300
C 2.62600 -1.49000 -4.30600
N 0.15000 -2.14400 0.30300
C 0.17300 -3.13600 -0.68800
C 0.17300 -4.43800 0.00400
C 0.13300 -4.11100 1.35800
C 0.08300 -2.69500 1.50200
C 0.14900 -5.71500 -0.62300
C 0.09600 -4.62900 2.71600
O 0.20800 -5.74700 3.22100
C -0.25500 -3.42800 3.70100
C 0.71700 -3.48200 4.84800
O 1.93100 -3.25500 4.66900
O 0.03800 -3.55600 6.00300
C 0.94300 -3.58300 7.18300
H -1.85900 3.22000 2.49700
H -0.21800 2.45300 -3.47400
H 0.27600 -3.74700 -2.60500
H -1.55400 -0.94900 5.13200
H -1.58500 1.83100 4.66500
H -3.48400 -0.37700 3.96900
H -3.51100 1.02700 2.85800
H -3.85200 1.30100 4.54300
H 0.66900 1.09600 4.96600
H 1.13000 -0.63900 5.18900
H -0.84400 0.02600 7.12500
H 0.06200 1.47700 6.92100
H -1.34400 5.18600 1.93800
H -1.65100 5.96300 0.43200
H 0.00700 6.02000 1.08400
H -0.63500 6.74400 -1.40500
H 0.66500 6.97000 -2.70400
H 1.04800 6.46600 -1.03600
H 0.60800 0.50100 -4.89100
H -0.69200 -2.15600 -4.54700
H -1.26700 0.74000 -6.12900
H -2.20400 0.71400 -4.59600
H -1.96700 -0.72000 -5.45300
H 1.35600 -1.75900 -5.96700
H 1.45200 -3.15700 -4.90200
H 2.71400 -0.52200 -4.79800
H 3.48700 -2.12100 -4.52900
H 2.49500 -1.30300 -3.24000
H 0.86700 -6.33300 -0.08400
H 0.40400 -5.64200 -1.68000
H -0.89100 -5.99900 -0.46300
H -1.28300 -3.58100 4.02800
H 0.69800 -4.47800 7.75500
H 0.83300 -2.61900 7.68000
H 2.00000 -3.75400 6.97600
Mg 13.14208 1.17656 1.00584
C 10.44949 1.44858 3.36275
C 15.18774 2.44405 3.42315
C 15.43578 1.37280 -1.17770
C 10.73795 1.02785 -1.51284
N 12.75187 1.82374 3.08458
C 11.70199 1.82338 3.89211
C 12.02681 2.17163 5.36953
C 13.38026 3.00178 5.12893
C 13.82746 2.36466 3.81487
C 13.14259 4.48280 4.88512
C 12.28446 0.89332 6.24220
C 12.30205 1.13861 7.75259
H 11.76505 0.10391 8.63208
N 15.10791 1.34481 1.21980
C 15.77018 1.86266 2.27550
C 17.19893 1.77646 1.93580
C 17.31885 1.31717 0.52535
C 15.92815 1.34774 0.11902
C 18.28973 2.03757 2.93351
C 18.49246 0.92859 -0.32191
O 18.38963 0.79028 -1.59200
C 19.78587 0.80602 0.36624
N 13.10619 1.41040 -1.05968
C 14.24462 1.41184 -1.77515
C 13.95905 1.31571 -3.25487
C 12.39470 1.00445 -3.37119
C 12.01266 1.06557 -1.87596
C 14.29296 2.55899 -4.07897
C 11.98594 -0.25205 -4.18776
C 12.43996 -1.50339 -3.47126
N 10.98757 1.04066 0.91824
C 10.18081 1.01692 -0.24049
C 8.77348 1.03471 0.20842
C 8.85987 1.09126 1.60764
C 10.22463 1.12795 2.00210
C 7.63003 1.04838 -0.63921
C 8.10681 1.13899 2.84025
O 6.91564 1.04822 3.13455
C 9.10133 1.50012 4.02638
C 8.84063 0.54449 5.15834
O 9.07617 -0.66960 5.02750
O 8.56440 1.24620 6.27265
C 8.30939 0.34229 7.42579
H 15.86794 3.04348 4.02887
H 16.18811 1.32914 -1.96864
H 9.92975 0.88464 -2.23323
H 11.29041 2.79559 5.86163
H 14.10719 2.80806 5.91341
H 12.09125 4.71286 4.79633
H 13.66005 4.71600 3.96376
H 13.63090 5.07609 5.66351
H 13.32002 0.56118 6.09373
H 11.57456 0.12361 6.00936
H 11.88798 2.11955 8.01573
H 13.34211 1.18911 8.08386
H 17.89945 2.51613 3.84018
H 18.95257 2.79017 2.49295
H 18.87339 1.14354 3.16310
H 20.03365 1.75259 0.84065
H 20.48349 0.43439 -0.38682
H 19.68604 0.06786 1.16983
H 14.51379 0.50087 -3.70366
H 11.85233 1.82241 -3.86779
H 14.99843 2.35725 -4.90704
H 14.69320 3.31227 -3.41345
H 13.43513 3.06815 -4.51496
H 12.48644 -0.25172 -5.15918
H 10.91933 -0.31729 -4.37505
H 13.48560 -1.59835 -3.77901
H 11.85444 -2.36251 -3.79240
H 12.42785 -1.36094 -2.38442
H 6.92114 0.34856 -0.21703
H 7.89012 0.78372 -1.66199
H 7.33314 2.09673 -0.54932
H 8.90876 2.53504 4.31174
H 7.32480 0.60417 7.82538
H 9.17663 0.46753 8.10104
H 8.17873 -0.71290 7.21616
