158

Mg 0.00000 0.00000 0.00000
C -0.21700 -2.21800 2.80100
C -1.25500 2.44200 2.02600
C -0.24500 1.85000 -2.56400
C 0.14600 -2.82400 -2.03700
N -0.61700 -0.00900 2.12600
C -0.59400 -0.90800 3.10500
C -0.93600 -0.30900 4.50200
C -1.77300 0.96400 4.03200
C -1.15500 1.16800 2.66000
C -3.26300 0.68500 3.86300
C 0.34500 0.11000 5.29900
C 0.12400 0.39700 6.78700
H 1.16800 0.03300 7.73300
N -0.18500 1.96100 -0.15200
C -0.70300 2.80000 0.77700
C -0.62000 4.15600 0.19300
C -0.18700 4.01500 -1.22500
C -0.21400 2.58300 -1.38000
C -0.88700 5.40600 0.97400
C 0.18100 5.01300 -2.27700
O 0.30300 4.69000 -3.50800
C 0.31000 6.41400 -1.83700
N -0.26500 -0.41300 -2.02900
C -0.27900 0.56900 -2.93700
C -0.19600 0.02400 -4.33200
C 0.12400 -1.53300 -4.18000
C 0.08600 -1.63200 -2.63500
C -1.45100 0.20500 -5.19700
C 1.37300 -2.07000 -4.92300
C 2.62600 -1.49000 -4.30600
N 0.15000 -2.14400 0.30300
C 0.17300 -3.13600 -0.68800
C 0.17300 -4.43800 0.00400
C 0.13300 -4.11100 1.35800
C 0.08300 -2.69500 1.50200
C 0.14900 -5.71500 -0.62300
C 0.09600 -4.62900 2.71600
O 0.20800 -5.74700 3.22100
C -0.25500 -3.42800 3.70100
C 0.71700 -3.48200 4.84800
O 1.93100 -3.25500 4.66900
O 0.03800 -3.55600 6.00300
C 0.94300 -3.58300 7.18300
H -1.85900 3.22000 2.49700
H -0.21800 2.45300 -3.47400
H 0.27600 -3.74700 -2.60500
H -1.55400 -0.94900 5.13200
H -1.58500 1.83100 4.66500
H -3.48400 -0.37700 3.96900
H -3.51100 1.02700 2.85800
H -3.85200 1.30100 4.54300
H 0.66900 1.09600 4.96600
H 1.13000 -0.63900 5.18900
H -0.84400 0.02600 7.12500
H 0.06200 1.47700 6.92100
H -1.34400 5.18600 1.93800
H -1.65100 5.96300 0.43200
H 0.00700 6.02000 1.08400
H -0.63500 6.74400 -1.40500
H 0.66500 6.97000 -2.70400
H 1.04800 6.46600 -1.03600
H 0.60800 0.50100 -4.89100
H -0.69200 -2.15600 -4.54700
H -1.26700 0.74000 -6.12900
H -2.20400 0.71400 -4.59600
H -1.96700 -0.72000 -5.45300
H 1.35600 -1.75900 -5.96700
H 1.45200 -3.15700 -4.90200
H 2.71400 -0.52200 -4.79800
H 3.48700 -2.12100 -4.52900
H 2.49500 -1.30300 -3.24000
H 0.86700 -6.33300 -0.08400
H 0.40400 -5.64200 -1.68000
H -0.89100 -5.99900 -0.46300
H -1.28300 -3.58100 4.02800
H 0.69800 -4.47800 7.75500
H 0.83300 -2.61900 7.68000
H 2.00000 -3.75400 6.97600
Mg 15.76628 1.41940 1.19766
C 15.67269 2.93068 -2.04571
C 15.27274 -1.58132 -0.34996
C 15.39167 0.12386 4.06783
C 15.11830 4.57600 2.52493
N 15.52107 0.87272 -0.93345
C 15.56488 1.53869 -2.08312
C 15.56153 0.61115 -3.33493
C 14.87047 -0.67463 -2.69366
C 15.27406 -0.46981 -1.24415
C 13.34811 -0.65829 -2.78666
C 17.00809 0.29129 -3.84176
C 17.08818 -0.33231 -5.23821
H 18.20480 0.02310 -6.10087
N 15.87217 -0.46674 1.77568
C 15.65720 -1.56224 1.00823
C 15.85533 -2.72757 1.89673
C 16.01643 -2.21775 3.28677
C 15.73678 -0.81689 3.10036
C 15.92501 -4.13886 1.39959
C 16.35653 -2.88865 4.57997
O 16.21750 -2.30232 5.70756
C 16.77829 -4.29873 4.49748
N 15.10259 2.18175 3.02413
C 15.09262 1.42326 4.12576
C 14.85289 2.24884 5.35494
C 14.94250 3.77322 4.88803
C 15.14891 3.54347 3.37051
C 13.51549 2.01188 6.06995
C 15.94786 4.68105 5.64003
C 17.36255 4.23830 5.34053
N 15.62259 3.44341 0.42709
C 15.32126 4.60341 1.15529
C 15.23057 5.71067 0.18584
C 15.47065 5.11098 -1.04889
C 15.67099 3.71294 -0.86547
C 14.89929 7.06035 0.49089
C 15.58014 5.32194 -2.48324
O 15.59627 6.31255 -3.21530
C 15.59452 3.89962 -3.19923
C 16.72403 3.90241 -4.19297
O 17.91123 3.95448 -3.81192
O 16.24533 3.60572 -5.41090
C 17.31947 3.56296 -6.43879
H 14.88760 -2.54068 -0.70100
H 15.36107 -0.26264 5.08867
H 15.00296 5.60342 2.87502
H 14.96426 0.97719 -4.17022
H 15.29721 -1.60060 -3.07862
H 12.98223 0.29663 -3.16373
H 12.99257 -0.82761 -1.77009
H 12.98688 -1.50225 -3.37489
H 17.42405 -0.52427 -3.25024
H 17.63448 1.18340 -3.80884
H 16.14412 -0.23162 -5.77442
H 17.22182 -1.40816 -5.12467
H 15.60710 -4.21358 0.36041
H 15.17922 -4.70873 1.95344
H 16.91079 -4.57901 1.55076
H 15.98369 -4.88565 4.03630
H 17.06658 -4.58598 5.50804
H 17.63893 -4.37150 3.83193
H 15.61715 2.06035 6.10781
H 13.98808 4.28978 4.99257
H 13.62317 1.72531 7.11637
H 12.96447 1.25534 5.51201
H 12.82363 2.85306 6.03586
H 15.80561 4.59385 6.71665
H 15.85564 5.73503 5.37760
H 17.51937 3.42736 6.05089
H 18.06268 5.05499 5.51955
H 17.44356 3.81466 4.33930
H 15.59014 7.68054 -0.08013
H 14.98173 7.25645 1.55970
H 13.86915 7.10030 0.13726
H 14.62486 3.78184 -3.68193
H 17.03490 4.25725 -7.22949
H 17.44887 2.51462 -6.70834
H 18.28603 3.97256 -6.14327
