79

Mg 10.51803 0.94206 0.80500
C 10.70846 -2.41057 -0.46097
C 9.52931 -0.39753 3.78201
C 9.90723 3.88754 1.81419
C 10.40163 2.03602 -2.50187
N 10.19799 -1.14824 1.45345
C 10.36119 -2.34250 0.90439
C 10.21822 -3.53017 1.89361
C 9.30437 -2.81165 3.00153
C 9.72342 -1.36266 2.76174
C 7.81526 -2.93059 2.72272
C 11.59772 -3.98013 2.49070
C 11.57455 -5.32476 3.22090
H 12.74848 -6.18819 3.12686
N 10.29826 1.64903 2.64632
C 9.91169 0.96132 3.74126
C 9.88588 1.93775 4.84130
C 10.12921 3.29138 4.27279
C 10.09969 2.99118 2.85536
C 9.72618 1.53901 6.27968
C 10.33932 4.63594 4.90064
O 10.29544 5.71540 4.21094
C 10.50502 4.65875 6.36129
N 9.98756 2.69065 -0.18664
C 9.83290 3.84588 0.48375
C 9.72465 5.01639 -0.46419
C 10.08270 4.43318 -1.90961
C 10.25657 2.94245 -1.54505
C 8.36137 5.70562 -0.51720
C 11.22327 5.14084 -2.69128
C 12.54492 4.91472 -1.99308
N 10.73237 0.03200 -1.14279
C 10.62178 0.66846 -2.39849
C 10.73019 -0.38297 -3.43056
C 10.87440 -1.57048 -2.69741
C 10.83684 -1.28207 -1.30640
C 10.64244 -0.18051 -4.83678
C 11.03922 -3.00368 -2.78386
O 11.22310 -3.80321 -3.70075
C 10.81224 -3.62651 -1.33923
C 11.93290 -4.59265 -1.06864
O 13.10370 -4.18790 -0.95897
O 11.41355 -5.79727 -0.76942
C 12.48594 -6.78691 -0.48231
H 8.99579 -0.69682 4.68459
H 9.80276 4.93486 2.10691
H 10.47303 2.30756 -3.55725
H 9.70489 -4.39596 1.49276
H 9.57882 -3.12689 4.00486
H 7.62020 -3.37865 1.75973
H 7.42826 -1.92053 2.75541
H 7.32121 -3.46911 3.53650
H 11.85979 -3.31747 3.32553
H 12.35515 -3.99435 1.73127
H 10.66115 -5.89353 3.00839
H 11.52811 -5.13505 4.29601
H 9.40205 0.49526 6.37415
H 8.88959 2.12067 6.68175
H 10.61815 1.74465 6.87531
H 9.62788 4.22020 6.83114
H 10.73261 5.69630 6.61342
H 11.35598 4.02159 6.62684
H 10.44076 5.78795 -0.20930
H 9.22525 4.49086 -2.59611
H 8.40976 6.78693 -0.28808
H 7.69654 5.20051 0.17085
H 7.83154 5.60903 -1.46333
H 11.05988 6.22125 -2.70411
H 11.30640 4.81543 -3.72288
H 12.54892 5.68560 -1.21667
H 13.37250 5.04887 -2.68674
H 12.56297 3.94066 -1.49055
H 11.42615 -0.77553 -5.28650
H 10.74383 0.87177 -5.09405
H 9.63213 -0.55357 -5.02486
H 9.83919 -4.11918 -1.34408
H 12.32770 -7.63416 -1.15671
H 12.42317 -6.98885 0.60352
H 13.50397 -6.50824 -0.72806
