158

Mg 0.00000 0.00000 0.00000
C -0.21700 -2.21800 2.80100
C -1.25500 2.44200 2.02600
C -0.24500 1.85000 -2.56400
C 0.14600 -2.82400 -2.03700
N -0.61700 -0.00900 2.12600
C -0.59400 -0.90800 3.10500
C -0.93600 -0.30900 4.50200
C -1.77300 0.96400 4.03200
C -1.15500 1.16800 2.66000
C -3.26300 0.68500 3.86300
C 0.34500 0.11000 5.29900
C 0.12400 0.39700 6.78700
H 1.16800 0.03300 7.73300
N -0.18500 1.96100 -0.15200
C -0.70300 2.80000 0.77700
C -0.62000 4.15600 0.19300
C -0.18700 4.01500 -1.22500
C -0.21400 2.58300 -1.38000
C -0.88700 5.40600 0.97400
C 0.18100 5.01300 -2.27700
O 0.30300 4.69000 -3.50800
C 0.31000 6.41400 -1.83700
N -0.26500 -0.41300 -2.02900
C -0.27900 0.56900 -2.93700
C -0.19600 0.02400 -4.33200
C 0.12400 -1.53300 -4.18000
C 0.08600 -1.63200 -2.63500
C -1.45100 0.20500 -5.19700
C 1.37300 -2.07000 -4.92300
C 2.62600 -1.49000 -4.30600
N 0.15000 -2.14400 0.30300
C 0.17300 -3.13600 -0.68800
C 0.17300 -4.43800 0.00400
C 0.13300 -4.11100 1.35800
C 0.08300 -2.69500 1.50200
C 0.14900 -5.71500 -0.62300
C 0.09600 -4.62900 2.71600
O 0.20800 -5.74700 3.22100
C -0.25500 -3.42800 3.70100
C 0.71700 -3.48200 4.84800
O 1.93100 -3.25500 4.66900
O 0.03800 -3.55600 6.00300
C 0.94300 -3.58300 7.18300
H -1.85900 3.22000 2.49700
H -0.21800 2.45300 -3.47400
H 0.27600 -3.74700 -2.60500
H -1.55400 -0.94900 5.13200
H -1.58500 1.83100 4.66500
H -3.48400 -0.37700 3.96900
H -3.51100 1.02700 2.85800
H -3.85200 1.30100 4.54300
H 0.66900 1.09600 4.96600
H 1.13000 -0.63900 5.18900
H -0.84400 0.02600 7.12500
H 0.06200 1.47700 6.92100
H -1.34400 5.18600 1.93800
H -1.65100 5.96300 0.43200
H 0.00700 6.02000 1.08400
H -0.63500 6.74400 -1.40500
H 0.66500 6.97000 -2.70400
H 1.04800 6.46600 -1.03600
H 0.60800 0.50100 -4.89100
H -0.69200 -2.15600 -4.54700
H -1.26700 0.74000 -6.12900
H -2.20400 0.71400 -4.59600
H -1.96700 -0.72000 -5.45300
H 1.35600 -1.75900 -5.96700
H 1.45200 -3.15700 -4.90200
H 2.71400 -0.52200 -4.79800
H 3.48700 -2.12100 -4.52900
H 2.49500 -1.30300 -3.24000
H 0.86700 -6.33300 -0.08400
H 0.40400 -5.64200 -1.68000
H -0.89100 -5.99900 -0.46300
H -1.28300 -3.58100 4.02800
H 0.69800 -4.47800 7.75500
H 0.83300 -2.61900 7.68000
H 2.00000 -3.75400 6.97600
Mg 10.51863 0.94704 0.79128
C 10.08966 4.33555 -0.31013
C 9.96701 -0.01378 -2.43473
C 10.44334 -2.05896 1.80405
C 9.90226 2.06915 4.03268
N 10.09499 2.10432 -1.04543
C 10.01667 3.38997 -1.35416
C 9.93128 3.68187 -2.87635
C 9.32971 2.27296 -3.35799
C 9.85540 1.38499 -2.23201
C 7.81096 2.22696 -3.33308
C 11.33959 3.95288 -3.51293
C 11.30451 4.54640 -4.92298
H 12.33530 5.51029 -5.29828
N 10.73155 -0.75192 -0.21210
C 10.48447 -0.95950 -1.52250
C 10.77662 -2.38046 -1.76682
C 11.05805 -3.03305 -0.45929
C 10.72762 -1.95433 0.45024
C 10.84816 -2.97121 -3.14498
C 11.53228 -4.40551 -0.08828
O 11.47991 -4.83251 1.11910
C 11.97267 -5.26823 -1.19429
N 10.00938 0.08549 2.61357
C 10.11460 -1.24132 2.80440
C 9.96080 -1.59636 4.26409
C 9.97150 -0.20282 5.04863
C 10.04315 0.76394 3.84629
C 8.69799 -2.37618 4.62957
C 11.01561 -0.04444 6.18768
C 12.41167 -0.01891 5.60822
N 10.25753 2.86571 1.74972
C 9.98346 3.10757 3.11372
C 9.77636 4.56245 3.26485
C 9.92272 5.06728 1.96400
C 10.18139 3.99979 1.06231
C 9.44752 5.23455 4.47575
C 9.90670 6.25925 1.14690
O 9.82320 7.46588 1.37227
C 9.88871 5.82387 -0.38167
C 10.92497 6.63665 -1.10836
O 12.13320 6.49855 -0.84813
O 10.34003 7.27967 -2.13536
C 11.32969 8.09073 -2.89337
H 9.58368 -0.43552 -3.36429
H 10.51404 -3.06488 2.22431
H 9.80276 2.50944 5.02712
H 9.25777 4.48597 -3.14761
H 9.75187 1.96871 -4.31223
H 7.38842 3.11232 -2.88170
H 7.55269 1.34832 -2.75659
H 7.42257 2.05139 -4.34038
H 11.82730 2.99278 -3.72527
H 11.93331 4.57637 -2.87310
H 10.30958 4.92580 -5.18587
H 11.48373 3.74337 -5.64205
H 10.43296 -2.28905 -3.89709
H 10.17317 -3.83381 -3.15856
H 11.85397 -3.30535 -3.40834
H 11.15671 -5.39256 -1.90225
H 12.35853 -6.17402 -0.72257
H 12.78171 -4.76167 -1.73232
H 10.79399 -2.19828 4.60555
H 9.01165 -0.01014 5.55003
H 8.90958 -3.33867 5.13245
H 8.12296 -2.53690 3.72732
H 7.99139 -1.84093 5.26158
H 10.97475 -0.90409 6.86110
H 10.86522 0.84465 6.79092
H 12.64868 -1.08034 5.48868
H 13.10286 0.46489 6.29540
H 12.41524 0.43410 4.61001
H 10.06043 6.12528 4.51379
H 9.61560 4.59807 5.34202
H 8.38457 5.42832 4.30881
H 8.88336 6.00732 -0.76273
H 10.95295 9.11804 -2.91288
H 11.45117 7.58017 -3.86719
H 12.30757 8.23250 -2.44829
