158

Mg 0.00000 0.00000 0.00000
C -0.21700 -2.21800 2.80100
C -1.25500 2.44200 2.02600
C -0.24500 1.85000 -2.56400
C 0.14600 -2.82400 -2.03700
N -0.61700 -0.00900 2.12600
C -0.59400 -0.90800 3.10500
C -0.93600 -0.30900 4.50200
C -1.77300 0.96400 4.03200
C -1.15500 1.16800 2.66000
C -3.26300 0.68500 3.86300
C 0.34500 0.11000 5.29900
C 0.12400 0.39700 6.78700
H 1.16800 0.03300 7.73300
N -0.18500 1.96100 -0.15200
C -0.70300 2.80000 0.77700
C -0.62000 4.15600 0.19300
C -0.18700 4.01500 -1.22500
C -0.21400 2.58300 -1.38000
C -0.88700 5.40600 0.97400
C 0.18100 5.01300 -2.27700
O 0.30300 4.69000 -3.50800
C 0.31000 6.41400 -1.83700
N -0.26500 -0.41300 -2.02900
C -0.27900 0.56900 -2.93700
C -0.19600 0.02400 -4.33200
C 0.12400 -1.53300 -4.18000
C 0.08600 -1.63200 -2.63500
C -1.45100 0.20500 -5.19700
C 1.37300 -2.07000 -4.92300
C 2.62600 -1.49000 -4.30600
N 0.15000 -2.14400 0.30300
C 0.17300 -3.13600 -0.68800
C 0.17300 -4.43800 0.00400
C 0.13300 -4.11100 1.35800
C 0.08300 -2.69500 1.50200
C 0.14900 -5.71500 -0.62300
C 0.09600 -4.62900 2.71600
O 0.20800 -5.74700 3.22100
C -0.25500 -3.42800 3.70100
C 0.71700 -3.48200 4.84800
O 1.93100 -3.25500 4.66900
O 0.03800 -3.55600 6.00300
C 0.94300 -3.58300 7.18300
H -1.85900 3.22000 2.49700
H -0.21800 2.45300 -3.47400
H 0.27600 -3.74700 -2.60500
H -1.55400 -0.94900 5.13200
H -1.58500 1.83100 4.66500
H -3.48400 -0.37700 3.96900
H -3.51100 1.02700 2.85800
H -3.85200 1.30100 4.54300
H 0.66900 1.09600 4.96600
H 1.13000 -0.63900 5.18900
H -0.84400 0.02600 7.12500
H 0.06200 1.47700 6.92100
H -1.34400 5.18600 1.93800
H -1.65100 5.96300 0.43200
H 0.00700 6.02000 1.08400
H -0.63500 6.74400 -1.40500
H 0.66500 6.97000 -2.70400
H 1.04800 6.46600 -1.03600
H 0.60800 0.50100 -4.89100
H -0.69200 -2.15600 -4.54700
H -1.26700 0.74000 -6.12900
H -2.20400 0.71400 -4.59600
H -1.96700 -0.72000 -5.45300
H 1.35600 -1.75900 -5.96700
H 1.45200 -3.15700 -4.90200
H 2.71400 -0.52200 -4.79800
H 3.48700 -2.12100 -4.52900
H 2.49500 -1.30300 -3.24000
H 0.86700 -6.33300 -0.08400
H 0.40400 -5.64200 -1.68000
H -0.89100 -5.99900 -0.46300
H -1.28300 -3.58100 4.02800
H 0.69800 -4.47800 7.75500
H 0.83300 -2.61900 7.68000
H 2.00000 -3.75400 6.97600
Mg 15.77396 1.42115 1.19057
C 15.30197 4.91662 0.52877
C 15.19243 0.86774 -2.12457
C 15.73732 -1.68891 1.81796
C 15.18639 2.12064 4.55378
N 15.31825 2.79566 -0.48134
C 15.22490 4.10905 -0.62506
C 15.11879 4.58903 -2.09745
C 14.52399 3.24572 -2.74599
C 15.07089 2.22873 -1.74634
C 13.00611 3.18136 -2.71079
C 16.51696 4.95233 -2.70993
C 16.45983 5.71795 -4.03368
H 17.47752 6.73190 -4.29579
N 15.98991 -0.13597 -0.02076
C 15.72907 -0.17976 -1.34413
C 16.03083 -1.55567 -1.76836
C 16.33359 -2.36448 -0.55638
C 16.00450 -1.41206 0.48510
C 16.09115 -1.96779 -3.21056
C 16.82431 -3.76775 -0.36604
O 16.79012 -4.34361 0.77853
C 17.25909 -4.48007 -1.57644
N 15.29411 0.33224 2.89538
C 15.41331 -1.00688 2.91668
C 15.28007 -1.54411 4.32168
C 15.28781 -0.26017 5.27510
C 15.33657 0.85071 4.20321
C 14.02864 -2.37659 4.59968
C 16.34398 -0.23548 6.41377
C 17.73275 -0.12301 5.82720
N 15.50736 3.20137 2.38547
C 15.24745 3.26708 3.77191
C 15.02931 4.68923 4.10705
C 15.15570 5.35501 2.87853
C 15.41301 4.41201 1.84702
C 14.70901 5.20042 5.39632
C 15.11940 6.63999 2.21806
O 15.02794 7.80781 2.59429
C 15.08703 6.40000 0.64715
C 16.10734 7.30824 0.01740
O 17.31976 7.15095 0.24523
O 15.50454 8.06919 -0.91424
C 16.47789 8.97919 -1.57478
H 14.80180 0.56225 -3.09563
H 15.82190 -2.73888 2.10758
H 15.09486 2.43142 5.59672
H 14.43502 5.41389 -2.25818
H 14.93742 3.06814 -3.73539
H 12.58118 3.99859 -2.14714
H 12.76251 2.23464 -2.24666
H 12.60731 3.12980 -3.72796
H 17.01057 4.03159 -3.04657
H 17.11273 5.49653 -2.00316
H 15.45852 6.11715 -4.23608
H 16.63756 5.01354 -4.84992
H 15.66101 -1.20081 -3.86640
H 15.42369 -2.82872 -3.32529
H 17.09667 -2.25584 -3.52462
H 16.43588 -4.52282 -2.28563
H 17.65854 -5.43395 -1.22655
H 18.05715 -3.90164 -2.05512
H 16.12256 -2.17558 4.57577
H 14.33234 -0.14189 5.80702
H 14.25471 -3.39243 4.97521
H 13.44434 -2.42854 3.69059
H 13.32493 -1.93229 5.30153
H 16.31875 -1.17331 6.97412
H 16.19294 0.56916 7.12562
H 17.97769 -1.15850 5.57257
H 18.42779 0.27767 6.56233
H 17.72042 0.45187 4.89392
H 15.31443 6.08555 5.53952
H 14.89302 4.46189 6.17381
H 13.64248 5.40272 5.26648
H 14.07564 6.61955 0.30298
H 16.09187 9.99689 -1.46089
H 16.59226 8.59634 -2.60633
H 17.45972 9.07394 -1.12590
