158

Mg 0.00000 0.00000 0.00000
C -0.21700 -2.21800 2.80100
C -1.25500 2.44200 2.02600
C -0.24500 1.85000 -2.56400
C 0.14600 -2.82400 -2.03700
N -0.61700 -0.00900 2.12600
C -0.59400 -0.90800 3.10500
C -0.93600 -0.30900 4.50200
C -1.77300 0.96400 4.03200
C -1.15500 1.16800 2.66000
C -3.26300 0.68500 3.86300
C 0.34500 0.11000 5.29900
C 0.12400 0.39700 6.78700
H 1.16800 0.03300 7.73300
N -0.18500 1.96100 -0.15200
C -0.70300 2.80000 0.77700
C -0.62000 4.15600 0.19300
C -0.18700 4.01500 -1.22500
C -0.21400 2.58300 -1.38000
C -0.88700 5.40600 0.97400
C 0.18100 5.01300 -2.27700
O 0.30300 4.69000 -3.50800
C 0.31000 6.41400 -1.83700
N -0.26500 -0.41300 -2.02900
C -0.27900 0.56900 -2.93700
C -0.19600 0.02400 -4.33200
C 0.12400 -1.53300 -4.18000
C 0.08600 -1.63200 -2.63500
C -1.45100 0.20500 -5.19700
C 1.37300 -2.07000 -4.92300
C 2.62600 -1.49000 -4.30600
N 0.15000 -2.14400 0.30300
C 0.17300 -3.13600 -0.68800
C 0.17300 -4.43800 0.00400
C 0.13300 -4.11100 1.35800
C 0.08300 -2.69500 1.50200
C 0.14900 -5.71500 -0.62300
C 0.09600 -4.62900 2.71600
O 0.20800 -5.74700 3.22100
C -0.25500 -3.42800 3.70100
C 0.71700 -3.48200 4.84800
O 1.93100 -3.25500 4.66900
O 0.03800 -3.55600 6.00300
C 0.94300 -3.58300 7.18300
H -1.85900 3.22000 2.49700
H -0.21800 2.45300 -3.47400
H 0.27600 -3.74700 -2.60500
H -1.55400 -0.94900 5.13200
H -1.58500 1.83100 4.66500
H -3.48400 -0.37700 3.96900
H -3.51100 1.02700 2.85800
H -3.85200 1.30100 4.54300
H 0.66900 1.09600 4.96600
H 1.13000 -0.63900 5.18900
H -0.84400 0.02600 7.12500
H 0.06200 1.47700 6.92100
H -1.34400 5.18600 1.93800
H -1.65100 5.96300 0.43200
H 0.00700 6.02000 1.08400
H -0.63500 6.74400 -1.40500
H 0.66500 6.97000 -2.70400
H 1.04800 6.46600 -1.03600
H 0.60800 0.50100 -4.89100
H -0.69200 -2.15600 -4.54700
H -1.26700 0.74000 -6.12900
H -2.20400 0.71400 -4.59600
H -1.96700 -0.72000 -5.45300
H 1.35600 -1.75900 -5.96700
H 1.45200 -3.15700 -4.90200
H 2.71400 -0.52200 -4.79800
H 3.48700 -2.12100 -4.52900
H 2.49500 -1.30300 -3.24000
H 0.86700 -6.33300 -0.08400
H 0.40400 -5.64200 -1.68000
H -0.89100 -5.99900 -0.46300
H -1.28300 -3.58100 4.02800
H 0.69800 -4.47800 7.75500
H 0.83300 -2.61900 7.68000
H 2.00000 -3.75400 6.97600
Mg 10.52014 0.95089 0.80061
C 11.73881 -1.17508 3.42247
C 10.66210 3.52933 3.02908
C 9.02842 2.75399 -1.34206
C 9.40915 -1.92455 -0.82519
N 11.13827 1.04040 2.92244
C 11.64144 0.18149 3.79619
C 12.13876 0.82566 5.11803
C 11.23433 2.15242 5.09413
C 11.02230 2.27657 3.58671
C 9.87775 1.96797 5.75368
C 13.66846 1.17242 5.07545
C 14.28784 1.51660 6.43179
H 15.66437 1.10497 6.69293
N 10.38114 2.92540 0.65721
C 10.48652 3.82345 1.65905
C 10.28906 5.14284 1.03906
C 9.89501 4.93935 -0.38151
C 9.72904 3.49992 -0.40543
C 10.55210 6.43041 1.76459
C 9.68779 5.88522 -1.52545
O 9.11535 5.51432 -2.61062
C 10.09033 7.28158 -1.30270
N 9.19820 0.50622 -0.74117
C 8.73924 1.47061 -1.55801
C 8.02773 0.88093 -2.75234
C 8.31600 -0.69093 -2.69120
C 9.10442 -0.75221 -1.36454
C 6.51913 1.11944 -2.81248
C 8.94351 -1.34102 -3.95465
C 10.35382 -0.83290 -4.15015
N 10.71224 -1.17970 1.10348
C 10.14624 -2.20742 0.31765
C 10.45927 -3.48794 0.98451
C 11.17155 -3.11191 2.13332
C 11.27635 -1.69581 2.18970
C 10.05177 -4.77789 0.54169
C 11.84941 -3.59037 3.31665
O 12.15596 -4.69881 3.75381
C 12.13750 -2.35142 4.26976
C 13.56971 -2.43611 4.72154
O 14.49869 -2.31321 3.90392
O 13.60859 -2.43016 6.06647
C 15.00884 -2.50152 6.56248
H 10.45239 4.35768 3.70639
H 8.58855 3.32289 -2.16446
H 9.18257 -2.87136 -1.32005
H 11.92960 0.24913 6.01114
H 11.78218 3.01082 5.47409
H 9.69872 0.93839 6.02579
H 9.14909 2.29899 5.02530
H 9.77877 2.64409 6.60773
H 13.80404 2.13102 4.55830
H 14.22593 0.38056 4.61413
H 13.63641 1.23122 7.26674
H 14.36563 2.60359 6.51195
H 10.67064 6.26754 2.84294
H 9.64371 7.03662 1.67970
H 11.39022 6.98851 1.34180
H 9.54422 7.68363 -0.45264
H 9.94837 7.78321 -2.26192
H 11.15199 7.30075 -1.03230
H 8.43068 1.27642 -3.67663
H 7.39311 -1.26867 -2.53527
H 6.19378 1.62451 -3.74153
H 6.22998 1.69691 -1.94445
H 5.90585 0.22578 -2.71020
H 8.38304 -1.05224 -4.84719
H 8.95827 -2.42528 -3.92044
H 10.20362 0.11843 -4.66928
H 10.93043 -1.52739 -4.75780
H 10.82941 -0.61166 -3.18759
H 10.90872 -5.42935 0.65005
H 9.69873 -4.75189 -0.48713
H 9.24248 -4.98006 1.24840
H 11.44011 -2.41239 5.10613
H 15.06618 -3.36333 7.23456
H 15.22230 -1.50755 6.99861
H 15.78350 -2.74190 5.84376
