79

Mg 13.14487 1.18852 1.00440
C 12.87114 -0.66121 4.06750
C 11.89170 3.87621 2.68978
C 12.94956 2.71267 -1.77162
C 13.27777 -1.86688 -0.66670
N 12.50282 1.44985 3.10481
C 12.50216 0.69437 4.19274
C 12.15957 1.45344 5.50270
C 11.33321 2.67357 4.86452
C 11.96775 2.69851 3.47549
C 9.85066 2.37925 4.70714
C 13.44142 1.95837 6.25364
C 13.20086 2.43425 7.68802
H 14.23647 2.18504 8.68695
N 12.98386 3.12732 0.61233
C 12.47149 4.08072 1.41842
C 12.56141 5.33876 0.66119
C 13.01674 5.02334 -0.72008
C 12.98026 3.57505 -0.68538
C 12.30703 6.68185 1.28154
C 13.40662 5.88307 -1.88414
O 13.54067 5.39929 -3.06347
C 13.53563 7.32376 -1.62096
N 12.90453 0.52880 -0.95247
C 12.90470 1.39659 -1.97954
C 12.99530 0.67526 -3.30312
C 13.30096 -0.85194 -2.94006
C 13.24319 -0.76221 -1.39928
C 11.75060 0.74861 -4.18727
C 14.55356 -1.49429 -3.59661
C 15.80863 -0.84950 -3.05399
N 13.27330 -0.89161 1.57415
C 13.29077 -2.01191 0.71467
C 13.26967 -3.21670 1.56934
C 13.21773 -2.70975 2.87655
C 13.18681 -1.28950 2.83854
C 13.24956 -4.56330 1.10850
C 13.17129 -3.05327 4.27959
O 13.25899 -4.09943 4.92116
C 12.81715 -1.74436 5.10889
C 13.77539 -1.65339 6.26475
O 14.98985 -1.47363 6.06629
O 13.07620 -1.57573 7.41169
C 13.98281 -1.47269 8.58612
H 11.29642 4.71055 3.06180
H 12.99328 3.18948 -2.75357
H 13.41605 -2.85610 -1.10829
H 11.53467 0.90356 6.19618
H 11.53177 3.60338 5.39118
H 9.61681 1.35145 4.94186
H 9.61634 2.59383 3.67268
H 9.26140 3.08309 5.30189
H 13.77656 2.89873 5.79742
H 14.20803 1.20812 6.24561
H 12.21935 2.12354 8.06624
H 13.15485 3.52599 7.68831
H 11.82997 6.58694 2.26480
H 11.55529 7.18295 0.66214
H 13.20371 7.30397 1.32156
H 12.59137 7.70766 -1.24223
H 13.90727 7.75857 -2.55086
H 14.27594 7.46933 -0.82637
H 13.81059 1.06439 -3.90059
H 12.47966 -1.51601 -3.24718
H 11.95214 1.16885 -5.19070
H 11.00072 1.33495 -3.67305
H 11.23723 -0.19894 -4.34155
H 14.55191 -1.31201 -4.67407
H 14.61466 -2.56772 -3.45168
H 15.90612 0.05314 -3.66458
H 16.66478 -1.50838 -3.18405
H 15.66949 -0.53080 -2.01441
H 13.94830 -5.11363 1.72445
H 13.51192 -4.62678 0.05450
H 12.20050 -4.81463 1.28623
H 11.78247 -1.83704 5.44121
H 13.71888 -2.28862 9.26603
H 13.86256 -0.44099 8.96675
H 15.03691 -1.66513 8.42396
