79

Mg 15.77293 1.41968 1.20591
C 15.80355 -2.03765 2.16768
C 14.58937 2.12288 4.32670
C 15.30766 4.40851 0.24786
C 15.85174 0.35396 -2.11127
N 15.29918 0.12463 2.93527
C 15.40897 -1.16743 3.20521
C 15.15471 -1.53796 4.69101
C 14.24530 -0.27933 5.10049
C 14.76231 0.73675 4.08414
C 12.76349 -0.49897 4.84488
C 16.47969 -1.58649 5.53011
C 16.34513 -2.23981 6.90736
H 17.46600 -3.02415 7.41817
N 15.52684 3.08277 2.26049
C 15.05658 3.18469 3.52135
C 15.04914 4.62240 3.83297
C 15.39761 5.37236 2.59570
C 15.40401 4.29447 1.62709
C 14.80986 5.15393 5.21632
C 15.66643 6.82195 2.32622
O 15.71612 7.28706 1.13289
C 15.77698 7.69781 3.50186
N 15.39042 2.25982 -0.65693
C 15.28206 3.59178 -0.80552
C 15.28312 3.97971 -2.26494
C 15.65958 2.64632 -3.06364
C 15.72652 1.65394 -1.88207
C 13.96825 4.54193 -2.80478
C 16.87103 2.72468 -4.03262
C 18.14831 2.91803 -3.24741
N 16.00508 -0.46996 0.18442
C 15.98251 -0.69446 -1.20955
C 16.06507 -2.15483 -1.41673
C 16.10709 -2.68423 -0.11810
C 16.03406 -1.62961 0.83160
C 16.04414 -2.81895 -2.67555
C 16.18589 -3.89612 0.66537
O 16.35492 -5.08734 0.40819
C 15.86539 -3.53986 2.18087
C 16.91274 -4.19043 3.04246
O 18.10131 -3.83127 2.97225
O 16.30857 -4.97151 3.95638
C 17.30569 -5.62996 4.84183
H 14.00403 2.42870 5.19430
H 15.25718 5.42913 -0.13848
H 15.98034 -0.05175 -3.11703
H 14.60446 -2.45898 4.84175
H 14.46091 0.05091 6.11332
H 12.57816 -1.42343 4.31841
H 12.43891 0.34588 4.25164
H 12.20609 -0.43966 5.78409
H 16.75009 -0.56635 5.83169
H 17.26339 -2.06691 4.97728
H 15.40705 -2.79905 7.00841
H 16.26927 -1.45099 7.65971
H 14.41824 4.37645 5.88382
H 13.99613 5.88346 5.14224
H 15.68932 5.64688 5.63610
H 14.85692 7.64532 4.07910
H 16.05862 8.67748 3.11097
H 16.57595 7.31710 4.14787
H 16.03538 4.73301 -2.46430
H 14.83437 2.31125 -3.70907
H 14.07478 5.54825 -3.25204
H 13.24744 4.55868 -1.99813
H 13.47020 3.92018 -3.54679
H 16.77558 3.59330 -4.68878
H 16.97340 1.85106 -4.66768
H 18.17028 3.99808 -3.07397
H 19.00865 2.59419 -3.82963
H 18.08659 2.42819 -2.26868
H 16.80615 -3.58593 -2.63563
H 16.22041 -2.12455 -3.49440
H 15.02062 -3.20322 -2.67634
H 14.86456 -3.91351 2.40064
H 17.12124 -6.70720 4.78509
H 17.18885 -5.15037 5.83183
H 18.34774 -5.57809 4.54876
