79

Mg 31.53320 2.84353 2.40479
C 29.88946 0.42378 4.48374
C 29.13762 5.07419 3.36391
C 32.68738 4.86060 0.24453
C 33.07036 0.18225 0.76149
N 29.79113 2.65485 3.75455
C 29.30157 1.70479 4.53690
C 28.16617 2.17436 5.48555
C 27.65715 3.44255 4.64207
C 28.94785 3.77368 3.89567
C 26.58913 3.09507 3.61839
C 28.70427 2.60128 6.89630
C 27.62744 2.77566 7.96952
H 27.94774 2.40125 9.34418
N 31.31066 4.80819 2.23406
C 30.28894 5.55514 2.70249
C 30.58456 6.93887 2.29990
C 31.78014 6.92435 1.41385
C 31.96400 5.49713 1.24259
C 29.81386 8.11892 2.81655
C 32.61167 8.01474 0.80904
O 33.46016 7.77691 -0.12173
C 32.33700 9.38256 1.27285
N 32.54238 2.56097 0.60922
C 32.97932 3.60922 -0.11062
C 33.91170 3.16400 -1.21191
C 34.20176 1.61677 -0.92994
C 33.27573 1.40348 0.28759
C 33.38551 3.33138 -2.63722
C 35.69051 1.19030 -0.80997
C 36.30128 1.79281 0.43475
N 31.65230 0.70416 2.68224
C 32.32902 -0.22585 1.86296
C 32.02603 -1.57209 2.39047
C 31.16871 -1.33130 3.47469
C 30.93651 0.06501 3.60072
C 32.48492 -2.80300 1.84239
C 30.39888 -1.94158 4.53470
O 30.27830 -3.08471 4.97338
C 29.43542 -0.84139 5.15738
C 29.55011 -0.91765 6.65523
O 30.61860 -0.62983 7.22278
O 28.32629 -1.10545 7.18187
C 28.38671 -1.17661 8.66616
H 28.31133 5.78339 3.42023
H 33.19726 5.51988 -0.46176
H 33.58956 -0.69281 0.36479
H 27.35808 1.46411 5.61325
H 27.37325 4.26338 5.29552
H 26.43285 2.02907 3.54518
H 26.94491 3.49088 2.67615
H 25.66373 3.63381 3.84141
H 29.08115 3.63058 6.83931
H 29.45186 1.91448 7.24276
H 26.66827 2.33896 7.66582
H 27.41433 3.84196 8.07723
H 28.88999 7.80717 3.31922
H 29.47053 8.68384 1.94314
H 30.41935 8.77465 3.44588
H 31.29606 9.62825 1.07656
H 33.09066 10.01048 0.79369
H 32.46872 9.41638 2.36011
H 34.84635 3.70981 -1.17154
H 33.81411 0.97612 -1.73563
H 34.04467 3.94895 -3.27612
H 32.39380 3.76089 -2.58672
H 33.20770 2.40220 -3.17594
H 36.26453 1.57685 -1.65569
H 35.83145 0.11479 -0.78979
H 36.57791 2.80062 0.11089
H 37.17536 1.22447 0.74622
H 35.55364 1.89566 1.22981
H 32.79507 -3.41867 2.67621
H 33.29964 -2.64567 1.13866
H 31.57387 -3.14689 1.34540
H 28.42377 -1.05892 4.81266
H 27.92209 -2.12296 8.95983
H 27.90952 -0.24707 9.02948
H 29.36449 -1.26999 9.12407
