158

Mg 0.00000 0.00000 0.00000
C -0.21700 -2.21800 2.80100
C -1.25500 2.44200 2.02600
C -0.24500 1.85000 -2.56400
C 0.14600 -2.82400 -2.03700
N -0.61700 -0.00900 2.12600
C -0.59400 -0.90800 3.10500
C -0.93600 -0.30900 4.50200
C -1.77300 0.96400 4.03200
C -1.15500 1.16800 2.66000
C -3.26300 0.68500 3.86300
C 0.34500 0.11000 5.29900
C 0.12400 0.39700 6.78700
H 1.16800 0.03300 7.73300
N -0.18500 1.96100 -0.15200
C -0.70300 2.80000 0.77700
C -0.62000 4.15600 0.19300
C -0.18700 4.01500 -1.22500
C -0.21400 2.58300 -1.38000
C -0.88700 5.40600 0.97400
C 0.18100 5.01300 -2.27700
O 0.30300 4.69000 -3.50800
C 0.31000 6.41400 -1.83700
N -0.26500 -0.41300 -2.02900
C -0.27900 0.56900 -2.93700
C -0.19600 0.02400 -4.33200
C 0.12400 -1.53300 -4.18000
C 0.08600 -1.63200 -2.63500
C -1.45100 0.20500 -5.19700
C 1.37300 -2.07000 -4.92300
C 2.62600 -1.49000 -4.30600
N 0.15000 -2.14400 0.30300
C 0.17300 -3.13600 -0.68800
C 0.17300 -4.43800 0.00400
C 0.13300 -4.11100 1.35800
C 0.08300 -2.69500 1.50200
C 0.14900 -5.71500 -0.62300
C 0.09600 -4.62900 2.71600
O 0.20800 -5.74700 3.22100
C -0.25500 -3.42800 3.70100
C 0.71700 -3.48200 4.84800
O 1.93100 -3.25500 4.66900
O 0.03800 -3.55600 6.00300
C 0.94300 -3.58300 7.18300
H -1.85900 3.22000 2.49700
H -0.21800 2.45300 -3.47400
H 0.27600 -3.74700 -2.60500
H -1.55400 -0.94900 5.13200
H -1.58500 1.83100 4.66500
H -3.48400 -0.37700 3.96900
H -3.51100 1.02700 2.85800
H -3.85200 1.30100 4.54300
H 0.66900 1.09600 4.96600
H 1.13000 -0.63900 5.18900
H -0.84400 0.02600 7.12500
H 0.06200 1.47700 6.92100
H -1.34400 5.18600 1.93800
H -1.65100 5.96300 0.43200
H 0.00700 6.02000 1.08400
H -0.63500 6.74400 -1.40500
H 0.66500 6.97000 -2.70400
H 1.04800 6.46600 -1.03600
H 0.60800 0.50100 -4.89100
H -0.69200 -2.15600 -4.54700
H -1.26700 0.74000 -6.12900
H -2.20400 0.71400 -4.59600
H -1.96700 -0.72000 -5.45300
H 1.35600 -1.75900 -5.96700
H 1.45200 -3.15700 -4.90200
H 2.71400 -0.52200 -4.79800
H 3.48700 -2.12100 -4.52900
H 2.49500 -1.30300 -3.24000
H 0.86700 -6.33300 -0.08400
H 0.40400 -5.64200 -1.68000
H -0.89100 -5.99900 -0.46300
H -1.28300 -3.58100 4.02800
H 0.69800 -4.47800 7.75500
H 0.83300 -2.61900 7.68000
H 2.00000 -3.75400 6.97600
Mg 15.76628 1.41940 1.19766
C 15.97859 -1.62343 -0.67538
C 14.85126 -0.47330 3.88532
C 15.13297 4.11522 2.74302
C 15.58256 3.10713 -1.84594
N 15.48730 -0.76228 1.44885
C 15.65866 -1.82519 0.66908
C 15.54040 -3.17766 1.43342
C 14.64557 -2.69528 2.66166
C 15.04355 -1.23013 2.69148
C 13.14632 -2.79175 2.39816
C 16.93140 -3.71293 1.91337
C 16.94558 -5.17285 2.37574
H 18.12251 -5.98312 2.10070
N 15.56769 1.77133 3.13146
C 15.20377 0.87919 4.08378
C 15.20036 1.62481 5.36078
C 15.40706 3.06592 5.04679
C 15.35059 3.04492 3.60743
C 15.06300 0.96497 6.69850
C 15.61099 4.27230 5.90771
O 15.53882 5.46062 5.44158
C 15.81240 4.02575 7.34704
N 15.18740 3.32038 0.55828
C 15.03630 4.32481 1.42850
C 14.89923 5.64183 0.72378
C 15.23278 5.35833 -0.81184
C 15.43506 3.82513 -0.73024
C 13.52573 6.31857 0.83117
C 16.34892 6.21614 -1.45898
C 17.68491 5.87214 -0.83938
N 15.95304 0.89237 -0.89957
C 15.81773 1.75109 -2.00001
C 15.92015 0.91866 -3.21271
C 16.09245 -0.37722 -2.73018
C 16.07108 -0.35918 -1.30627
C 15.79388 1.37945 -4.55292
C 16.26498 -1.77624 -3.08634
O 16.44969 -2.38627 -4.14049
C 16.07617 -2.65491 -1.77177
C 17.21447 -3.63689 -1.71407
O 18.38676 -3.24764 -1.53640
O 16.72301 -4.88321 -1.63859
C 17.80036 -5.90469 -1.54877
H 14.33093 -0.93657 4.72590
H 15.02055 5.08322 3.23574
H 15.61900 3.57549 -2.83121
H 15.02533 -3.96632 0.88465
H 14.93315 -3.18506 3.59179
H 12.94027 -3.05502 1.36078
H 12.74644 -1.80367 2.62681
H 12.67266 -3.47685 3.10177
H 17.20360 -3.22008 2.84668
H 17.68676 -3.57252 1.13940
H 16.04043 -5.69720 2.06803
H 16.90946 -5.18647 3.46510
H 14.76057 -0.07702 6.60193
H 14.22625 1.44477 7.20578
H 15.96567 1.06709 7.30107
H 14.94738 3.49541 7.74582
H 16.03049 4.99652 7.79078
H 16.66616 3.35969 7.47510
H 15.60843 6.37024 1.11478
H 14.36717 5.51927 -1.45487
H 13.56471 7.32430 1.25033
H 12.87736 5.67310 1.42302
H 12.97253 6.38118 -0.10556
H 16.17105 7.27439 -1.27077
H 16.42590 6.07950 -2.53770
H 17.69919 6.48252 0.06287
H 18.49825 6.14902 -1.51097
H 17.72199 4.82827 -0.52723
H 16.58449 0.88831 -5.12010
H 15.88172 2.46424 -4.60860
H 14.79028 1.02890 -4.79326
H 15.11092 -3.15199 -1.86294
H 17.64371 -6.60910 -2.36577
H 17.77280 -6.29549 -0.53146
H 18.81163 -5.55908 -1.76607
