79

Mg 8.93848 0.80923 0.68706
C 8.09362 -1.48452 3.31460
C 7.14536 3.16977 2.37440
C 9.28451 2.72182 -1.82087
C 9.66681 -1.95663 -1.30425
N 7.81160 0.73193 2.58874
C 7.61210 -0.17666 3.53161
C 6.92386 0.36624 4.81269
C 6.18444 1.63766 4.16800
C 7.11961 1.89167 2.98749
C 4.80267 1.31758 3.62247
C 7.95895 0.79894 5.90966
C 7.36071 1.04710 7.29613
H 8.15210 0.68887 8.46995
N 8.73771 2.77783 0.53586
C 7.98767 3.58177 1.31841
C 8.16230 4.94093 0.78330
C 8.94549 4.85107 -0.47894
C 9.00304 3.41338 -0.65166
C 7.67839 6.16679 1.50201
C 9.53302 5.88784 -1.38784
O 9.96949 5.59012 -2.55561
C 9.49693 7.27695 -0.90765
N 9.20368 0.44011 -1.34168
C 9.38079 1.45061 -2.21084
C 9.82502 0.93807 -3.56005
C 10.14416 -0.61433 -3.34611
C 9.72562 -0.75713 -1.86630
C 8.81646 1.09800 -4.69743
C 11.55627 -1.10686 -3.76569
C 12.60378 -0.50588 -2.85634
N 9.07640 -1.32666 0.98205
C 9.37017 -2.30516 0.00721
C 9.23608 -3.62376 0.65969
C 8.84811 -3.31927 1.97318
C 8.72789 -1.91120 2.12280
C 9.41700 -4.88659 0.02831
C 8.50261 -3.86930 3.26423
O 8.51232 -4.99554 3.75943
C 7.87597 -2.71188 4.15534
C 8.53227 -2.76004 5.50791
O 9.74414 -2.50971 5.63168
O 7.58319 -2.87890 6.45422
C 8.18426 -2.91975 7.81395
H 6.42352 3.91774 2.70360
H 9.52072 3.34076 -2.68954
H 9.97206 -2.86352 -1.83059
H 6.19546 -0.30261 5.25524
H 6.19055 2.48516 4.84850
H 4.59313 0.25864 3.65222
H 4.79950 1.67534 2.60117
H 4.04428 1.90364 4.14945
H 8.32410 1.80806 5.67923
H 8.75704 0.08596 5.98281
H 6.34247 0.64887 7.38299
H 7.23989 2.12430 7.43420
H 6.99473 5.90964 2.32047
H 7.05717 6.72750 0.79522
H 8.49591 6.80747 1.83944
H 8.46628 7.56639 -0.71675
H 10.04225 7.85829 -1.65367
H 10.02147 7.32878 0.05296
H 10.72719 1.44054 -3.88673
H 9.46447 -1.25401 -3.92806
H 9.21472 1.66984 -5.55676
H 7.92900 1.57422 -4.30224
H 8.42001 0.16635 -5.09751
H 11.79106 -0.76636 -4.77717
H 11.65689 -2.18705 -3.75804
H 12.77663 0.48050 -3.29709
H 13.51060 -1.10722 -2.86668
H 12.20620 -0.35067 -1.84664
H 9.99102 -5.49733 0.71242
H 9.91970 -4.78306 -0.93103
H 8.37542 -5.19868 -0.08563
H 6.80155 -2.88970 4.21507
H 7.82783 -3.83667 8.29341
H 7.90764 -1.96115 8.29178
H 9.25807 -3.04833 7.88359
