158

Mg 0.00000 0.00000 0.00000
C -0.21700 -2.21800 2.80100
C -1.25500 2.44200 2.02600
C -0.24500 1.85000 -2.56400
C 0.14600 -2.82400 -2.03700
N -0.61700 -0.00900 2.12600
C -0.59400 -0.90800 3.10500
C -0.93600 -0.30900 4.50200
C -1.77300 0.96400 4.03200
C -1.15500 1.16800 2.66000
C -3.26300 0.68500 3.86300
C 0.34500 0.11000 5.29900
C 0.12400 0.39700 6.78700
H 1.16800 0.03300 7.73300
N -0.18500 1.96100 -0.15200
C -0.70300 2.80000 0.77700
C -0.62000 4.15600 0.19300
C -0.18700 4.01500 -1.22500
C -0.21400 2.58300 -1.38000
C -0.88700 5.40600 0.97400
C 0.18100 5.01300 -2.27700
O 0.30300 4.69000 -3.50800
C 0.31000 6.41400 -1.83700
N -0.26500 -0.41300 -2.02900
C -0.27900 0.56900 -2.93700
C -0.19600 0.02400 -4.33200
C 0.12400 -1.53300 -4.18000
C 0.08600 -1.63200 -2.63500
C -1.45100 0.20500 -5.19700
C 1.37300 -2.07000 -4.92300
C 2.62600 -1.49000 -4.30600
N 0.15000 -2.14400 0.30300
C 0.17300 -3.13600 -0.68800
C 0.17300 -4.43800 0.00400
C 0.13300 -4.11100 1.35800
C 0.08300 -2.69500 1.50200
C 0.14900 -5.71500 -0.62300
C 0.09600 -4.62900 2.71600
O 0.20800 -5.74700 3.22100
C -0.25500 -3.42800 3.70100
C 0.71700 -3.48200 4.84800
O 1.93100 -3.25500 4.66900
O 0.03800 -3.55600 6.00300
C 0.94300 -3.58300 7.18300
H -1.85900 3.22000 2.49700
H -0.21800 2.45300 -3.47400
H 0.27600 -3.74700 -2.60500
H -1.55400 -0.94900 5.13200
H -1.58500 1.83100 4.66500
H -3.48400 -0.37700 3.96900
H -3.51100 1.02700 2.85800
H -3.85200 1.30100 4.54300
H 0.66900 1.09600 4.96600
H 1.13000 -0.63900 5.18900
H -0.84400 0.02600 7.12500
H 0.06200 1.47700 6.92100
H -1.34400 5.18600 1.93800
H -1.65100 5.96300 0.43200
H 0.00700 6.02000 1.08400
H -0.63500 6.74400 -1.40500
H 0.66500 6.97000 -2.70400
H 1.04800 6.46600 -1.03600
H 0.60800 0.50100 -4.89100
H -0.69200 -2.15600 -4.54700
H -1.26700 0.74000 -6.12900
H -2.20400 0.71400 -4.59600
H -1.96700 -0.72000 -5.45300
H 1.35600 -1.75900 -5.96700
H 1.45200 -3.15700 -4.90200
H 2.71400 -0.52200 -4.79800
H 3.48700 -2.12100 -4.52900
H 2.49500 -1.30300 -3.24000
H 0.86700 -6.33300 -0.08400
H 0.40400 -5.64200 -1.68000
H -0.89100 -5.99900 -0.46300
H -1.28300 -3.58100 4.02800
H 0.69800 -4.47800 7.75500
H 0.83300 -2.61900 7.68000
H 2.00000 -3.75400 6.97600
Mg 8.94062 0.81249 0.68088
C 8.43521 1.13527 4.21916
C 7.79273 4.01000 0.37614
C 8.94702 0.40931 -2.46632
C 8.94787 -2.64254 1.13745
N 8.23579 2.28051 2.17766
C 8.14648 2.31303 3.49876
C 7.80154 3.70794 4.08596
C 7.07758 4.33842 2.79862
C 7.76535 3.52140 1.70679
C 5.58677 4.04876 2.74441
C 9.08244 4.52333 4.48150
C 8.81692 5.76038 5.34229
H 9.79594 6.12041 6.36424
N 8.91535 2.14980 -0.78525
C 8.43250 3.40880 -0.73002
C 8.62931 3.97448 -2.07368
C 9.11693 2.89234 -2.97141
C 8.98939 1.74530 -2.09499
C 8.43507 5.43120 -2.37974
C 9.60381 2.88832 -4.38884
O 9.75281 1.79833 -5.04654
C 9.81173 4.20248 -5.01434
N 8.73519 -0.86805 -0.52575
C 8.82864 -0.77402 -1.86379
C 8.92512 -2.13960 -2.50117
C 9.12130 -3.16592 -1.29048
C 9.01005 -2.18265 -0.10465
C 7.72226 -2.56805 -3.34137
C 10.35594 -4.10602 -1.35783
C 11.62681 -3.29999 -1.21426
N 8.91781 -0.53310 2.37112
C 8.89877 -1.94469 2.33744
C 8.77016 -2.41179 3.73304
C 8.69958 -1.22989 4.48579
C 8.75829 -0.10558 3.61862
C 8.68429 -3.76968 4.15123
C 8.57805 -0.67777 5.81586
O 8.57598 -1.14563 6.95377
C 8.27417 0.87742 5.69163
C 9.19109 1.60666 6.63502
O 10.42108 1.60124 6.45148
O 8.45452 2.36537 7.46700
C 9.31998 3.11671 8.41478
H 7.23649 4.91905 0.14570
H 9.05793 0.21331 -3.53532
H 9.04140 -3.70506 1.37190
H 7.11756 3.69069 4.92599
H 7.31305 5.39398 2.69045
H 5.28079 3.36445 3.52174
H 5.40613 3.61784 1.76834
H 5.01989 4.98380 2.77065
H 9.49254 5.00360 3.58378
H 9.80079 3.89223 4.96763
H 7.80423 5.75983 5.76349
H 8.83875 6.64266 4.69799
H 7.91562 5.94798 -1.56335
H 7.74021 5.49059 -3.22444
H 9.36641 5.93215 -2.65236
H 8.87924 4.76165 -4.99832
H 10.24507 3.99432 -5.99452
H 10.52856 4.76855 -4.40908
H 9.78533 -2.20061 -3.15647
H 8.27280 -3.86042 -1.20350
H 7.98787 -2.82670 -4.38379
H 6.99098 -1.77094 -3.32190
H 7.15741 -3.40952 -2.94377
H 10.40700 -4.59477 -2.33388
H 10.34474 -4.88824 -0.60617
H 11.80349 -2.93473 -2.23036
H 12.44481 -3.93184 -0.87415
H 11.46787 -2.42553 -0.57261
H 9.32338 -3.86936 5.01849
H 8.98252 -4.45011 3.35634
H 7.61562 -3.83878 4.37129
H 7.22374 1.02715 5.94411
H 8.98002 2.86689 9.42459
H 9.24941 4.17704 8.10744
H 10.36556 2.83683 8.46834
