79

Mg 13.13098 1.18506 0.99099
C 13.51162 -1.55351 -1.29690
C 13.79520 3.26901 -1.62637
C 13.24782 3.58642 3.06155
C 13.62977 -1.09162 3.58207
N 13.57893 0.78945 -1.13858
C 13.63591 -0.28789 -1.90698
C 13.75719 0.01078 -3.42542
C 14.40471 1.47730 -3.33107
C 13.86845 1.89371 -1.96297
C 15.92282 1.46172 -3.26448
C 12.36137 0.04415 -4.14138
C 12.42219 0.02295 -5.67031
H 11.38016 -0.69571 -6.39843
N 12.98596 3.14240 0.69711
C 13.27451 3.81893 -0.43440
C 13.02253 5.23621 -0.13110
C 12.71978 5.35856 1.32083
C 12.99931 4.00717 1.76318
C 13.00350 6.30334 -1.18670
C 12.26743 6.50565 2.17276
O 12.29581 6.44594 3.45278
C 11.87849 7.73431 1.46522
N 13.60880 1.28217 3.01203
C 13.52921 2.44279 3.68624
C 13.65019 2.21840 5.17466
C 13.58500 0.63333 5.37688
C 13.52463 0.19183 3.89809
C 14.92008 2.76279 5.82843
C 12.50591 0.09236 6.35443
C 11.12646 0.33126 5.78396
N 13.32028 -0.96045 1.16141
C 13.55023 -1.70562 2.33866
C 13.71905 -3.11658 1.93480
C 13.59754 -3.09083 0.53728
C 13.38924 -1.75509 0.09921
C 13.99801 -4.20450 2.80930
C 13.60872 -3.88844 -0.66787
O 13.65772 -5.09338 -0.91168
C 13.67977 -2.91161 -1.91973
C 12.64566 -3.35813 -2.91659
O 11.43414 -3.28912 -2.64442
O 13.24406 -3.58675 -4.09982
C 12.25744 -4.02142 -5.12425
H 14.21420 3.99647 -2.32216
H 13.18882 4.36253 3.82814
H 13.69102 -1.87615 4.33932
H 14.41912 -0.65376 -3.96764
H 14.01671 2.13111 -4.10783
H 16.31178 0.45856 -3.17220
H 16.18521 2.05068 -2.39539
H 16.34333 1.99021 -4.12483
H 11.90232 1.02885 -3.98525
H 11.73555 -0.75458 -3.79353
H 13.41500 -0.26171 -6.03943
H 12.28199 1.04258 -6.03734
H 13.42364 5.94068 -2.13293
H 13.69853 7.08569 -0.86306
H 12.01354 6.74409 -1.32229
H 12.71668 8.08916 0.87027
H 11.50075 8.40849 2.23638
H 11.07329 7.49324 0.76226
H 12.82200 2.67444 5.70308
H 14.52564 0.23566 5.78541
H 14.71693 3.47218 6.65279
H 15.52380 3.23207 5.06303
H 15.59598 2.00692 6.22469
H 12.54786 0.63431 7.30241
H 12.61854 -0.96255 6.58129
H 10.91770 1.36689 6.06851
H 10.40515 -0.35275 6.22656
H 11.14036 0.28674 4.68875
H 13.36368 -5.02409 2.49880
H 13.82055 -3.93498 3.84835
H 15.06041 -4.35545 2.60008
H 14.69086 -2.97071 -2.32440
H 12.61054 -4.97771 -5.52238
H 12.17528 -3.17884 -5.83634
H 11.26441 -4.28847 -4.78217
