79

Mg 10.52029 0.95083 0.80000
C 11.88684 -1.17087 3.35146
C 10.81956 3.53911 3.00134
C 8.90916 2.75398 -1.25435
C 9.28978 -1.92457 -0.73741
N 11.27115 1.04635 2.87830
C 11.82239 0.18818 3.72330
C 12.40617 0.83527 5.00783
C 11.51107 2.16831 5.03369
C 11.20557 2.28657 3.54193
C 10.19740 1.99677 5.77813
C 13.93249 1.17090 4.86740
C 14.63822 1.51732 6.18029
H 16.02560 1.09717 6.35665
N 10.38598 2.92556 0.65506
C 10.56023 3.82774 1.64348
C 10.33318 5.14545 1.03008
C 9.84924 4.93780 -0.36183
C 9.67232 3.49948 -0.36758
C 10.65005 6.43466 1.73076
C 9.57698 5.87949 -1.49554
O 8.93497 5.50736 -2.54060
C 10.00221 7.27403 -1.30598
N 9.10107 0.50804 -0.65330
C 8.59825 1.47165 -1.44485
C 7.80909 0.88120 -2.58895
C 8.08993 -0.69236 -2.53764
C 8.95973 -0.75274 -1.26281
C 6.30134 1.13016 -2.55549
C 8.63235 -1.35310 -3.83451
C 10.03101 -0.85600 -4.12093
N 10.71654 -1.17956 1.10159
C 10.09530 -2.20706 0.35837
C 10.44090 -3.48649 1.01109
C 11.22651 -3.10991 2.11086
C 11.34429 -1.69433 2.15297
C 9.99761 -4.77566 0.60164
C 11.97414 -3.58737 3.25182
O 12.30001 -4.69582 3.67478
C 12.32998 -2.34585 4.17831
C 13.78715 -2.43852 4.53969
O 14.66372 -2.32626 3.66468
O 13.91051 -2.42625 5.87946
C 15.33865 -2.50515 6.28692
H 10.65848 4.37224 3.68604
H 8.42234 3.32196 -2.05052
H 9.02611 -2.87215 -1.21199
H 12.24963 0.26463 5.91538
H 12.08755 3.02463 5.37390
H 10.02883 0.96983 6.06645
H 9.42667 2.32939 5.09520
H 10.15689 2.67776 6.63308
H 14.04182 2.12596 4.33763
H 14.45446 0.37284 4.37620
H 14.03862 1.24069 7.05603
H 14.72829 2.60411 6.24959
H 10.83501 6.27623 2.80038
H 9.74227 7.04690 1.69985
H 11.46372 6.98469 1.25318
H 9.51336 7.68412 -0.42546
H 9.80366 7.77194 -2.25705
H 11.07888 7.28696 -1.10291
H 8.15584 1.26926 -3.53883
H 7.17475 -1.26274 -2.32096
H 5.92170 1.63296 -3.46495
H 6.07126 1.71392 -1.67411
H 5.68964 0.24140 -2.41011
H 8.01888 -1.06471 -4.69162
H 8.64186 -2.43725 -3.79550
H 9.85496 0.09381 -4.63468
H 10.56356 -1.55756 -4.75988
H 10.56766 -0.63343 -3.19134
H 10.85522 -5.43268 0.65944
H 9.58079 -4.75220 -0.40309
H 9.23298 -4.96859 1.35886
H 11.68614 -2.39774 5.05715
H 15.43226 -3.36404 6.95866
H 15.58586 -1.51060 6.70346
H 16.06496 -2.75456 5.52225
