79

Mg 31.53256 2.83880 2.39533
C 31.26280 0.99272 5.45007
C 30.28105 5.52723 4.08328
C 31.33405 4.35371 -0.38357
C 31.67138 -0.22016 0.73125
N 30.89275 3.10273 4.49810
C 30.89603 2.33384 5.58252
C 30.54525 3.10679 6.88899
C 29.72644 4.31791 6.25279
C 30.36117 4.34225 4.87350
C 28.23555 4.03305 6.10244
C 31.82187 3.61137 7.64223
C 31.58789 4.08519 9.07962
H 32.61790 3.83386 10.07624
N 31.36934 4.76667 1.99590
C 30.85005 5.72040 2.80586
C 30.95322 6.99139 2.05711
C 31.39992 6.66933 0.67334
C 31.35988 5.22950 0.69921
C 30.69071 8.33200 2.67160
C 31.78939 7.52380 -0.49128
O 31.92126 7.04747 -1.67039
C 31.92805 8.96782 -0.22932
N 31.28509 2.17624 0.43130
C 31.29090 3.03632 -0.59301
C 31.38325 2.31947 -1.90737
C 31.68560 0.79119 -1.55711
C 31.63003 0.88764 -0.01248
C 30.13951 2.40132 -2.80316
C 32.93691 0.15399 -2.21179
C 34.18912 0.79589 -1.65768
N 31.65729 0.74870 2.96713
C 31.68072 -0.36023 2.10899
C 31.65994 -1.56480 2.95908
C 31.60879 -1.06976 4.26067
C 31.57179 0.35349 4.22498
C 31.62955 -2.91026 2.49729
C 31.55193 -1.41249 5.67247
O 31.64703 -2.45904 6.31526
C 31.20274 -0.09408 6.49447
C 32.16179 -0.01198 7.65067
O 33.37990 0.17997 7.45905
O 31.46972 0.06589 8.79764
C 32.36170 0.17952 9.98238
H 29.68006 6.36360 4.44554
H 31.37699 4.83720 -1.36175
H 31.79798 -1.20838 0.28534
H 29.91399 2.55660 7.58701
H 29.91654 5.25595 6.77401
H 28.00254 2.99481 6.33842
H 28.00186 4.24810 5.05955
H 27.64565 4.73486 6.69257
H 32.15952 4.54475 7.19184
H 32.60027 2.84758 7.63659
H 30.61257 3.76822 9.45000
H 31.53555 5.17397 9.07609
H 30.22117 8.23905 3.65008
H 29.93832 8.82314 2.05483
H 31.58973 8.94704 2.71421
H 30.98191 9.35787 0.14648
H 32.29800 9.40720 -1.15503
H 32.65792 9.11363 0.56753
H 32.19804 2.71525 -2.51226
H 30.86723 0.13421 -1.85261
H 30.33897 2.81320 -3.79274
H 29.38538 2.98850 -2.27991
H 29.61682 1.45606 -2.94702
H 32.93429 0.33134 -3.28672
H 33.00452 -0.92239 -2.05341
H 34.29231 1.69351 -2.26634
H 35.04593 0.13427 -1.78933
H 34.04863 1.11664 -0.62526
H 32.33535 -3.46188 3.11820
H 31.89660 -2.97305 1.44261
H 30.58504 -3.16268 2.67930
H 30.16978 -0.19565 6.82583
H 32.10141 -0.63422 10.65936
H 32.25628 1.19931 10.35295
H 33.41905 -0.02549 9.81113
