79

Mg 15.76628 1.41940 1.19766
C 15.87404 0.95025 -2.34924
C 15.16553 -1.92822 1.47255
C 15.21677 1.88202 4.28646
C 15.24458 4.81027 0.58491
N 15.56927 -0.18119 -0.31890
C 15.69143 -0.23978 -1.64132
C 15.68280 -1.69464 -2.19872
C 14.89931 -2.41449 -1.01130
C 15.26044 -1.47286 0.12397
C 13.38454 -2.41012 -1.19007
C 17.12713 -2.27541 -2.36702
C 17.22372 -3.55423 -3.20406
H 18.38886 -3.74870 -4.05375
N 15.74736 0.13843 2.70152
C 15.50070 -1.19170 2.62930
C 15.60206 -1.70080 4.01393
C 15.74013 -0.52772 4.92108
C 15.54477 0.55971 3.99658
C 15.61226 -3.15916 4.35572
C 15.99554 -0.40630 6.39015
O 15.84790 0.69805 7.01720
C 16.34201 -1.64997 7.10169
N 15.07931 3.06205 2.28735
C 14.98759 3.01595 3.62093
C 14.74889 4.37922 4.19927
C 14.93898 5.40995 2.99460
C 15.18764 4.39444 1.85216
C 13.37533 4.59994 4.84784
C 15.96457 6.55256 3.20199
C 17.36281 5.98064 3.27223
N 15.76207 2.71394 -0.54452
C 15.49852 4.09108 -0.57101
C 15.50413 4.50484 -1.98623
C 15.75577 3.32889 -2.69026
C 15.87227 2.24434 -1.77457
C 15.23653 5.81493 -2.47252
C 15.92887 2.73202 -4.00465
O 16.02602 3.17236 -5.15102
C 15.89126 1.14810 -3.84460
C 17.05468 0.58568 -4.61495
O 18.22828 0.80286 -4.25044
O 16.60513 -0.30677 -5.51049
C 17.71205 -0.92447 -6.28852
H 14.74136 -2.91509 1.66781
H 15.12783 2.10642 5.35143
H 15.17312 5.86732 0.32224
H 15.13736 -1.81968 -3.13428
H 15.28833 -3.41313 -0.81360
H 13.08560 -1.79868 -2.04136
H 12.98344 -1.99637 -0.26464
H 12.99922 -3.42801 -1.25497
H 17.47587 -2.65541 -1.40679
H 17.79993 -1.52279 -2.77961
H 16.30678 -3.73268 -3.76646
H 17.29389 -4.40314 -2.52390
H 15.32881 -3.77270 3.50145
H 14.81662 -3.32141 5.08259
H 16.56622 -3.47498 4.77826
H 15.53373 -2.37136 6.97995
H 16.57708 -1.35599 8.12403
H 17.22104 -2.09231 6.63203
H 15.47370 4.60504 4.98034
H 14.01118 5.92688 2.74835
H 13.42891 4.91860 5.88913
H 12.80432 3.67707 4.75017
H 12.73238 5.30878 4.32670
H 15.77862 7.06211 4.14683
H 15.93996 7.30184 2.41064
H 17.44889 5.67540 4.31446
H 18.09972 6.74634 3.02753
H 17.45688 5.08289 2.66093
H 15.98072 6.01180 -3.24413
H 15.29059 6.55296 -1.67253
H 14.22370 5.68583 -2.85379
H 14.93483 0.81506 -4.24641
H 17.49502 -0.75731 -7.34360
H 17.79345 -1.95618 -5.94597
H 18.68821 -0.44618 -6.20092
