158

Mg 0.00000 0.00000 0.00000
C -0.21700 -2.21800 2.80100
C -1.25500 2.44200 2.02600
C -0.24500 1.85000 -2.56400
C 0.14600 -2.82400 -2.03700
N -0.61700 -0.00900 2.12600
C -0.59400 -0.90800 3.10500
C -0.93600 -0.30900 4.50200
C -1.77300 0.96400 4.03200
C -1.15500 1.16800 2.66000
C -3.26300 0.68500 3.86300
C 0.34500 0.11000 5.29900
C 0.12400 0.39700 6.78700
H 1.16800 0.03300 7.73300
N -0.18500 1.96100 -0.15200
C -0.70300 2.80000 0.77700
C -0.62000 4.15600 0.19300
C -0.18700 4.01500 -1.22500
C -0.21400 2.58300 -1.38000
C -0.88700 5.40600 0.97400
C 0.18100 5.01300 -2.27700
O 0.30300 4.69000 -3.50800
C 0.31000 6.41400 -1.83700
N -0.26500 -0.41300 -2.02900
C -0.27900 0.56900 -2.93700
C -0.19600 0.02400 -4.33200
C 0.12400 -1.53300 -4.18000
C 0.08600 -1.63200 -2.63500
C -1.45100 0.20500 -5.19700
C 1.37300 -2.07000 -4.92300
C 2.62600 -1.49000 -4.30600
N 0.15000 -2.14400 0.30300
C 0.17300 -3.13600 -0.68800
C 0.17300 -4.43800 0.00400
C 0.13300 -4.11100 1.35800
C 0.08300 -2.69500 1.50200
C 0.14900 -5.71500 -0.62300
C 0.09600 -4.62900 2.71600
O 0.20800 -5.74700 3.22100
C -0.25500 -3.42800 3.70100
C 0.71700 -3.48200 4.84800
O 1.93100 -3.25500 4.66900
O 0.03800 -3.55600 6.00300
C 0.94300 -3.58300 7.18300
H -1.85900 3.22000 2.49700
H -0.21800 2.45300 -3.47400
H 0.27600 -3.74700 -2.60500
H -1.55400 -0.94900 5.13200
H -1.58500 1.83100 4.66500
H -3.48400 -0.37700 3.96900
H -3.51100 1.02700 2.85800
H -3.85200 1.30100 4.54300
H 0.66900 1.09600 4.96600
H 1.13000 -0.63900 5.18900
H -0.84400 0.02600 7.12500
H 0.06200 1.47700 6.92100
H -1.34400 5.18600 1.93800
H -1.65100 5.96300 0.43200
H 0.00700 6.02000 1.08400
H -0.63500 6.74400 -1.40500
H 0.66500 6.97000 -2.70400
H 1.04800 6.46600 -1.03600
H 0.60800 0.50100 -4.89100
H -0.69200 -2.15600 -4.54700
H -1.26700 0.74000 -6.12900
H -2.20400 0.71400 -4.59600
H -1.96700 -0.72000 -5.45300
H 1.35600 -1.75900 -5.96700
H 1.45200 -3.15700 -4.90200
H 2.71400 -0.52200 -4.79800
H 3.48700 -2.12100 -4.52900
H 2.49500 -1.30300 -3.24000
H 0.86700 -6.33300 -0.08400
H 0.40400 -5.64200 -1.68000
H -0.89100 -5.99900 -0.46300
H -1.28300 -3.58100 4.02800
H 0.69800 -4.47800 7.75500
H 0.83300 -2.61900 7.68000
H 2.00000 -3.75400 6.97600
Mg 31.52544 2.84415 2.40109
C 33.59221 4.06480 5.06896
C 29.68396 1.22195 4.77005
C 29.96325 1.39360 0.05100
C 34.13808 3.59430 0.22001
N 31.71265 2.73494 4.60229
C 32.49995 3.28982 5.51147
C 32.04682 3.06377 6.97882
C 31.19015 1.72287 6.76209
C 30.80369 1.91387 5.29688
C 32.01893 0.45422 6.87598
C 31.15273 4.23613 7.51564
C 30.93102 4.23444 9.02977
H 30.84590 5.51732 9.72219
N 29.77297 1.91281 2.40695
C 29.16372 1.33191 3.46177
C 27.90859 0.76822 2.94113
C 27.90459 0.92029 1.46073
C 29.25209 1.40663 1.24206
C 26.82595 0.23223 3.83221
C 26.86488 0.65772 0.41371
O 27.15674 0.63448 -0.83413
C 25.51415 0.33636 0.89719
N 32.05686 2.33997 0.45539
C 31.17178 1.76131 -0.37510
C 31.68628 1.74433 -1.79475
C 33.00237 2.65285 -1.78564
C 33.07399 2.97945 -0.27779
C 32.02342 0.36628 -2.36369
C 33.05314 3.82830 -2.79975
C 32.02308 4.87196 -2.43212
N 33.43551 3.84329 2.54746
C 34.38442 4.02462 1.51752
C 35.57242 4.65725 2.12652
C 35.23853 4.78004 3.48370
C 33.94251 4.24221 3.70861
C 36.77780 4.99062 1.44680
C 35.69200 5.23267 4.77915
O 36.67407 5.85037 5.18868
C 34.69711 4.67478 5.88611
C 34.34275 5.81023 6.80681
O 33.69218 6.78395 6.38818
O 34.63919 5.46069 8.07185
C 34.29525 6.55050 9.02360
H 29.17893 0.49305 5.40452
H 29.42440 1.00368 -0.81565
H 34.95571 3.94911 -0.41107
H 32.85230 2.88113 7.67998
H 30.30442 1.71388 7.39199
H 33.07338 0.66865 6.96710
H 31.82374 -0.10687 5.97148
H 31.65052 -0.16406 7.69959
H 30.12059 4.08444 7.17445
H 31.54554 5.18603 7.20901
H 31.62740 3.56371 9.54758
H 29.94587 3.80891 9.23576
H 27.18125 0.09920 4.86151
H 26.60263 -0.78359 3.48853
H 25.91199 0.82852 3.79002
H 25.55811 -0.54535 1.53210
H 24.89184 0.26934 0.00269
H 25.16281 1.16089 1.52753
H 30.96323 2.17996 -2.47337
H 33.90294 2.06790 -2.02360
H 31.47383 0.13217 -3.29494
H 31.81802 -0.37621 -1.60405
H 33.07871 0.19811 -2.57175
H 32.79419 3.47592 -3.80121
H 34.02806 4.29958 -2.86626
H 31.10406 4.47921 -2.87736
H 32.28698 5.83758 -2.85872
H 31.87289 4.91156 -1.34699
H 37.06650 5.97529 1.78970
H 36.64478 4.96791 0.36719
H 37.42854 4.18500 1.79723
H 35.20977 3.86737 6.41034
H 35.20475 6.78182 9.58663
H 33.42643 6.18069 9.59991
H 34.05156 7.52100 8.60744
