79

Mg 7.89026 0.70588 0.60569
C 8.07103 -2.72069 -0.44551
C 6.87848 -0.43892 3.65534
C 7.28852 3.71188 1.42380
C 7.79755 1.58986 -2.76413
N 7.55627 -1.33792 1.38261
C 7.71657 -2.56513 0.91081
C 7.56225 -3.68745 1.97201
C 6.64588 -2.89635 3.02714
C 7.07343 -1.46729 2.69902
C 5.15776 -3.02576 2.74771
C 8.93618 -4.10525 2.60427
C 8.90231 -5.40108 3.41755
H 10.07244 -6.27412 3.38490
N 7.66384 1.52846 2.39752
C 7.26783 0.91289 3.53133
C 7.24079 1.95679 4.56752
C 7.49397 3.27077 3.91632
C 7.47078 2.88202 2.52046
C 7.07118 1.65021 6.02720
C 7.70728 4.65124 4.45946
O 7.67257 5.68529 3.70291
C 7.86503 4.76526 5.91672
N 7.37396 2.39094 -0.49718
C 7.22133 3.58682 0.09822
C 7.12413 4.69576 -0.92217
C 7.48726 4.02100 -2.32588
C 7.65170 2.55543 -1.86716
C 5.76460 5.38656 -1.02641
C 8.63562 4.67275 -3.14391
C 9.95226 4.48499 -2.42517
N 8.11083 -0.32607 -1.27965
C 8.01033 0.23052 -2.57356
C 8.11921 -0.88433 -3.53672
C 8.25349 -2.02394 -2.72942
C 8.20967 -1.64830 -1.35957
C 8.04023 -0.77047 -4.95338
C 8.41166 -3.46048 -2.72448
O 8.59662 -4.31703 -3.58811
C 8.17362 -3.99001 -1.24484
C 9.28796 -4.94233 -0.90743
O 10.46013 -4.53688 -0.81664
O 8.76100 -6.12330 -0.53596
C 9.82685 -7.09782 -0.18086
H 6.33851 -0.67829 4.57186
H 7.18764 4.77603 1.64937
H 7.87612 1.79404 -3.83409
H 7.04685 -4.57440 1.62349
H 6.91322 -3.14901 4.04991
H 4.96580 -3.53270 1.81373
H 4.77560 -2.01388 2.71447
H 4.65656 -3.50966 3.59090
H 9.19693 -3.39252 3.39722
H 9.69771 -4.17077 1.85167
H 7.98729 -5.97789 3.23596
H 8.85087 -5.14380 4.47829
H 6.74136 0.61598 6.18533
H 6.23528 2.25989 6.38696
H 7.96085 1.88885 6.61388
H 6.98314 4.36123 6.40813
H 8.09637 5.81558 6.10432
H 8.71134 4.14219 6.22682
H 7.84265 5.47855 -0.71221
H 6.63390 4.03927 -3.01963
H 5.81710 6.47992 -0.86556
H 5.09349 4.92887 -0.31180
H 5.23953 5.23300 -1.96764
H 8.47767 5.75095 -3.22571
H 8.72283 4.28262 -4.15247
H 9.95580 5.30323 -1.69884
H 10.78430 4.57135 -3.12107
H 9.96270 3.54445 -1.86221
H 8.82346 -1.39623 -5.36017
H 8.14827 0.26304 -5.27582
H 7.02914 -1.14997 -5.12348
H 7.19818 -4.47752 -1.22431
H 9.66814 -7.98513 -0.80148
H 9.75710 -7.23066 0.91515
H 10.84760 -6.83988 -0.43775
