79

Mg 10.50651 0.93975 0.80559
C 9.02014 3.30215 3.06144
C 12.36187 -0.18151 3.43904
C 12.15304 -0.84056 -1.24060
C 9.41183 2.96191 -1.81324
N 10.59017 1.55974 2.92712
C 9.93486 2.42721 3.68369
C 10.22008 2.29868 5.20411
C 11.66379 1.60050 5.11977
C 11.52602 0.91761 3.76060
C 12.80973 2.59543 5.04043
C 9.17850 1.37814 5.93194
C 9.21034 1.45411 7.46000
H 7.95068 1.33563 8.18917
N 11.66469 -0.64063 1.12115
C 12.32240 -0.95363 2.25725
C 13.04935 -2.20011 1.97091
C 12.89881 -2.50888 0.52291
C 12.23591 -1.30465 0.06412
C 13.72607 -3.01086 3.03776
C 13.29831 -3.68682 -0.31318
O 13.28183 -3.64005 -1.59395
C 13.79822 -4.86497 0.41038
N 10.93427 1.14853 -1.21821
C 11.62630 0.20425 -1.87955
C 11.57368 0.43364 -3.37119
C 10.49670 1.59556 -3.58946
C 10.16384 1.91233 -2.11492
C 12.89385 0.83348 -4.02973
C 9.32481 1.29499 -4.56363
C 8.42898 0.22663 -3.97927
N 9.26003 2.69375 0.61115
C 8.95267 3.39445 -0.57571
C 8.16645 4.58358 -0.18807
C 8.08995 4.50387 1.21060
C 8.79695 3.35768 1.66435
C 7.67409 5.58104 -1.07619
C 7.58087 5.13450 2.40720
O 6.83703 6.08695 2.63797
C 8.26756 4.45350 3.66859
C 7.19020 4.13654 4.66926
O 6.31253 3.29512 4.40788
O 7.49712 4.71426 5.84503
C 6.46359 4.41942 6.87299
H 13.15213 -0.45454 4.13891
H 12.61154 -1.47996 -1.99850
H 8.95030 3.58885 -2.57914
H 10.29311 3.24093 5.73384
H 11.79177 0.86158 5.90652
H 12.45570 3.61011 4.93443
H 13.39170 2.30546 4.17541
H 13.47208 2.47707 5.90276
H 9.46730 0.32877 5.78993
H 8.18439 1.57602 5.58093
H 9.78164 2.31926 7.81787
H 9.76433 0.59179 7.83884
H 13.81046 -2.44978 3.97662
H 14.76258 -3.16038 2.71657
H 13.25787 -3.98627 3.18615
H 14.66621 -4.58394 1.00205
H 13.94795 -5.63341 -0.35051
H 13.02849 -5.19392 1.11744
H 11.23889 -0.45743 -3.88792
H 10.95540 2.50255 -4.00991
H 13.19938 0.15068 -4.84490
H 13.65739 0.87769 -3.26449
H 12.91877 1.84180 -4.43947
H 9.70850 0.89689 -5.50620
H 8.72690 2.16818 -4.80246
H 8.94144 -0.70101 -4.25123
H 7.43657 0.27401 -4.42302
H 8.41019 0.28416 -2.88475
H 6.65967 5.79809 -0.76905
H 7.71416 5.24694 -2.11086
H 8.38514 6.38736 -0.87738
H 8.99898 5.15924 4.06423
H 6.11241 5.38172 7.25814
H 6.94685 3.73414 7.59452
H 5.53449 3.97455 6.53638
