158

Mg 0.00000 0.00000 0.00000
C -0.21700 -2.21800 2.80100
C -1.25500 2.44200 2.02600
C -0.24500 1.85000 -2.56400
C 0.14600 -2.82400 -2.03700
N -0.61700 -0.00900 2.12600
C -0.59400 -0.90800 3.10500
C -0.93600 -0.30900 4.50200
C -1.77300 0.96400 4.03200
C -1.15500 1.16800 2.66000
C -3.26300 0.68500 3.86300
C 0.34500 0.11000 5.29900
C 0.12400 0.39700 6.78700
H 1.16800 0.03300 7.73300
N -0.18500 1.96100 -0.15200
C -0.70300 2.80000 0.77700
C -0.62000 4.15600 0.19300
C -0.18700 4.01500 -1.22500
C -0.21400 2.58300 -1.38000
C -0.88700 5.40600 0.97400
C 0.18100 5.01300 -2.27700
O 0.30300 4.69000 -3.50800
C 0.31000 6.41400 -1.83700
N -0.26500 -0.41300 -2.02900
C -0.27900 0.56900 -2.93700
C -0.19600 0.02400 -4.33200
C 0.12400 -1.53300 -4.18000
C 0.08600 -1.63200 -2.63500
C -1.45100 0.20500 -5.19700
C 1.37300 -2.07000 -4.92300
C 2.62600 -1.49000 -4.30600
N 0.15000 -2.14400 0.30300
C 0.17300 -3.13600 -0.68800
C 0.17300 -4.43800 0.00400
C 0.13300 -4.11100 1.35800
C 0.08300 -2.69500 1.50200
C 0.14900 -5.71500 -0.62300
C 0.09600 -4.62900 2.71600
O 0.20800 -5.74700 3.22100
C -0.25500 -3.42800 3.70100
C 0.71700 -3.48200 4.84800
O 1.93100 -3.25500 4.66900
O 0.03800 -3.55600 6.00300
C 0.94300 -3.58300 7.18300
H -1.85900 3.22000 2.49700
H -0.21800 2.45300 -3.47400
H 0.27600 -3.74700 -2.60500
H -1.55400 -0.94900 5.13200
H -1.58500 1.83100 4.66500
H -3.48400 -0.37700 3.96900
H -3.51100 1.02700 2.85800
H -3.85200 1.30100 4.54300
H 0.66900 1.09600 4.96600
H 1.13000 -0.63900 5.18900
H -0.84400 0.02600 7.12500
H 0.06200 1.47700 6.92100
H -1.34400 5.18600 1.93800
H -1.65100 5.96300 0.43200
H 0.00700 6.02000 1.08400
H -0.63500 6.74400 -1.40500
H 0.66500 6.97000 -2.70400
H 1.04800 6.46600 -1.03600
H 0.60800 0.50100 -4.89100
H -0.69200 -2.15600 -4.54700
H -1.26700 0.74000 -6.12900
H -2.20400 0.71400 -4.59600
H -1.96700 -0.72000 -5.45300
H 1.35600 -1.75900 -5.96700
H 1.45200 -3.15700 -4.90200
H 2.71400 -0.52200 -4.79800
H 3.48700 -2.12100 -4.52900
H 2.49500 -1.30300 -3.24000
H 0.86700 -6.33300 -0.08400
H 0.40400 -5.64200 -1.68000
H -0.89100 -5.99900 -0.46300
H -1.28300 -3.58100 4.02800
H 0.69800 -4.47800 7.75500
H 0.83300 -2.61900 7.68000
H 2.00000 -3.75400 6.97600
Mg 15.76277 1.42755 1.20345
C 17.98232 1.26470 4.01879
C 13.18896 0.97861 3.39630
C 13.82451 1.11587 -1.28922
C 18.50742 0.72144 -0.82484
N 15.71817 1.16833 3.39960
C 16.61876 1.18528 4.37069
C 16.02022 1.19396 5.80290
C 14.59548 0.53095 5.47213
C 14.46788 0.94394 4.00726
C 14.60757 -0.98709 5.54108
C 15.85909 2.64627 6.37459
C 15.57245 2.71822 7.87606
H 16.14172 3.82415 8.64113
N 13.78796 1.58444 1.08468
C 12.89506 1.39046 2.07784
C 11.57028 1.60579 1.47555
C 11.74502 1.78086 0.00806
C 13.15457 1.47307 -0.12814
C 10.31334 1.70905 2.28971
C 10.79718 2.15008 -1.09260
O 11.11217 2.01137 -2.32726
C 9.45586 2.59064 -0.68241
N 16.06791 0.77589 -0.74707
C 15.06709 0.78907 -1.64492
C 15.58421 0.54115 -3.04188
C 17.17823 0.59914 -2.92653
C 17.31470 0.79027 -1.40002
C 15.16825 -0.78417 -3.67976
C 17.91605 1.59310 -3.86479
C 17.58260 3.01515 -3.47494
N 17.89664 1.23850 1.48432
C 18.86031 0.91244 0.50497
C 20.15963 0.78862 1.19695
C 19.85535 1.03051 2.54506
C 18.46123 1.26706 2.68635
C 21.39778 0.44223 0.58610
C 20.39478 1.12904 3.88222
O 21.52570 1.10937 4.36633
C 19.18593 1.16016 4.91378
C 19.43462 2.27966 5.88712
O 19.43482 3.46257 5.50328
O 19.41467 1.78750 7.13922
C 19.64569 2.86199 8.14118
H 12.33218 0.61661 3.96530
H 13.21867 1.10310 -2.19822
H 19.42722 0.60007 -1.40096
H 16.55521 0.58590 6.52250
H 13.80339 0.98039 6.06539
H 15.60455 -1.37588 5.68599
H 14.20213 -1.32766 4.59732
H 13.91266 -1.33502 6.31074
H 14.93079 3.08352 5.98493
H 16.71813 3.24493 6.14162
H 15.76643 1.76302 8.37897
H 14.50150 2.88289 8.01739
H 10.47419 1.37484 3.32210
H 9.60431 0.98341 1.87667
H 9.86516 2.70408 2.24822
H 8.97975 1.80477 -0.10088
H 8.95426 2.89569 -1.60286
H 9.55975 3.45527 -0.01740
H 15.25251 1.31742 -3.72047
H 17.63951 -0.37068 -3.16428
H 14.64093 -0.65790 -4.64415
H 14.54841 -1.32246 -2.97507
H 15.98084 -1.48680 -3.85641
H 17.57489 1.46561 -4.89508
H 18.99374 1.46827 -3.86463
H 16.62745 3.19159 -3.97858
H 18.34930 3.69996 -3.83164
H 17.40633 3.09643 -2.39606
H 22.14526 1.10650 0.99902
H 21.34414 0.52725 -0.49726
H 21.49210 -0.59704 0.91211
H 19.15163 0.18832 5.40766
H 20.49876 2.55107 8.75214
H 18.67833 2.99989 8.65977
H 19.98674 3.82343 7.77543
