79

Mg 7.88314 0.70970 0.59883
C 8.05544 -2.76755 -0.23258
C 6.85087 -0.23798 3.71000
C 7.28834 3.76350 1.21293
C 7.82029 1.37313 -2.82192
N 7.53725 -1.28067 1.50407
C 7.69760 -2.53611 1.09746
C 7.52312 -3.58222 2.23877
C 6.61273 -2.72559 3.22841
C 7.05070 -1.33137 2.81579
C 5.11817 -2.87039 2.96041
C 8.88660 -3.96865 2.90460
C 8.84876 -5.21310 3.79639
H 10.00887 -6.09105 3.82307
N 7.64782 1.64791 2.32140
C 7.23618 1.10235 3.49110
C 7.22278 2.20726 4.47378
C 7.47724 3.47563 3.73582
C 7.45500 3.01023 2.37263
C 7.03475 1.99773 5.94500
C 7.69398 4.88545 4.18700
O 7.66636 5.87168 3.37389
C 7.85358 5.09379 5.63758
N 7.37328 2.32923 -0.61558
C 7.22936 3.55677 -0.10427
C 7.14625 4.59255 -1.18603
C 7.50873 3.84032 -2.54710
C 7.66602 2.40451 -1.98854
C 5.79002 5.29533 -1.33691
C 8.66375 4.43357 -3.39234
C 9.97423 4.27329 -2.65475
N 8.10569 -0.44542 -1.22523
C 8.02109 0.03197 -2.54114
C 8.12944 -1.13740 -3.43271
C 8.25372 -2.22269 -2.56754
C 8.19847 -1.76340 -1.22058
C 8.04852 -1.11279 -4.85302
C 8.39560 -3.66620 -2.46749
O 8.58858 -4.57658 -3.27463
C 8.15058 -4.08994 -0.95216
C 9.25923 -5.02712 -0.55734
O 10.43733 -4.62444 -0.47189
O 8.73143 -6.17891 -0.11535
C 9.77729 -7.14251 0.32030
H 6.29763 -0.40760 4.63580
H 7.19118 4.83857 1.37798
H 7.89360 1.51195 -3.90211
H 6.99960 -4.49221 1.94508
H 6.86394 -2.90806 4.27307
H 4.92995 -3.43850 2.04951
H 4.74068 -1.85267 2.85919
H 4.60867 -3.29423 3.82618
H 9.14986 -3.21588 3.64763
H 9.66408 -4.08974 2.14949
H 7.93700 -5.78964 3.63764
H 8.78597 -4.88740 4.83474
H 6.70570 0.98316 6.16620
H 6.19973 2.62713 6.25210
H 7.92509 2.26448 6.51461
H 6.96468 4.72995 6.15336
H 8.08796 6.14996 5.76568
H 8.68504 4.48413 5.99247
H 7.86589 5.39262 -1.01748
H 6.66375 3.81035 -3.23542
H 5.84699 6.38054 -1.24866
H 5.10974 4.87783 -0.59516
H 5.26158 5.07481 -2.26402
H 8.51105 5.50118 -3.54669
H 8.76291 3.96757 -4.37277
H 9.98378 5.13307 -1.98578
H 10.81099 4.31257 -3.35297
H 9.97454 3.37725 -2.03378
H 8.83855 -1.77066 -5.21500
H 8.16800 -0.10068 -5.23897
H 7.04161 -1.50136 -5.00467
H 7.17428 -4.57224 -0.91547
H 9.62079 -8.06250 -0.24304
H 9.71425 -7.19783 1.40721
H 10.80279 -6.90076 0.03880
