158

Mg 0.00000 0.00000 0.00000
C -0.21700 -2.21800 2.80100
C -1.25500 2.44200 2.02600
C -0.24500 1.85000 -2.56400
C 0.14600 -2.82400 -2.03700
N -0.61700 -0.00900 2.12600
C -0.59400 -0.90800 3.10500
C -0.93600 -0.30900 4.50200
C -1.77300 0.96400 4.03200
C -1.15500 1.16800 2.66000
C -3.26300 0.68500 3.86300
C 0.34500 0.11000 5.29900
C 0.12400 0.39700 6.78700
H 1.16800 0.03300 7.73300
N -0.18500 1.96100 -0.15200
C -0.70300 2.80000 0.77700
C -0.62000 4.15600 0.19300
C -0.18700 4.01500 -1.22500
C -0.21400 2.58300 -1.38000
C -0.88700 5.40600 0.97400
C 0.18100 5.01300 -2.27700
O 0.30300 4.69000 -3.50800
C 0.31000 6.41400 -1.83700
N -0.26500 -0.41300 -2.02900
C -0.27900 0.56900 -2.93700
C -0.19600 0.02400 -4.33200
C 0.12400 -1.53300 -4.18000
C 0.08600 -1.63200 -2.63500
C -1.45100 0.20500 -5.19700
C 1.37300 -2.07000 -4.92300
C 2.62600 -1.49000 -4.30600
N 0.15000 -2.14400 0.30300
C 0.17300 -3.13600 -0.68800
C 0.17300 -4.43800 0.00400
C 0.13300 -4.11100 1.35800
C 0.08300 -2.69500 1.50200
C 0.14900 -5.71500 -0.62300
C 0.09600 -4.62900 2.71600
O 0.20800 -5.74700 3.22100
C -0.25500 -3.42800 3.70100
C 0.71700 -3.48200 4.84800
O 1.93100 -3.25500 4.66900
O 0.03800 -3.55600 6.00300
C 0.94300 -3.58300 7.18300
H -1.85900 3.22000 2.49700
H -0.21800 2.45300 -3.47400
H 0.27600 -3.74700 -2.60500
H -1.55400 -0.94900 5.13200
H -1.58500 1.83100 4.66500
H -3.48400 -0.37700 3.96900
H -3.51100 1.02700 2.85800
H -3.85200 1.30100 4.54300
H 0.66900 1.09600 4.96600
H 1.13000 -0.63900 5.18900
H -0.84400 0.02600 7.12500
H 0.06200 1.47700 6.92100
H -1.34400 5.18600 1.93800
H -1.65100 5.96300 0.43200
H 0.00700 6.02000 1.08400
H -0.63500 6.74400 -1.40500
H 0.66500 6.97000 -2.70400
H 1.04800 6.46600 -1.03600
H 0.60800 0.50100 -4.89100
H -0.69200 -2.15600 -4.54700
H -1.26700 0.74000 -6.12900
H -2.20400 0.71400 -4.59600
H -1.96700 -0.72000 -5.45300
H 1.35600 -1.75900 -5.96700
H 1.45200 -3.15700 -4.90200
H 2.71400 -0.52200 -4.79800
H 3.48700 -2.12100 -4.52900
H 2.49500 -1.30300 -3.24000
H 0.86700 -6.33300 -0.08400
H 0.40400 -5.64200 -1.68000
H -0.89100 -5.99900 -0.46300
H -1.28300 -3.58100 4.02800
H 0.69800 -4.47800 7.75500
H 0.83300 -2.61900 7.68000
H 2.00000 -3.75400 6.97600
Mg 13.13255 1.17748 1.00495
C 12.22064 3.79479 3.28467
C 14.57904 -0.41830 3.64989
C 14.33871 -0.91994 -1.04772
C 12.64629 3.45561 -1.58723
N 13.31077 1.71865 3.14215
C 12.87182 2.70833 3.90517
C 13.07510 2.48534 5.42783
C 14.30141 1.45087 5.35777
C 14.03464 0.84853 3.97984
C 15.66057 2.12991 5.32721
C 11.81804 1.84062 6.11058
C 11.82668 1.87868 7.64036
H 10.55802 2.06490 8.33915
N 13.85215 -0.64720 1.30710
C 14.38049 -1.13474 2.44922
C 14.78185 -2.51774 2.14857
C 14.59821 -2.75305 0.69062
C 14.26838 -1.41350 0.24689
C 15.20661 -3.49073 3.20984
C 14.71437 -3.97813 -0.16489
O 14.74449 -3.90563 -1.44421
C 14.88576 -5.25657 0.54059
N 13.65306 1.30947 -1.00353
C 14.10589 0.23454 -1.67243
C 14.15214 0.49668 -3.15888
C 13.40441 1.89418 -3.37216
C 13.12132 2.25729 -1.89791
C 15.54749 0.56653 -3.77896
C 12.22123 1.91293 -4.37834
C 11.07236 1.09132 -3.83941
N 12.36741 3.19010 0.82614
C 12.27609 3.96659 -0.34979
C 11.80035 5.30700 0.04944
C 11.66884 5.22368 1.44381
C 12.05595 3.92941 1.88485
C 11.59575 6.41159 -0.82472
C 11.30071 5.93963 2.64405
O 10.81133 7.04316 2.88168
C 11.76218 5.08629 3.90311
C 10.61333 5.02998 4.87239
O 9.56125 4.43883 4.57190
O 11.02261 5.49161 6.06811
C 9.92097 5.44530 7.06614
H 15.25740 -0.89233 4.35983
H 14.64390 -1.63970 -1.81079
H 12.37604 4.19154 -2.34753
H 13.36602 3.36991 5.98163
H 14.22029 0.68932 6.12901
H 15.57313 3.20255 5.23815
H 16.17513 1.71964 4.46818
H 16.24920 1.83460 6.20050
H 11.84036 0.75512 5.94952
H 10.91424 2.28643 5.74312
H 12.58545 2.56745 8.03127
H 12.13828 0.89877 8.01011
H 15.40268 -2.98544 4.16359
H 16.18156 -3.88816 2.90755
H 14.50661 -4.32110 3.32450
H 15.78015 -5.21156 1.15745
H 14.85998 -6.02422 -0.23524
H 14.03967 -5.39590 1.22274
H 13.62017 -0.27330 -3.70409
H 14.08550 2.66558 -3.76059
H 15.69532 -0.15607 -4.60362
H 16.27715 0.40515 -2.99660
H 15.83352 1.54400 -4.16358
H 12.51900 1.44880 -5.32177
H 11.86603 2.91179 -4.60882
H 11.34500 0.07027 -4.12260
H 10.13525 1.39265 -4.30316
H 11.03904 1.13197 -2.74447
H 10.65935 6.86914 -0.53435
H 11.57923 6.09676 -1.86606
H 12.47945 7.01142 -0.59120
H 12.63529 5.58010 4.33136
H 9.81006 6.45766 7.46678
H 10.19893 4.64827 7.78115
H 8.91979 5.25230 6.69893
