158

Mg 0.00000 0.00000 0.00000
C -0.21700 -2.21800 2.80100
C -1.25500 2.44200 2.02600
C -0.24500 1.85000 -2.56400
C 0.14600 -2.82400 -2.03700
N -0.61700 -0.00900 2.12600
C -0.59400 -0.90800 3.10500
C -0.93600 -0.30900 4.50200
C -1.77300 0.96400 4.03200
C -1.15500 1.16800 2.66000
C -3.26300 0.68500 3.86300
C 0.34500 0.11000 5.29900
C 0.12400 0.39700 6.78700
H 1.16800 0.03300 7.73300
N -0.18500 1.96100 -0.15200
C -0.70300 2.80000 0.77700
C -0.62000 4.15600 0.19300
C -0.18700 4.01500 -1.22500
C -0.21400 2.58300 -1.38000
C -0.88700 5.40600 0.97400
C 0.18100 5.01300 -2.27700
O 0.30300 4.69000 -3.50800
C 0.31000 6.41400 -1.83700
N -0.26500 -0.41300 -2.02900
C -0.27900 0.56900 -2.93700
C -0.19600 0.02400 -4.33200
C 0.12400 -1.53300 -4.18000
C 0.08600 -1.63200 -2.63500
C -1.45100 0.20500 -5.19700
C 1.37300 -2.07000 -4.92300
C 2.62600 -1.49000 -4.30600
N 0.15000 -2.14400 0.30300
C 0.17300 -3.13600 -0.68800
C 0.17300 -4.43800 0.00400
C 0.13300 -4.11100 1.35800
C 0.08300 -2.69500 1.50200
C 0.14900 -5.71500 -0.62300
C 0.09600 -4.62900 2.71600
O 0.20800 -5.74700 3.22100
C -0.25500 -3.42800 3.70100
C 0.71700 -3.48200 4.84800
O 1.93100 -3.25500 4.66900
O 0.03800 -3.55600 6.00300
C 0.94300 -3.58300 7.18300
H -1.85900 3.22000 2.49700
H -0.21800 2.45300 -3.47400
H 0.27600 -3.74700 -2.60500
H -1.55400 -0.94900 5.13200
H -1.58500 1.83100 4.66500
H -3.48400 -0.37700 3.96900
H -3.51100 1.02700 2.85800
H -3.85200 1.30100 4.54300
H 0.66900 1.09600 4.96600
H 1.13000 -0.63900 5.18900
H -0.84400 0.02600 7.12500
H 0.06200 1.47700 6.92100
H -1.34400 5.18600 1.93800
H -1.65100 5.96300 0.43200
H 0.00700 6.02000 1.08400
H -0.63500 6.74400 -1.40500
H 0.66500 6.97000 -2.70400
H 1.04800 6.46600 -1.03600
H 0.60800 0.50100 -4.89100
H -0.69200 -2.15600 -4.54700
H -1.26700 0.74000 -6.12900
H -2.20400 0.71400 -4.59600
H -1.96700 -0.72000 -5.45300
H 1.35600 -1.75900 -5.96700
H 1.45200 -3.15700 -4.90200
H 2.71400 -0.52200 -4.79800
H 3.48700 -2.12100 -4.52900
H 2.49500 -1.30300 -3.24000
H 0.86700 -6.33300 -0.08400
H 0.40400 -5.64200 -1.68000
H -0.89100 -5.99900 -0.46300
H -1.28300 -3.58100 4.02800
H 0.69800 -4.47800 7.75500
H 0.83300 -2.61900 7.68000
H 2.00000 -3.75400 6.97600
Mg 13.14488 1.18814 1.00471
C 12.89751 -0.85216 3.94665
C 11.88918 3.75810 2.86296
C 12.92640 2.88310 -1.66865
C 13.28212 -1.75526 -0.85627
N 12.51387 1.31349 3.12092
C 12.52303 0.49100 4.15908
C 12.18457 1.16436 5.51614
C 11.34890 2.41814 4.96066
C 11.97523 2.53365 3.57248
C 9.86683 2.12696 4.79324
C 13.46843 1.62735 6.29031
C 13.23404 2.01076 7.75312
H 14.27658 1.70428 8.72864
N 12.97266 3.14696 0.73646
C 12.46060 4.04514 1.60383
C 12.54032 5.34881 0.92688
C 12.98905 5.12326 -0.47400
C 12.95945 3.67550 -0.53042
C 12.28338 6.64889 1.63201
C 13.36818 6.05652 -1.58373
O 13.49759 5.64864 -2.79192
C 13.49209 7.47840 -1.23102
N 12.89620 0.65177 -0.98848
C 12.88638 1.58252 -1.95882
C 12.97260 0.94643 -3.32569
C 13.28740 -0.59907 -3.06127
C 13.23819 -0.60684 -1.51760
C 11.72245 1.06913 -4.19659
C 14.53910 -1.19257 -3.76388
C 15.79433 -0.57701 -3.18866
N 13.28621 -0.92307 1.44156
C 13.30383 -1.98693 0.51313
C 13.29325 -3.24324 1.29029
C 13.24659 -2.81988 2.62711
C 13.20891 -1.40023 2.67882
C 13.27666 -4.55823 0.74565
C 13.20990 -3.25130 4.00596
O 13.30615 -4.33534 4.57984
C 12.85457 -1.99899 4.91801
C 13.81910 -1.97623 6.07200
O 15.03154 -1.77831 5.87856
O 13.12625 -1.97442 7.22540
C 14.03920 -1.94105 8.39896
H 11.29224 4.56439 3.29009
H 12.96221 3.42101 -2.61883
H 13.42238 -2.71401 -1.36006
H 11.56626 0.56881 6.17704
H 11.54624 3.31392 5.54375
H 9.63909 1.08528 4.96403
H 9.62551 2.40509 3.77567
H 9.27781 2.78901 5.43439
H 13.79658 2.59623 5.89240
H 14.23843 0.88292 6.23079
H 12.25619 1.67198 8.11644
H 13.18301 3.10008 7.82245
H 11.81249 6.48987 2.60996
H 11.52574 7.18426 1.04957
H 13.17740 7.27170 1.70619
H 12.54829 7.83299 -0.82365
H 13.85630 7.97274 -2.13371
H 14.23633 7.57731 -0.43294
H 13.78260 1.37646 -3.90196
H 12.46740 -1.24654 -3.40508
H 11.91621 1.55272 -5.17264
H 10.97289 1.61820 -3.64232
H 11.21256 0.13064 -4.40742
H 14.53034 -0.94282 -4.82770
H 14.60600 -2.27269 -3.68721
H 15.88411 0.36276 -3.74169
H 16.65273 -1.22214 -3.36470
H 15.65978 -0.32511 -2.13031
H 13.98151 -5.14278 1.32184
H 13.53318 -4.55390 -0.31168
H 12.22983 -4.82545 0.91298
H 11.82229 -2.11755 5.24954
H 13.78299 -2.79948 9.02757
H 13.91641 -0.93598 8.84449
H 15.09321 -2.11766 8.21919
