158

Mg 0.00000 0.00000 0.00000
C -0.21700 -2.21800 2.80100
C -1.25500 2.44200 2.02600
C -0.24500 1.85000 -2.56400
C 0.14600 -2.82400 -2.03700
N -0.61700 -0.00900 2.12600
C -0.59400 -0.90800 3.10500
C -0.93600 -0.30900 4.50200
C -1.77300 0.96400 4.03200
C -1.15500 1.16800 2.66000
C -3.26300 0.68500 3.86300
C 0.34500 0.11000 5.29900
C 0.12400 0.39700 6.78700
H 1.16800 0.03300 7.73300
N -0.18500 1.96100 -0.15200
C -0.70300 2.80000 0.77700
C -0.62000 4.15600 0.19300
C -0.18700 4.01500 -1.22500
C -0.21400 2.58300 -1.38000
C -0.88700 5.40600 0.97400
C 0.18100 5.01300 -2.27700
O 0.30300 4.69000 -3.50800
C 0.31000 6.41400 -1.83700
N -0.26500 -0.41300 -2.02900
C -0.27900 0.56900 -2.93700
C -0.19600 0.02400 -4.33200
C 0.12400 -1.53300 -4.18000
C 0.08600 -1.63200 -2.63500
C -1.45100 0.20500 -5.19700
C 1.37300 -2.07000 -4.92300
C 2.62600 -1.49000 -4.30600
N 0.15000 -2.14400 0.30300
C 0.17300 -3.13600 -0.68800
C 0.17300 -4.43800 0.00400
C 0.13300 -4.11100 1.35800
C 0.08300 -2.69500 1.50200
C 0.14900 -5.71500 -0.62300
C 0.09600 -4.62900 2.71600
O 0.20800 -5.74700 3.22100
C -0.25500 -3.42800 3.70100
C 0.71700 -3.48200 4.84800
O 1.93100 -3.25500 4.66900
O 0.03800 -3.55600 6.00300
C 0.94300 -3.58300 7.18300
H -1.85900 3.22000 2.49700
H -0.21800 2.45300 -3.47400
H 0.27600 -3.74700 -2.60500
H -1.55400 -0.94900 5.13200
H -1.58500 1.83100 4.66500
H -3.48400 -0.37700 3.96900
H -3.51100 1.02700 2.85800
H -3.85200 1.30100 4.54300
H 0.66900 1.09600 4.96600
H 1.13000 -0.63900 5.18900
H -0.84400 0.02600 7.12500
H 0.06200 1.47700 6.92100
H -1.34400 5.18600 1.93800
H -1.65100 5.96300 0.43200
H 0.00700 6.02000 1.08400
H -0.63500 6.74400 -1.40500
H 0.66500 6.97000 -2.70400
H 1.04800 6.46600 -1.03600
H 0.60800 0.50100 -4.89100
H -0.69200 -2.15600 -4.54700
H -1.26700 0.74000 -6.12900
H -2.20400 0.71400 -4.59600
H -1.96700 -0.72000 -5.45300
H 1.35600 -1.75900 -5.96700
H 1.45200 -3.15700 -4.90200
H 2.71400 -0.52200 -4.79800
H 3.48700 -2.12100 -4.52900
H 2.49500 -1.30300 -3.24000
H 0.86700 -6.33300 -0.08400
H 0.40400 -5.64200 -1.68000
H -0.89100 -5.99900 -0.46300
H -1.28300 -3.58100 4.02800
H 0.69800 -4.47800 7.75500
H 0.83300 -2.61900 7.68000
H 2.00000 -3.75400 6.97600
Mg 15.77378 1.41993 1.20513
C 14.21519 -0.41948 3.86341
C 15.88895 4.09177 3.32234
C 16.73171 3.19384 -1.24498
C 14.51698 -0.96970 -0.99846
N 15.10731 1.67903 3.29820
C 14.58494 0.89224 4.22688
C 14.52532 1.52217 5.64434
C 14.53039 3.07087 5.21965
C 15.25112 2.95409 3.87816
C 13.14012 3.63039 4.96779
C 15.78133 1.16050 6.51247
C 15.64727 1.48179 8.00262
H 16.27573 0.58377 8.96755
N 16.68345 3.18348 1.17449
C 16.64134 4.13748 2.12812
C 17.45790 5.25064 1.61994
C 17.85035 4.94260 0.21786
C 17.06932 3.74479 -0.01737
C 17.85804 6.42088 2.47073
C 18.76593 5.62179 -0.75508
O 18.77444 5.31388 -1.99924
C 19.58521 6.72193 -0.22598
N 15.46890 1.27326 -0.84618
C 16.04126 2.14564 -1.69429
C 15.90817 1.68241 -3.12540
C 15.33673 0.19102 -3.04286
C 15.14591 0.07738 -1.51444
C 14.99773 2.52739 -4.01619
C 16.14884 -0.91510 -3.77062
C 17.47958 -1.11590 -3.08200
N 14.74201 -0.46999 1.38318
C 14.28477 -1.29454 0.33193
C 13.54213 -2.41337 0.94767
C 13.59962 -2.14766 2.32411
C 14.30943 -0.93724 2.54896
C 12.88783 -3.46420 0.24499
C 13.21211 -2.61030 3.63731
O 12.66949 -3.62353 4.07625
C 13.48450 -1.44569 4.68414
C 14.20336 -2.04043 5.86400
O 15.35058 -2.50352 5.73737
O 13.51016 -1.76917 6.98483
C 14.18915 -2.32917 8.18366
H 15.76815 5.05171 3.82515
H 17.13417 3.70954 -2.11994
H 14.17876 -1.80786 -1.61147
H 13.62732 1.29348 6.20566
H 15.11344 3.66919 5.91493
H 12.38377 2.86035 5.00123
H 13.17804 4.08103 3.98467
H 12.93004 4.44622 5.66538
H 16.60563 1.83535 6.24818
H 16.04640 0.12861 6.38771
H 14.60833 1.68659 8.28829
H 16.17043 2.41979 8.20381
H 17.28441 6.45362 3.40523
H 17.55385 7.32568 1.93346
H 18.93435 6.46202 2.65114
H 18.93552 7.48834 0.18992
H 20.23792 7.02179 -1.04813
H 20.19135 6.33947 0.60284
H 16.87322 1.66228 -3.61670
H 14.33538 0.11296 -3.49122
H 15.50759 2.91541 -4.91818
H 14.60069 3.34122 -3.42411
H 14.09301 2.02759 -4.35805
H 16.37278 -0.60833 -4.79527
H 15.63021 -1.86642 -3.82534
H 18.10165 -0.32506 -3.51175
H 17.88256 -2.10128 -3.30711
H 17.39880 -0.92359 -2.00583
H 13.12212 -4.38171 0.76823
H 13.20636 -3.50597 -0.79451
H 11.84662 -3.14546 0.34276
H 12.51834 -1.02377 4.96357
H 13.46206 -2.96934 8.69278
H 14.57198 -1.45631 8.74518
H 15.00421 -3.02419 8.01913
