158

Mg 0.00000 0.00000 0.00000
C -0.21700 -2.21800 2.80100
C -1.25500 2.44200 2.02600
C -0.24500 1.85000 -2.56400
C 0.14600 -2.82400 -2.03700
N -0.61700 -0.00900 2.12600
C -0.59400 -0.90800 3.10500
C -0.93600 -0.30900 4.50200
C -1.77300 0.96400 4.03200
C -1.15500 1.16800 2.66000
C -3.26300 0.68500 3.86300
C 0.34500 0.11000 5.29900
C 0.12400 0.39700 6.78700
H 1.16800 0.03300 7.73300
N -0.18500 1.96100 -0.15200
C -0.70300 2.80000 0.77700
C -0.62000 4.15600 0.19300
C -0.18700 4.01500 -1.22500
C -0.21400 2.58300 -1.38000
C -0.88700 5.40600 0.97400
C 0.18100 5.01300 -2.27700
O 0.30300 4.69000 -3.50800
C 0.31000 6.41400 -1.83700
N -0.26500 -0.41300 -2.02900
C -0.27900 0.56900 -2.93700
C -0.19600 0.02400 -4.33200
C 0.12400 -1.53300 -4.18000
C 0.08600 -1.63200 -2.63500
C -1.45100 0.20500 -5.19700
C 1.37300 -2.07000 -4.92300
C 2.62600 -1.49000 -4.30600
N 0.15000 -2.14400 0.30300
C 0.17300 -3.13600 -0.68800
C 0.17300 -4.43800 0.00400
C 0.13300 -4.11100 1.35800
C 0.08300 -2.69500 1.50200
C 0.14900 -5.71500 -0.62300
C 0.09600 -4.62900 2.71600
O 0.20800 -5.74700 3.22100
C -0.25500 -3.42800 3.70100
C 0.71700 -3.48200 4.84800
O 1.93100 -3.25500 4.66900
O 0.03800 -3.55600 6.00300
C 0.94300 -3.58300 7.18300
H -1.85900 3.22000 2.49700
H -0.21800 2.45300 -3.47400
H 0.27600 -3.74700 -2.60500
H -1.55400 -0.94900 5.13200
H -1.58500 1.83100 4.66500
H -3.48400 -0.37700 3.96900
H -3.51100 1.02700 2.85800
H -3.85200 1.30100 4.54300
H 0.66900 1.09600 4.96600
H 1.13000 -0.63900 5.18900
H -0.84400 0.02600 7.12500
H 0.06200 1.47700 6.92100
H -1.34400 5.18600 1.93800
H -1.65100 5.96300 0.43200
H 0.00700 6.02000 1.08400
H -0.63500 6.74400 -1.40500
H 0.66500 6.97000 -2.70400
H 1.04800 6.46600 -1.03600
H 0.60800 0.50100 -4.89100
H -0.69200 -2.15600 -4.54700
H -1.26700 0.74000 -6.12900
H -2.20400 0.71400 -4.59600
H -1.96700 -0.72000 -5.45300
H 1.35600 -1.75900 -5.96700
H 1.45200 -3.15700 -4.90200
H 2.71400 -0.52200 -4.79800
H 3.48700 -2.12100 -4.52900
H 2.49500 -1.30300 -3.24000
H 0.86700 -6.33300 -0.08400
H 0.40400 -5.64200 -1.68000
H -0.89100 -5.99900 -0.46300
H -1.28300 -3.58100 4.02800
H 0.69800 -4.47800 7.75500
H 0.83300 -2.61900 7.68000
H 2.00000 -3.75400 6.97600
Mg 15.76628 1.41940 1.19766
C 15.77766 -1.96216 2.37117
C 14.57086 2.32231 4.26341
C 15.31800 4.33856 0.04260
C 15.86464 0.13967 -2.04244
N 15.27891 0.23872 3.00573
C 15.38483 -1.04205 3.34571
C 15.11173 -1.30474 4.85692
C 14.21426 -0.02629 5.17649
C 14.74283 0.91470 4.10828
C 12.72476 -0.25257 4.93836
C 16.42676 -1.30850 5.70686
C 16.28821 -1.87618 7.12245
H 17.39664 -2.63248 7.68525
N 15.52018 3.14288 2.13141
C 15.03687 3.32352 3.38404
C 15.04832 4.78348 3.61872
C 15.39874 5.44829 2.33290
C 15.40068 4.32338 1.43294
C 14.79558 5.40347 4.95868
C 15.67593 6.87305 1.97047
O 15.73214 7.26725 0.75555
C 15.79376 7.82473 3.09005
N 15.39067 2.14415 -0.72361
C 15.29580 3.45730 -0.95946
C 15.30914 3.75020 -2.43051
C 15.67916 2.37450 -3.15183
C 15.73694 1.46111 -1.90257
C 13.99993 4.29734 -3.01586
C 16.89502 2.38876 -4.11197
C 18.16698 2.61557 -3.32599
N 15.99143 -0.54110 0.29390
C 15.98117 -0.84459 -1.07521
C 16.05760 -2.31236 -1.19291
C 16.09051 -2.76460 0.12475
C 16.01150 -1.65150 1.00965
C 16.02997 -3.05360 -2.40710
C 16.14921 -3.93076 0.99106
O 16.32123 -5.13716 0.81079
C 15.82625 -3.46597 2.47952
C 16.86667 -4.07275 3.38100
O 18.06119 -3.71895 3.30813
O 16.26068 -4.79128 4.33862
C 17.23551 -5.39667 5.28486
H 13.97577 2.69226 5.10064
H 15.27403 5.33571 -0.40033
H 15.98479 -0.32647 -3.02210
H 14.55010 -2.21546 5.06569
H 14.41683 0.37529 6.16917
H 12.53897 -1.21626 4.46433
H 12.40764 0.56050 4.28503
H 12.16156 -0.13029 5.86390
H 16.70369 -0.28155 5.94508
H 17.22342 -1.83752 5.18265
H 15.35257 -2.42300 7.24278
H 16.20559 -1.04146 7.81860
H 14.40351 4.67647 5.66881
H 13.98573 6.12126 4.82974
H 15.67787 5.91090 5.34906
H 14.86803 7.81940 3.66584
H 16.08093 8.77724 2.64609
H 16.57702 7.47982 3.76570
H 16.06499 4.49575 -2.67395
H 14.85945 2.00149 -3.76633
H 14.11312 5.25760 -3.51962
H 13.27118 4.36280 -2.20843
H 13.49432 3.62686 -3.71029
H 16.80688 3.20929 -4.82325
H 17.00413 1.46602 -4.68197
H 18.19932 3.69960 -3.22275
H 19.02952 2.25069 -3.88464
H 18.09548 2.19471 -2.32287
H 16.79537 -3.82370 -2.31183
H 16.21880 -2.41170 -3.26728
H 15.00945 -3.43569 -2.38724
H 14.82426 -3.82652 2.71005
H 17.04939 -6.47068 5.29399
H 17.12996 -4.85684 6.22605
H 18.28231 -5.37181 4.98001
