158

Mg 0.00000 0.00000 0.00000
C -0.21700 -2.21800 2.80100
C -1.25500 2.44200 2.02600
C -0.24500 1.85000 -2.56400
C 0.14600 -2.82400 -2.03700
N -0.61700 -0.00900 2.12600
C -0.59400 -0.90800 3.10500
C -0.93600 -0.30900 4.50200
C -1.77300 0.96400 4.03200
C -1.15500 1.16800 2.66000
C -3.26300 0.68500 3.86300
C 0.34500 0.11000 5.29900
C 0.12400 0.39700 6.78700
H 1.16800 0.03300 7.73300
N -0.18500 1.96100 -0.15200
C -0.70300 2.80000 0.77700
C -0.62000 4.15600 0.19300
C -0.18700 4.01500 -1.22500
C -0.21400 2.58300 -1.38000
C -0.88700 5.40600 0.97400
C 0.18100 5.01300 -2.27700
O 0.30300 4.69000 -3.50800
C 0.31000 6.41400 -1.83700
N -0.26500 -0.41300 -2.02900
C -0.27900 0.56900 -2.93700
C -0.19600 0.02400 -4.33200
C 0.12400 -1.53300 -4.18000
C 0.08600 -1.63200 -2.63500
C -1.45100 0.20500 -5.19700
C 1.37300 -2.07000 -4.92300
C 2.62600 -1.49000 -4.30600
N 0.15000 -2.14400 0.30300
C 0.17300 -3.13600 -0.68800
C 0.17300 -4.43800 0.00400
C 0.13300 -4.11100 1.35800
C 0.08300 -2.69500 1.50200
C 0.14900 -5.71500 -0.62300
C 0.09600 -4.62900 2.71600
O 0.20800 -5.74700 3.22100
C -0.25500 -3.42800 3.70100
C 0.71700 -3.48200 4.84800
O 1.93100 -3.25500 4.66900
O 0.03800 -3.55600 6.00300
C 0.94300 -3.58300 7.18300
H -1.85900 3.22000 2.49700
H -0.21800 2.45300 -3.47400
H 0.27600 -3.74700 -2.60500
H -1.55400 -0.94900 5.13200
H -1.58500 1.83100 4.66500
H -3.48400 -0.37700 3.96900
H -3.51100 1.02700 2.85800
H -3.85200 1.30100 4.54300
H 0.66900 1.09600 4.96600
H 1.13000 -0.63900 5.18900
H -0.84400 0.02600 7.12500
H 0.06200 1.47700 6.92100
H -1.34400 5.18600 1.93800
H -1.65100 5.96300 0.43200
H 0.00700 6.02000 1.08400
H -0.63500 6.74400 -1.40500
H 0.66500 6.97000 -2.70400
H 1.04800 6.46600 -1.03600
H 0.60800 0.50100 -4.89100
H -0.69200 -2.15600 -4.54700
H -1.26700 0.74000 -6.12900
H -2.20400 0.71400 -4.59600
H -1.96700 -0.72000 -5.45300
H 1.35600 -1.75900 -5.96700
H 1.45200 -3.15700 -4.90200
H 2.71400 -0.52200 -4.79800
H 3.48700 -2.12100 -4.52900
H 2.49500 -1.30300 -3.24000
H 0.86700 -6.33300 -0.08400
H 0.40400 -5.64200 -1.68000
H -0.89100 -5.99900 -0.46300
H -1.28300 -3.58100 4.02800
H 0.69800 -4.47800 7.75500
H 0.83300 -2.61900 7.68000
H 2.00000 -3.75400 6.97600
Mg 7.88314 0.70970 0.59883
C 8.09973 -1.92340 -1.81614
C 7.04145 -1.66842 2.89647
C 7.24407 3.05687 2.63329
C 7.62246 2.93593 -2.06980
N 7.63647 -1.48448 0.43953
C 7.80700 -2.37915 -0.52880
C 7.71989 -3.85282 -0.03072
C 6.84161 -3.62400 1.28011
C 7.22147 -2.18440 1.57875
C 5.33914 -3.69306 1.02654
C 9.12609 -4.44655 0.31829
C 9.16722 -5.96692 0.49755
H 10.34910 -6.69231 0.05675
N 7.71548 0.68894 2.56716
C 7.38036 -0.37186 3.34025
C 7.39083 0.12048 4.73458
C 7.57348 1.59801 4.69405
C 7.49100 1.84685 3.27749
C 7.28632 -0.78097 5.92631
C 7.77781 2.62430 5.76321
O 7.68208 3.87772 5.53008
C 8.00860 2.11503 7.12718
N 7.26862 2.68750 0.33748
C 7.12074 3.50808 1.38331
C 6.95413 4.93167 0.94109
C 7.26313 4.94699 -0.62545
C 7.48628 3.42916 -0.83682
C 5.57436 5.55430 1.19521
C 8.35630 5.92870 -1.11700
C 9.70764 5.49571 -0.59404
N 8.03820 0.58900 -1.56275
C 7.87194 1.63688 -2.47980
C 7.96272 1.04878 -3.82886
C 8.16022 -0.31177 -3.60141
C 8.16465 -0.56184 -2.19936
C 7.80615 1.75103 -5.05637
C 8.34393 -1.61606 -4.21698
O 8.51706 -2.01423 -5.36979
C 8.19033 -2.72891 -3.08834
C 9.34183 -3.68603 -3.23408
O 10.51216 -3.31852 -3.00465
O 8.86768 -4.93200 -3.38671
C 9.95934 -5.93492 -3.50738
H 6.54248 -2.28954 3.64292
H 7.12841 3.91318 3.30096
H 7.63495 3.58154 -2.94985
H 7.20490 -4.53244 -0.70994
H 7.15232 -4.27514 2.09693
H 5.11751 -3.76003 -0.03851
H 4.93101 -2.77198 1.44313
H 4.88714 -4.50556 1.59602
H 9.40904 -4.13352 1.32328
H 9.86535 -4.15129 -0.42713
H 8.26332 -6.43844 0.11085
H 9.15119 -6.18548 1.56534
H 6.99541 -1.79095 5.64020
H 6.45296 -0.41834 6.52774
H 8.19848 -0.77953 6.52321
H 7.15780 1.50555 7.43252
H 8.22244 2.98850 7.74213
H 8.87293 1.45041 7.11438
H 7.66107 5.58484 1.45102
H 6.38394 5.21208 -1.21319
H 5.60825 6.46389 1.79538
H 4.94515 4.79894 1.66512
H 5.00338 5.78295 0.29570
H 8.16850 6.92980 -0.73038
H 8.41528 5.99835 -2.20324
H 9.73067 5.92590 0.40658
H 10.50500 5.90668 -1.21414
H 9.76364 4.41251 -0.48439
H 8.59242 1.38779 -5.71803
H 7.87921 2.82824 -4.90840
H 6.80285 1.43597 -5.34270
H 7.22994 -3.21528 -3.25633
H 9.79673 -6.47574 -4.43975
H 9.95533 -6.51023 -2.58142
H 10.96201 -5.53863 -3.67152
