79

Mg 15.75990 1.41440 1.20449
C 15.00008 4.07216 3.49317
C 17.08652 -0.28280 3.84914
C 16.84464 -0.74419 -0.85251
C 15.43416 3.73190 -1.37791
N 15.95836 1.93230 3.34567
C 15.57773 2.94371 4.11152
C 15.75701 2.70055 5.63411
C 16.91625 1.59135 5.56563
C 16.62080 1.01407 4.18283
C 18.31559 2.18367 5.54691
C 14.45763 2.13270 6.30580
C 14.45903 2.16228 7.83579
H 13.20023 2.42436 8.52804
N 16.36140 -0.45347 1.50084
C 16.85086 -0.97915 2.64337
C 17.16633 -2.38310 2.33748
C 16.97742 -2.59890 0.87719
C 16.73528 -1.23898 0.43891
C 17.52238 -3.38632 3.39588
C 17.02169 -3.82444 0.01564
O 17.06434 -3.74742 -1.26307
C 17.10791 -5.11474 0.71506
N 16.30029 1.52369 -0.80010
C 16.68881 0.42586 -1.47221
C 16.76080 0.69219 -2.95689
C 16.10379 2.13504 -3.16689
C 15.83484 2.50767 -1.69238
C 18.16165 0.67729 -3.56827
C 14.93047 2.23338 -4.17997
C 13.72885 1.48292 -3.65244
N 15.12397 3.47206 1.03225
C 15.08906 4.25879 -0.13990
C 14.69606 5.62442 0.26390
C 14.55081 5.54237 1.65697
C 14.85297 4.22406 2.09316
C 14.56682 6.74416 -0.60535
C 14.22090 6.27390 2.85894
O 13.80039 7.40479 3.09975
C 14.61986 5.38675 4.11599
C 13.46368 5.39786 5.07809
O 12.37842 4.87563 4.76809
O 13.89366 5.82668 6.27876
C 12.78504 5.84465 7.26995
H 17.72925 -0.80221 4.56048
H 17.10876 -1.47780 -1.61772
H 15.21551 4.48727 -2.13573
H 16.09949 3.56220 6.19450
H 16.78256 0.83245 6.33216
H 18.29634 3.26013 5.46326
H 18.80872 1.74625 4.68870
H 18.87899 1.84743 6.42204
H 14.41265 1.04879 6.13888
H 13.58598 2.63637 5.93544
H 15.25714 2.79993 8.23500
H 14.70607 1.16283 8.20197
H 17.74385 -2.89928 4.35355
H 18.47230 -3.84275 3.09720
H 16.77084 -4.17158 3.50178
H 17.99946 -5.12927 1.33746
H 17.03878 -5.87525 -0.06515
H 16.25045 -5.20406 1.39138
H 16.18490 -0.03998 -3.50950
H 16.83447 2.86406 -3.54700
H 18.26892 -0.04893 -4.39601
H 18.87479 0.46630 -2.78248
H 18.51100 1.63679 -3.94578
H 15.20439 1.75628 -5.12417
H 14.64025 3.25377 -4.40705
H 13.93852 0.44820 -3.93963
H 12.81547 1.84500 -4.12008
H 13.69127 1.51996 -2.55751
H 13.65925 7.25823 -0.31804
H 14.53708 6.43635 -1.64849
H 15.48501 7.28599 -0.36328
H 15.51959 5.82245 4.55215
H 12.73549 6.85991 7.67550
H 13.00783 5.02804 7.98218
H 11.77603 5.71691 6.89573
