79

Mg 31.53936 2.84651 2.39274
C 30.91937 5.20893 5.02212
C 30.60455 5.27800 0.19079
C 31.64166 0.66372 0.09222
C 31.31476 0.32815 4.79131
N 30.86994 4.93362 2.68957
C 30.73213 5.74195 3.72973
C 30.45207 7.22340 3.36038
C 29.81859 6.99224 1.90293
C 30.49581 5.66982 1.54901
C 28.31588 6.76745 1.92862
C 31.76492 8.07956 3.28686
C 31.54377 9.59293 3.23624
H 32.50324 10.45965 3.91497
N 31.65343 3.06094 0.42308
C 31.24783 4.12259 -0.30472
C 31.53082 3.78063 -1.70727
C 31.98452 2.36435 -1.76243
C 31.75251 1.95961 -0.39041
C 31.43921 4.78066 -2.82305
C 32.52432 1.51125 -2.87014
O 32.63059 0.23960 -2.75002
C 32.83722 2.19671 -4.13257
N 31.27661 0.78415 2.39321
C 31.42705 0.06781 1.26532
C 31.46306 -1.41278 1.56018
C 31.54855 -1.53173 3.15270
C 31.45302 -0.03553 3.52371
C 30.26912 -2.22130 1.05307
C 32.72419 -2.36385 3.73419
C 34.03614 -1.66367 3.46231
N 31.36821 2.75898 4.54474
C 31.26297 1.60071 5.34563
C 31.05211 2.05099 6.73675
C 31.02609 3.45075 6.64459
C 31.18770 3.84450 5.28873
C 30.86619 1.20456 7.86596
C 30.88803 4.68449 7.38453
O 30.81323 4.97861 8.57686
C 30.68619 5.87428 6.35011
C 31.60965 6.99424 6.74438
O 32.84308 6.84780 6.68270
O 30.89013 8.11759 6.91971
C 31.76347 9.25937 7.30106
H 30.11503 5.89072 -0.56672
H 31.78118 -0.12833 -0.64715
H 31.33313 -0.39333 5.61094
H 29.73657 7.72400 4.00166
H 30.12306 7.77359 1.21145
H 27.93840 6.68246 2.93680
H 28.14650 5.84869 1.38250
H 27.80749 7.55289 1.36210
H 32.23821 7.92602 2.30852
H 32.42354 7.83756 4.09821
H 30.51756 9.86884 3.50775
H 31.64500 9.92395 2.19981
H 30.92182 5.69366 -2.50347
H 30.78234 4.34914 -3.58606
H 32.40961 4.99840 -3.27425
H 31.94127 2.68290 -4.51121
H 33.29415 1.43842 -4.77138
H 33.56399 2.99095 -3.92862
H 32.34237 -1.87233 1.12575
H 30.65590 -2.01746 3.57351
H 30.55804 -3.05245 0.38240
H 29.58848 -1.54661 0.55101
H 29.63831 -2.65008 1.82988
H 32.78229 -3.33561 3.23773
H 32.63562 -2.55107 4.79913
H 34.27404 -1.97347 2.44029
H 34.79971 -1.99520 4.16309
H 33.90721 -0.57510 3.45521
H 31.46406 1.61841 8.66707
H 31.15195 0.17828 7.64491
H 29.78762 1.30800 8.01177
H 29.63814 6.17291 6.39472
H 31.37012 9.66308 8.23913
H 31.77065 9.93544 6.42548
H 32.78685 9.03648 7.57936
