79

Mg 7.88953 0.70632 0.60658
C 5.48850 -0.22657 3.10535
C 9.15439 2.92765 2.86500
C 9.72167 1.86617 -1.70976
C 5.76679 -0.71391 -1.76463
N 7.31107 1.19485 2.68480
C 6.42225 0.73208 3.55093
C 6.59184 1.27129 4.99664
C 7.36586 2.63621 4.65495
C 8.01712 2.22436 3.33627
C 6.43342 3.80487 4.38266
C 7.46667 0.32289 5.88952
C 7.41846 0.62591 7.38872
H 7.48071 -0.49133 8.32700
N 9.53560 1.81078 0.70242
C 9.90307 2.63844 1.70303
C 11.18216 3.23253 1.28450
C 11.45769 2.81371 -0.11671
C 10.21164 2.14978 -0.44325
C 12.04644 4.03867 2.21002
C 12.64125 2.99358 -1.01840
O 12.57194 2.75586 -2.27598
C 13.85691 3.54511 -0.40237
N 7.67000 0.78436 -1.45935
C 8.63912 1.29555 -2.23872
C 8.38195 0.99572 -3.69624
C 7.15972 -0.03552 -3.71356
C 6.85039 -0.08675 -2.20125
C 8.04327 2.20068 -4.57359
C 7.37964 -1.37489 -4.46882
C 8.40753 -2.21346 -3.74384
N 6.06738 -0.45395 0.64673
C 5.33100 -0.92424 -0.46261
C 4.10768 -1.56210 0.06564
C 4.20682 -1.39700 1.45539
C 5.39725 -0.68733 1.76964
C 3.07003 -2.14519 -0.71500
C 3.56986 -1.65237 2.72730
O 2.58246 -2.28939 3.09198
C 4.30844 -0.79507 3.84351
C 4.58335 -1.69681 5.01561
O 5.37131 -2.65274 4.90646
O 4.04317 -1.15674 6.12327
C 4.29884 -2.00937 7.31469
H 9.48176 3.81151 3.41317
H 10.37209 2.14812 -2.54099
H 5.10282 -1.26623 -2.43302
H 5.66407 1.48896 5.51203
H 8.12387 2.85800 5.40167
H 5.39937 3.49559 4.34777
H 6.73986 4.20916 3.42678
H 6.60218 4.60017 5.11433
H 8.52761 0.52269 5.69147
H 7.20917 -0.70453 5.72006
H 6.59181 1.29894 7.64684
H 8.31589 1.18809 7.65816
H 11.50677 4.31761 3.12345
H 12.24655 4.99285 1.71067
H 12.99736 3.54937 2.43138
H 13.63350 4.51771 0.02959
H 14.61933 3.51575 -1.18322
H 14.15551 2.89369 0.42654
H 9.24463 0.52591 -4.15248
H 6.27197 0.39295 -4.20156
H 8.72774 2.31979 -5.43463
H 8.05358 3.08762 -3.95410
H 7.03100 2.21037 -4.97410
H 7.78195 -1.18517 -5.46697
H 6.47135 -1.95512 -4.59263
H 9.35689 -1.80969 -4.10823
H 8.29881 -3.26394 -4.00597
H 8.36764 -2.03713 -2.66265
H 2.80345 -3.07631 -0.23286
H 3.38822 -2.30575 -1.74298
H 2.30700 -1.36597 -0.63843
H 3.65027 0.03296 4.10954
H 3.32556 -2.23284 7.76243
H 5.02149 -1.44675 7.93516
H 4.68682 -3.00665 7.14336
