158

Mg 0.00000 0.00000 0.00000
C -0.21700 -2.21800 2.80100
C -1.25500 2.44200 2.02600
C -0.24500 1.85000 -2.56400
C 0.14600 -2.82400 -2.03700
N -0.61700 -0.00900 2.12600
C -0.59400 -0.90800 3.10500
C -0.93600 -0.30900 4.50200
C -1.77300 0.96400 4.03200
C -1.15500 1.16800 2.66000
C -3.26300 0.68500 3.86300
C 0.34500 0.11000 5.29900
C 0.12400 0.39700 6.78700
H 1.16800 0.03300 7.73300
N -0.18500 1.96100 -0.15200
C -0.70300 2.80000 0.77700
C -0.62000 4.15600 0.19300
C -0.18700 4.01500 -1.22500
C -0.21400 2.58300 -1.38000
C -0.88700 5.40600 0.97400
C 0.18100 5.01300 -2.27700
O 0.30300 4.69000 -3.50800
C 0.31000 6.41400 -1.83700
N -0.26500 -0.41300 -2.02900
C -0.27900 0.56900 -2.93700
C -0.19600 0.02400 -4.33200
C 0.12400 -1.53300 -4.18000
C 0.08600 -1.63200 -2.63500
C -1.45100 0.20500 -5.19700
C 1.37300 -2.07000 -4.92300
C 2.62600 -1.49000 -4.30600
N 0.15000 -2.14400 0.30300
C 0.17300 -3.13600 -0.68800
C 0.17300 -4.43800 0.00400
C 0.13300 -4.11100 1.35800
C 0.08300 -2.69500 1.50200
C 0.14900 -5.71500 -0.62300
C 0.09600 -4.62900 2.71600
O 0.20800 -5.74700 3.22100
C -0.25500 -3.42800 3.70100
C 0.71700 -3.48200 4.84800
O 1.93100 -3.25500 4.66900
O 0.03800 -3.55600 6.00300
C 0.94300 -3.58300 7.18300
H -1.85900 3.22000 2.49700
H -0.21800 2.45300 -3.47400
H 0.27600 -3.74700 -2.60500
H -1.55400 -0.94900 5.13200
H -1.58500 1.83100 4.66500
H -3.48400 -0.37700 3.96900
H -3.51100 1.02700 2.85800
H -3.85200 1.30100 4.54300
H 0.66900 1.09600 4.96600
H 1.13000 -0.63900 5.18900
H -0.84400 0.02600 7.12500
H 0.06200 1.47700 6.92100
H -1.34400 5.18600 1.93800
H -1.65100 5.96300 0.43200
H 0.00700 6.02000 1.08400
H -0.63500 6.74400 -1.40500
H 0.66500 6.97000 -2.70400
H 1.04800 6.46600 -1.03600
H 0.60800 0.50100 -4.89100
H -0.69200 -2.15600 -4.54700
H -1.26700 0.74000 -6.12900
H -2.20400 0.71400 -4.59600
H -1.96700 -0.72000 -5.45300
H 1.35600 -1.75900 -5.96700
H 1.45200 -3.15700 -4.90200
H 2.71400 -0.52200 -4.79800
H 3.48700 -2.12100 -4.52900
H 2.49500 -1.30300 -3.24000
H 0.86700 -6.33300 -0.08400
H 0.40400 -5.64200 -1.68000
H -0.89100 -5.99900 -0.46300
H -1.28300 -3.58100 4.02800
H 0.69800 -4.47800 7.75500
H 0.83300 -2.61900 7.68000
H 2.00000 -3.75400 6.97600
Mg 15.75790 1.42167 1.19158
C 15.81211 -1.34344 -1.09541
C 16.11601 3.47115 -1.51137
C 16.16546 3.84035 3.20436
C 16.54765 -0.83767 3.72484
N 15.92980 0.99967 -0.97282
C 15.87562 -0.08552 -1.73028
C 15.80936 0.19712 -3.25517
C 16.48298 1.65489 -3.25902
C 16.12820 2.09184 -1.83921
C 17.99711 1.61786 -3.38306
C 14.33530 0.24409 -3.79086
C 14.20350 0.20770 -5.31502
H 13.06890 -0.50251 -5.89877
N 15.60311 3.37807 0.89647
C 15.75633 4.03972 -0.26973
C 15.56321 5.46329 0.04700
C 15.44669 5.60362 1.52397
C 15.76159 4.25250 1.94279
C 15.42603 6.52066 -1.00968
C 15.12007 6.76508 2.41308
O 15.30805 6.71695 3.68004
C 14.66174 7.99260 1.74627
N 16.48679 1.53073 3.13559
C 16.50782 2.69864 3.80152
C 16.81163 2.48646 5.26545
C 16.75132 0.90447 5.49184
C 16.50002 0.45007 4.03727
C 18.16062 3.01842 5.74881
C 15.79635 0.38842 6.60287
C 14.35951 0.64201 6.20718
N 15.93863 -0.72467 1.36075
C 16.30458 -1.46206 2.50811
C 16.40267 -2.87905 2.10198
C 16.10711 -2.86461 0.73051
C 15.86322 -1.53014 0.30719
C 16.77471 -3.96268 2.94664
C 15.95641 -3.67354 -0.45761
O 15.95844 -4.88130 -0.69224
C 15.88275 -2.70961 -1.71927
C 14.72590 -3.15035 -2.57364
O 13.55913 -3.06119 -2.15255
O 15.16801 -3.39871 -3.81992
C 14.05497 -3.82856 -4.70772
H 16.45399 4.18589 -2.26224
H 16.21341 4.62438 3.96363
H 16.69304 -1.61589 4.47711
H 16.38915 -0.48202 -3.86866
H 16.00928 2.30697 -3.98823
H 18.38124 0.61005 -3.32912
H 18.37426 2.21104 -2.56031
H 18.31330 2.13210 -4.29516
H 13.91256 1.23678 -3.58937
H 13.74754 -0.54216 -3.35846
H 15.13828 -0.09481 -5.80248
H 14.03188 1.22578 -5.67289
H 15.71927 6.14308 -1.99702
H 16.16648 7.29581 -0.78442
H 14.43281 6.97447 -1.02501
H 15.42329 8.32963 1.04705
H 14.39273 8.67938 2.55115
H 13.77158 7.75669 1.15249
H 16.06241 2.95942 5.88840
H 17.73043 0.49700 5.78364
H 18.07194 3.73837 6.58420
H 18.66969 3.47168 4.90861
H 18.87082 2.25654 6.06559
H 15.96411 0.93855 7.53205
H 15.92257 -0.66585 6.82554
H 14.20185 1.68319 6.50414
H 13.69044 -0.02726 6.74427
H 14.23528 0.58704 5.11944
H 16.09563 -4.77582 2.72722
H 16.73263 -3.68089 3.99669
H 17.80037 -4.13101 2.60760
H 16.83420 -2.78719 -2.24680
H 14.34262 -4.79357 -5.13632
H 13.89529 -2.99158 -5.41321
H 13.10926 -4.07793 -4.24093
