79

Mg 8.94372 0.80848 0.67648
C 11.07966 -1.31723 2.62538
C 10.12439 3.42837 2.51409
C 6.75279 2.63850 -0.70853
C 7.13290 -2.04003 -0.19104
N 10.41103 0.91518 2.32811
C 11.20460 0.05129 2.94317
C 12.24331 0.69894 3.89774
C 11.46819 2.07244 4.20033
C 10.63838 2.17156 2.92194
C 10.51656 1.97884 5.38142
C 13.62098 0.95995 3.19354
C 14.77287 1.30228 4.14102
H 16.11184 0.82203 3.81085
N 8.83478 2.78360 0.51644
C 9.39282 3.69847 1.33673
C 9.00191 5.01134 0.80033
C 8.03176 4.79552 -0.30735
C 7.81485 3.36723 -0.19323
C 9.59988 6.29968 1.28618
C 7.39376 5.72340 -1.29638
O 6.39893 5.35839 -2.01743
C 7.90755 7.10050 -1.32930
N 7.07396 0.39999 -0.13558
C 6.34877 1.36811 -0.72276
C 5.17308 0.78972 -1.47349
C 5.39768 -0.79367 -1.46949
C 6.67365 -0.86609 -0.60229
C 3.79371 1.10927 -0.89763
C 5.40000 -1.50765 -2.84895
C 6.61092 -1.08269 -3.64800
N 9.16253 -1.32150 0.96521
C 8.27533 -2.33525 0.54180
C 8.79221 -3.61454 1.06972
C 9.94075 -3.25055 1.78865
C 10.11532 -1.84141 1.73093
C 8.18424 -4.89047 0.90096
C 11.03924 -3.73679 2.59214
O 11.45904 -4.84951 2.90734
C 11.75502 -2.49286 3.27530
C 13.23852 -2.64519 3.07902
O 13.73392 -2.59336 1.93950
O 13.84768 -2.60887 4.27817
C 15.32170 -2.74507 4.13486
H 10.25653 4.28313 3.17803
H 6.02689 3.21066 -1.29092
H 6.67971 -2.98464 -0.49927
H 12.41262 0.15654 4.82019
H 12.15916 2.90836 4.27217
H 10.43031 0.96754 5.75016
H 9.56047 2.33170 5.01752
H 10.81815 2.67984 6.16499
H 13.56064 1.89686 2.62494
H 13.89665 0.12772 2.57545
H 14.52924 1.07341 5.18563
H 14.92021 2.38496 4.13118
H 10.16063 6.15666 2.21811
H 8.76677 6.95267 1.56794
H 10.19879 6.80047 0.52251
H 7.79263 7.55240 -0.34694
H 7.38981 7.58582 -2.15893
H 8.98295 7.06782 -1.53683
H 5.15842 1.13999 -2.49828
H 4.60754 -1.31587 -0.91018
H 3.12328 1.60884 -1.62222
H 3.92555 1.72258 -0.01615
H 3.24799 0.25341 -0.50408
H 4.52417 -1.21016 -3.43083
H 5.38519 -2.58993 -2.77517
H 6.29123 -0.13738 -4.09662
H 6.84530 -1.82232 -4.41092
H 7.46004 -0.86471 -2.98986
H 8.97909 -5.58524 0.66431
H 7.42733 -4.87000 0.11965
H 7.74653 -5.03070 1.89294
H 11.47931 -2.49515 4.33055
H 15.62628 -3.59222 4.75716
H 15.73983 -1.75408 4.39342
H 15.70555 -3.04498 3.16678
