158

Mg 0.00000 0.00000 0.00000
C -0.21700 -2.21800 2.80100
C -1.25500 2.44200 2.02600
C -0.24500 1.85000 -2.56400
C 0.14600 -2.82400 -2.03700
N -0.61700 -0.00900 2.12600
C -0.59400 -0.90800 3.10500
C -0.93600 -0.30900 4.50200
C -1.77300 0.96400 4.03200
C -1.15500 1.16800 2.66000
C -3.26300 0.68500 3.86300
C 0.34500 0.11000 5.29900
C 0.12400 0.39700 6.78700
H 1.16800 0.03300 7.73300
N -0.18500 1.96100 -0.15200
C -0.70300 2.80000 0.77700
C -0.62000 4.15600 0.19300
C -0.18700 4.01500 -1.22500
C -0.21400 2.58300 -1.38000
C -0.88700 5.40600 0.97400
C 0.18100 5.01300 -2.27700
O 0.30300 4.69000 -3.50800
C 0.31000 6.41400 -1.83700
N -0.26500 -0.41300 -2.02900
C -0.27900 0.56900 -2.93700
C -0.19600 0.02400 -4.33200
C 0.12400 -1.53300 -4.18000
C 0.08600 -1.63200 -2.63500
C -1.45100 0.20500 -5.19700
C 1.37300 -2.07000 -4.92300
C 2.62600 -1.49000 -4.30600
N 0.15000 -2.14400 0.30300
C 0.17300 -3.13600 -0.68800
C 0.17300 -4.43800 0.00400
C 0.13300 -4.11100 1.35800
C 0.08300 -2.69500 1.50200
C 0.14900 -5.71500 -0.62300
C 0.09600 -4.62900 2.71600
O 0.20800 -5.74700 3.22100
C -0.25500 -3.42800 3.70100
C 0.71700 -3.48200 4.84800
O 1.93100 -3.25500 4.66900
O 0.03800 -3.55600 6.00300
C 0.94300 -3.58300 7.18300
H -1.85900 3.22000 2.49700
H -0.21800 2.45300 -3.47400
H 0.27600 -3.74700 -2.60500
H -1.55400 -0.94900 5.13200
H -1.58500 1.83100 4.66500
H -3.48400 -0.37700 3.96900
H -3.51100 1.02700 2.85800
H -3.85200 1.30100 4.54300
H 0.66900 1.09600 4.96600
H 1.13000 -0.63900 5.18900
H -0.84400 0.02600 7.12500
H 0.06200 1.47700 6.92100
H -1.34400 5.18600 1.93800
H -1.65100 5.96300 0.43200
H 0.00700 6.02000 1.08400
H -0.63500 6.74400 -1.40500
H 0.66500 6.97000 -2.70400
H 1.04800 6.46600 -1.03600
H 0.60800 0.50100 -4.89100
H -0.69200 -2.15600 -4.54700
H -1.26700 0.74000 -6.12900
H -2.20400 0.71400 -4.59600
H -1.96700 -0.72000 -5.45300
H 1.35600 -1.75900 -5.96700
H 1.45200 -3.15700 -4.90200
H 2.71400 -0.52200 -4.79800
H 3.48700 -2.12100 -4.52900
H 2.49500 -1.30300 -3.24000
H 0.86700 -6.33300 -0.08400
H 0.40400 -5.64200 -1.68000
H -0.89100 -5.99900 -0.46300
H -1.28300 -3.58100 4.02800
H 0.69800 -4.47800 7.75500
H 0.83300 -2.61900 7.68000
H 2.00000 -3.75400 6.97600
Mg 7.87576 0.71346 0.60545
C 5.52147 -1.99512 0.60175
C 5.36900 2.69679 -0.58500
C 10.02866 3.00326 0.17040
C 10.41243 -1.67486 0.68886
N 5.76135 0.29021 0.11312
C 4.96157 -0.76109 0.21045
C 3.46268 -0.45556 -0.05328
C 3.64067 0.86242 -0.95335
C 4.99108 1.33992 -0.42320
C 3.78829 0.56328 -2.43594
C 2.67417 -0.14686 1.26768
C 1.15088 -0.14406 1.12162
H 0.34414 -0.63958 2.23342
N 7.64004 2.66982 0.36951
C 6.54893 3.30657 -0.10513
C 6.88540 4.73868 -0.10129
C 8.32221 4.88199 0.25894
C 8.73357 3.49243 0.25996
C 5.86654 5.81457 -0.34171
C 9.18640 6.07341 0.54157
O 10.46339 5.98023 0.60034
C 8.50040 7.36881 0.65485
N 9.92169 0.67381 0.23814
C 10.62903 1.81327 0.14208
C 12.11348 1.53635 0.15266
C 12.25885 -0.01315 0.52079
C 10.76503 -0.40181 0.57406
C 12.85245 1.82001 -1.15495
C 13.15829 -0.36621 1.73693
C 12.52273 0.13802 3.01255
N 7.98435 -1.43315 0.82533
C 9.14673 -2.23479 0.80665
C 8.70564 -3.64293 0.87729
C 7.30524 -3.56311 0.90921
C 6.90146 -2.20228 0.84143
C 9.55705 -4.78344 0.85583
C 6.07647 -4.32113 0.97410
O 5.79554 -5.50828 1.13377
C 4.86358 -3.34620 0.65037
C 3.79815 -3.56974 1.68836
O 4.00690 -3.28288 2.88031
O 2.64187 -3.87855 1.07353
C 1.55189 -4.09865 2.06112
H 4.72145 3.34935 -1.17128
H 10.81645 3.75908 0.13049
H 11.14525 -2.47420 0.81812
H 2.93497 -1.21904 -0.61221
H 2.86643 1.59455 -0.73911
H 3.86781 -0.49656 -2.62714
H 4.68943 1.07316 -2.75061
H 2.96994 1.02388 -2.99674
H 2.83818 0.90220 1.54574
H 2.96098 -0.82301 2.04946
H 0.82641 -0.59986 0.17827
H 0.81109 0.89198 1.04951
H 4.93270 5.40182 -0.74293
H 6.25306 6.44642 -1.14870
H 5.69267 6.43470 0.54026
H 7.96359 7.57510 -0.26805
H 9.27220 8.08367 0.94670
H 7.74747 7.29780 1.44774
H 12.61151 2.12625 0.91233
H 12.70389 -0.58803 -0.30462
H 13.68792 2.53578 -1.03773
H 12.13675 2.18620 -1.87897
H 13.25903 0.94278 -1.65531
H 14.12474 0.13668 1.65185
H 13.35553 -1.42857 1.83431
H 12.83007 1.18763 3.04325
H 12.90278 -0.40985 3.87246
H 11.42898 0.11673 2.94243
H 9.18567 -5.46346 1.61091
H 10.59347 -4.50943 1.04161
H 9.40037 -5.12450 -0.17101
H 4.51214 -3.58303 -0.35461
H 1.14161 -5.09457 1.86748
H 0.86495 -3.23944 1.94433
H 1.83093 -4.18412 3.10480
