79

Mg 10.51810 0.95158 0.79283
C 9.92284 4.30602 1.92088
C 9.77623 2.03751 -2.35439
C 10.59397 -2.07344 -0.16160
C 10.09171 -0.08569 4.09252
N 9.93968 2.93814 0.01099
C 9.80542 4.15197 0.52377
C 9.60934 5.27650 -0.52815
C 9.01547 4.38542 -1.72488
C 9.64024 3.04005 -1.36115
C 7.50372 4.23948 -1.67359
C 10.96342 5.95651 -0.93564
C 10.81683 7.26164 -1.72107
H 11.79306 8.32377 -1.49446
N 10.70924 0.18353 -1.02710
C 10.37994 0.77061 -2.19679
C 10.69378 -0.21419 -3.24361
C 11.08076 -1.49147 -2.58519
C 10.78309 -1.17599 -1.20245
C 10.68817 0.12331 -4.70631
C 11.61646 -2.78737 -3.11419
O 11.65757 -3.84450 -2.39057
C 12.00459 -2.80631 -4.53211
N 10.15704 -0.84576 1.77340
C 10.31129 -2.02186 1.14023
C 10.26632 -3.17546 2.11367
C 10.29179 -2.51138 3.56829
C 10.25544 -1.02053 3.16653
C 9.05297 -4.09768 1.99669
C 11.40577 -2.98806 4.54014
C 12.75823 -2.54043 4.03431
N 10.26985 1.92031 2.70803
C 10.08208 1.29708 3.96118
C 9.84582 2.36927 4.94962
C 9.89001 3.54994 4.19294
C 10.11632 3.23446 2.82592
C 9.58128 2.17971 6.33533
C 9.78608 4.99073 4.23810
O 9.68493 5.82668 5.13514
C 9.67675 5.53641 2.74925
C 10.63883 6.68339 2.60311
O 11.86522 6.49402 2.68503
O 9.96837 7.76931 2.17691
C 10.88190 8.93042 2.00629
H 9.34266 2.21961 -3.33813
H 10.72048 -3.12756 -0.41907
H 10.04762 -0.32089 5.15807
H 8.89723 6.04287 -0.24647
H 9.38035 4.72676 -2.69014
H 7.08852 4.66241 -0.77088
H 7.30921 3.17585 -1.71733
H 7.05308 4.66555 -2.57455
H 11.46183 5.33689 -1.69221
H 11.58171 6.12047 -0.07455
H 9.79637 7.66050 -1.67092
H 10.96900 7.04732 -2.78170
H 10.20452 1.08983 -4.89427
H 10.03773 -0.60654 -5.20038
H 11.68267 0.07083 -5.15451
H 11.14635 -2.54129 -5.14502
H 12.44616 -3.79035 -4.70110
H 12.76120 -2.03133 -4.69810
H 11.13689 -3.81004 2.00177
H 9.36311 -2.71004 4.12320
H 9.32441 -5.15658 1.82606
H 8.42290 -3.73293 1.19638
H 8.37630 -4.08097 2.84936
H 11.43413 -4.07983 4.57743
H 11.27216 -2.63446 5.55706
H 13.01566 -3.31188 3.30241
H 13.48077 -2.51095 4.84740
H 12.68188 -1.58824 3.49658
H 10.17068 2.91404 6.86812
H 9.82493 1.16766 6.65180
H 8.50456 2.36821 6.35591
H 8.64329 5.84595 2.58886
H 10.47665 9.74738 2.61130
H 10.95123 9.09817 0.91505
H 11.88338 8.84396 2.41129
