79

Mg 13.14638 1.18641 0.99184
C 15.82401 -1.00573 1.94255
C 15.10046 3.78111 2.03284
C 10.64796 3.10005 0.58771
C 11.02778 -1.57841 1.10603
N 15.18104 1.25220 1.85676
C 16.12643 0.36113 2.11477
C 17.49776 0.97360 2.50708
C 16.98064 2.39455 3.04778
C 15.68935 2.50818 2.24011
C 16.62099 2.38200 4.52421
C 18.45242 1.14138 1.27319
C 19.91095 1.44269 1.62483
H 20.96099 0.88172 0.77914
N 13.05752 3.16008 0.80396
C 13.94778 4.06246 1.26701
C 13.41746 5.38147 0.88867
C 12.05978 5.19258 0.30924
C 11.85618 3.78155 0.56929
C 14.21583 6.64637 1.01547
C 11.09792 6.12993 -0.35588
O 9.87701 5.80282 -0.56852
C 11.60240 7.47551 -0.66636
N 11.09437 0.86179 1.07067
C 10.22676 1.85382 0.80409
C 8.82136 1.32294 0.65113
C 8.96359 -0.26984 0.63105
C 10.48364 -0.39129 0.87617
C 7.83330 1.73167 1.74340
C 8.34901 -1.01602 -0.58476
C 9.11900 -0.67772 -1.84097
N 13.38330 -0.94477 1.25641
C 12.36106 -1.91817 1.29652
C 13.00290 -3.21079 1.61214
C 14.36175 -2.89321 1.75760
C 14.55040 -1.49760 1.56739
C 12.33126 -4.45508 1.77571
C 15.67793 -3.41951 2.03930
O 16.14787 -4.54568 2.19629
C 16.66518 -2.20065 2.29643
C 17.91587 -2.43900 1.49550
O 17.87937 -2.44205 0.25241
O 18.97933 -2.40722 2.31917
C 20.24468 -2.62767 1.56943
H 15.53681 4.64313 2.53822
H 9.76615 3.69700 0.34370
H 10.44956 -2.50386 1.06273
H 18.02292 0.44519 3.29370
H 17.66857 3.19272 2.78126
H 16.66051 1.38618 4.94005
H 15.61576 2.77797 4.58549
H 17.25543 3.08411 5.07272
H 18.19224 2.06616 0.74231
H 18.40500 0.28055 0.63495
H 20.12747 1.25290 2.68316
H 20.08256 2.51508 1.50428
H 15.11447 6.49533 1.62624
H 13.60902 7.35079 1.59463
H 14.45091 7.09487 0.04787
H 11.93550 7.95668 0.25015
H 10.79977 7.96835 -1.21842
H 12.48426 7.37875 -1.30946
H 8.38471 1.64859 -0.28502
H 8.46769 -0.73414 1.49612
H 6.93808 2.24966 1.35055
H 8.35268 2.35794 2.45654
H 7.47437 0.91686 2.36988
H 7.32112 -0.68501 -0.75216
H 8.32444 -2.09375 -0.46273
H 8.67599 0.27261 -2.15355
H 8.97612 -1.44735 -2.59681
H 10.17560 -0.49089 -1.61663
H 12.92110 -5.19802 1.25549
H 11.31481 -4.41194 1.39003
H 12.35346 -4.54700 2.86490
H 16.86619 -2.16226 3.36773
H 20.75199 -3.47498 2.04101
H 20.77186 -1.65520 1.58063
H 20.16667 -2.97155 0.54468
