158

Mg 0.00000 0.00000 0.00000
C -0.21700 -2.21800 2.80100
C -1.25500 2.44200 2.02600
C -0.24500 1.85000 -2.56400
C 0.14600 -2.82400 -2.03700
N -0.61700 -0.00900 2.12600
C -0.59400 -0.90800 3.10500
C -0.93600 -0.30900 4.50200
C -1.77300 0.96400 4.03200
C -1.15500 1.16800 2.66000
C -3.26300 0.68500 3.86300
C 0.34500 0.11000 5.29900
C 0.12400 0.39700 6.78700
H 1.16800 0.03300 7.73300
N -0.18500 1.96100 -0.15200
C -0.70300 2.80000 0.77700
C -0.62000 4.15600 0.19300
C -0.18700 4.01500 -1.22500
C -0.21400 2.58300 -1.38000
C -0.88700 5.40600 0.97400
C 0.18100 5.01300 -2.27700
O 0.30300 4.69000 -3.50800
C 0.31000 6.41400 -1.83700
N -0.26500 -0.41300 -2.02900
C -0.27900 0.56900 -2.93700
C -0.19600 0.02400 -4.33200
C 0.12400 -1.53300 -4.18000
C 0.08600 -1.63200 -2.63500
C -1.45100 0.20500 -5.19700
C 1.37300 -2.07000 -4.92300
C 2.62600 -1.49000 -4.30600
N 0.15000 -2.14400 0.30300
C 0.17300 -3.13600 -0.68800
C 0.17300 -4.43800 0.00400
C 0.13300 -4.11100 1.35800
C 0.08300 -2.69500 1.50200
C 0.14900 -5.71500 -0.62300
C 0.09600 -4.62900 2.71600
O 0.20800 -5.74700 3.22100
C -0.25500 -3.42800 3.70100
C 0.71700 -3.48200 4.84800
O 1.93100 -3.25500 4.66900
O 0.03800 -3.55600 6.00300
C 0.94300 -3.58300 7.18300
H -1.85900 3.22000 2.49700
H -0.21800 2.45300 -3.47400
H 0.27600 -3.74700 -2.60500
H -1.55400 -0.94900 5.13200
H -1.58500 1.83100 4.66500
H -3.48400 -0.37700 3.96900
H -3.51100 1.02700 2.85800
H -3.85200 1.30100 4.54300
H 0.66900 1.09600 4.96600
H 1.13000 -0.63900 5.18900
H -0.84400 0.02600 7.12500
H 0.06200 1.47700 6.92100
H -1.34400 5.18600 1.93800
H -1.65100 5.96300 0.43200
H 0.00700 6.02000 1.08400
H -0.63500 6.74400 -1.40500
H 0.66500 6.97000 -2.70400
H 1.04800 6.46600 -1.03600
H 0.60800 0.50100 -4.89100
H -0.69200 -2.15600 -4.54700
H -1.26700 0.74000 -6.12900
H -2.20400 0.71400 -4.59600
H -1.96700 -0.72000 -5.45300
H 1.35600 -1.75900 -5.96700
H 1.45200 -3.15700 -4.90200
H 2.71400 -0.52200 -4.79800
H 3.48700 -2.12100 -4.52900
H 2.49500 -1.30300 -3.24000
H 0.86700 -6.33300 -0.08400
H 0.40400 -5.64200 -1.68000
H -0.89100 -5.99900 -0.46300
H -1.28300 -3.58100 4.02800
H 0.69800 -4.47800 7.75500
H 0.83300 -2.61900 7.68000
H 2.00000 -3.75400 6.97600
Mg 7.88314 0.70970 0.59883
C 7.73755 2.61555 -2.42751
C 7.39772 -2.07765 -1.30855
C 7.55423 -0.94004 3.28710
C 7.22316 3.66766 2.31945
N 7.61738 0.43268 -1.58137
C 7.64160 1.23827 -2.63854
C 7.63152 0.47540 -3.99697
C 6.95954 -0.88779 -3.51515
C 7.37856 -0.86262 -2.05580
C 5.43609 -0.87552 -3.58903
C 9.07470 0.23664 -4.55548
C 9.14365 -0.20567 -6.02005
H 10.24673 0.26677 -6.84307
N 8.01258 -1.23294 0.93385
C 7.79816 -2.22545 0.03706
C 8.01716 -3.49111 0.76975
C 8.19031 -3.15839 2.21107
C 7.89609 -1.74815 2.20534
C 8.09338 -4.82795 0.09834
C 8.55171 -3.98296 3.40590
O 8.42096 -3.54444 4.59971
C 8.98491 -5.36710 3.14220
N 7.23456 1.22962 2.51369
C 7.24443 0.33865 3.51121
C 7.01208 1.00070 4.83697
C 7.08264 2.57251 4.56456
C 7.27297 2.53742 3.02807
C 5.68545 0.66206 5.53078
C 8.08884 3.38892 5.41396
C 9.50372 3.00186 5.04601
N 7.71240 2.81292 0.09054
C 7.40953 3.86906 0.96204
C 7.29751 5.08838 0.14059
C 7.52814 4.65111 -1.16227
C 7.74300 3.24323 -1.15830
C 6.95798 6.38555 0.61651
C 7.61865 5.04175 -2.55979
O 7.61731 6.11663 -3.16156
C 7.63707 3.72091 -3.44909
C 8.75458 3.86016 -4.44663
O 9.94574 3.87611 -4.07480
O 8.26404 3.71398 -5.68701
C 9.32618 3.81176 -6.72357
H 7.01691 -2.98920 -1.77332
H 7.53923 -1.45206 4.25149
H 7.10294 4.64170 2.79721
H 7.02113 0.93737 -4.77314
H 7.38983 -1.75361 -4.01807
H 5.05732 0.11540 -3.83906
H 5.09422 -1.17489 -2.59808
H 5.07536 -1.64254 -4.27484
H 9.50488 -0.64248 -4.07573
H 9.69354 1.12393 -4.41732
H 8.19241 -0.04809 -6.52919
H 9.28813 -1.28583 -6.04417
H 7.76377 -4.77474 -0.93852
H 7.35930 -5.47052 0.58408
H 9.08474 -5.27346 0.18238
H 8.19008 -5.89953 2.61940
H 9.28775 -5.77608 4.10546
H 9.83816 -5.34681 2.46360
H 7.78690 0.72695 5.55191
H 6.12502 3.06202 4.74347
H 5.80812 0.24737 6.53163
H 5.13452 -0.02399 4.88805
H 4.98583 1.49370 5.61018
H 7.96021 3.16566 6.47252
H 7.98419 4.46652 5.28718
H 9.67615 2.10973 5.64701
H 10.19869 3.79672 5.31881
H 9.57652 2.70825 3.99864
H 7.63647 7.07964 0.12065
H 7.05141 6.44662 1.70055
H 5.92338 6.45905 0.28177
H 6.66280 3.65479 -3.93236
H 9.02609 4.59696 -7.41756
H 9.46161 2.80699 -7.12420
H 10.29254 4.19088 -6.38925
