79

Mg 10.50247 0.94478 0.80476
C 10.98533 3.57166 3.20172
C 10.69447 -1.25749 3.40240
C 10.53074 -1.40900 -1.32277
C 11.48090 3.20439 -1.66153
N 10.80238 1.24042 2.97614
C 10.91214 2.28730 3.78009
C 10.86457 1.94408 5.29319
C 11.34881 0.41529 5.20832
C 10.89196 0.09273 3.78708
C 12.85895 0.25793 5.27189
C 9.41615 2.05575 5.88618
C 9.34379 2.03692 7.41463
H 8.32905 2.85460 8.07353
N 10.11284 -0.98884 1.02354
C 10.22246 -1.71823 2.15369
C 9.84042 -3.09036 1.78562
C 9.65515 -3.14586 0.31005
C 10.12287 -1.82628 -0.06417
C 9.60839 -4.17072 2.80169
C 9.15361 -4.21484 -0.61297
O 9.30139 -4.13124 -1.88340
C 8.56802 -5.40567 0.01987
N 11.14282 0.83698 -1.17025
C 10.99300 -0.29204 -1.88494
C 11.26934 -0.05104 -3.34985
C 11.40096 1.53501 -3.50696
C 11.26036 1.94859 -2.02555
C 12.52264 -0.72341 -3.90979
C 10.48008 2.21720 -4.55543
C 9.03758 2.12600 -4.11240
N 10.94620 3.05754 0.71862
C 11.36150 3.79655 -0.41074
C 11.65166 5.16979 0.05019
C 11.40516 5.12808 1.43076
C 11.01010 3.81596 1.80728
C 12.12730 6.23706 -0.76272
C 11.39958 5.89301 2.65696
O 11.56210 7.07883 2.94182
C 11.24954 4.88776 3.87899
C 10.18831 5.42848 4.79764
O 9.00550 5.50487 4.42116
O 10.70185 5.56137 6.03416
C 9.68385 6.08427 6.98393
H 10.96593 -2.04305 4.10816
H 10.45269 -2.15652 -2.11561
H 11.69660 3.99282 -2.38576
H 11.54660 2.51641 5.91048
H 10.82270 -0.20622 5.92825
H 13.36489 1.21157 5.24467
H 13.12910 -0.33841 4.41023
H 13.13976 -0.33373 6.14791
H 8.86483 1.13384 5.66061
H 8.91730 2.92834 5.51153
H 10.32585 2.19771 7.87579
H 9.05795 1.03246 7.73615
H 9.98150 -3.87913 3.79122
H 10.23684 -5.02053 2.51403
H 8.56706 -4.49773 2.83849
H 9.30518 -5.86712 0.67265
H 8.18639 -6.01527 -0.80148
H 7.73617 -5.08895 0.65888
H 10.44499 -0.39751 -3.96100
H 12.41272 1.83077 -3.82113
H 12.31454 -1.38688 -4.77036
H 12.99983 -1.27525 -3.11086
H 13.31160 -0.04177 -4.22304
H 10.54430 1.69454 -5.51296
H 10.73024 3.25684 -4.73860
H 8.73958 1.12755 -4.44612
H 8.43968 2.89765 -4.59314
H 8.95969 2.14505 -3.01913
H 11.56428 7.11717 -0.48180
H 12.01305 6.01212 -1.82107
H 13.17731 6.26052 -0.45907
H 12.22119 4.82168 4.37003
H 10.10576 6.98492 7.44056
H 9.44492 5.24157 7.65958
H 8.76125 6.47085 6.56702
