79

Mg 15.76628 1.41940 1.19766
C 15.41971 0.18435 4.53933
C 14.53150 4.39295 2.32744
C 15.63514 2.38703 -1.81947
C 15.88239 -1.89945 0.14059
N 15.09809 2.08218 3.20138
C 15.07227 1.53098 4.41080
C 14.71352 2.54023 5.54220
C 13.92405 3.62037 4.67499
C 14.58048 3.37682 3.32751
C 12.43135 3.33123 4.55360
C 15.98611 3.16126 6.21046
C 15.73734 3.89988 7.52876
H 16.74759 3.82744 8.57350
N 15.63993 3.23965 0.44032
C 15.12332 4.33520 1.04710
C 15.25830 5.44128 0.07496
C 15.72131 4.85908 -1.21530
C 15.65802 3.45044 -0.92018
C 15.00758 6.87675 0.42180
C 16.14240 5.47426 -2.51236
O 16.28501 4.78304 -3.57840
C 16.29987 6.93991 -2.52381
N 15.53892 0.40247 -0.61115
C 15.57434 1.05441 -1.77849
C 15.67574 0.10205 -2.93291
C 15.94829 -1.33679 -2.29635
C 15.87022 -0.95086 -0.79861
C 14.44755 0.02972 -3.85070
C 17.19936 -2.10156 -2.79672
C 18.45283 -1.38282 -2.35025
N 15.84888 -0.52727 2.15405
C 15.86805 -1.77802 1.52005
C 15.81492 -2.80085 2.58074
C 15.75138 -2.06923 3.76503
C 15.73755 -0.67774 3.46197
C 15.77036 -4.20866 2.37941
C 15.66711 -2.13958 5.21479
O 15.73556 -3.04768 6.04435
C 15.32615 -0.68579 5.76801
C 16.26827 -0.39985 6.90554
O 17.49211 -0.26282 6.70357
O 15.55976 -0.09890 8.00462
C 16.43488 0.22421 9.16303
H 13.93830 5.29007 2.51512
H 15.70097 2.67734 -2.87010
H 16.00020 -2.95543 -0.10938
H 14.06281 2.13919 6.31949
H 14.12089 4.63721 5.01413
H 12.17823 2.35894 4.97609
H 12.21736 3.34925 3.48478
H 11.84356 4.13893 4.99052
H 16.34551 3.98892 5.59902
H 16.75228 2.40023 6.36262
H 14.75146 3.67061 7.93419
H 15.70236 4.96915 7.31982
H 14.52145 6.97544 1.39158
H 14.27278 7.25262 -0.28989
H 15.91549 7.47738 0.36455
H 15.35431 7.40564 -2.24531
H 16.69113 7.19262 -3.50865
H 17.01947 7.22372 -1.75532
H 16.50603 0.36665 -3.58637
H 15.12429 -2.02720 -2.47810
H 14.66891 0.24557 -4.89622
H 13.69479 0.71434 -3.46092
H 13.91221 -0.91903 -3.82398
H 17.21630 -2.12951 -3.88570
H 17.24739 -3.12971 -2.43777
H 18.57973 -0.61707 -3.11468
H 19.30097 -2.06819 -2.33960
H 18.30140 -0.87187 -1.39920
H 16.45756 -4.64255 3.10567
H 16.05276 -4.47205 1.36035
H 14.71926 -4.40908 2.58647
H 14.28667 -0.71012 6.09361
H 16.15119 -0.44433 9.97594
H 16.33991 1.29675 9.33347
H 17.49137 -0.02273 9.05269
