158

Mg 0.00000 0.00000 0.00000
C -0.21700 -2.21800 2.80100
C -1.25500 2.44200 2.02600
C -0.24500 1.85000 -2.56400
C 0.14600 -2.82400 -2.03700
N -0.61700 -0.00900 2.12600
C -0.59400 -0.90800 3.10500
C -0.93600 -0.30900 4.50200
C -1.77300 0.96400 4.03200
C -1.15500 1.16800 2.66000
C -3.26300 0.68500 3.86300
C 0.34500 0.11000 5.29900
C 0.12400 0.39700 6.78700
H 1.16800 0.03300 7.73300
N -0.18500 1.96100 -0.15200
C -0.70300 2.80000 0.77700
C -0.62000 4.15600 0.19300
C -0.18700 4.01500 -1.22500
C -0.21400 2.58300 -1.38000
C -0.88700 5.40600 0.97400
C 0.18100 5.01300 -2.27700
O 0.30300 4.69000 -3.50800
C 0.31000 6.41400 -1.83700
N -0.26500 -0.41300 -2.02900
C -0.27900 0.56900 -2.93700
C -0.19600 0.02400 -4.33200
C 0.12400 -1.53300 -4.18000
C 0.08600 -1.63200 -2.63500
C -1.45100 0.20500 -5.19700
C 1.37300 -2.07000 -4.92300
C 2.62600 -1.49000 -4.30600
N 0.15000 -2.14400 0.30300
C 0.17300 -3.13600 -0.68800
C 0.17300 -4.43800 0.00400
C 0.13300 -4.11100 1.35800
C 0.08300 -2.69500 1.50200
C 0.14900 -5.71500 -0.62300
C 0.09600 -4.62900 2.71600
O 0.20800 -5.74700 3.22100
C -0.25500 -3.42800 3.70100
C 0.71700 -3.48200 4.84800
O 1.93100 -3.25500 4.66900
O 0.03800 -3.55600 6.00300
C 0.94300 -3.58300 7.18300
H -1.85900 3.22000 2.49700
H -0.21800 2.45300 -3.47400
H 0.27600 -3.74700 -2.60500
H -1.55400 -0.94900 5.13200
H -1.58500 1.83100 4.66500
H -3.48400 -0.37700 3.96900
H -3.51100 1.02700 2.85800
H -3.85200 1.30100 4.54300
H 0.66900 1.09600 4.96600
H 1.13000 -0.63900 5.18900
H -0.84400 0.02600 7.12500
H 0.06200 1.47700 6.92100
H -1.34400 5.18600 1.93800
H -1.65100 5.96300 0.43200
H 0.00700 6.02000 1.08400
H -0.63500 6.74400 -1.40500
H 0.66500 6.97000 -2.70400
H 1.04800 6.46600 -1.03600
H 0.60800 0.50100 -4.89100
H -0.69200 -2.15600 -4.54700
H -1.26700 0.74000 -6.12900
H -2.20400 0.71400 -4.59600
H -1.96700 -0.72000 -5.45300
H 1.35600 -1.75900 -5.96700
H 1.45200 -3.15700 -4.90200
H 2.71400 -0.52200 -4.79800
H 3.48700 -2.12100 -4.52900
H 2.49500 -1.30300 -3.24000
H 0.86700 -6.33300 -0.08400
H 0.40400 -5.64200 -1.68000
H -0.89100 -5.99900 -0.46300
H -1.28300 -3.58100 4.02800
H 0.69800 -4.47800 7.75500
H 0.83300 -2.61900 7.68000
H 2.00000 -3.75400 6.97600
Mg 10.51895 0.94044 0.79486
C 10.49689 1.81626 -2.68530
C 9.99979 -2.29025 -0.16834
C 10.08419 0.20380 3.85031
C 9.89417 4.29565 1.50051
N 10.29531 0.00850 -1.19856
C 10.36640 0.43139 -2.45173
C 10.37425 -0.70114 -3.51328
C 9.64664 -1.84395 -2.65105
C 10.02907 -1.37330 -1.24929
C 8.13183 -1.81367 -2.76835
C 11.82801 -1.12761 -3.92157
C 11.91331 -2.00611 -5.17166
H 13.05490 -1.83499 -6.06606
N 10.59095 -0.81637 1.71519
C 10.37659 -2.03114 1.16778
C 10.52601 -2.99911 2.26546
C 10.68337 -2.24428 3.53832
C 10.43263 -0.89371 3.07661
C 10.59030 -4.48179 2.03977
C 10.99388 -2.66928 4.94159
O 10.84760 -1.87211 5.93454
C 11.38476 -4.07401 5.12984
N 9.84770 2.03785 2.42810
C 9.80375 1.49262 3.65640
C 9.55409 2.54397 4.71127
C 9.68074 3.94828 3.95665
C 9.90324 3.44157 2.51473
C 8.20190 2.46741 5.41986
C 10.68870 4.97414 4.54340
C 12.10193 4.46596 4.37039
N 10.42422 2.77691 -0.33935
C 10.12227 4.06682 0.14959
C 10.06472 4.97198 -1.01652
C 10.31644 4.13488 -2.11397
C 10.49675 2.79851 -1.66553
C 9.76020 6.36187 -0.97651
C 10.46011 4.07602 -3.55084
O 10.49602 4.90950 -4.45513
C 10.45803 2.55041 -3.99684
C 11.60328 2.34351 -4.94978
O 12.77849 2.46388 -4.56119
O 11.13199 1.82795 -6.09976
C 12.23202 1.59463 -7.07305
H 9.61190 -3.29312 -0.34907
H 10.03067 0.02408 4.92656
H 9.80169 5.37402 1.64625
H 9.80141 -0.48903 -4.40806
H 10.07249 -2.82316 -2.85390
H 7.78764 -0.95184 -3.32055
H 7.75864 -1.78618 -1.75296
H 7.76818 -2.75158 -3.19781
H 12.21933 -1.82810 -3.17261
H 12.45809 -0.26769 -4.04055
H 10.97572 -2.00532 -5.74077
H 12.03534 -3.04559 -4.85764
H 10.28066 -4.74747 1.02146
H 9.82872 -4.93640 2.68256
H 11.56484 -4.90456 2.29316
H 10.58959 -4.72168 4.76831
H 11.65290 -4.16394 6.18430
H 12.26412 -4.27868 4.50899
H 10.30419 2.49515 5.49106
H 8.72721 4.49656 3.95343
H 8.28962 2.37762 6.51909
H 7.65013 1.63051 5.01280
H 7.53103 3.30263 5.22608
H 10.52961 5.08901 5.61841
H 10.60914 5.96057 4.09886
H 12.22966 3.79583 5.22579
H 12.81212 5.28967 4.40480
H 12.19402 3.86087 3.46098
H 10.46209 6.85351 -1.63691
H 9.82454 6.75398 0.03635
H 8.73146 6.34686 -1.34629
H 9.49411 2.34728 -4.46498
H 11.96749 2.13195 -7.98903
H 12.33805 0.49594 -7.14634
H 13.20057 2.02530 -6.84746
