79

Mg 10.52049 0.95057 0.79750
C 12.42600 -1.16816 2.97903
C 11.42329 3.56530 2.79318
C 8.49405 2.76666 -0.83430
C 8.87430 -1.91188 -0.31702
N 11.76751 1.05835 2.62112
C 12.49021 0.19828 3.32278
C 13.39155 0.84900 4.40616
C 12.56473 2.20866 4.62194
C 11.90034 2.31096 3.25052
C 11.47403 2.08934 5.67335
C 14.84268 1.13606 3.88287
C 15.86162 1.48307 4.97057
H 17.23825 1.02432 4.80655
N 10.40375 2.92573 0.64354
C 10.84121 3.83875 1.53590
C 10.50156 5.15220 0.96700
C 9.68113 4.93585 -0.25563
C 9.47243 3.50363 -0.18301
C 11.01511 6.44287 1.53607
C 9.15870 5.86612 -1.30818
O 8.26751 5.49599 -2.15175
C 9.65248 7.25020 -1.26347
N 8.77339 0.52638 -0.24655
C 8.11352 1.49126 -0.91100
C 7.04973 0.90571 -1.80871
C 7.29506 -0.67451 -1.79138
C 8.45320 -0.73963 -0.77164
C 5.60456 1.20053 -1.40752
C 7.48065 -1.37302 -3.16627
C 8.77587 -0.92320 -3.80303
N 10.73234 -1.17940 1.09145
C 9.92005 -2.20006 0.55059
C 10.38523 -3.47816 1.12720
C 11.42919 -3.10699 1.98795
C 11.58910 -1.69510 1.96578
C 9.82183 -4.76009 0.87155
C 12.42526 -3.58752 2.91834
O 12.81839 -4.69801 3.27329
C 13.03160 -2.34188 3.69752
C 14.53006 -2.47235 3.68753
O 15.16358 -2.40129 2.61972
O 14.98353 -2.44127 4.95393
C 16.46571 -2.55632 4.99544
H 11.45872 4.41431 3.47641
H 7.83862 3.33558 -1.49780
H 8.47711 -2.85893 -0.68850
H 13.45178 0.29868 5.33745
H 13.22901 3.05281 4.78774
H 11.35696 1.07295 6.01887
H 10.56605 2.43351 5.19568
H 11.66480 2.78552 6.49510
H 14.84046 2.07834 3.31999
H 15.20572 0.31448 3.29650
H 15.49234 1.23941 5.97416
H 15.99327 2.56766 4.98943
H 11.45665 6.29695 2.52963
H 10.14385 7.08159 1.71717
H 11.69767 6.96001 0.85832
H 9.40878 7.68960 -0.29911
H 9.23581 7.73780 -2.14694
H 10.74577 7.23408 -1.33472
H 7.15854 1.26712 -2.82392
H 6.44873 -1.21332 -1.34055
H 5.02304 1.69919 -2.20580
H 5.61595 1.80571 -0.51076
H 5.02632 0.33319 -1.09359
H 6.68043 -1.08073 -3.85064
H 7.47246 -2.45615 -3.10506
H 8.50120 0.02272 -4.27936
H 9.11476 -1.65113 -4.53740
H 9.53253 -0.70130 -3.04154
H 10.65009 -5.44159 0.73002
H 9.16860 -4.74098 0.00166
H 9.26533 -4.91712 1.79941
H 12.62587 -2.35955 4.70977
H 16.70218 -3.40622 5.64309
H 16.83367 -1.56281 5.31370
H 16.97219 -2.84034 4.08042
