79

Mg 31.54072 2.84246 2.38964
C 34.16890 0.66353 3.49598
C 33.40701 5.44480 3.56411
C 29.05905 4.74120 1.83868
C 29.43888 0.06273 2.35687
N 33.51651 2.91747 3.38103
C 34.45016 2.03148 3.69357
C 35.78973 2.65116 4.17430
C 35.22956 4.06565 4.68840
C 33.99077 4.17481 3.80174
C 34.77798 4.04276 6.13922
C 36.81879 2.83203 3.00368
C 38.25017 3.14137 3.44778
H 39.35523 2.59209 2.66701
N 31.44977 4.81646 2.20623
C 32.30274 5.72239 2.72874
C 31.78785 7.03977 2.32430
C 30.47063 6.84474 1.65977
C 30.26115 5.43099 1.89957
C 32.56764 8.30937 2.50723
C 29.54579 7.77907 0.94011
O 28.34301 7.44480 0.64956
C 30.05918 9.12969 0.66857
N 29.49017 2.50348 2.33775
C 28.63398 3.49099 2.02204
C 27.24478 2.95139 1.77845
C 27.39933 1.35974 1.75952
C 28.90181 1.24733 2.09910
C 26.18717 3.34754 2.80845
C 26.86767 0.61591 0.50385
C 27.71261 0.96615 -0.69981
N 31.77573 0.71156 2.65811
C 30.75996 -0.26897 2.62912
C 31.38989 -1.55887 2.97810
C 32.73462 -1.23283 3.21024
C 32.92491 0.16503 3.03911
C 30.71819 -2.80856 3.09303
C 34.03424 -1.75166 3.57151
O 34.50139 -2.87543 3.75220
C 34.99467 -0.52751 3.89616
C 36.29487 -0.75306 3.17426
O 36.33655 -0.74971 1.93134
O 37.30423 -0.71845 4.06328
C 38.61572 -0.92627 3.39348
H 33.80460 6.30705 4.10015
H 28.19008 5.33343 1.54266
H 28.87114 -0.86639 2.27277
H 36.26820 2.12214 4.98976
H 35.92717 4.86989 4.46956
H 34.79840 3.04502 6.55184
H 33.76809 4.43155 6.13915
H 35.37170 4.74622 6.72996
H 36.58589 3.75784 2.46205
H 36.81769 1.97432 2.35951
H 38.40113 2.94740 4.51667
H 38.42137 4.21554 3.34351
H 33.42719 8.16118 3.17252
H 31.92065 9.00654 3.05056
H 32.85983 8.76462 1.55853
H 30.33061 9.60820 1.60655
H 29.28932 9.62000 0.06958
H 30.98036 9.04238 0.08170
H 26.86548 3.27906 0.81831
H 26.85340 0.88746 2.58943
H 25.31473 3.86152 2.36266
H 26.65626 3.97351 3.55589
H 25.79542 2.52697 3.40713
H 25.84999 0.94081 0.27381
H 26.84317 -0.46260 0.61880
H 27.28336 1.91510 -1.03495
H 27.62299 0.19962 -1.46690
H 28.75169 1.15896 -0.40859
H 31.34482 -3.54467 2.60726
H 29.72769 -2.77027 2.64444
H 30.67258 -2.90614 4.18099
H 35.12771 -0.49348 4.97815
H 39.09843 -1.77262 3.89184
H 39.13422 0.04969 3.44256
H 38.60468 -1.26519 2.36417
