158

Mg 0.00000 0.00000 0.00000
C -0.21700 -2.21800 2.80100
C -1.25500 2.44200 2.02600
C -0.24500 1.85000 -2.56400
C 0.14600 -2.82400 -2.03700
N -0.61700 -0.00900 2.12600
C -0.59400 -0.90800 3.10500
C -0.93600 -0.30900 4.50200
C -1.77300 0.96400 4.03200
C -1.15500 1.16800 2.66000
C -3.26300 0.68500 3.86300
C 0.34500 0.11000 5.29900
C 0.12400 0.39700 6.78700
H 1.16800 0.03300 7.73300
N -0.18500 1.96100 -0.15200
C -0.70300 2.80000 0.77700
C -0.62000 4.15600 0.19300
C -0.18700 4.01500 -1.22500
C -0.21400 2.58300 -1.38000
C -0.88700 5.40600 0.97400
C 0.18100 5.01300 -2.27700
O 0.30300 4.69000 -3.50800
C 0.31000 6.41400 -1.83700
N -0.26500 -0.41300 -2.02900
C -0.27900 0.56900 -2.93700
C -0.19600 0.02400 -4.33200
C 0.12400 -1.53300 -4.18000
C 0.08600 -1.63200 -2.63500
C -1.45100 0.20500 -5.19700
C 1.37300 -2.07000 -4.92300
C 2.62600 -1.49000 -4.30600
N 0.15000 -2.14400 0.30300
C 0.17300 -3.13600 -0.68800
C 0.17300 -4.43800 0.00400
C 0.13300 -4.11100 1.35800
C 0.08300 -2.69500 1.50200
C 0.14900 -5.71500 -0.62300
C 0.09600 -4.62900 2.71600
O 0.20800 -5.74700 3.22100
C -0.25500 -3.42800 3.70100
C 0.71700 -3.48200 4.84800
O 1.93100 -3.25500 4.66900
O 0.03800 -3.55600 6.00300
C 0.94300 -3.58300 7.18300
H -1.85900 3.22000 2.49700
H -0.21800 2.45300 -3.47400
H 0.27600 -3.74700 -2.60500
H -1.55400 -0.94900 5.13200
H -1.58500 1.83100 4.66500
H -3.48400 -0.37700 3.96900
H -3.51100 1.02700 2.85800
H -3.85200 1.30100 4.54300
H 0.66900 1.09600 4.96600
H 1.13000 -0.63900 5.18900
H -0.84400 0.02600 7.12500
H 0.06200 1.47700 6.92100
H -1.34400 5.18600 1.93800
H -1.65100 5.96300 0.43200
H 0.00700 6.02000 1.08400
H -0.63500 6.74400 -1.40500
H 0.66500 6.97000 -2.70400
H 1.04800 6.46600 -1.03600
H 0.60800 0.50100 -4.89100
H -0.69200 -2.15600 -4.54700
H -1.26700 0.74000 -6.12900
H -2.20400 0.71400 -4.59600
H -1.96700 -0.72000 -5.45300
H 1.35600 -1.75900 -5.96700
H 1.45200 -3.15700 -4.90200
H 2.71400 -0.52200 -4.79800
H 3.48700 -2.12100 -4.52900
H 2.49500 -1.30300 -3.24000
H 0.86700 -6.33300 -0.08400
H 0.40400 -5.64200 -1.68000
H -0.89100 -5.99900 -0.46300
H -1.28300 -3.58100 4.02800
H 0.69800 -4.47800 7.75500
H 0.83300 -2.61900 7.68000
H 2.00000 -3.75400 6.97600
Mg 8.94112 0.80222 0.68644
C 9.06821 -2.78073 0.52716
C 7.84368 0.47143 3.89904
C 8.38875 3.92657 0.71441
C 8.93529 0.81835 -2.79858
N 8.54716 -0.97726 1.93963
C 8.69010 -2.28582 1.79268
C 8.49011 -3.10505 3.09592
C 7.57022 -2.06095 3.89750
C 8.03531 -0.76612 3.23433
C 6.08554 -2.23204 3.62223
C 9.84166 -3.37385 3.84630
C 9.76325 -4.42491 4.95575
H 10.91450 -5.29717 5.17080
N 8.69680 2.04961 2.21055
C 8.26480 1.74303 3.45179
C 8.23975 3.01285 4.19414
C 8.53452 4.11841 3.24253
C 8.53085 3.39393 1.98746
C 8.03426 3.08314 5.67948
C 8.76693 5.58715 3.42964
O 8.76993 6.40001 2.43864
C 8.89786 6.05879 4.81596
N 8.48388 2.16671 -0.81404
C 8.34545 3.47566 -0.53943
C 8.29292 4.29617 -1.80607
C 8.66933 3.28660 -2.98787
C 8.79257 1.97949 -2.17444
C 6.95113 4.96087 -2.11294
C 9.84780 3.69492 -3.91371
C 11.14536 3.67135 -3.13835
N 9.17691 -0.67112 -0.87616
C 9.11453 -0.45362 -2.27004
C 9.21839 -1.77522 -2.92197
C 9.31158 -2.67922 -1.85306
C 9.24850 -1.97286 -0.62157
C 9.17033 -2.01736 -4.32382
C 9.43827 -4.07141 -1.48635
O 9.62181 -5.11929 -2.10440
C 9.15913 -4.21088 0.07218
C 10.24546 -5.06664 0.66387
O 11.42413 -4.67029 0.67985
O 9.68554 -6.10885 1.30470
C 10.72257 -6.98089 1.91783
H 7.28035 0.47716 4.83259
H 8.30658 5.01482 0.66509
H 9.03974 0.74766 -3.88337
H 7.96260 -4.04250 2.96673
H 7.81143 -2.05456 4.95728
H 5.90134 -2.95293 2.83958
H 5.72627 -1.25448 3.32839
H 5.55710 -2.48199 4.54668
H 10.10192 -2.49003 4.44285
H 10.61651 -3.63743 3.15294
H 8.83970 -5.01398 4.90095
H 9.69617 -3.91018 5.91729
H 7.67887 2.12658 6.08211
H 7.20480 3.77670 5.85507
H 8.91698 3.44633 6.21011
H 7.99770 5.80448 5.37048
H 9.14823 7.11882 4.74159
H 9.72400 5.51932 5.29249
H 9.02397 5.09491 -1.78002
H 7.83066 3.14484 -3.68528
H 7.02420 6.05878 -2.22838
H 6.25601 4.70693 -1.32372
H 6.44182 4.58568 -2.99896
H 9.71506 4.72096 -4.26552
H 9.94669 3.06401 -4.79073
H 11.15216 4.64484 -2.63899
H 11.99287 3.56785 -3.81292
H 11.12400 2.90109 -2.35868
H 9.94773 -2.73739 -4.54223
H 9.30731 -1.09895 -4.89085
H 8.15482 -2.41099 -4.41905
H 8.17308 -4.66206 0.18930
H 10.55704 -7.99237 1.53418
H 10.62797 -6.83477 3.01028
H 11.75365 -6.81171 1.63023
