79

Mg 8.94194 0.79752 0.68121
C 9.13827 -1.15187 -2.32552
C 8.19386 -2.09367 2.32923
C 8.32017 2.54322 3.25674
C 8.57229 3.61581 -1.33531
N 8.72395 -1.28982 -0.01720
C 8.88236 -1.92067 -1.17101
C 8.83923 -3.46897 -1.06873
C 7.98300 -3.59686 0.28382
C 8.34496 -2.26090 0.92948
C 6.48228 -3.62137 0.04601
C 10.26777 -4.09726 -0.90580
C 10.33092 -5.61258 -1.10963
H 11.51906 -6.18116 -1.74011
N 8.82784 0.27248 2.59167
C 8.53519 -0.94967 3.08361
C 8.55702 -0.80975 4.54789
C 8.72413 0.63149 4.87895
C 8.60710 1.22023 3.55994
C 8.50592 -1.98645 5.47858
C 8.93922 1.36048 6.17065
O 8.81922 2.63391 6.25322
C 9.20260 0.53099 7.35559
N 8.29787 2.75805 0.93388
C 8.15724 3.28666 2.16217
C 7.95308 4.78127 2.09270
C 8.22847 5.18215 0.56921
C 8.46742 3.77599 -0.02324
C 6.57094 5.28396 2.50909
C 9.29374 6.28310 0.31269
C 10.66527 5.77242 0.69149
N 9.04901 1.22093 -1.43476
C 8.83636 2.46533 -2.06747
C 8.90356 2.23011 -3.52438
C 9.12954 0.85019 -3.63953
C 9.17819 0.26330 -2.34621
C 8.71543 3.21419 -4.53547
C 9.32739 -0.24514 -4.56138
O 9.47074 -0.34012 -5.77964
C 9.21577 -1.61048 -3.75530
C 10.37825 -2.47946 -4.15033
O 11.54223 -2.14473 -3.86802
O 9.91357 -3.65940 -4.60000
C 11.02966 -4.56004 -4.99372
H 7.73099 -2.89853 2.90093
H 8.20703 3.20976 4.11487
H 8.56470 4.45939 -2.02884
H 8.32393 -3.96384 -1.88319
H 8.33320 -4.42365 0.89630
H 6.23494 -3.42919 -0.98745
H 6.07081 -2.84964 0.68333
H 6.05933 -4.56462 0.40340
H 10.56740 -4.03683 0.14839
H 10.97223 -3.61557 -1.55567
H 9.42120 -6.00327 -1.58155
H 10.35207 -6.09405 -0.12893
H 8.21768 -2.90419 4.95125
H 7.68278 -1.80526 6.17821
H 9.43013 -2.11516 6.04597
H 8.37159 -0.15329 7.50935
H 9.41815 1.23410 8.16246
H 10.08673 -0.08632 7.16101
H 8.66335 5.29846 2.72607
H 7.32531 5.57885 0.08262
H 6.60502 6.02477 3.33013
H 5.96826 4.43094 2.79137
H 5.98121 5.72904 1.70951
H 9.10028 7.15221 0.94623
H 9.31584 6.63179 -0.71440
H 10.70059 5.93848 1.77235
H 11.44007 6.33952 0.17950
H 10.74397 4.69240 0.52117
H 9.48298 3.04695 -5.27937
H 8.77028 4.22065 -4.12582
H 7.70533 2.96104 -4.86848
H 8.25851 -2.06549 -4.01257
H 10.84950 -4.85721 -6.03146
H 11.04601 -5.36481 -4.23489
H 12.02072 -4.12767 -5.06655
