158

Mg 0.00000 0.00000 0.00000
C -0.21700 -2.21800 2.80100
C -1.25500 2.44200 2.02600
C -0.24500 1.85000 -2.56400
C 0.14600 -2.82400 -2.03700
N -0.61700 -0.00900 2.12600
C -0.59400 -0.90800 3.10500
C -0.93600 -0.30900 4.50200
C -1.77300 0.96400 4.03200
C -1.15500 1.16800 2.66000
C -3.26300 0.68500 3.86300
C 0.34500 0.11000 5.29900
C 0.12400 0.39700 6.78700
H 1.16800 0.03300 7.73300
N -0.18500 1.96100 -0.15200
C -0.70300 2.80000 0.77700
C -0.62000 4.15600 0.19300
C -0.18700 4.01500 -1.22500
C -0.21400 2.58300 -1.38000
C -0.88700 5.40600 0.97400
C 0.18100 5.01300 -2.27700
O 0.30300 4.69000 -3.50800
C 0.31000 6.41400 -1.83700
N -0.26500 -0.41300 -2.02900
C -0.27900 0.56900 -2.93700
C -0.19600 0.02400 -4.33200
C 0.12400 -1.53300 -4.18000
C 0.08600 -1.63200 -2.63500
C -1.45100 0.20500 -5.19700
C 1.37300 -2.07000 -4.92300
C 2.62600 -1.49000 -4.30600
N 0.15000 -2.14400 0.30300
C 0.17300 -3.13600 -0.68800
C 0.17300 -4.43800 0.00400
C 0.13300 -4.11100 1.35800
C 0.08300 -2.69500 1.50200
C 0.14900 -5.71500 -0.62300
C 0.09600 -4.62900 2.71600
O 0.20800 -5.74700 3.22100
C -0.25500 -3.42800 3.70100
C 0.71700 -3.48200 4.84800
O 1.93100 -3.25500 4.66900
O 0.03800 -3.55600 6.00300
C 0.94300 -3.58300 7.18300
H -1.85900 3.22000 2.49700
H -0.21800 2.45300 -3.47400
H 0.27600 -3.74700 -2.60500
H -1.55400 -0.94900 5.13200
H -1.58500 1.83100 4.66500
H -3.48400 -0.37700 3.96900
H -3.51100 1.02700 2.85800
H -3.85200 1.30100 4.54300
H 0.66900 1.09600 4.96600
H 1.13000 -0.63900 5.18900
H -0.84400 0.02600 7.12500
H 0.06200 1.47700 6.92100
H -1.34400 5.18600 1.93800
H -1.65100 5.96300 0.43200
H 0.00700 6.02000 1.08400
H -0.63500 6.74400 -1.40500
H 0.66500 6.97000 -2.70400
H 1.04800 6.46600 -1.03600
H 0.60800 0.50100 -4.89100
H -0.69200 -2.15600 -4.54700
H -1.26700 0.74000 -6.12900
H -2.20400 0.71400 -4.59600
H -1.96700 -0.72000 -5.45300
H 1.35600 -1.75900 -5.96700
H 1.45200 -3.15700 -4.90200
H 2.71400 -0.52200 -4.79800
H 3.48700 -2.12100 -4.52900
H 2.49500 -1.30300 -3.24000
H 0.86700 -6.33300 -0.08400
H 0.40400 -5.64200 -1.68000
H -0.89100 -5.99900 -0.46300
H -1.28300 -3.58100 4.02800
H 0.69800 -4.47800 7.75500
H 0.83300 -2.61900 7.68000
H 2.00000 -3.75400 6.97600
Mg 31.54072 2.84246 2.38964
C 34.16890 0.66353 3.49598
C 33.40701 5.44480 3.56411
C 29.05905 4.74120 1.83868
C 29.43888 0.06273 2.35687
N 33.51651 2.91747 3.38103
C 34.45016 2.03148 3.69357
C 35.78973 2.65116 4.17430
C 35.22956 4.06565 4.68840
C 33.99077 4.17481 3.80174
C 34.77798 4.04276 6.13922
C 36.81879 2.83203 3.00368
C 38.25017 3.14137 3.44778
H 39.35523 2.59209 2.66701
N 31.44977 4.81646 2.20623
C 32.30274 5.72239 2.72874
C 31.78785 7.03977 2.32430
C 30.47063 6.84474 1.65977
C 30.26115 5.43099 1.89957
C 32.56764 8.30937 2.50723
C 29.54579 7.77907 0.94011
O 28.34301 7.44480 0.64956
C 30.05918 9.12969 0.66857
N 29.49017 2.50348 2.33775
C 28.63398 3.49099 2.02204
C 27.24478 2.95139 1.77845
C 27.39933 1.35974 1.75952
C 28.90181 1.24733 2.09910
C 26.18717 3.34754 2.80845
C 26.86767 0.61591 0.50385
C 27.71261 0.96615 -0.69981
N 31.77573 0.71156 2.65811
C 30.75996 -0.26897 2.62912
C 31.38989 -1.55887 2.97810
C 32.73462 -1.23283 3.21024
C 32.92491 0.16503 3.03911
C 30.71819 -2.80856 3.09303
C 34.03424 -1.75166 3.57151
O 34.50139 -2.87543 3.75220
C 34.99467 -0.52751 3.89616
C 36.29487 -0.75306 3.17426
O 36.33655 -0.74971 1.93134
O 37.30423 -0.71845 4.06328
C 38.61572 -0.92627 3.39348
H 33.80460 6.30705 4.10015
H 28.19008 5.33343 1.54266
H 28.87114 -0.86639 2.27277
H 36.26820 2.12214 4.98976
H 35.92717 4.86989 4.46956
H 34.79840 3.04502 6.55184
H 33.76809 4.43155 6.13915
H 35.37170 4.74622 6.72996
H 36.58589 3.75784 2.46205
H 36.81769 1.97432 2.35951
H 38.40113 2.94740 4.51667
H 38.42137 4.21554 3.34351
H 33.42719 8.16118 3.17252
H 31.92065 9.00654 3.05056
H 32.85983 8.76462 1.55853
H 30.33061 9.60820 1.60655
H 29.28932 9.62000 0.06958
H 30.98036 9.04238 0.08170
H 26.86548 3.27906 0.81831
H 26.85340 0.88746 2.58943
H 25.31473 3.86152 2.36266
H 26.65626 3.97351 3.55589
H 25.79542 2.52697 3.40713
H 25.84999 0.94081 0.27381
H 26.84317 -0.46260 0.61880
H 27.28336 1.91510 -1.03495
H 27.62299 0.19962 -1.46690
H 28.75169 1.15896 -0.40859
H 31.34482 -3.54467 2.60726
H 29.72769 -2.77027 2.64444
H 30.67258 -2.90614 4.18099
H 35.12771 -0.49348 4.97815
H 39.09843 -1.77262 3.89184
H 39.13422 0.04969 3.44256
H 38.60468 -1.26519 2.36417
