79

Mg 13.14593 1.18734 0.99190
C 12.57308 4.66214 1.68229
C 12.44901 1.87530 -2.27546
C 13.20096 -1.93426 0.42616
C 12.67358 0.57713 4.39046
N 12.59634 3.06482 -0.04023
C 12.46906 4.33464 0.31431
C 12.29581 5.31962 -0.87285
C 11.70569 4.29038 -1.95511
C 12.31268 2.99597 -1.41777
C 10.19205 4.16541 -1.90391
C 13.66110 5.93099 -1.34639
C 13.53634 7.12821 -2.29130
H 14.52093 8.20173 -2.18835
N 13.34867 0.19482 -0.71467
C 13.03796 0.63300 -1.95271
C 13.35287 -0.47838 -2.86365
C 13.71964 -1.66606 -2.04537
C 13.41043 -1.17656 -0.71689
C 13.36640 -0.32749 -4.35713
C 14.24765 -3.02290 -2.40090
O 14.27015 -3.98093 -1.54973
C 14.65074 -3.22346 -3.80047
N 12.75595 -0.46914 2.18620
C 12.90489 -1.71686 1.70772
C 12.83766 -2.73841 2.81781
C 12.85435 -1.89690 4.17765
C 12.83761 -0.46815 3.59132
C 11.61623 -3.65726 2.80320
C 13.95290 -2.25738 5.21491
C 15.31523 -1.88890 4.67300
N 12.88712 2.39142 2.76708
C 12.67955 1.93243 4.08630
C 12.44373 3.12248 4.92926
C 12.50814 4.19817 4.03080
C 12.74584 3.71126 2.71705
C 12.16242 3.11106 6.32456
C 12.41853 5.63405 3.89329
O 12.31636 6.57706 4.67689
C 12.33077 5.98908 2.34647
C 13.30608 7.10003 2.06883
O 14.52951 6.91163 2.18851
O 12.65141 8.12959 1.50158
C 13.57858 9.25191 1.19730
H 12.02790 1.93604 -3.27938
H 13.31940 -3.01347 0.30473
H 12.61566 0.47823 5.47653
H 11.58863 6.12160 -0.69822
H 12.08438 4.50436 -2.95119
H 9.77157 4.70217 -1.06652
H 9.98712 3.10648 -1.81595
H 9.75550 4.47874 -2.85658
H 14.16119 5.21674 -2.01311
H 14.27177 6.19648 -0.50543
H 12.51954 7.53921 -2.30385
H 13.69766 6.78085 -3.31470
H 12.89474 0.61194 -4.67081
H 12.71383 -1.10792 -4.76329
H 14.36506 -0.44472 -4.78330
H 13.80188 -3.03006 -4.45201
H 15.08397 -4.22480 -3.83918
H 15.41700 -2.48222 -4.05351
H 13.70281 -3.38969 2.79694
H 11.91779 -2.01597 4.74202
H 11.87860 -4.73158 2.77024
H 10.99854 -3.39051 1.95595
H 10.93067 -3.52747 3.63888
H 13.96966 -3.33599 5.38944
H 13.81204 -1.77752 6.17767
H 15.57255 -2.74852 4.04696
H 16.02928 -1.76377 5.48449
H 15.25443 -1.01126 4.01900
H 12.75359 3.90134 6.76783
H 12.39227 2.14474 6.76859
H 11.08754 3.31016 6.30845
H 11.30232 6.28511 2.13614
H 13.17528 10.14203 1.68997
H 13.66133 9.28045 0.09454
H 14.57472 9.20823 1.62186
