79

Mg 31.53837 2.83457 2.40311
C 29.00728 2.18608 4.86321
C 33.04279 4.85702 4.70116
C 33.53125 3.77788 0.12144
C 29.28490 1.71571 -0.00847
N 30.99907 3.37136 4.47995
C 30.04813 3.01539 5.33044
C 30.26541 3.51473 6.78406
C 31.20892 4.77491 6.46692
C 31.82028 4.29755 5.15123
C 30.43410 6.05408 6.19723
C 31.00274 2.45519 7.67610
C 30.97364 2.74706 9.17801
H 30.88310 1.62164 10.10413
N 33.30866 3.72250 2.53053
C 33.76417 4.48754 3.54468
C 35.11297 4.92034 3.14774
C 35.35180 4.48407 1.74512
C 34.03659 3.98518 1.39667
C 36.05959 5.60236 4.09231
C 36.56008 4.52273 0.85926
O 36.47769 4.30802 -0.40167
C 37.82731 4.91108 1.49551
N 31.35700 2.95995 0.33581
C 32.39256 3.35301 -0.42645
C 32.11858 3.10226 -1.89016
C 30.77694 2.23294 -1.93334
C 30.44418 2.20605 -0.42539
C 31.94512 4.34882 -2.75756
C 30.83675 0.88408 -2.70124
C 31.74187 -0.08409 -1.97406
N 29.58466 1.91205 2.40900
C 28.80943 1.54896 1.28594
C 27.50904 1.06464 1.79273
C 27.61021 1.20225 3.18533
C 28.87613 1.75363 3.52137
C 26.41656 0.62424 0.99358
C 26.92991 1.01638 4.44681
O 25.86577 0.50487 4.79279
C 27.75580 1.76306 5.58117
C 27.90026 0.82241 6.74600
O 28.56337 -0.22381 6.63506
O 27.41790 1.41510 7.85344
C 27.54919 0.52539 9.03793
H 33.47140 5.68730 5.26312
H 34.22256 3.98408 -0.69895
H 28.56553 1.25779 -0.69074
H 29.36572 3.84213 7.29116
H 31.97910 4.89235 7.22481
H 29.36994 5.87750 6.14689
H 30.80113 6.42608 5.24963
H 30.69189 6.81462 6.93982
H 32.08283 2.52208 7.49260
H 30.62055 1.46997 7.49197
H 30.23472 3.51601 9.43423
H 31.93097 3.18936 9.46417
H 35.54748 5.93785 5.00257
H 36.38428 6.52872 3.60621
H 36.93867 4.99532 4.31903
H 37.72217 5.89973 1.93594
H 38.59001 4.79388 0.72323
H 38.03111 4.21916 2.32033
H 32.92129 2.53233 -2.34175
H 29.95633 2.77434 -2.42663
H 32.65016 4.38950 -3.60923
H 32.05867 5.22129 -2.12792
H 30.94731 4.48954 -3.16959
H 31.27251 1.03159 -3.69246
H 29.86450 0.42379 -2.84213
H 32.73900 0.20081 -2.32285
H 31.50557 -1.10995 -2.24940
H 31.71049 0.08518 -0.89146
H 26.02906 -0.27073 1.46195
H 26.72530 0.43514 -0.03243
H 25.75643 1.49235 1.07022
H 27.20337 2.66453 5.84902
H 26.54988 0.42154 9.47184
H 28.32868 0.98662 9.67308
H 27.81113 -0.51099 8.85973
