158

Mg 0.00000 0.00000 0.00000
C -0.21700 -2.21800 2.80100
C -1.25500 2.44200 2.02600
C -0.24500 1.85000 -2.56400
C 0.14600 -2.82400 -2.03700
N -0.61700 -0.00900 2.12600
C -0.59400 -0.90800 3.10500
C -0.93600 -0.30900 4.50200
C -1.77300 0.96400 4.03200
C -1.15500 1.16800 2.66000
C -3.26300 0.68500 3.86300
C 0.34500 0.11000 5.29900
C 0.12400 0.39700 6.78700
H 1.16800 0.03300 7.73300
N -0.18500 1.96100 -0.15200
C -0.70300 2.80000 0.77700
C -0.62000 4.15600 0.19300
C -0.18700 4.01500 -1.22500
C -0.21400 2.58300 -1.38000
C -0.88700 5.40600 0.97400
C 0.18100 5.01300 -2.27700
O 0.30300 4.69000 -3.50800
C 0.31000 6.41400 -1.83700
N -0.26500 -0.41300 -2.02900
C -0.27900 0.56900 -2.93700
C -0.19600 0.02400 -4.33200
C 0.12400 -1.53300 -4.18000
C 0.08600 -1.63200 -2.63500
C -1.45100 0.20500 -5.19700
C 1.37300 -2.07000 -4.92300
C 2.62600 -1.49000 -4.30600
N 0.15000 -2.14400 0.30300
C 0.17300 -3.13600 -0.68800
C 0.17300 -4.43800 0.00400
C 0.13300 -4.11100 1.35800
C 0.08300 -2.69500 1.50200
C 0.14900 -5.71500 -0.62300
C 0.09600 -4.62900 2.71600
O 0.20800 -5.74700 3.22100
C -0.25500 -3.42800 3.70100
C 0.71700 -3.48200 4.84800
O 1.93100 -3.25500 4.66900
O 0.03800 -3.55600 6.00300
C 0.94300 -3.58300 7.18300
H -1.85900 3.22000 2.49700
H -0.21800 2.45300 -3.47400
H 0.27600 -3.74700 -2.60500
H -1.55400 -0.94900 5.13200
H -1.58500 1.83100 4.66500
H -3.48400 -0.37700 3.96900
H -3.51100 1.02700 2.85800
H -3.85200 1.30100 4.54300
H 0.66900 1.09600 4.96600
H 1.13000 -0.63900 5.18900
H -0.84400 0.02600 7.12500
H 0.06200 1.47700 6.92100
H -1.34400 5.18600 1.93800
H -1.65100 5.96300 0.43200
H 0.00700 6.02000 1.08400
H -0.63500 6.74400 -1.40500
H 0.66500 6.97000 -2.70400
H 1.04800 6.46600 -1.03600
H 0.60800 0.50100 -4.89100
H -0.69200 -2.15600 -4.54700
H -1.26700 0.74000 -6.12900
H -2.20400 0.71400 -4.59600
H -1.96700 -0.72000 -5.45300
H 1.35600 -1.75900 -5.96700
H 1.45200 -3.15700 -4.90200
H 2.71400 -0.52200 -4.79800
H 3.48700 -2.12100 -4.52900
H 2.49500 -1.30300 -3.24000
H 0.86700 -6.33300 -0.08400
H 0.40400 -5.64200 -1.68000
H -0.89100 -5.99900 -0.46300
H -1.28300 -3.58100 4.02800
H 0.69800 -4.47800 7.75500
H 0.83300 -2.61900 7.68000
H 2.00000 -3.75400 6.97600
Mg 8.93536 0.79711 0.68636
C 6.37961 1.83950 2.97995
C 11.18855 1.31617 3.19401
C 11.25078 0.31970 -1.42985
C 6.69073 1.45474 -1.89721
N 8.69331 1.48862 2.77333
C 7.66771 1.79629 3.55297
C 8.03346 1.99498 5.04840
C 9.58463 2.36983 4.86882
C 9.85775 1.65382 3.54768
C 9.82482 3.85646 4.66495
C 7.85337 0.68136 5.88742
C 7.89416 0.87667 7.40464
H 7.03387 0.04070 8.23741
N 10.84840 0.34328 0.95632
C 11.60173 0.60766 2.04439
C 12.94464 0.09028 1.73934
C 12.96498 -0.35321 0.31891
C 11.66659 0.11551 -0.12219
C 14.02789 -0.02094 2.77261
C 13.98933 -1.06807 -0.50927
O 13.89235 -1.14045 -1.78527
C 15.15716 -1.60013 0.20806
N 9.04427 1.07480 -1.37116
C 10.15121 0.73873 -2.05648
C 9.90076 0.76757 -3.54538
C 8.32176 0.95896 -3.71181
C 7.92634 1.10338 -2.22582
C 10.63061 1.86355 -4.32162
C 7.57289 -0.09121 -4.57726
C 7.59311 -1.43672 -3.88836
N 6.84866 1.33744 0.53874
C 6.11425 1.58971 -0.64070
C 4.76681 2.03309 -0.22809
C 4.81847 2.03007 1.17398
C 6.11340 1.63358 1.60464
C 3.71331 2.41858 -1.10425
C 4.07528 2.28236 2.38754
O 2.90503 2.55889 2.64790
C 5.09147 2.29202 3.60968
C 4.50958 1.44018 4.70434
O 4.36269 0.21596 4.54209
O 4.42576 2.16888 5.83232
C 3.86452 1.36398 6.94989
H 11.99954 1.66218 3.83545
H 11.97941 0.06203 -2.20198
H 5.90300 1.58451 -2.64242
H 7.50956 2.80572 5.54034
H 10.18878 1.94361 5.66551
H 8.89974 4.40283 4.55610
H 10.42026 3.93754 3.76499
H 10.44563 4.25241 5.47375
H 8.74002 0.04793 5.75563
H 6.94875 0.17469 5.61251
H 7.79478 1.93176 7.68723
H 8.88692 0.59528 7.76417
H 13.77381 0.53545 3.68325
H 14.90557 0.49848 2.37293
H 14.29844 -1.05653 2.98944
H 15.66896 -0.78734 0.71785
H 15.73113 -2.15341 -0.53781
H 14.80662 -2.28808 0.98553
H 10.19154 -0.16923 -4.00467
H 8.07609 1.91518 -4.19673
H 11.26711 1.47094 -5.13697
H 11.22102 2.44128 -3.62292
H 9.98760 2.62270 -4.76372
H 8.08195 -0.22516 -5.53490
H 6.54541 0.18130 -4.79408
H 8.56811 -1.84439 -4.17168
H 6.78209 -2.06501 -4.25104
H 7.58841 -1.32086 -2.79831
H 2.80881 1.96400 -0.72249
H 3.91374 2.10835 -2.12765
H 3.75206 3.50515 -0.98964
H 5.21854 3.32931 3.92189
H 2.99599 1.90944 7.33175
H 4.70435 1.19981 7.65096
H 3.42140 0.40596 6.70435
