79

Mg 31.54028 2.83199 2.39786
C 31.73660 0.88260 -0.60887
C 30.79220 -0.05920 4.04588
C 30.91850 4.57769 4.97339
C 31.17062 5.65028 0.38134
N 31.32228 0.74466 1.69945
C 31.48069 0.11381 0.54565
C 31.43756 -1.43450 0.64792
C 30.58134 -1.56238 2.00047
C 30.94330 -0.22642 2.64613
C 29.08061 -1.58689 1.76266
C 32.86610 -2.06278 0.81085
C 32.92925 -3.57811 0.60703
H 34.11739 -4.14669 -0.02346
N 31.42617 2.30695 4.30832
C 31.13352 1.08481 4.80026
C 31.15535 1.22472 6.26454
C 31.32246 2.66597 6.59560
C 31.20543 3.25470 5.27659
C 31.10425 0.04802 7.19524
C 31.53756 3.39496 7.88730
O 31.41755 4.66838 7.96988
C 31.80093 2.56547 9.07224
N 30.89620 4.79252 2.65053
C 30.75557 5.32113 3.87883
C 30.55141 6.81575 3.80935
C 30.82680 7.21663 2.28586
C 31.06575 5.81046 1.69341
C 29.16927 7.31843 4.22574
C 31.89207 8.31757 2.02934
C 33.26361 7.80689 2.40814
N 31.64734 3.25540 0.28189
C 31.43469 4.49981 -0.35082
C 31.50189 4.26458 -1.80773
C 31.72787 2.88467 -1.92288
C 31.77653 2.29778 -0.62956
C 31.31376 5.24867 -2.81882
C 31.92573 1.78934 -2.84473
O 32.06907 1.69435 -4.06299
C 31.81411 0.42399 -2.03865
C 32.97658 -0.44499 -2.43368
O 34.14056 -0.11025 -2.15137
O 32.51190 -1.62492 -2.88335
C 33.62799 -2.52556 -3.27707
H 30.32932 -0.86406 4.61758
H 30.80536 5.24424 5.83152
H 31.16304 6.49386 -0.31219
H 30.92227 -1.92937 -0.16654
H 30.93153 -2.38918 2.61295
H 28.83327 -1.39472 0.72921
H 28.66914 -0.81516 2.39998
H 28.65767 -2.53014 2.12005
H 33.16573 -2.00236 1.86504
H 33.57056 -1.58109 0.16098
H 32.01953 -3.96880 0.13510
H 32.95041 -4.05958 1.58772
H 30.81602 -0.86971 6.66790
H 30.28111 0.22921 7.89486
H 32.02847 -0.08069 7.76262
H 30.96992 1.88119 9.22600
H 32.01649 3.26858 9.87911
H 32.68506 1.94815 8.87766
H 31.26168 7.33293 4.44272
H 29.92364 7.61332 1.79927
H 29.20335 8.05925 5.04678
H 28.56659 6.46542 4.50802
H 28.57954 7.76352 3.42616
H 31.69861 9.18668 2.66288
H 31.91417 8.66627 1.00225
H 33.29893 7.97296 3.48900
H 34.03840 8.37400 1.89615
H 33.34231 6.72687 2.23782
H 32.08131 5.08142 -3.56272
H 31.36862 6.25512 -2.40917
H 30.30367 4.99552 -3.15183
H 30.85684 -0.03101 -2.29592
H 33.44783 -2.82273 -4.31481
H 33.64434 -3.33034 -2.51824
H 34.61905 -2.09320 -3.34989
