79

Mg 31.54002 2.84035 2.40269
C 30.25561 0.85034 5.09884
C 31.34307 5.52950 4.49178
C 32.23919 4.69239 -0.07694
C 30.56802 0.28692 0.23915
N 30.87047 3.03762 4.50151
C 30.46183 2.20215 5.44456
C 30.33990 2.83574 6.85639
C 30.14549 4.36789 6.41640
C 30.85965 4.32718 5.06697
C 28.69314 4.74562 6.17696
C 31.64133 2.64447 7.71179
C 31.48517 2.96337 9.20031
H 32.23255 2.16239 10.16588
N 32.22054 4.70365 2.34294
C 32.06992 5.65564 3.28757
C 32.73427 6.85660 2.75796
C 33.14610 6.58427 1.35405
C 32.51906 5.29531 1.14072
C 32.99402 8.07743 3.59194
C 33.95782 7.36184 0.36275
O 33.99058 7.04326 -0.87832
C 34.63847 8.56206 0.87037
N 31.23233 2.63320 0.35702
C 31.68074 3.56078 -0.50695
C 31.59040 3.06821 -1.93159
C 31.21182 1.51795 -1.82698
C 31.05444 1.39869 -0.29518
C 30.57081 3.78205 -2.81888
C 32.14800 0.51425 -2.55420
C 33.50127 0.48989 -1.88082
N 30.75595 0.83805 2.61266
C 30.39382 -0.04929 1.57557
C 29.80476 -1.24537 2.21183
C 29.84429 -0.95887 3.58472
C 30.39898 0.33354 3.78846
C 29.27958 -2.37795 1.52803
C 29.53315 -1.45148 4.90731
O 29.12720 -2.51971 5.36317
C 29.66914 -0.25002 5.93900
C 30.47057 -0.73635 7.11531
O 31.66534 -1.05323 6.97850
O 29.76177 -0.54146 8.24225
C 30.51951 -0.99812 9.43770
H 31.10845 6.47236 4.98660
H 32.56356 5.24450 -0.96205
H 30.33071 -0.59399 -0.36115
H 29.48428 2.50260 7.43145
H 30.65675 5.04254 7.09818
H 28.03995 3.88719 6.22774
H 28.66280 5.18621 5.18903
H 28.39030 5.53654 6.86911
H 32.37122 3.41437 7.43027
H 32.03246 1.65265 7.59382
H 30.43210 3.03942 9.49730
H 31.88864 3.96184 9.38548
H 32.43164 8.04858 4.53338
H 32.57240 8.93072 3.04973
H 34.05864 8.25536 3.75806
H 33.90248 9.24558 1.28702
H 35.23881 8.93206 0.03696
H 35.29737 8.26816 1.69505
H 32.54460 3.16374 -2.43505
H 30.22310 1.30973 -2.26162
H 31.01745 4.22066 -3.73114
H 30.08154 4.54633 -2.22979
H 29.73216 3.16880 -3.14411
H 32.31979 0.83499 -3.58462
H 31.75238 -0.49520 -2.59284
H 34.01407 1.34758 -2.32633
H 34.02222 -0.43963 -2.10137
H 33.40940 0.68281 -0.80565
H 29.63329 -3.25278 2.05725
H 29.58882 -2.39128 0.48498
H 28.20777 -2.19130 1.63606
H 28.66091 0.05048 6.22667
H 29.88452 -1.71862 9.96243
H 30.79612 -0.07777 9.98561
H 31.41347 -1.58720 9.26956
