79

Mg 15.76628 1.41940 1.19766
C 15.18597 4.83209 2.10817
C 15.04899 2.31065 -2.01703
C 15.82752 -1.66060 0.44503
C 15.32177 0.60197 4.55622
N 15.20475 3.35710 0.28626
C 15.07505 4.60163 0.73513
C 14.88486 5.65129 -0.40039
C 14.29896 4.69386 -1.53267
C 14.91518 3.38077 -1.08324
C 12.77986 4.56243 -1.49340
C 16.23934 6.30013 -0.84322
C 16.10969 7.55756 -1.70775
H 17.08399 8.62543 -1.54120
N 15.95939 0.53295 -0.55726
C 15.63277 1.05006 -1.76607
C 15.96297 0.00523 -2.75903
C 16.33024 -1.23087 -2.01385
C 16.02451 -0.83837 -0.66187
C 15.95861 0.24457 -4.23769
C 16.86104 -2.55918 -2.45200
O 16.89214 -3.57057 -1.67054
C 17.26696 -2.67085 -3.86473
N 15.38330 -0.31738 2.29062
C 15.53935 -1.52687 1.74130
C 15.48590 -2.60881 2.77885
C 15.50307 -1.86674 4.19264
C 15.47979 -0.40192 3.69060
C 14.27108 -3.54434 2.70825
C 16.60900 -2.28593 5.19344
C 17.96319 -1.86558 4.66755
N 15.50680 2.51238 3.05484
C 15.31701 1.96883 4.33359
C 15.08094 3.09778 5.25219
C 15.13369 4.22588 4.43582
C 15.36056 3.82508 3.08817
C 14.79792 2.99549 6.64282
C 15.02665 5.67494 4.38464
O 14.93191 6.56779 5.22805
C 14.93480 6.11696 2.85755
C 15.90251 7.25064 2.65354
O 17.13338 7.06479 2.74169
O 15.24685 8.31088 2.15700
C 16.15473 9.46138 1.90354
H 14.61644 2.42222 -3.01322
H 15.95072 -2.72753 0.24773
H 15.25929 0.42969 5.63226
H 14.16875 6.44137 -0.17371
H 14.66400 4.96433 -2.52329
H 12.36069 5.04722 -0.61181
H 12.58095 3.49082 -1.46934
H 12.33528 4.92900 -2.41901
H 16.74006 5.63931 -1.55079
H 16.86277 6.52142 0.02379
H 15.09580 7.95775 -1.67967
H 16.25983 7.27296 -2.74922
H 15.48853 1.19473 -4.48821
H 15.30483 -0.50689 -4.67994
H 16.95631 0.16380 -4.66943
H 16.41273 -2.44550 -4.50351
H 17.70381 -3.66280 -3.97457
H 18.01813 -1.90965 -4.07750
H 16.35459 -3.26206 2.70774
H 14.57466 -2.01623 4.74433
H 14.53472 -4.59771 2.61019
H 13.64330 -3.21950 1.87899
H 13.58115 -3.46173 3.54765
H 16.62990 -3.36964 5.30341
H 16.47750 -1.85436 6.18577
H 18.22551 -2.67940 3.99249
H 18.68150 -1.78906 5.48449
H 17.89353 -0.95631 4.07016
H 15.39475 3.76461 7.13295
H 15.03952 2.00363 7.02418
H 13.72635 3.19447 6.64597
H 13.90383 6.42195 2.68096
H 15.75417 10.31344 2.45288
H 16.24321 9.55365 0.82092
H 17.15430 9.39057 2.33388
