79

Mg 7.88314 0.70970 0.59883
C 7.55406 3.71584 -1.31612
C 7.37755 -1.01625 -2.30091
C 7.71680 -1.94039 2.33261
C 7.23226 2.62242 3.43847
N 7.52469 1.37763 -1.48108
C 7.48139 2.55719 -2.09258
C 7.42740 2.44632 -3.64570
C 6.81079 0.98147 -3.77221
C 7.29534 0.39945 -2.45602
C 5.28569 0.96151 -3.78626
C 8.84882 2.52781 -4.29734
C 8.86128 2.75511 -5.81178
H 9.91403 3.57809 -6.38776
N 8.07396 -1.18334 0.06700
C 7.84247 -1.70687 -1.16084
C 8.12479 -3.15393 -1.04676
C 8.35566 -3.46042 0.39229
C 8.02800 -2.19561 0.99915
C 8.20205 -4.07276 -2.22724
C 8.79082 -4.69997 1.10803
O 8.70436 -4.81783 2.37815
C 9.24434 -5.82065 0.26456
N 7.31056 0.33684 2.57133
C 7.38721 -0.89306 3.09138
C 7.20000 -0.86932 4.57944
C 7.22060 0.67012 5.00307
C 7.34129 1.30106 3.59395
C 5.91490 -1.52550 5.10285
C 8.24484 1.08720 6.08815
C 9.65024 0.95231 5.54617
N 7.63933 2.82001 1.04404
C 7.35155 3.39059 2.29236
C 7.17311 4.83798 2.07495
C 7.35430 5.00755 0.70372
C 7.60258 3.74238 0.09875
C 6.82490 5.79348 3.07004
C 7.37153 5.95990 -0.39473
O 7.31710 7.18768 -0.47887
C 7.38072 5.14602 -1.76343
C 8.44784 5.74287 -2.63997
O 9.65403 5.64771 -2.33432
O 7.90475 6.11926 -3.80784
C 8.91578 6.69299 -4.73563
H 6.99770 -1.65757 -3.09864
H 7.75807 -2.81472 2.98550
H 7.11084 3.29412 4.29025
H 6.77135 3.16954 -4.13045
H 7.23813 0.43102 -4.61013
H 4.87241 1.94803 -3.57674
H 4.99668 0.25461 -3.00828
H 4.91235 0.54584 -4.72253
H 9.32128 1.54654 -4.25312
H 9.45203 3.29617 -3.81248
H 7.88428 3.07546 -6.17478
H 9.03018 1.79518 -6.29984
H 7.82423 -3.59630 -3.13101
H 7.50644 -4.89060 -2.04022
H 9.20654 -4.47049 -2.37266
H 8.43935 -6.11162 -0.41062
H 9.60053 -6.58835 0.95057
H 10.06496 -5.47808 -0.36645
H 8.01298 -1.38961 5.08421
H 6.26077 0.99694 5.40381
H 6.09302 -2.32177 5.82599
H 5.35166 -1.89417 4.24603
H 5.20004 -0.83649 5.55191
H 8.17008 0.42902 6.95310
H 8.10888 2.11077 6.43755
H 9.87115 -0.10297 5.70241
H 10.33783 1.58288 6.11079
H 9.68207 1.13634 4.47211
H 7.46331 6.65990 2.89763
H 6.96630 5.39049 4.07265
H 5.77463 5.96010 2.83126
H 6.38723 5.25224 -2.19796
H 8.56568 7.68604 -5.01763
H 9.05664 5.96129 -5.53136
H 9.88710 6.93279 -4.30162
