158

Mg 0.00000 0.00000 0.00000
C -0.21700 -2.21800 2.80100
C -1.25500 2.44200 2.02600
C -0.24500 1.85000 -2.56400
C 0.14600 -2.82400 -2.03700
N -0.61700 -0.00900 2.12600
C -0.59400 -0.90800 3.10500
C -0.93600 -0.30900 4.50200
C -1.77300 0.96400 4.03200
C -1.15500 1.16800 2.66000
C -3.26300 0.68500 3.86300
C 0.34500 0.11000 5.29900
C 0.12400 0.39700 6.78700
H 1.16800 0.03300 7.73300
N -0.18500 1.96100 -0.15200
C -0.70300 2.80000 0.77700
C -0.62000 4.15600 0.19300
C -0.18700 4.01500 -1.22500
C -0.21400 2.58300 -1.38000
C -0.88700 5.40600 0.97400
C 0.18100 5.01300 -2.27700
O 0.30300 4.69000 -3.50800
C 0.31000 6.41400 -1.83700
N -0.26500 -0.41300 -2.02900
C -0.27900 0.56900 -2.93700
C -0.19600 0.02400 -4.33200
C 0.12400 -1.53300 -4.18000
C 0.08600 -1.63200 -2.63500
C -1.45100 0.20500 -5.19700
C 1.37300 -2.07000 -4.92300
C 2.62600 -1.49000 -4.30600
N 0.15000 -2.14400 0.30300
C 0.17300 -3.13600 -0.68800
C 0.17300 -4.43800 0.00400
C 0.13300 -4.11100 1.35800
C 0.08300 -2.69500 1.50200
C 0.14900 -5.71500 -0.62300
C 0.09600 -4.62900 2.71600
O 0.20800 -5.74700 3.22100
C -0.25500 -3.42800 3.70100
C 0.71700 -3.48200 4.84800
O 1.93100 -3.25500 4.66900
O 0.03800 -3.55600 6.00300
C 0.94300 -3.58300 7.18300
H -1.85900 3.22000 2.49700
H -0.21800 2.45300 -3.47400
H 0.27600 -3.74700 -2.60500
H -1.55400 -0.94900 5.13200
H -1.58500 1.83100 4.66500
H -3.48400 -0.37700 3.96900
H -3.51100 1.02700 2.85800
H -3.85200 1.30100 4.54300
H 0.66900 1.09600 4.96600
H 1.13000 -0.63900 5.18900
H -0.84400 0.02600 7.12500
H 0.06200 1.47700 6.92100
H -1.34400 5.18600 1.93800
H -1.65100 5.96300 0.43200
H 0.00700 6.02000 1.08400
H -0.63500 6.74400 -1.40500
H 0.66500 6.97000 -2.70400
H 1.04800 6.46600 -1.03600
H 0.60800 0.50100 -4.89100
H -0.69200 -2.15600 -4.54700
H -1.26700 0.74000 -6.12900
H -2.20400 0.71400 -4.59600
H -1.96700 -0.72000 -5.45300
H 1.35600 -1.75900 -5.96700
H 1.45200 -3.15700 -4.90200
H 2.71400 -0.52200 -4.79800
H 3.48700 -2.12100 -4.52900
H 2.49500 -1.30300 -3.24000
H 0.86700 -6.33300 -0.08400
H 0.40400 -5.64200 -1.68000
H -0.89100 -5.99900 -0.46300
H -1.28300 -3.58100 4.02800
H 0.69800 -4.47800 7.75500
H 0.83300 -2.61900 7.68000
H 2.00000 -3.75400 6.97600
Mg 31.53256 2.83880 2.39533
C 31.05074 2.93409 5.94089
C 30.36980 6.04538 2.30085
C 31.51890 2.62540 -0.76867
C 31.56384 -0.63742 2.64144
N 30.83199 4.20953 3.98622
C 30.75354 4.14505 5.31169
C 30.39833 5.50853 5.97662
C 29.67096 6.20850 4.74254
C 30.35591 5.47001 3.60614
C 28.17316 5.92741 4.67877
C 31.67242 6.30482 6.41748
C 31.41257 7.48358 7.36000
H 32.39023 7.78052 8.39603
N 31.49005 4.25254 1.01605
C 30.99472 5.50569 1.15582
C 31.19471 6.17095 -0.14959
C 31.67319 5.14322 -1.11547
C 31.55328 3.94512 -0.32455
C 30.98395 7.63805 -0.36629
C 32.15116 5.22617 -2.53067
O 32.29957 4.18697 -3.26048
C 32.35922 6.58002 -3.07550
N 31.32084 1.23054 1.08144
C 31.41117 1.40394 -0.24172
C 31.51188 0.09039 -0.95893
C 31.71693 -1.01685 0.17320
C 31.61049 -0.10309 1.41899
C 30.30798 -0.28939 -1.83209
C 32.95441 -1.93932 0.03868
C 34.21893 -1.13382 0.23678
N 31.52146 1.38214 4.00438
C 31.51526 -0.01446 3.87734
C 31.39743 -0.57144 5.23747
C 31.32613 0.54727 6.06527
C 31.36862 1.72818 5.27032
C 31.31010 -1.95265 5.56772
C 31.19913 1.01957 7.43445
O 31.21316 0.48112 8.54231
C 30.89310 2.58192 7.39920
C 31.81243 3.24754 8.38666
O 33.04542 3.27365 8.19580
O 31.08435 3.94868 9.26918
C 31.93745 4.65800 10.25975
H 29.80281 6.96098 2.12156
H 31.62393 2.50535 -1.84895
H 31.65218 -1.71330 2.80309
H 29.71281 5.43736 6.82127
H 29.89313 7.27416 4.69029
H 27.87507 5.18584 5.41981
H 27.98978 5.55375 3.67117
H 27.60155 6.85193 4.76414
H 32.07698 6.83989 5.55836
H 32.40742 5.63749 6.86890
H 30.40847 7.44182 7.78302
H 31.42023 8.40040 6.77044
H 30.47467 8.09869 0.47928
H 30.28263 7.74010 -1.19421
H 31.91323 8.15516 -0.60582
H 31.42285 7.13609 -3.02501
H 32.78623 6.44230 -4.06825
H 33.06646 7.11210 -2.43860
H 32.36867 0.07667 -1.63134
H 30.87505 -1.70750 0.22710
H 30.56568 -0.48009 -2.87417
H 29.56865 0.50697 -1.75151
H 29.73979 -1.14923 -1.47821
H 33.00071 -2.36814 -0.96178
H 32.95703 -2.76280 0.75291
H 34.39335 -0.70777 -0.75058
H 35.04238 -1.78494 0.53205
H 34.05873 -0.30439 0.92590
H 31.96147 -2.10219 6.42872
H 31.61156 -2.58009 4.72924
H 30.24737 -2.03952 5.79335
H 29.84473 2.70219 7.67046
H 31.60839 4.34356 11.25025
H 31.87472 5.71938 10.01902
H 32.98749 4.36492 10.28907
