79

Mg 15.76628 1.41940 1.19766
C 15.47050 -0.22929 4.36097
C 14.51883 4.21457 2.70564
C 15.59063 2.75712 -1.67223
C 15.89910 -1.73893 -0.26963
N 15.11619 1.81823 3.27588
C 15.10967 1.11917 4.40657
C 14.75552 1.97451 5.65970
C 13.94626 3.14690 4.94375
C 14.58871 3.08138 3.56937
C 12.45483 2.86000 4.80296
C 16.03045 2.51966 6.38709
C 15.79090 3.08417 7.79041
H 16.81414 2.89138 8.80686
N 15.61484 3.31900 0.67668
C 15.09583 4.32425 1.42193
C 15.20943 5.54505 0.59524
C 15.66216 5.13440 -0.76288
C 15.61484 3.69927 -0.64662
C 14.95019 6.92291 1.12254
C 16.06230 5.91200 -1.97671
O 16.19830 5.36172 -3.12269
C 16.20667 7.36900 -1.80540
N 15.52637 0.63556 -0.72215
C 15.54210 1.42936 -1.79854
C 15.63814 0.63072 -3.06459
C 15.93097 -0.87384 -2.61702
C 15.86736 -0.68001 -1.08188
C 14.39979 0.66170 -3.97098
C 17.18270 -1.55678 -3.22298
C 18.43500 -0.88701 -2.70311
N 15.87747 -0.63108 1.90067
C 15.90014 -1.79197 1.11422
C 15.86869 -2.94048 2.03834
C 15.81281 -2.36418 3.30586
C 15.78307 -0.94585 3.18039
C 15.83417 -4.31221 1.66203
C 15.74646 -2.61702 4.73608
O 15.83281 -3.62142 5.44405
C 15.39928 -1.24785 5.47138
C 16.35233 -1.09748 6.62568
O 17.57242 -0.92360 6.42944
O 15.65434 -0.94433 7.76142
C 16.54032 -0.76038 8.94182
H 13.92001 5.07486 3.01101
H 15.64137 3.17782 -2.67864
H 16.02325 -2.75386 -0.65169
H 14.11770 1.47230 6.38730
H 14.13813 4.11503 5.40596
H 12.21537 1.83978 5.10249
H 12.22797 3.01000 3.74725
H 11.86517 3.60031 5.34427
H 16.37521 3.42125 5.88080
H 16.80507 1.75345 6.43410
H 14.81199 2.79566 8.17433
H 15.74398 4.17080 7.71801
H 14.47481 6.89395 2.10219
H 14.20367 7.37767 0.47170
H 15.85201 7.53526 1.13158
H 15.26042 7.78631 -1.46042
H 16.58391 7.74747 -2.75477
H 16.93284 7.56136 -1.01508
H 16.45822 0.98385 -3.68844
H 15.11099 -1.54435 -2.87532
H 14.60675 1.00949 -4.98336
H 13.64571 1.28415 -3.49014
H 13.87322 -0.28833 -4.05806
H 17.18689 -1.44749 -4.30695
H 17.24409 -2.62134 -2.99674
H 18.54601 -0.03001 -3.36648
H 19.28923 -1.55955 -2.78785
H 18.29040 -0.50122 -1.69378
H 16.53379 -4.82685 2.32054
H 16.10672 -4.44254 0.61497
H 14.78743 -4.54784 1.85349
H 14.36402 -1.32358 5.80246
H 16.27226 -1.52866 9.66718
H 16.43792 0.28120 9.24682
H 17.59757 -0.98065 8.78998
