158

Mg 0.00000 0.00000 0.00000
C -0.21700 -2.21800 2.80100
C -1.25500 2.44200 2.02600
C -0.24500 1.85000 -2.56400
C 0.14600 -2.82400 -2.03700
N -0.61700 -0.00900 2.12600
C -0.59400 -0.90800 3.10500
C -0.93600 -0.30900 4.50200
C -1.77300 0.96400 4.03200
C -1.15500 1.16800 2.66000
C -3.26300 0.68500 3.86300
C 0.34500 0.11000 5.29900
C 0.12400 0.39700 6.78700
H 1.16800 0.03300 7.73300
N -0.18500 1.96100 -0.15200
C -0.70300 2.80000 0.77700
C -0.62000 4.15600 0.19300
C -0.18700 4.01500 -1.22500
C -0.21400 2.58300 -1.38000
C -0.88700 5.40600 0.97400
C 0.18100 5.01300 -2.27700
O 0.30300 4.69000 -3.50800
C 0.31000 6.41400 -1.83700
N -0.26500 -0.41300 -2.02900
C -0.27900 0.56900 -2.93700
C -0.19600 0.02400 -4.33200
C 0.12400 -1.53300 -4.18000
C 0.08600 -1.63200 -2.63500
C -1.45100 0.20500 -5.19700
C 1.37300 -2.07000 -4.92300
C 2.62600 -1.49000 -4.30600
N 0.15000 -2.14400 0.30300
C 0.17300 -3.13600 -0.68800
C 0.17300 -4.43800 0.00400
C 0.13300 -4.11100 1.35800
C 0.08300 -2.69500 1.50200
C 0.14900 -5.71500 -0.62300
C 0.09600 -4.62900 2.71600
O 0.20800 -5.74700 3.22100
C -0.25500 -3.42800 3.70100
C 0.71700 -3.48200 4.84800
O 1.93100 -3.25500 4.66900
O 0.03800 -3.55600 6.00300
C 0.94300 -3.58300 7.18300
H -1.85900 3.22000 2.49700
H -0.21800 2.45300 -3.47400
H 0.27600 -3.74700 -2.60500
H -1.55400 -0.94900 5.13200
H -1.58500 1.83100 4.66500
H -3.48400 -0.37700 3.96900
H -3.51100 1.02700 2.85800
H -3.85200 1.30100 4.54300
H 0.66900 1.09600 4.96600
H 1.13000 -0.63900 5.18900
H -0.84400 0.02600 7.12500
H 0.06200 1.47700 6.92100
H -1.34400 5.18600 1.93800
H -1.65100 5.96300 0.43200
H 0.00700 6.02000 1.08400
H -0.63500 6.74400 -1.40500
H 0.66500 6.97000 -2.70400
H 1.04800 6.46600 -1.03600
H 0.60800 0.50100 -4.89100
H -0.69200 -2.15600 -4.54700
H -1.26700 0.74000 -6.12900
H -2.20400 0.71400 -4.59600
H -1.96700 -0.72000 -5.45300
H 1.35600 -1.75900 -5.96700
H 1.45200 -3.15700 -4.90200
H 2.71400 -0.52200 -4.79800
H 3.48700 -2.12100 -4.52900
H 2.49500 -1.30300 -3.24000
H 0.86700 -6.33300 -0.08400
H 0.40400 -5.64200 -1.68000
H -0.89100 -5.99900 -0.46300
H -1.28300 -3.58100 4.02800
H 0.69800 -4.47800 7.75500
H 0.83300 -2.61900 7.68000
H 2.00000 -3.75400 6.97600
Mg 15.76628 1.41940 1.19766
C 15.96515 -0.52343 -1.80201
C 15.02036 -1.47404 2.84529
C 15.14026 3.17101 3.76605
C 15.40354 4.23421 -0.82494
N 15.55108 -0.67069 0.50063
C 15.71188 -1.29188 -0.66360
C 15.66091 -2.84472 -0.54754
C 14.81192 -2.96898 0.79625
C 15.17585 -1.64130 1.43714
C 13.30491 -3.00540 0.56365
C 17.08473 -3.47590 -0.38607
C 17.15478 -4.99171 -0.59289
H 18.33686 -5.55843 -1.22443
N 15.64796 0.90513 3.10144
C 15.34928 -0.32191 3.59180
C 15.38648 -0.19247 5.06439
C 15.54425 1.25216 5.39034
C 15.42258 1.84431 4.08270
C 15.32615 -1.36453 5.99519
C 15.75853 1.98383 6.67754
O 15.63688 3.25341 6.76665
C 16.03132 1.15586 7.86627
N 15.11369 3.38606 1.45070
C 14.97865 3.91669 2.67102
C 14.77821 5.40159 2.60161
C 15.04788 5.81355 1.08263
C 15.29012 4.40152 0.49461
C 13.39533 5.91103 3.03074
C 16.11255 6.91038 0.82990
C 17.48327 6.39027 1.20100
N 15.86949 1.84460 -0.92827
C 15.66363 3.08407 -1.55117
C 15.73031 2.85285 -3.00587
C 15.95528 1.48318 -3.12927
C 15.99858 0.89176 -1.83442
C 15.53198 3.83526 -4.01581
C 16.14461 0.37776 -4.05451
O 16.29542 0.28332 -5.27346
C 16.03705 -0.98431 -3.23658
C 17.19984 -1.84959 -3.63970
O 18.36943 -1.52543 -3.34930
O 16.74215 -3.02824 -4.08900
C 17.84649 -3.94541 -4.47809
H 14.55017 -2.27230 3.42290
H 15.02747 3.83119 4.62853
H 15.38375 5.07888 -1.51602
H 15.14021 -3.34469 -1.36444
H 15.15328 -3.79621 1.41826
H 13.05799 -2.80965 -0.47973
H 12.89249 -2.22632 1.20509
H 12.88035 -3.94384 0.92122
H 17.38749 -3.41711 0.65937
H 17.80038 -2.98815 -1.04885
H 16.24926 -5.37157 -1.06685
H 17.16882 -5.46977 0.38663
H 15.04451 -2.27744 5.47191
H 14.50227 -1.18147 6.68470
H 16.25272 -1.49200 6.55514
H 15.19830 0.47113 8.02679
H 16.24630 1.85298 8.67539
H 16.90566 0.53441 7.67063
H 15.48700 5.92233 3.24417
H 14.15021 6.19752 0.59743
H 13.42948 6.64287 3.83817
H 12.79024 5.04887 3.30972
H 12.79857 6.34413 2.22842
H 15.91832 7.77920 1.45788
H 16.14338 7.24979 -0.20553
H 17.52424 6.55793 2.27666
H 18.25825 6.96009 0.68726
H 17.55941 5.31540 1.03562
H 16.30731 3.66560 -4.76283
H 15.59135 4.84293 -3.60511
H 14.52708 3.57971 -4.35154
H 15.08074 -1.43428 -3.50137
H 17.66948 -4.24022 -5.51249
H 17.87476 -4.73327 -3.72518
H 18.83826 -3.49897 -4.55818
