79

Mg 8.92428 0.80685 0.67602
C 8.03414 -2.00800 -1.36442
C 8.33186 2.77677 -2.04483
C 10.13003 3.24813 2.30504
C 10.51292 -1.42987 2.82522
N 8.27086 0.32924 -1.38242
C 7.90310 -0.76885 -2.02531
C 7.28904 -0.51743 -3.42862
C 7.96444 0.90696 -3.73495
C 8.17390 1.39144 -2.30175
C 9.32377 0.79673 -4.40534
C 5.72396 -0.41383 -3.38638
C 5.03811 -0.47796 -4.75286
H 3.74404 -1.14740 -4.85139
N 8.74028 2.76128 0.38466
C 8.47567 3.38897 -0.78036
C 8.46305 4.82668 -0.46894
C 8.90449 5.00511 0.94103
C 9.30405 3.65045 1.26559
C 7.98298 5.86551 -1.44043
C 8.96978 6.20002 1.84332
O 9.60998 6.17140 2.95334
C 8.34118 7.43239 1.34571
N 10.32212 0.92510 2.21042
C 10.62823 2.10530 2.77730
C 11.44292 1.91183 4.03399
C 11.41492 0.33980 4.32639
C 10.62908 -0.13467 3.08432
C 12.89284 2.39105 3.96718
C 10.91958 -0.10638 5.72933
C 9.44795 0.20494 5.88016
N 9.07926 -1.34128 0.84801
C 9.81648 -2.06919 1.80756
C 9.70811 -3.49790 1.44773
C 8.92825 -3.50024 0.28141
C 8.59239 -2.16562 -0.07280
C 10.32720 -4.57860 2.13688
C 8.32169 -4.32752 -0.73662
O 8.19468 -5.53899 -0.90970
C 7.82175 -3.38952 -1.91840
C 6.41665 -3.79485 -2.27043
O 5.49135 -3.64211 -1.45366
O 6.35893 -4.09119 -3.58162
C 4.98257 -4.48841 -3.98122
H 8.39392 3.45812 -2.89383
H 10.48210 4.04578 2.96328
H 10.89812 -2.19708 3.50026
H 7.57748 -1.23631 -4.18611
H 7.27837 1.56399 -4.26313
H 9.66510 -0.22641 -4.45827
H 9.99834 1.38988 -3.80188
H 9.29909 1.27527 -5.38856
H 5.44044 0.60170 -3.08133
H 5.30993 -1.16205 -2.73879
H 5.71597 -0.83442 -5.53796
H 4.78241 0.53879 -5.06085
H 7.87795 5.45281 -2.45139
H 8.78101 6.61017 -1.53259
H 7.07070 6.36460 -1.10678
H 8.80245 7.71797 0.40331
H 8.41226 8.14870 2.16652
H 7.28709 7.22502 1.13007
H 10.99337 2.43290 4.87034
H 12.41768 -0.10621 4.25308
H 13.14384 3.13276 4.74881
H 13.07170 2.80131 2.98218
H 13.64262 1.60418 4.02934
H 11.43740 0.45589 6.51027
H 11.08197 -1.16017 5.92974
H 9.44755 1.25868 6.17465
H 9.00111 -0.42034 6.65049
H 8.92944 0.13162 4.91713
H 9.58699 -5.36394 2.21336
H 10.68527 -4.27186 3.11742
H 11.14892 -4.80200 1.45121
H 8.50820 -3.52303 -2.75538
H 5.05782 -5.47507 -4.44869
H 4.60340 -3.66081 -4.60976
H 4.26758 -4.68304 -3.19042
