158

Mg 0.00000 0.00000 0.00000
C -0.21700 -2.21800 2.80100
C -1.25500 2.44200 2.02600
C -0.24500 1.85000 -2.56400
C 0.14600 -2.82400 -2.03700
N -0.61700 -0.00900 2.12600
C -0.59400 -0.90800 3.10500
C -0.93600 -0.30900 4.50200
C -1.77300 0.96400 4.03200
C -1.15500 1.16800 2.66000
C -3.26300 0.68500 3.86300
C 0.34500 0.11000 5.29900
C 0.12400 0.39700 6.78700
H 1.16800 0.03300 7.73300
N -0.18500 1.96100 -0.15200
C -0.70300 2.80000 0.77700
C -0.62000 4.15600 0.19300
C -0.18700 4.01500 -1.22500
C -0.21400 2.58300 -1.38000
C -0.88700 5.40600 0.97400
C 0.18100 5.01300 -2.27700
O 0.30300 4.69000 -3.50800
C 0.31000 6.41400 -1.83700
N -0.26500 -0.41300 -2.02900
C -0.27900 0.56900 -2.93700
C -0.19600 0.02400 -4.33200
C 0.12400 -1.53300 -4.18000
C 0.08600 -1.63200 -2.63500
C -1.45100 0.20500 -5.19700
C 1.37300 -2.07000 -4.92300
C 2.62600 -1.49000 -4.30600
N 0.15000 -2.14400 0.30300
C 0.17300 -3.13600 -0.68800
C 0.17300 -4.43800 0.00400
C 0.13300 -4.11100 1.35800
C 0.08300 -2.69500 1.50200
C 0.14900 -5.71500 -0.62300
C 0.09600 -4.62900 2.71600
O 0.20800 -5.74700 3.22100
C -0.25500 -3.42800 3.70100
C 0.71700 -3.48200 4.84800
O 1.93100 -3.25500 4.66900
O 0.03800 -3.55600 6.00300
C 0.94300 -3.58300 7.18300
H -1.85900 3.22000 2.49700
H -0.21800 2.45300 -3.47400
H 0.27600 -3.74700 -2.60500
H -1.55400 -0.94900 5.13200
H -1.58500 1.83100 4.66500
H -3.48400 -0.37700 3.96900
H -3.51100 1.02700 2.85800
H -3.85200 1.30100 4.54300
H 0.66900 1.09600 4.96600
H 1.13000 -0.63900 5.18900
H -0.84400 0.02600 7.12500
H 0.06200 1.47700 6.92100
H -1.34400 5.18600 1.93800
H -1.65100 5.96300 0.43200
H 0.00700 6.02000 1.08400
H -0.63500 6.74400 -1.40500
H 0.66500 6.97000 -2.70400
H 1.04800 6.46600 -1.03600
H 0.60800 0.50100 -4.89100
H -0.69200 -2.15600 -4.54700
H -1.26700 0.74000 -6.12900
H -2.20400 0.71400 -4.59600
H -1.96700 -0.72000 -5.45300
H 1.35600 -1.75900 -5.96700
H 1.45200 -3.15700 -4.90200
H 2.71400 -0.52200 -4.79800
H 3.48700 -2.12100 -4.52900
H 2.49500 -1.30300 -3.24000
H 0.86700 -6.33300 -0.08400
H 0.40400 -5.64200 -1.68000
H -0.89100 -5.99900 -0.46300
H -1.28300 -3.58100 4.02800
H 0.69800 -4.47800 7.75500
H 0.83300 -2.61900 7.68000
H 2.00000 -3.75400 6.97600
Mg 10.50258 0.94933 0.80433
C 12.15781 2.83106 3.37306
C 9.31650 -1.08835 3.26921
C 9.40639 -0.98512 -1.45923
C 12.69669 2.40226 -1.48054
N 10.77143 0.97160 2.99966
C 11.37133 1.77054 3.86923
C 11.04876 1.46110 5.35576
C 10.64445 -0.08496 5.19729
C 10.17997 -0.06825 3.74242
C 11.82822 -1.03118 5.30991
C 9.84963 2.31578 5.89762
C 9.67869 2.29258 7.41815
H 9.21822 3.50715 8.08541
N 9.12575 -0.47739 0.89018
C 8.75405 -1.18516 1.97746
C 7.72232 -2.12502 1.51232
C 7.63302 -2.02760 0.03001
C 8.75733 -1.15562 -0.24506
C 6.88255 -2.94149 2.45125
C 6.69906 -2.63097 -0.97491
O 6.95130 -2.60152 -2.23123
C 5.52741 -3.33891 -0.43868
N 11.11343 0.57403 -1.14718
C 10.43001 -0.27529 -1.93427
C 10.88746 -0.17642 -3.37001
C 11.85700 1.09421 -3.42547
C 11.86297 1.47351 -1.92831
C 11.62015 -1.39974 -3.92049
C 11.51472 2.19577 -4.46569
C 10.22186 2.88085 -4.08546
N 12.01214 2.49392 0.86373
C 12.83111 2.92764 -0.20175
C 13.77997 3.91502 0.35250
C 13.45978 3.97060 1.71737
C 12.40050 3.06580 1.99801
C 14.80467 4.58337 -0.37511
C 13.78410 4.58114 2.98652
O 14.53669 5.48451 3.34884
C 13.04011 3.77768 4.13862
C 12.37534 4.77598 5.04636
O 11.44444 5.48749 4.62947
O 12.79820 4.57455 6.30770
C 12.15829 5.53365 7.24709
H 9.07883 -1.91761 3.93609
H 8.99261 -1.54916 -2.29836
H 13.34747 2.97266 -2.14672
H 11.88908 1.55817 6.03266
H 9.82175 -0.34772 5.85721
H 12.76631 -0.49863 5.36024
H 11.79312 -1.65287 4.42486
H 11.69102 -1.70721 6.15872
H 8.90681 1.84201 5.59531
H 9.92066 3.33059 5.55742
H 10.56182 1.88630 7.92606
H 8.87959 1.59000 7.66683
H 7.28815 -2.92623 3.47039
H 6.97617 -3.98673 2.13728
H 5.82803 -2.65848 2.42762
H 5.85887 -4.14374 0.21312
H 4.93354 -3.62268 -1.30969
H 4.95434 -2.64422 0.18550
H 10.04767 -0.00684 -4.03265
H 12.88803 0.80915 -3.68153
H 11.14620 -1.82099 -4.82713
H 11.67471 -2.14544 -3.13851
H 12.66984 -1.23988 -4.16092
H 11.35183 1.74975 -5.44991
H 12.29354 2.94300 -4.57564
H 9.45856 2.20968 -4.49043
H 10.16240 3.86704 -4.54145
H 10.09497 2.90570 -2.99692
H 14.78282 5.61919 -0.06349
H 14.65728 4.48722 -1.44879
H 15.68187 4.02959 -0.02997
H 13.79115 3.18489 4.66218
H 12.96561 6.05208 7.77355
H 11.46208 4.93147 7.86062
H 11.61515 6.36793 6.81880
