158

Mg 0.00000 0.00000 0.00000
C -0.21700 -2.21800 2.80100
C -1.25500 2.44200 2.02600
C -0.24500 1.85000 -2.56400
C 0.14600 -2.82400 -2.03700
N -0.61700 -0.00900 2.12600
C -0.59400 -0.90800 3.10500
C -0.93600 -0.30900 4.50200
C -1.77300 0.96400 4.03200
C -1.15500 1.16800 2.66000
C -3.26300 0.68500 3.86300
C 0.34500 0.11000 5.29900
C 0.12400 0.39700 6.78700
H 1.16800 0.03300 7.73300
N -0.18500 1.96100 -0.15200
C -0.70300 2.80000 0.77700
C -0.62000 4.15600 0.19300
C -0.18700 4.01500 -1.22500
C -0.21400 2.58300 -1.38000
C -0.88700 5.40600 0.97400
C 0.18100 5.01300 -2.27700
O 0.30300 4.69000 -3.50800
C 0.31000 6.41400 -1.83700
N -0.26500 -0.41300 -2.02900
C -0.27900 0.56900 -2.93700
C -0.19600 0.02400 -4.33200
C 0.12400 -1.53300 -4.18000
C 0.08600 -1.63200 -2.63500
C -1.45100 0.20500 -5.19700
C 1.37300 -2.07000 -4.92300
C 2.62600 -1.49000 -4.30600
N 0.15000 -2.14400 0.30300
C 0.17300 -3.13600 -0.68800
C 0.17300 -4.43800 0.00400
C 0.13300 -4.11100 1.35800
C 0.08300 -2.69500 1.50200
C 0.14900 -5.71500 -0.62300
C 0.09600 -4.62900 2.71600
O 0.20800 -5.74700 3.22100
C -0.25500 -3.42800 3.70100
C 0.71700 -3.48200 4.84800
O 1.93100 -3.25500 4.66900
O 0.03800 -3.55600 6.00300
C 0.94300 -3.58300 7.18300
H -1.85900 3.22000 2.49700
H -0.21800 2.45300 -3.47400
H 0.27600 -3.74700 -2.60500
H -1.55400 -0.94900 5.13200
H -1.58500 1.83100 4.66500
H -3.48400 -0.37700 3.96900
H -3.51100 1.02700 2.85800
H -3.85200 1.30100 4.54300
H 0.66900 1.09600 4.96600
H 1.13000 -0.63900 5.18900
H -0.84400 0.02600 7.12500
H 0.06200 1.47700 6.92100
H -1.34400 5.18600 1.93800
H -1.65100 5.96300 0.43200
H 0.00700 6.02000 1.08400
H -0.63500 6.74400 -1.40500
H 0.66500 6.97000 -2.70400
H 1.04800 6.46600 -1.03600
H 0.60800 0.50100 -4.89100
H -0.69200 -2.15600 -4.54700
H -1.26700 0.74000 -6.12900
H -2.20400 0.71400 -4.59600
H -1.96700 -0.72000 -5.45300
H 1.35600 -1.75900 -5.96700
H 1.45200 -3.15700 -4.90200
H 2.71400 -0.52200 -4.79800
H 3.48700 -2.12100 -4.52900
H 2.49500 -1.30300 -3.24000
H 0.86700 -6.33300 -0.08400
H 0.40400 -5.64200 -1.68000
H -0.89100 -5.99900 -0.46300
H -1.28300 -3.58100 4.02800
H 0.69800 -4.47800 7.75500
H 0.83300 -2.61900 7.68000
H 2.00000 -3.75400 6.97600
Mg 13.14242 1.19028 1.00454
C 13.98578 -0.78513 3.87953
C 11.03168 2.95420 3.02145
C 12.04467 2.65124 -1.58930
C 14.40486 -1.39142 -0.96696
N 12.65851 1.01298 3.15550
C 13.08695 0.26479 4.16098
C 12.58234 0.71494 5.55823
C 11.25587 1.49299 5.09566
C 11.68005 1.87911 3.68016
C 10.03385 0.59476 4.99980
C 13.59185 1.67760 6.27670
C 13.31213 1.90970 7.76319
H 14.44685 2.07204 8.66791
N 12.13077 2.88739 0.81759
C 11.34136 3.47043 1.74398
C 10.81060 4.68798 1.11151
C 11.21995 4.68995 -0.31928
C 11.80960 3.37052 -0.42657
C 10.06840 5.74500 1.87654
C 11.08935 5.70566 -1.41357
O 11.30159 5.40402 -2.64109
C 10.61518 7.03953 -1.01677
N 13.01755 0.61733 -0.99008
C 12.54660 1.46237 -1.92391
C 12.80726 0.93757 -3.31568
C 13.77017 -0.32505 -3.12539
C 13.83016 -0.36731 -1.58266
C 11.57098 0.51912 -4.11123
C 15.10649 -0.31666 -3.91712
C 16.01183 0.77326 -3.39003
N 14.20253 -0.65925 1.35588
C 14.61326 -1.60377 0.38983
C 15.19261 -2.74978 1.12020
C 15.05673 -2.39978 2.47207
C 14.41819 -1.13460 2.57736
C 15.70518 -3.93927 0.52986
C 15.29867 -2.81768 3.83424
O 15.88722 -3.76037 4.36215
C 14.50179 -1.84796 4.80944
C 15.43688 -1.42350 5.90851
O 16.43221 -0.72203 5.65579
O 14.88714 -1.73012 7.09769
C 15.77247 -1.31841 8.21952
H 10.17632 3.42181 3.50990
H 11.78439 3.16100 -2.51982
H 14.90890 -2.19222 -1.51224
H 12.32338 -0.09452 6.23015
H 11.08827 2.38129 5.69916
H 10.28588 -0.44522 5.14491
H 9.63064 0.75150 4.00788
H 9.26141 0.93359 5.69612
H 13.44663 2.69706 5.89678
H 14.60075 1.33684 6.14776
H 12.59968 1.18030 8.16735
H 12.80416 2.87071 7.87479
H 9.77610 5.39015 2.87255
H 9.11816 5.90816 1.35664
H 10.61230 6.69083 1.92387
H 9.63934 6.95042 -0.54532
H 10.67265 7.65063 -1.91962
H 11.29582 7.44135 -0.25791
H 13.31542 1.67917 -3.91975
H 13.28590 -1.25888 -3.44675
H 11.47463 1.04794 -5.07826
H 10.69654 0.68773 -3.49685
H 11.49954 -0.54544 -4.32758
H 14.92201 -0.08519 -4.96904
H 15.63437 -1.26387 -3.88357
H 15.65409 1.66544 -3.91265
H 17.05026 0.56123 -3.63650
H 15.85195 0.93323 -2.31741
H 16.62849 -4.16946 1.04465
H 15.86532 -3.81547 -0.53916
H 14.88707 -4.63190 0.74487
H 13.64388 -2.40161 5.19289
H 15.95032 -2.20935 8.82968
H 15.26053 -0.46774 8.70739
H 16.78630 -1.02332 7.97556
