158

Mg 0.00000 0.00000 0.00000
C -0.21700 -2.21800 2.80100
C -1.25500 2.44200 2.02600
C -0.24500 1.85000 -2.56400
C 0.14600 -2.82400 -2.03700
N -0.61700 -0.00900 2.12600
C -0.59400 -0.90800 3.10500
C -0.93600 -0.30900 4.50200
C -1.77300 0.96400 4.03200
C -1.15500 1.16800 2.66000
C -3.26300 0.68500 3.86300
C 0.34500 0.11000 5.29900
C 0.12400 0.39700 6.78700
H 1.16800 0.03300 7.73300
N -0.18500 1.96100 -0.15200
C -0.70300 2.80000 0.77700
C -0.62000 4.15600 0.19300
C -0.18700 4.01500 -1.22500
C -0.21400 2.58300 -1.38000
C -0.88700 5.40600 0.97400
C 0.18100 5.01300 -2.27700
O 0.30300 4.69000 -3.50800
C 0.31000 6.41400 -1.83700
N -0.26500 -0.41300 -2.02900
C -0.27900 0.56900 -2.93700
C -0.19600 0.02400 -4.33200
C 0.12400 -1.53300 -4.18000
C 0.08600 -1.63200 -2.63500
C -1.45100 0.20500 -5.19700
C 1.37300 -2.07000 -4.92300
C 2.62600 -1.49000 -4.30600
N 0.15000 -2.14400 0.30300
C 0.17300 -3.13600 -0.68800
C 0.17300 -4.43800 0.00400
C 0.13300 -4.11100 1.35800
C 0.08300 -2.69500 1.50200
C 0.14900 -5.71500 -0.62300
C 0.09600 -4.62900 2.71600
O 0.20800 -5.74700 3.22100
C -0.25500 -3.42800 3.70100
C 0.71700 -3.48200 4.84800
O 1.93100 -3.25500 4.66900
O 0.03800 -3.55600 6.00300
C 0.94300 -3.58300 7.18300
H -1.85900 3.22000 2.49700
H -0.21800 2.45300 -3.47400
H 0.27600 -3.74700 -2.60500
H -1.55400 -0.94900 5.13200
H -1.58500 1.83100 4.66500
H -3.48400 -0.37700 3.96900
H -3.51100 1.02700 2.85800
H -3.85200 1.30100 4.54300
H 0.66900 1.09600 4.96600
H 1.13000 -0.63900 5.18900
H -0.84400 0.02600 7.12500
H 0.06200 1.47700 6.92100
H -1.34400 5.18600 1.93800
H -1.65100 5.96300 0.43200
H 0.00700 6.02000 1.08400
H -0.63500 6.74400 -1.40500
H 0.66500 6.97000 -2.70400
H 1.04800 6.46600 -1.03600
H 0.60800 0.50100 -4.89100
H -0.69200 -2.15600 -4.54700
H -1.26700 0.74000 -6.12900
H -2.20400 0.71400 -4.59600
H -1.96700 -0.72000 -5.45300
H 1.35600 -1.75900 -5.96700
H 1.45200 -3.15700 -4.90200
H 2.71400 -0.52200 -4.79800
H 3.48700 -2.12100 -4.52900
H 2.49500 -1.30300 -3.24000
H 0.86700 -6.33300 -0.08400
H 0.40400 -5.64200 -1.68000
H -0.89100 -5.99900 -0.46300
H -1.28300 -3.58100 4.02800
H 0.69800 -4.47800 7.75500
H 0.83300 -2.61900 7.68000
H 2.00000 -3.75400 6.97600
Mg 13.14658 1.18029 0.99161
C 12.89158 3.78185 -1.46724
C 12.65677 -1.05399 -1.53875
C 12.91647 -1.10150 3.18431
C 12.47611 3.59471 3.41374
N 12.82823 1.45102 -1.18040
C 12.81241 2.48275 -2.01084
C 12.78653 2.09783 -3.51442
C 12.14294 0.63302 -3.37660
C 12.59640 0.29940 -1.95683
C 10.62354 0.63825 -3.40389
C 14.22392 2.03709 -4.14069
C 14.25718 1.97149 -5.66920
H 15.33786 2.65758 -6.37197
N 13.32075 -0.78908 0.81888
C 13.10631 -1.53099 -0.28786
C 13.34736 -2.92651 0.11035
C 13.56090 -2.96399 1.58266
C 13.24684 -1.59245 1.92957
C 13.43749 -4.05124 -0.87975
C 13.96660 -4.05697 2.52447
O 13.85916 -3.92545 3.79490
C 14.40546 -5.31991 1.91302
N 12.54588 1.19285 2.98192
C 12.59056 0.07288 3.72461
C 12.37692 0.37971 5.18769
C 12.42035 1.97419 5.30309
C 12.56904 2.33215 3.80805
C 11.07238 -0.13871 5.79253
C 13.43409 2.57940 6.31241
C 14.84739 2.32152 5.84181
N 12.93472 3.33014 1.02790
C 12.62846 4.13834 2.14463
C 12.47663 5.52266 1.65166
C 12.68405 5.41928 0.26790
C 12.92665 4.06295 -0.07998
C 12.13809 6.65552 2.44421
C 12.74243 6.14753 -0.97907
O 12.70154 7.33631 -1.29352
C 12.75421 5.10105 -2.17537
C 13.84510 5.50023 -3.13095
O 15.03795 5.45792 -2.78177
O 13.31932 5.65621 -4.35961
C 14.36457 6.04156 -5.34489
H 12.28560 -1.82338 -2.21636
H 12.93269 -1.83257 3.99594
H 12.36383 4.42009 4.12001
H 12.15537 2.72457 -4.13297
H 12.58178 -0.05992 -4.08977
H 10.22384 1.64137 -3.39272
H 10.31159 0.09682 -2.52038
H 10.25984 0.05821 -4.25690
H 14.67820 1.06706 -3.90107
H 14.82251 2.85993 -3.80121
H 13.28733 2.22566 -6.11388
H 14.42561 0.93413 -5.96843
H 13.07427 -3.74641 -1.86897
H 12.72841 -4.82050 -0.55523
H 14.43646 -4.48973 -0.92931
H 13.60753 -5.71550 1.28909
H 14.73893 -5.94600 2.74288
H 15.25097 -5.11140 1.24800
H 13.17365 -0.03811 5.79080
H 11.45407 2.38552 5.63011
H 11.22853 -0.79858 6.66676
H 10.51963 -0.65598 5.01959
H 10.36901 0.63200 6.10313
H 13.33703 2.09140 7.28533
H 13.30160 3.64434 6.47163
H 15.04425 1.30556 6.19700
H 15.53612 3.03605 6.28806
H 14.90065 2.30409 4.74704
H 12.78556 7.46215 2.12697
H 12.25283 6.44667 3.50581
H 11.08971 6.78457 2.16222
H 11.76961 5.12786 -2.64378
H 14.03110 6.97057 -5.81757
H 14.49528 5.16098 -6.00157
H 15.33311 6.33668 -4.95850
