79

Mg 31.53256 2.83880 2.39533
C 31.72291 1.08974 -0.72184
C 30.80958 -0.15632 3.86148
C 30.91344 4.42206 5.07238
C 31.14508 5.77356 0.55611
N 31.32294 0.79571 1.56920
C 31.47981 0.24987 0.36727
C 31.43667 -1.30742 0.38555
C 30.59610 -1.52028 1.72351
C 30.95764 -0.23380 2.44475
C 29.08795 -1.54945 1.49740
C 32.86430 -1.94044 0.49907
C 32.94012 -3.43985 0.19678
H 34.12111 -3.95980 -0.47573
N 31.42769 2.20508 4.26355
C 31.13753 0.94813 4.67726
C 31.18270 0.98476 6.15486
C 31.33571 2.40676 6.57030
C 31.20371 3.07947 5.30325
C 31.13319 -0.24388 7.01029
C 31.55411 3.05697 7.89983
O 31.42713 4.31780 8.06943
C 31.83763 2.15715 9.03252
N 30.87240 4.78236 2.77536
C 30.74203 5.23441 4.02741
C 30.53434 6.71972 4.05281
C 30.79327 7.22785 2.56133
C 31.03859 5.85688 1.88419
C 29.15166 7.19425 4.52080
C 31.85139 8.34369 2.37233
C 33.22662 7.80806 2.70235
N 31.62143 3.39755 0.29987
C 31.40624 4.67275 -0.24256
C 31.46551 4.53392 -1.70929
C 31.69607 3.17588 -1.91997
C 31.74963 2.50431 -0.66521
C 31.25679 5.57699 -2.65421
C 31.88510 2.13187 -2.91405
O 32.02924 2.11513 -4.13734
C 31.78857 0.72048 -2.18297
C 32.95297 -0.11191 -2.64622
O 34.12273 0.19912 -2.34244
O 32.49812 -1.26218 -3.16635
C 33.60438 -2.14754 -3.61854
H 30.34644 -0.99170 4.39024
H 30.80263 5.02605 5.97535
H 31.11738 6.65997 -0.08026
H 30.91354 -1.75754 -0.45834
H 30.94488 -2.38333 2.29027
H 28.83406 -1.28961 0.46981
H 28.67569 -0.81437 2.18891
H 28.66980 -2.51064 1.79747
H 33.17287 -1.94610 1.54445
H 33.57383 -1.40838 -0.13560
H 32.03362 -3.79360 -0.29517
H 32.96207 -3.97858 1.14414
H 30.85272 -1.12341 6.43210
H 30.31250 -0.10869 7.71449
H 32.06359 -0.40176 7.55597
H 31.00872 1.45955 9.15418
H 32.05410 2.80299 9.88275
H 32.71367 1.55360 8.79329
H 31.24446 7.20247 4.72297
H 29.89103 7.63716 2.10625
H 29.18713 7.87395 5.37253
H 28.55218 6.31324 4.74825
H 28.54824 7.67405 3.75067
H 31.65682 9.17027 3.05486
H 31.87463 8.74778 1.36019
H 33.27308 7.90784 3.78620
H 33.99597 8.41294 2.22127
H 33.30675 6.74613 2.46916
H 32.02853 5.45856 -3.41471
H 31.31390 6.55708 -2.18117
H 30.25114 5.33811 -2.99983
H 30.83282 0.28334 -2.47031
H 33.42271 -2.37750 -4.66847
H 33.64067 -2.98110 -2.91693
H 34.59360 -1.69202 -3.67581
