79

Mg 31.53985 2.83387 2.40123
C 31.74479 -0.33095 0.72166
C 30.59856 1.12072 5.19652
C 30.91512 5.62276 3.77936
C 31.37438 4.33348 -0.74034
N 31.24604 0.67548 2.78500
C 31.41323 -0.43857 2.08838
C 31.29256 -1.74254 2.92184
C 30.38568 -1.17837 4.12106
C 30.78901 0.29349 4.06095
C 28.89446 -1.27660 3.84547
C 32.68301 -2.24979 3.44277
C 32.68042 -3.67569 3.99825
H 33.86074 -4.50835 3.78379
N 31.33581 3.30155 4.31910
C 30.96841 2.47776 5.32292
C 30.94709 3.30789 6.53725
C 31.17166 4.72466 6.14094
C 31.12789 4.60469 4.69741
C 30.80808 2.72994 7.91568
C 31.37735 5.98175 6.93062
O 31.31571 7.13882 6.38269
C 31.56024 5.82252 8.38069
N 30.98216 4.68768 1.64313
C 30.82530 5.74786 2.45513
C 30.69543 7.02704 1.66315
C 31.04136 6.63381 0.15210
C 31.23272 5.11095 0.32438
C 29.32557 7.70344 1.71186
C 32.16623 7.44576 -0.54653
C 33.49806 7.14727 0.10348
N 31.73898 2.17805 0.35225
C 31.60781 2.96610 -0.81216
C 31.71320 2.05388 -1.96939
C 31.87663 0.78519 -1.39301
C 31.85310 0.89610 0.02355
C 31.60690 2.43054 -3.33795
C 32.05306 -0.62401 -1.66080
O 32.23305 -1.30005 -2.67288
C 31.84884 -1.42575 -0.30363
C 32.98113 -2.40668 -0.16873
O 34.14953 -2.00693 -0.02157
O 32.47605 -3.64462 -0.01785
C 33.56049 -4.65143 0.13100
H 30.07850 0.70491 6.05996
H 30.80490 6.62386 4.20259
H 31.43079 4.73622 -1.75390
H 30.78217 -2.55632 2.42080
H 30.67484 -1.61436 5.07377
H 28.69190 -1.60207 2.83593
H 28.49897 -0.28269 4.00909
H 28.41492 -1.91817 4.59031
H 32.94915 -1.69464 4.35146
H 33.43142 -2.16068 2.67951
H 31.76962 -4.22258 3.72569
H 32.64513 -3.62307 5.08912
H 30.49434 1.67932 7.88159
H 29.97124 3.24784 8.39665
H 31.70523 2.86824 8.52285
H 30.69267 5.31942 8.80101
H 31.78164 6.82244 8.75886
H 32.41990 5.16581 8.55486
H 31.40768 7.76777 2.00537
H 30.17531 6.76850 -0.51247
H 29.36714 8.74782 2.07464
H 28.67348 7.10907 2.33800
H 28.78538 7.72109 0.76683
H 31.99316 8.51748 -0.42162
H 32.23993 7.25344 -1.61170
H 33.50450 7.81447 0.97060
H 34.31609 7.37601 -0.57663
H 33.53070 6.11801 0.47928
H 32.39043 1.90483 -3.86731
H 31.69592 3.50779 -3.46189
H 30.59776 2.07372 -3.56062
H 30.88019 -1.92386 -0.35998
H 33.40171 -5.40879 -0.64288
H 33.51246 -4.98886 1.18341
H 34.57302 -4.33365 -0.08865
