158

Mg 0.00000 0.00000 0.00000
C -0.21700 -2.21800 2.80100
C -1.25500 2.44200 2.02600
C -0.24500 1.85000 -2.56400
C 0.14600 -2.82400 -2.03700
N -0.61700 -0.00900 2.12600
C -0.59400 -0.90800 3.10500
C -0.93600 -0.30900 4.50200
C -1.77300 0.96400 4.03200
C -1.15500 1.16800 2.66000
C -3.26300 0.68500 3.86300
C 0.34500 0.11000 5.29900
C 0.12400 0.39700 6.78700
H 1.16800 0.03300 7.73300
N -0.18500 1.96100 -0.15200
C -0.70300 2.80000 0.77700
C -0.62000 4.15600 0.19300
C -0.18700 4.01500 -1.22500
C -0.21400 2.58300 -1.38000
C -0.88700 5.40600 0.97400
C 0.18100 5.01300 -2.27700
O 0.30300 4.69000 -3.50800
C 0.31000 6.41400 -1.83700
N -0.26500 -0.41300 -2.02900
C -0.27900 0.56900 -2.93700
C -0.19600 0.02400 -4.33200
C 0.12400 -1.53300 -4.18000
C 0.08600 -1.63200 -2.63500
C -1.45100 0.20500 -5.19700
C 1.37300 -2.07000 -4.92300
C 2.62600 -1.49000 -4.30600
N 0.15000 -2.14400 0.30300
C 0.17300 -3.13600 -0.68800
C 0.17300 -4.43800 0.00400
C 0.13300 -4.11100 1.35800
C 0.08300 -2.69500 1.50200
C 0.14900 -5.71500 -0.62300
C 0.09600 -4.62900 2.71600
O 0.20800 -5.74700 3.22100
C -0.25500 -3.42800 3.70100
C 0.71700 -3.48200 4.84800
O 1.93100 -3.25500 4.66900
O 0.03800 -3.55600 6.00300
C 0.94300 -3.58300 7.18300
H -1.85900 3.22000 2.49700
H -0.21800 2.45300 -3.47400
H 0.27600 -3.74700 -2.60500
H -1.55400 -0.94900 5.13200
H -1.58500 1.83100 4.66500
H -3.48400 -0.37700 3.96900
H -3.51100 1.02700 2.85800
H -3.85200 1.30100 4.54300
H 0.66900 1.09600 4.96600
H 1.13000 -0.63900 5.18900
H -0.84400 0.02600 7.12500
H 0.06200 1.47700 6.92100
H -1.34400 5.18600 1.93800
H -1.65100 5.96300 0.43200
H 0.00700 6.02000 1.08400
H -0.63500 6.74400 -1.40500
H 0.66500 6.97000 -2.70400
H 1.04800 6.46600 -1.03600
H 0.60800 0.50100 -4.89100
H -0.69200 -2.15600 -4.54700
H -1.26700 0.74000 -6.12900
H -2.20400 0.71400 -4.59600
H -1.96700 -0.72000 -5.45300
H 1.35600 -1.75900 -5.96700
H 1.45200 -3.15700 -4.90200
H 2.71400 -0.52200 -4.79800
H 3.48700 -2.12100 -4.52900
H 2.49500 -1.30300 -3.24000
H 0.86700 -6.33300 -0.08400
H 0.40400 -5.64200 -1.68000
H -0.89100 -5.99900 -0.46300
H -1.28300 -3.58100 4.02800
H 0.69800 -4.47800 7.75500
H 0.83300 -2.61900 7.68000
H 2.00000 -3.75400 6.97600
Mg 7.89120 0.70320 0.59656
C 7.93723 0.90908 -2.98598
C 7.33585 -2.64414 0.24800
C 7.39728 0.55993 3.72752
C 7.30887 4.13889 0.64790
N 7.68384 -0.58411 -1.19008
C 7.78114 -0.40538 -2.49888
C 7.78753 -1.71736 -3.32848
C 7.02853 -2.66830 -2.28038
C 7.39651 -1.94731 -0.98523
C 5.51639 -2.64144 -2.42895
C 9.24051 -2.23141 -3.62276
C 9.33129 -3.33034 -4.68382
H 10.48925 -3.34497 -5.57343
N 7.92095 -0.84994 1.83165
C 7.69587 -2.14317 1.51833
C 7.81279 -2.88923 2.78082
C 7.96229 -1.91054 3.89191
C 7.74025 -0.66784 3.18024
C 7.85703 -4.38860 2.83885
C 8.24413 -2.06793 5.35547
O 8.09509 -1.09645 6.17817
C 8.60967 -3.41703 5.81133
N 7.21212 2.09661 1.98206
C 7.14040 1.79273 3.28989
C 6.89108 3.02678 4.12377
C 7.05174 4.26239 3.12125
C 7.28859 3.49076 1.80448
C 5.52697 3.10200 4.80929
C 8.06662 5.36744 3.52320
C 9.47412 4.81793 3.47457
N 7.84331 2.29464 -0.86395
C 7.55432 3.65720 -0.63160
C 7.52930 4.32755 -1.94782
C 7.78476 3.29587 -2.86372
C 7.93682 2.06551 -2.16903
C 7.24632 5.70391 -2.17515
C 7.94982 2.96600 -4.26109
O 8.01303 3.61402 -5.30503
C 7.93045 1.38389 -4.41255
C 9.08697 0.98696 -5.28859
O 10.25775 1.16336 -4.90811
O 8.62551 0.27033 -6.32967
C 9.73672 -0.15579 -7.22155
H 6.93494 -3.65812 0.25179
H 7.32417 0.58652 4.81721
H 7.23128 5.22651 0.58678
H 7.23212 -1.67008 -4.25749
H 7.44188 -3.67351 -2.28788
H 5.19458 -1.89455 -3.13940
H 5.12793 -2.41874 -1.44379
H 5.14462 -3.63868 -2.68117
H 9.60895 -2.78343 -2.74854
H 9.88595 -1.41726 -3.88961
H 8.40281 -3.42472 -5.25999
H 9.43190 -4.29367 -4.17797
H 7.55910 -4.83711 1.88309
H 7.07841 -4.70451 3.54157
H 8.82067 -4.76848 3.18491
H 7.81004 -4.11100 5.56342
H 8.85990 -3.31043 6.86863
H 9.49522 -3.74594 5.25615
H 7.62807 3.11600 4.91242
H 6.10721 4.81232 2.99769
H 5.59614 3.21945 5.90724
H 4.96839 2.21054 4.55667
H 4.87255 3.89430 4.44986
H 7.89265 5.68445 4.55441
H 8.00967 6.25359 2.89991
H 9.57786 4.31907 4.44280
H 10.19668 5.62434 3.36663
H 9.57073 4.05148 2.69684
H 7.96612 6.05363 -2.90321
H 7.30110 6.27866 -1.25297
H 6.22335 5.63266 -2.55427
H 6.97083 1.10857 -4.85175
H 9.49504 0.20297 -8.22683
H 9.82640 -1.24992 -7.08522
H 10.70835 0.29731 -7.06320
