158

Mg 0.00000 0.00000 0.00000
C -0.21700 -2.21800 2.80100
C -1.25500 2.44200 2.02600
C -0.24500 1.85000 -2.56400
C 0.14600 -2.82400 -2.03700
N -0.61700 -0.00900 2.12600
C -0.59400 -0.90800 3.10500
C -0.93600 -0.30900 4.50200
C -1.77300 0.96400 4.03200
C -1.15500 1.16800 2.66000
C -3.26300 0.68500 3.86300
C 0.34500 0.11000 5.29900
C 0.12400 0.39700 6.78700
H 1.16800 0.03300 7.73300
N -0.18500 1.96100 -0.15200
C -0.70300 2.80000 0.77700
C -0.62000 4.15600 0.19300
C -0.18700 4.01500 -1.22500
C -0.21400 2.58300 -1.38000
C -0.88700 5.40600 0.97400
C 0.18100 5.01300 -2.27700
O 0.30300 4.69000 -3.50800
C 0.31000 6.41400 -1.83700
N -0.26500 -0.41300 -2.02900
C -0.27900 0.56900 -2.93700
C -0.19600 0.02400 -4.33200
C 0.12400 -1.53300 -4.18000
C 0.08600 -1.63200 -2.63500
C -1.45100 0.20500 -5.19700
C 1.37300 -2.07000 -4.92300
C 2.62600 -1.49000 -4.30600
N 0.15000 -2.14400 0.30300
C 0.17300 -3.13600 -0.68800
C 0.17300 -4.43800 0.00400
C 0.13300 -4.11100 1.35800
C 0.08300 -2.69500 1.50200
C 0.14900 -5.71500 -0.62300
C 0.09600 -4.62900 2.71600
O 0.20800 -5.74700 3.22100
C -0.25500 -3.42800 3.70100
C 0.71700 -3.48200 4.84800
O 1.93100 -3.25500 4.66900
O 0.03800 -3.55600 6.00300
C 0.94300 -3.58300 7.18300
H -1.85900 3.22000 2.49700
H -0.21800 2.45300 -3.47400
H 0.27600 -3.74700 -2.60500
H -1.55400 -0.94900 5.13200
H -1.58500 1.83100 4.66500
H -3.48400 -0.37700 3.96900
H -3.51100 1.02700 2.85800
H -3.85200 1.30100 4.54300
H 0.66900 1.09600 4.96600
H 1.13000 -0.63900 5.18900
H -0.84400 0.02600 7.12500
H 0.06200 1.47700 6.92100
H -1.34400 5.18600 1.93800
H -1.65100 5.96300 0.43200
H 0.00700 6.02000 1.08400
H -0.63500 6.74400 -1.40500
H 0.66500 6.97000 -2.70400
H 1.04800 6.46600 -1.03600
H 0.60800 0.50100 -4.89100
H -0.69200 -2.15600 -4.54700
H -1.26700 0.74000 -6.12900
H -2.20400 0.71400 -4.59600
H -1.96700 -0.72000 -5.45300
H 1.35600 -1.75900 -5.96700
H 1.45200 -3.15700 -4.90200
H 2.71400 -0.52200 -4.79800
H 3.48700 -2.12100 -4.52900
H 2.49500 -1.30300 -3.24000
H 0.86700 -6.33300 -0.08400
H 0.40400 -5.64200 -1.68000
H -0.89100 -5.99900 -0.46300
H -1.28300 -3.58100 4.02800
H 0.69800 -4.47800 7.75500
H 0.83300 -2.61900 7.68000
H 2.00000 -3.75400 6.97600
Mg 15.77307 1.42430 1.20417
C 15.71408 -0.78298 4.03321
C 14.66267 3.88466 3.28940
C 15.38345 3.27223 -1.34550
C 15.76513 -1.40627 -0.82894
N 15.28843 1.42784 3.36226
C 15.36321 0.54638 4.34806
C 15.12211 1.14047 5.76174
C 14.25827 2.42624 5.33811
C 14.78931 2.62086 3.91938
C 12.76648 2.14853 5.25582
C 16.45854 1.55489 6.47183
C 16.32667 1.85315 7.96696
H 17.43133 1.48821 8.84958
N 15.59503 3.39576 1.06205
C 15.14877 4.24315 2.01287
C 15.19022 5.58377 1.40859
C 15.54110 5.43904 -0.03039
C 15.49882 3.99706 -0.16828
C 14.98990 6.84123 2.20363
C 15.84951 6.43438 -1.10760
O 15.89382 6.09712 -2.34337
C 16.00590 7.83308 -0.68255
N 15.38592 1.00522 -0.79504
C 15.31577 1.99080 -1.70698
C 15.30478 1.43503 -3.11105
C 15.62735 -0.12390 -2.95858
C 15.68333 -0.22126 -1.41819
C 13.99900 1.61088 -3.88591
C 16.82461 -0.67831 -3.77824
C 18.11986 -0.09997 -3.25552
N 15.93082 -0.70904 1.50752
C 15.87863 -1.71717 0.52008
C 15.91328 -3.01650 1.22220
C 15.96037 -2.67144 2.58132
C 15.93504 -1.25712 2.71750
C 15.85154 -4.29758 0.60483
C 16.01502 -3.18219 3.93219
O 16.14346 -4.29795 4.43450
C 15.73034 -1.98423 4.93729
C 16.77134 -2.03068 6.02204
O 17.96899 -1.82450 5.75795
O 16.15868 -2.09439 7.21826
C 17.14962 -2.13128 8.32664
H 14.10118 4.66608 3.80225
H 15.35777 3.86437 -2.26321
H 15.86486 -2.33443 -1.39573
H 14.54660 0.50888 6.42780
H 14.50038 3.28619 5.95718
H 12.54450 1.09918 5.38125
H 12.45813 2.48586 4.27491
H 12.22658 2.77349 5.97294
H 16.76478 2.54453 6.10911
H 17.21810 0.81348 6.31687
H 15.37378 1.49596 8.37605
H 16.28719 2.93670 8.10249
H 14.58574 6.62669 3.20063
H 14.19766 7.41121 1.70627
H 15.89071 7.45672 2.25243
H 15.09423 8.16547 -0.19180
H 16.31082 8.37825 -1.57792
H 16.80336 7.88381 0.06718
H 16.07628 1.89605 -3.71549
H 14.78186 -0.74851 -3.28241
H 14.12880 2.14995 -4.84331
H 13.29231 2.12844 -3.25088
H 13.47017 0.68735 -4.11531
H 16.74495 -0.36713 -4.82274
H 16.88992 -1.76120 -3.76891
H 18.17755 0.87016 -3.75812
H 18.96030 -0.73565 -3.52683
H 18.05926 0.09030 -2.17766
H 16.59038 -4.91617 1.09673
H 16.03547 -4.23237 -0.46554
H 14.81691 -4.57178 0.82758
H 14.72232 -2.11959 5.33118
H 16.93154 -3.02422 8.92059
H 17.06365 -1.15353 8.83690
H 18.18784 -2.29944 8.06533
