79

Mg 15.75615 1.42232 1.19876
C 14.07806 -1.39275 -0.26360
C 14.27146 3.35665 -1.18634
C 17.56255 3.84049 2.17693
C 17.94597 -0.83753 2.69658
N 14.37327 0.92996 -0.45578
C 13.75606 -0.16386 -0.87644
C 12.67694 0.08458 -1.96425
C 13.24124 1.46881 -2.55106
C 13.98139 1.97480 -1.31460
C 14.25271 1.28054 -3.66946
C 11.24244 0.26183 -1.35367
C 10.09915 0.19930 -2.36893
H 8.83736 -0.41121 -1.95952
N 15.54633 3.37623 0.92169
C 14.89288 3.98947 -0.08738
C 15.04644 5.43279 0.15224
C 15.98276 5.62181 1.29342
C 16.42608 4.25758 1.49941
C 14.27866 6.47096 -0.61335
C 16.41810 6.83217 2.06265
O 17.42114 6.79849 2.85989
C 15.69393 8.08109 1.78467
N 17.62459 1.50950 2.10631
C 18.15940 2.68649 2.47590
C 19.37282 2.48333 3.35153
C 19.39952 0.92120 3.69302
C 18.19485 0.45630 2.84564
C 20.71173 2.89293 2.73840
C 19.44122 0.52989 5.19562
C 18.14087 0.91266 5.86491
N 15.88819 -0.72633 1.38289
C 16.90133 -1.46623 2.03111
C 16.61784 -2.89600 1.79064
C 15.46323 -2.88800 0.99359
C 15.06743 -1.54740 0.73739
C 17.40915 -3.98874 2.24437
C 14.49534 -3.70860 0.30185
O 14.27105 -4.91639 0.23355
C 13.62800 -2.77487 -0.64803
C 12.17884 -3.12209 -0.44336
O 11.62600 -2.90832 0.64993
O 11.63124 -3.44454 -1.62933
C 10.19151 -3.78606 -1.47973
H 14.03987 4.01531 -2.02384
H 18.16032 4.63533 2.62900
H 18.52582 -1.60662 3.21130
H 12.64026 -0.66363 -2.74695
H 12.43223 2.14515 -2.81454
H 14.51435 0.24169 -3.80539
H 15.12265 1.85493 -3.37909
H 13.88393 1.73771 -4.59214
H 11.12722 1.29599 -1.00443
H 11.07048 -0.45171 -0.57142
H 10.42671 -0.20572 -3.33413
H 9.78372 1.21974 -2.59962
H 13.79376 6.04119 -1.49855
H 15.01202 7.17543 -1.02049
H 13.57186 7.01928 0.01312
H 15.78481 8.32384 0.72861
H 16.08780 8.81140 2.49416
H 14.62804 7.91826 1.97957
H 19.28200 3.04325 4.27422
H 20.28824 0.42748 3.27320
H 21.25916 3.63937 3.34438
H 20.52895 3.27240 1.74184
H 21.40348 2.07359 2.55035
H 20.22995 1.08469 5.70969
H 19.62901 -0.52559 5.36204
H 18.28607 1.97157 6.09883
H 17.98801 0.32616 6.76862
H 17.30150 0.84214 5.16339
H 16.72229 -4.73688 2.61721
H 18.11415 -3.67725 3.01229
H 17.91166 -4.26535 1.31365
H 13.95222 -2.95879 -1.67304
H 10.05438 -4.78530 -1.90445
H 9.63653 -2.95590 -1.95574
H 9.81224 -3.92954 -0.47473
