79

Mg 31.53256 2.83880 2.39533
C 31.39491 0.13101 4.73223
C 30.28395 4.83655 4.86374
C 31.21732 5.13334 0.22915
C 31.67708 0.45036 -0.13846
N 30.95468 2.42084 4.49104
C 31.00695 1.35443 5.28301
C 30.68298 1.67487 6.77289
C 29.82146 3.00003 6.56378
C 30.41165 3.46789 5.24518
C 28.33228 2.73411 6.36854
C 31.97292 1.95700 7.61443
C 31.77553 1.95585 9.13311
H 32.84117 1.43727 9.97740
N 31.31997 4.79026 2.61775
C 30.80845 5.43150 3.69592
C 30.86357 6.87420 3.37614
C 31.27234 7.00895 1.95037
C 31.26066 5.63130 1.52925
C 30.59507 7.95086 4.38236
C 31.60837 8.19250 1.09924
O 31.71194 8.10844 -0.17229
C 31.72763 9.48779 1.79281
N 31.23578 2.81010 0.32924
C 31.19274 3.94483 -0.37754
C 31.25713 3.67294 -1.85127
C 31.59957 2.12038 -1.99981
C 31.59106 1.73236 -0.50060
C 29.98434 3.99323 -2.64715
C 32.84148 1.75240 -2.84990
C 34.09810 2.22601 -2.15441
N 31.71523 0.67871 2.28732
C 31.73268 -0.10901 1.12720
C 31.76183 -1.51764 1.56189
C 31.74244 -1.45146 2.95368
C 31.67714 -0.08869 3.36219
C 31.74256 -2.65436 0.70636
C 31.73683 -2.21584 4.19044
O 31.87220 -3.40687 4.47435
C 31.38870 -1.22695 5.38908
C 32.38210 -1.47999 6.49018
O 33.58965 -1.20416 6.33819
O 31.72532 -1.78039 7.62108
C 32.65200 -2.01417 8.76071
H 29.67884 5.50254 5.48200
H 31.22004 5.89689 -0.55151
H 31.80837 -0.34735 -0.87187
H 30.08475 0.91819 7.28082
H 30.01000 3.73558 7.34554
H 28.12673 1.66773 6.27634
H 28.06164 3.25481 5.44978
H 27.74804 3.20199 7.16134
H 32.27825 2.99302 7.46781
H 32.76520 1.25455 7.35332
H 30.81864 1.51264 9.41033
H 31.70230 2.99034 9.46879
H 30.15858 7.54647 5.29478
H 29.81429 8.58754 3.96675
H 31.48307 8.54739 4.59194
H 30.78657 9.71572 2.29383
H 32.05965 10.20231 1.04044
H 32.47942 9.40012 2.57771
H 32.04468 4.25915 -2.32303
H 30.78496 1.56452 -2.46468
H 30.14449 4.69662 -3.46465
H 29.23606 4.36826 -1.94950
H 29.47552 3.12471 -3.06448
H 32.80147 2.25365 -3.81639
H 32.93462 0.68220 -3.03494
H 34.16482 3.27047 -2.45688
H 34.96281 1.66189 -2.50548
H 33.98424 2.20736 -1.07035
H 32.47806 -3.35112 1.10827
H 31.97726 -2.38008 -0.32189
H 30.70934 -2.97984 0.82626
H 30.36887 -1.45496 5.69743
H 32.42885 -3.00446 9.15792
H 32.53889 -1.16255 9.43180
H 33.70712 -2.12644 8.50882
