158

Mg 0.00000 0.00000 0.00000
C -0.21700 -2.21800 2.80100
C -1.25500 2.44200 2.02600
C -0.24500 1.85000 -2.56400
C 0.14600 -2.82400 -2.03700
N -0.61700 -0.00900 2.12600
C -0.59400 -0.90800 3.10500
C -0.93600 -0.30900 4.50200
C -1.77300 0.96400 4.03200
C -1.15500 1.16800 2.66000
C -3.26300 0.68500 3.86300
C 0.34500 0.11000 5.29900
C 0.12400 0.39700 6.78700
H 1.16800 0.03300 7.73300
N -0.18500 1.96100 -0.15200
C -0.70300 2.80000 0.77700
C -0.62000 4.15600 0.19300
C -0.18700 4.01500 -1.22500
C -0.21400 2.58300 -1.38000
C -0.88700 5.40600 0.97400
C 0.18100 5.01300 -2.27700
O 0.30300 4.69000 -3.50800
C 0.31000 6.41400 -1.83700
N -0.26500 -0.41300 -2.02900
C -0.27900 0.56900 -2.93700
C -0.19600 0.02400 -4.33200
C 0.12400 -1.53300 -4.18000
C 0.08600 -1.63200 -2.63500
C -1.45100 0.20500 -5.19700
C 1.37300 -2.07000 -4.92300
C 2.62600 -1.49000 -4.30600
N 0.15000 -2.14400 0.30300
C 0.17300 -3.13600 -0.68800
C 0.17300 -4.43800 0.00400
C 0.13300 -4.11100 1.35800
C 0.08300 -2.69500 1.50200
C 0.14900 -5.71500 -0.62300
C 0.09600 -4.62900 2.71600
O 0.20800 -5.74700 3.22100
C -0.25500 -3.42800 3.70100
C 0.71700 -3.48200 4.84800
O 1.93100 -3.25500 4.66900
O 0.03800 -3.55600 6.00300
C 0.94300 -3.58300 7.18300
H -1.85900 3.22000 2.49700
H -0.21800 2.45300 -3.47400
H 0.27600 -3.74700 -2.60500
H -1.55400 -0.94900 5.13200
H -1.58500 1.83100 4.66500
H -3.48400 -0.37700 3.96900
H -3.51100 1.02700 2.85800
H -3.85200 1.30100 4.54300
H 0.66900 1.09600 4.96600
H 1.13000 -0.63900 5.18900
H -0.84400 0.02600 7.12500
H 0.06200 1.47700 6.92100
H -1.34400 5.18600 1.93800
H -1.65100 5.96300 0.43200
H 0.00700 6.02000 1.08400
H -0.63500 6.74400 -1.40500
H 0.66500 6.97000 -2.70400
H 1.04800 6.46600 -1.03600
H 0.60800 0.50100 -4.89100
H -0.69200 -2.15600 -4.54700
H -1.26700 0.74000 -6.12900
H -2.20400 0.71400 -4.59600
H -1.96700 -0.72000 -5.45300
H 1.35600 -1.75900 -5.96700
H 1.45200 -3.15700 -4.90200
H 2.71400 -0.52200 -4.79800
H 3.48700 -2.12100 -4.52900
H 2.49500 -1.30300 -3.24000
H 0.86700 -6.33300 -0.08400
H 0.40400 -5.64200 -1.68000
H -0.89100 -5.99900 -0.46300
H -1.28300 -3.58100 4.02800
H 0.69800 -4.47800 7.75500
H 0.83300 -2.61900 7.68000
H 2.00000 -3.75400 6.97600
Mg 8.92882 0.80841 0.68683
C 6.58083 -1.82764 1.33276
C 6.25496 2.84611 0.10987
C 10.96207 3.02464 -0.32395
C 11.34576 -1.65354 0.19401
N 6.74852 0.44088 0.74562
C 5.97216 -0.58404 1.06364
C 4.46295 -0.23796 1.17349
C 4.44403 1.05873 0.22634
C 5.89544 1.50416 0.39274
C 4.21018 0.73040 -1.23887
C 4.03630 0.11655 2.64125
C 2.52520 0.16281 2.87831
H 2.00869 -0.28940 4.16718
N 8.69077 2.76674 0.47040
C 7.53210 3.42803 0.26680
C 7.89463 4.84921 0.15283
C 9.37900 4.95518 0.14116
C 9.74277 3.55407 0.07298
C 6.87523 5.95113 0.14763
C 10.31587 6.12459 0.17174
O 11.56450 5.99396 -0.08649
C 9.71233 7.44180 0.42110
N 10.81713 0.70094 -0.17636
C 11.50651 1.81679 -0.47227
C 12.93941 1.49546 -0.82435
C 13.13308 -0.05130 -0.46714
C 11.69038 -0.39381 -0.03507
C 13.33623 1.73469 -2.28095
C 14.29799 -0.41082 0.49537
C 14.01301 0.13372 1.87655
N 9.03504 -1.33649 0.92383
C 10.13570 -2.17300 0.63594
C 9.69103 -3.56582 0.84746
C 8.34518 -3.44330 1.22449
C 7.97141 -2.07224 1.22684
C 10.48146 -4.73168 0.64222
C 7.15273 -4.16274 1.61074
O 6.89083 -5.33802 1.86341
C 5.92221 -3.15727 1.57549
C 5.14367 -3.33110 2.85070
O 5.64984 -3.03066 3.94621
O 3.86333 -3.61521 2.55005
C 3.04855 -3.78571 3.78248
H 5.49831 3.50794 -0.31245
H 11.73374 3.75559 -0.57637
H 12.06745 -2.47232 0.15608
H 3.79372 -0.99447 0.78157
H 3.76613 1.81737 0.60879
H 4.21303 -0.33442 -1.41857
H 5.01700 1.20751 -1.77966
H 3.28972 1.20595 -1.58950
H 4.29058 1.16472 2.84478
H 4.49179 -0.55470 3.34308
H 1.96469 -0.29881 2.05631
H 2.20418 1.20726 2.86828
H 5.86087 5.56002 0.00101
H 7.06424 6.55737 -0.74490
H 6.94210 6.59096 1.03013
H 8.96789 7.64863 -0.34408
H 10.55013 8.13788 0.49489
H 9.17909 7.40687 1.37768
H 13.62555 2.08277 -0.22654
H 13.34398 -0.65314 -1.36333
H 14.19220 2.42682 -2.39210
H 12.47213 2.11006 -2.81289
H 13.58329 0.83731 -2.84564
H 15.22504 0.06121 0.16084
H 14.48663 -1.47685 0.56592
H 14.34446 1.17396 1.80492
H 14.58145 -0.41081 2.62781
H 12.93609 0.14423 2.08097
H 10.29298 -5.38740 1.48187
H 11.53801 -4.48595 0.55804
H 10.06547 -5.08508 -0.30505
H 5.32572 -3.40027 0.69531
H 2.57820 -4.77193 3.72063
H 2.37588 -2.90828 3.81966
H 3.57653 -3.86200 4.72580
