79

Mg 31.53194 2.84343 2.40484
C 29.67596 0.37916 4.23836
C 29.00284 5.03135 3.07661
C 32.91832 4.89950 0.42546
C 33.30149 0.22119 0.94257
N 29.63736 2.61669 3.52351
C 29.06748 1.65160 4.22932
C 27.81542 2.09550 5.03235
C 27.39774 3.36612 4.14357
C 28.76686 3.72261 3.56816
C 26.47161 3.01592 2.99075
C 28.16618 2.51382 6.50341
C 26.96091 2.66198 7.43460
H 27.11180 2.27660 8.83503
N 31.30400 4.80674 2.22593
C 30.22087 5.53483 2.56942
C 30.54446 6.92675 2.22008
C 31.84175 6.93792 1.49096
C 32.06637 5.51526 1.33077
C 29.69801 8.09067 2.64695
C 32.72659 8.04590 1.00550
O 33.68842 7.82969 0.18637
C 32.37608 9.40472 1.44396
N 32.76222 2.59424 0.74753
C 33.27064 3.65613 0.09805
C 34.34008 3.23557 -0.88166
C 34.61498 1.68928 -0.58002
C 33.54686 1.45022 0.50964
C 33.99431 3.41178 -2.36010
C 36.08301 1.28127 -0.27818
C 36.52411 1.87796 1.03893
N 31.64643 0.70288 2.67501
C 32.43395 -0.20892 1.93845
C 32.08685 -1.56483 2.41115
C 31.09699 -1.34749 3.38143
C 30.83054 0.04413 3.49038
C 32.62867 -2.78339 1.91349
C 30.20932 -1.97966 4.33070
O 30.05135 -3.12909 4.74006
C 29.15952 -0.89933 4.83783
C 29.08666 -0.99069 6.33745
O 30.07129 -0.69506 7.03726
O 27.80934 -1.20054 6.70459
C 27.68428 -1.28738 8.18399
H 28.16579 5.72886 3.03543
H 33.50306 5.57329 -0.20507
H 33.87899 -0.64246 0.60599
H 27.00811 1.37323 5.05099
H 27.02227 4.17581 4.76389
H 26.34127 1.94882 2.88855
H 26.93689 3.42685 2.10436
H 25.51782 3.53983 3.10092
H 28.53223 3.54859 6.50379
H 28.87436 1.83318 6.93449
H 26.05382 2.21600 7.00887
H 26.72049 3.72410 7.52470
H 28.72305 7.76113 3.02678
H 29.45867 8.66066 1.74269
H 30.21024 8.74734 3.35340
H 31.36449 9.63875 1.12091
H 33.17464 10.04786 1.06906
H 32.36998 9.42819 2.53942
H 35.25426 3.79323 -0.71922
H 34.34074 1.05254 -1.43394
H 34.71930 4.04509 -2.90543
H 32.99794 3.82752 -2.43042
H 33.89895 2.48637 -2.92555
H 36.75281 1.68478 -1.04153
H 36.23593 0.20757 -0.25054
H 36.82447 2.89288 0.76179
H 37.36043 1.31783 1.45228
H 35.68131 1.96205 1.73482
H 32.84079 -3.40412 2.77383
H 33.52280 -2.60747 1.31905
H 31.79220 -3.13378 1.30291
H 28.20233 -1.12640 4.36687
H 27.20033 -2.24301 8.40817
H 27.15184 -0.36834 8.49325
H 28.59821 -1.37287 8.76008
