158

Mg 0.00000 0.00000 0.00000
C -0.21700 -2.21800 2.80100
C -1.25500 2.44200 2.02600
C -0.24500 1.85000 -2.56400
C 0.14600 -2.82400 -2.03700
N -0.61700 -0.00900 2.12600
C -0.59400 -0.90800 3.10500
C -0.93600 -0.30900 4.50200
C -1.77300 0.96400 4.03200
C -1.15500 1.16800 2.66000
C -3.26300 0.68500 3.86300
C 0.34500 0.11000 5.29900
C 0.12400 0.39700 6.78700
H 1.16800 0.03300 7.73300
N -0.18500 1.96100 -0.15200
C -0.70300 2.80000 0.77700
C -0.62000 4.15600 0.19300
C -0.18700 4.01500 -1.22500
C -0.21400 2.58300 -1.38000
C -0.88700 5.40600 0.97400
C 0.18100 5.01300 -2.27700
O 0.30300 4.69000 -3.50800
C 0.31000 6.41400 -1.83700
N -0.26500 -0.41300 -2.02900
C -0.27900 0.56900 -2.93700
C -0.19600 0.02400 -4.33200
C 0.12400 -1.53300 -4.18000
C 0.08600 -1.63200 -2.63500
C -1.45100 0.20500 -5.19700
C 1.37300 -2.07000 -4.92300
C 2.62600 -1.49000 -4.30600
N 0.15000 -2.14400 0.30300
C 0.17300 -3.13600 -0.68800
C 0.17300 -4.43800 0.00400
C 0.13300 -4.11100 1.35800
C 0.08300 -2.69500 1.50200
C 0.14900 -5.71500 -0.62300
C 0.09600 -4.62900 2.71600
O 0.20800 -5.74700 3.22100
C -0.25500 -3.42800 3.70100
C 0.71700 -3.48200 4.84800
O 1.93100 -3.25500 4.66900
O 0.03800 -3.55600 6.00300
C 0.94300 -3.58300 7.18300
H -1.85900 3.22000 2.49700
H -0.21800 2.45300 -3.47400
H 0.27600 -3.74700 -2.60500
H -1.55400 -0.94900 5.13200
H -1.58500 1.83100 4.66500
H -3.48400 -0.37700 3.96900
H -3.51100 1.02700 2.85800
H -3.85200 1.30100 4.54300
H 0.66900 1.09600 4.96600
H 1.13000 -0.63900 5.18900
H -0.84400 0.02600 7.12500
H 0.06200 1.47700 6.92100
H -1.34400 5.18600 1.93800
H -1.65100 5.96300 0.43200
H 0.00700 6.02000 1.08400
H -0.63500 6.74400 -1.40500
H 0.66500 6.97000 -2.70400
H 1.04800 6.46600 -1.03600
H 0.60800 0.50100 -4.89100
H -0.69200 -2.15600 -4.54700
H -1.26700 0.74000 -6.12900
H -2.20400 0.71400 -4.59600
H -1.96700 -0.72000 -5.45300
H 1.35600 -1.75900 -5.96700
H 1.45200 -3.15700 -4.90200
H 2.71400 -0.52200 -4.79800
H 3.48700 -2.12100 -4.52900
H 2.49500 -1.30300 -3.24000
H 0.86700 -6.33300 -0.08400
H 0.40400 -5.64200 -1.68000
H -0.89100 -5.99900 -0.46300
H -1.28300 -3.58100 4.02800
H 0.69800 -4.47800 7.75500
H 0.83300 -2.61900 7.68000
H 2.00000 -3.75400 6.97600
Mg 31.53256 2.83880 2.39533
C 31.04484 6.35808 1.96058
C 30.93620 2.49414 -0.94662
C 31.50876 -0.30183 2.83404
C 30.96678 3.33040 5.79884
N 31.06363 4.31413 0.81287
C 30.96436 5.63894 0.76600
C 30.84210 6.19845 -0.68292
C 30.25540 4.90328 -1.40423
C 30.81332 3.83624 -0.47898
C 28.73216 4.82863 -1.37794
C 32.22992 6.60816 -1.28110
C 32.16773 7.45952 -2.55259
H 33.17317 8.49194 -2.75395
N 31.74389 1.36255 1.09962
C 31.46905 1.40322 -0.22632
C 31.79066 0.05848 -0.75066
C 32.09428 -0.82232 0.41128
C 31.76468 0.04860 1.51048
C 31.83574 -0.26558 -2.21240
C 32.59108 -2.22969 0.51447
O 32.56558 -2.88106 1.61431
C 33.03212 -2.86436 -0.74080
N 31.05976 1.63769 4.03588
C 31.18935 0.30773 3.97756
C 31.06983 -0.31269 5.33798
C 31.07312 0.89880 6.37819
C 31.11423 2.07448 5.37104
C 29.82598 -1.18150 5.57038
C 32.13566 0.85531 7.50493
C 33.51763 1.02208 6.91380
N 31.25918 4.54614 3.70731
C 31.01525 4.51794 5.08803
C 30.79266 5.91130 5.51592
C 30.90691 6.65637 4.34389
C 31.15732 5.78105 3.24872
C 30.46764 6.33639 6.83429
C 30.85124 7.98587 3.75806
O 30.76381 9.12904 4.20861
C 30.81724 7.83406 2.17325
C 31.82868 8.79081 1.60322
O 33.04950 8.62405 1.80110
O 31.22397 9.60640 0.72590
C 32.17761 10.56179 0.10143
H 30.53567 2.23897 -1.92968
H 31.60063 -1.36854 3.04884
H 30.86846 3.56940 6.85934
H 30.14755 7.03170 -0.79126
H 30.65699 4.78049 -2.40990
H 28.30552 5.61389 -0.75403
H 28.49592 3.84637 -0.96825
H 28.32642 4.83669 -2.38991
H 32.72713 5.72193 -1.67536
H 32.83619 7.12065 -0.53337
H 31.16782 7.86363 -2.71316
H 32.33696 6.80697 -3.40917
H 31.40577 0.53466 -2.81348
H 31.16907 -1.11293 -2.37138
H 32.84171 -0.52182 -2.54510
H 32.20427 -2.87260 -1.45013
H 33.43747 -3.83589 -0.46030
H 33.81466 -2.25217 -1.19003
H 31.91718 -0.96464 5.54627
H 30.12510 0.98396 6.90986
H 30.05587 -2.20198 5.87778
H 29.23310 -1.17262 4.65621
H 29.11619 -0.77957 6.29292
H 32.11620 -0.11120 8.00735
H 31.99148 1.62582 8.26241
H 33.77051 0.01089 6.59695
H 34.21510 1.37952 7.67208
H 33.49596 1.64745 6.02109
H 31.07669 7.21906 7.02903
H 30.66427 5.55071 7.56344
H 29.40389 6.54562 6.72251
H 29.80269 8.07447 1.85702
H 31.79144 11.56502 0.28209
H 32.29933 10.24546 -0.93468
H 33.16176 10.63339 0.56580
