79

Mg 10.51770 0.94380 0.80614
C 8.28187 -0.25445 3.34471
C 11.51948 3.33191 3.02605
C 12.16279 2.29790 -1.54493
C 8.56297 -0.75853 -1.52340
N 9.90648 1.37955 2.88672
C 9.09288 0.81882 3.76875
C 9.21006 1.39150 5.20676
C 9.80249 2.83877 4.84168
C 10.48507 2.49689 3.51885
C 8.72756 3.87800 4.56990
C 10.20734 0.57063 6.09761
C 10.13875 0.88228 7.59425
H 10.35167 -0.20755 8.54262
N 12.01299 2.24711 0.86987
C 12.28510 3.12571 1.85745
C 13.47451 3.87080 1.41664
C 13.78430 3.47391 0.01620
C 12.62783 2.65518 -0.28770
C 14.24130 4.78952 2.32296
C 14.92540 3.79058 -0.90238
O 14.87200 3.53172 -2.15656
C 16.06917 4.49729 -0.30754
N 10.26629 0.97011 -1.25746
C 11.15446 1.58995 -2.05425
C 10.92019 1.24361 -3.50531
C 9.83708 0.06702 -3.49671
C 9.55410 -0.00537 -1.98011
C 10.42274 2.38646 -4.39007
C 10.21477 -1.24269 -4.24149
C 11.34816 -1.93733 -3.52156
N 8.85632 -0.43541 0.88120
C 8.17210 -1.00702 -0.21387
C 7.04478 -1.78728 0.33636
C 7.13842 -1.59520 1.72302
C 8.23382 -0.73822 2.01490
C 6.07966 -2.50484 -0.42506
C 6.55330 -1.91396 3.00549
O 5.65802 -2.66565 3.38912
C 7.19117 -0.95808 4.10358
C 7.59068 -1.80476 5.28088
O 8.49117 -2.65545 5.17103
O 6.99976 -1.32415 6.39002
C 7.37423 -2.12431 7.58640
H 11.73953 4.25606 3.56122
H 12.76300 2.64974 -2.38721
H 7.96597 -1.39739 -2.17771
H 8.26830 1.49689 5.73188
H 10.53521 3.16243 5.57635
H 7.74022 3.44103 4.55138
H 8.96974 4.30662 3.60622
H 8.80351 4.69649 5.29145
H 11.23242 0.89971 5.88395
H 10.07900 -0.48286 5.94163
H 9.23713 1.44915 7.85634
H 10.96150 1.55567 7.84654
H 13.68145 5.00893 3.24046
H 14.31420 5.75552 1.81168
H 15.24865 4.42598 2.53687
H 15.73036 5.43903 0.11765
H 16.82018 4.55493 -1.09781
H 16.45678 3.89799 0.52385
H 11.82974 0.88060 -3.96796
H 8.89696 0.37511 -3.97744
H 11.07684 2.58070 -5.26099
H 10.32869 3.27470 -3.77955
H 9.41271 2.26448 -4.77759
H 10.57852 -1.01539 -5.24656
H 9.38519 -1.93369 -4.34786
H 12.23500 -1.42180 -3.90212
H 11.36924 -2.99606 -3.77190
H 11.29890 -1.75507 -2.44174
H 5.93774 -3.45649 0.06963
H 6.40362 -2.63591 -1.45542
H 5.22572 -1.82670 -0.34637
H 6.43731 -0.21621 4.36988
H 6.44196 -2.46303 8.04882
H 8.02759 -1.46842 8.19194
H 7.88241 -3.06692 7.41995
