158

Mg 0.00000 0.00000 0.00000
C -0.21700 -2.21800 2.80100
C -1.25500 2.44200 2.02600
C -0.24500 1.85000 -2.56400
C 0.14600 -2.82400 -2.03700
N -0.61700 -0.00900 2.12600
C -0.59400 -0.90800 3.10500
C -0.93600 -0.30900 4.50200
C -1.77300 0.96400 4.03200
C -1.15500 1.16800 2.66000
C -3.26300 0.68500 3.86300
C 0.34500 0.11000 5.29900
C 0.12400 0.39700 6.78700
H 1.16800 0.03300 7.73300
N -0.18500 1.96100 -0.15200
C -0.70300 2.80000 0.77700
C -0.62000 4.15600 0.19300
C -0.18700 4.01500 -1.22500
C -0.21400 2.58300 -1.38000
C -0.88700 5.40600 0.97400
C 0.18100 5.01300 -2.27700
O 0.30300 4.69000 -3.50800
C 0.31000 6.41400 -1.83700
N -0.26500 -0.41300 -2.02900
C -0.27900 0.56900 -2.93700
C -0.19600 0.02400 -4.33200
C 0.12400 -1.53300 -4.18000
C 0.08600 -1.63200 -2.63500
C -1.45100 0.20500 -5.19700
C 1.37300 -2.07000 -4.92300
C 2.62600 -1.49000 -4.30600
N 0.15000 -2.14400 0.30300
C 0.17300 -3.13600 -0.68800
C 0.17300 -4.43800 0.00400
C 0.13300 -4.11100 1.35800
C 0.08300 -2.69500 1.50200
C 0.14900 -5.71500 -0.62300
C 0.09600 -4.62900 2.71600
O 0.20800 -5.74700 3.22100
C -0.25500 -3.42800 3.70100
C 0.71700 -3.48200 4.84800
O 1.93100 -3.25500 4.66900
O 0.03800 -3.55600 6.00300
C 0.94300 -3.58300 7.18300
H -1.85900 3.22000 2.49700
H -0.21800 2.45300 -3.47400
H 0.27600 -3.74700 -2.60500
H -1.55400 -0.94900 5.13200
H -1.58500 1.83100 4.66500
H -3.48400 -0.37700 3.96900
H -3.51100 1.02700 2.85800
H -3.85200 1.30100 4.54300
H 0.66900 1.09600 4.96600
H 1.13000 -0.63900 5.18900
H -0.84400 0.02600 7.12500
H 0.06200 1.47700 6.92100
H -1.34400 5.18600 1.93800
H -1.65100 5.96300 0.43200
H 0.00700 6.02000 1.08400
H -0.63500 6.74400 -1.40500
H 0.66500 6.97000 -2.70400
H 1.04800 6.46600 -1.03600
H 0.60800 0.50100 -4.89100
H -0.69200 -2.15600 -4.54700
H -1.26700 0.74000 -6.12900
H -2.20400 0.71400 -4.59600
H -1.96700 -0.72000 -5.45300
H 1.35600 -1.75900 -5.96700
H 1.45200 -3.15700 -4.90200
H 2.71400 -0.52200 -4.79800
H 3.48700 -2.12100 -4.52900
H 2.49500 -1.30300 -3.24000
H 0.86700 -6.33300 -0.08400
H 0.40400 -5.64200 -1.68000
H -0.89100 -5.99900 -0.46300
H -1.28300 -3.58100 4.02800
H 0.69800 -4.47800 7.75500
H 0.83300 -2.61900 7.68000
H 2.00000 -3.75400 6.97600
Mg 31.53256 2.83880 2.39533
C 31.44671 -0.14247 4.37443
C 30.29586 4.49759 5.10864
C 31.17125 5.38401 0.53846
C 31.66797 0.78932 -0.42016
N 30.98342 2.15488 4.42790
C 31.05455 0.99799 5.07884
C 30.74554 1.12531 6.60058
C 29.86992 2.45733 6.56905
C 30.44019 3.09323 5.31352
C 28.38092 2.20279 6.35788
C 32.04288 1.31268 7.45705
C 31.86362 1.11866 8.96555
H 32.94380 0.50906 9.72645
N 31.30541 4.74455 2.86370
C 30.80112 5.23993 4.01937
C 30.83968 6.71187 3.88303
C 31.23021 7.02891 2.48122
C 31.22569 5.71506 1.89032
C 30.57369 7.65073 5.01949
C 31.54561 8.31343 1.78217
O 31.63475 8.39090 0.50913
C 31.66167 9.51244 2.63184
N 31.21143 3.06693 0.34533
C 31.14995 4.28097 -0.21261
C 31.19917 4.19712 -1.70943
C 31.55351 2.67914 -2.05573
C 31.56631 2.10572 -0.61723
C 29.91420 4.60181 -2.44502
C 32.78841 2.43367 -2.95861
C 34.04899 2.82900 -2.22258
N 31.73301 0.71139 2.01453
C 31.74359 0.07594 0.76443
C 31.79036 -1.37578 1.01816
C 31.78698 -1.48524 2.40735
C 31.71452 -0.18534 2.98469
C 31.77094 -2.39612 0.02670
C 31.80287 -2.39899 3.53813
O 31.95213 -3.61481 3.66852
C 31.46033 -1.57220 4.85529
C 32.46899 -1.95140 5.90512
O 33.67216 -1.64627 5.77610
O 31.82841 -2.39826 6.99622
C 32.77064 -2.76388 8.08740
H 29.69231 5.07436 5.81221
H 31.15792 6.23960 -0.13995
H 31.79754 0.09150 -1.24944
H 30.16013 0.30470 7.01569
H 30.06125 3.09070 7.43505
H 28.18372 1.15439 6.13450
H 28.09476 2.83201 5.51486
H 27.80207 2.56130 7.20945
H 32.33728 2.36199 7.43864
H 32.83817 0.65679 7.10119
H 30.91407 0.63433 9.19506
H 31.78527 2.10196 9.42944
H 30.15170 7.13043 5.87842
H 29.78242 8.32654 4.69565
H 31.45883 8.22527 5.29291
H 30.72468 9.66593 3.16759
H 31.97837 10.31922 1.97179
H 32.42352 9.33456 3.39137
H 31.97582 4.84602 -2.11212
H 30.73836 2.17777 -2.57807
H 30.05836 5.40396 -3.16922
H 29.17100 4.87849 -1.69776
H 29.40813 3.78744 -2.96281
H 32.73245 3.05197 -3.85389
H 32.88879 1.39622 -3.27778
H 34.10287 3.90382 -2.39198
H 34.91440 2.32237 -2.65106
H 33.94824 2.67309 -1.14832
H 32.51731 -3.13027 0.32988
H 31.99093 -1.99240 -0.96133
H 30.74214 -2.74467 0.11578
H 30.44630 -1.84761 5.14343
H 32.56101 -3.79847 8.35927
H 32.65802 -2.00455 8.86145
H 33.82364 -2.83277 7.81210
