79

Mg 7.89061 0.71333 0.59225
C 7.34610 4.25230 0.83361
C 7.23585 0.99100 -2.74373
C 7.91966 -2.45499 0.42398
C 7.37564 0.53963 4.03468
N 7.37141 2.45086 -0.67411
C 7.25339 3.75627 -0.48350
C 7.10299 4.58560 -1.78702
C 6.51397 3.43366 -2.73831
C 7.10185 2.21181 -2.03537
C 4.99866 3.32950 -2.68986
C 8.47948 5.12046 -2.31733
C 8.37714 6.19038 -3.40662
H 9.37154 7.25959 -3.42766
N 8.10143 -0.48770 -0.97352
C 7.80852 -0.20599 -2.26043
C 8.12175 -1.42586 -3.02067
C 8.46752 -2.50439 -2.05530
C 8.14914 -1.84897 -0.80265
C 8.15283 -1.46415 -4.52100
C 8.98536 -3.89978 -2.23118
O 8.98890 -4.74331 -1.26615
C 9.40133 -4.27833 -3.58954
N 7.47088 -0.77626 1.98051
C 7.61212 -2.07552 1.66444
C 7.52251 -2.94870 2.89323
C 7.53327 -1.94302 4.13664
C 7.53748 -0.59928 3.37524
C 6.29195 -3.85127 2.97964
C 8.61689 -2.17986 5.22400
C 9.98866 -1.89452 4.65635
N 7.62517 2.13336 2.19883
C 7.39878 1.84580 3.56270
C 7.16617 3.13447 4.24656
C 7.25124 4.08799 3.22086
C 7.49799 3.43763 1.98165
C 6.86982 3.30112 5.62878
C 7.17785 5.49591 2.90294
O 7.07698 6.53085 3.56056
C 7.11032 5.65433 1.32284
C 8.09990 6.71287 0.91943
O 9.31998 6.53022 1.07642
O 7.46195 7.66866 0.21953
C 8.40380 8.73555 -0.21230
H 6.82617 0.92871 -3.75228
H 8.02831 -3.54192 0.44056
H 7.30507 0.57863 5.12380
H 6.40225 5.40939 -1.72300
H 6.90548 3.51731 -3.74880
H 4.57477 3.97102 -1.93164
H 4.78194 2.29191 -2.47197
H 4.57558 3.52437 -3.67949
H 8.97933 4.32364 -2.88299
H 9.08380 5.48421 -1.50917
H 7.36481 6.60551 -3.48283
H 8.54584 5.71565 -4.37625
H 7.69423 -0.56750 -4.95585
H 7.49668 -2.28366 -4.83361
H 9.15474 -1.64286 -4.91712
H 8.56154 -4.16093 -4.27029
H 9.82466 -5.28038 -3.49694
H 10.17783 -3.58161 -3.92457
H 8.38111 -3.60506 2.96468
H 6.58954 -1.98188 4.70029
H 6.54361 -4.92347 3.08508
H 5.68614 -3.68776 2.09828
H 5.59884 -3.61134 3.78415
H 8.62070 -3.22807 5.53287
H 8.47065 -1.58150 6.11706
H 10.24383 -2.82830 4.14642
H 10.69521 -1.67464 5.45414
H 9.94388 -1.10561 3.89657
H 7.46428 4.13562 5.97624
H 7.08497 2.39633 6.19343
H 5.79727 3.50610 5.57496
H 6.08728 5.93062 1.06473
H 8.00440 9.68409 0.15976
H 8.49864 8.62443 -1.30884
H 9.39483 8.73682 0.22623
