79

Mg 15.76628 1.41940 1.19766
C 15.15543 3.60191 3.96817
C 14.80913 3.98270 -0.84106
C 15.86099 -0.61964 -1.22926
C 15.57242 -1.24092 3.44060
N 15.09147 3.48343 1.62783
C 14.95830 4.21579 2.72924
C 14.66305 5.71803 2.44034
C 14.02845 5.57446 0.98478
C 14.70944 4.28918 0.54860
C 12.51966 5.35112 0.99726
C 15.96619 6.58571 2.41413
C 15.74394 8.10013 2.46404
H 16.69760 8.92429 3.19111
N 15.86456 1.74723 -0.74803
C 15.44290 2.85438 -1.40506
C 15.73377 2.61525 -2.83506
C 16.18435 1.20291 -2.97776
C 15.96006 0.70631 -1.64417
C 15.62290 3.67684 -3.88600
C 16.72057 0.42154 -4.13537
O 16.83217 -0.85168 -4.10328
C 17.03297 1.18662 -5.35607
N 15.50586 -0.64777 1.06876
C 15.65755 -1.29121 -0.09398
C 15.70407 -2.77704 0.10622
C 15.79641 -3.00789 1.68354
C 15.69905 -1.53252 2.14407
C 14.51338 -3.56572 -0.45614
C 16.97855 -3.86551 2.20069
C 18.28204 -3.13339 1.97267
N 15.60305 1.19402 3.35024
C 15.51512 -0.00760 4.06792
C 15.31081 0.34893 5.48397
C 15.27727 1.74201 5.48940
C 15.42344 2.22449 4.15743
C 15.12535 -0.56818 6.55586
C 15.12729 2.93459 6.30740
O 15.06533 3.15357 7.51806
C 14.92033 4.18272 5.34037
C 15.84056 5.27729 5.80773
O 17.07921 5.15189 5.72183
O 15.12399 6.38378 6.05822
C 15.98075 7.51726 6.49792
H 14.30733 4.63118 -1.56191
H 15.99980 -1.35691 -2.02274
H 15.58759 -2.01600 4.20903
H 13.94250 6.17789 3.11692
H 14.31813 6.39733 0.33156
H 12.14790 5.19831 2.01035
H 12.35231 4.46005 0.39188
H 12.00363 6.16313 0.48428
H 16.43587 6.49932 1.43434
H 16.64050 6.29354 3.21991
H 14.72367 8.34364 2.76182
H 15.83108 8.49171 1.45050
H 15.11106 4.56149 -3.50922
H 14.96158 3.28983 -4.66098
H 16.59097 3.92721 -4.32015
H 16.13164 1.69076 -5.70535
H 17.48844 0.47792 -6.04682
H 17.74686 1.97238 -5.10728
H 16.58357 -3.20845 -0.37002
H 14.91186 -3.51022 2.07586
H 14.79860 -4.34164 -1.16699
H 13.82231 -2.85535 -0.90901
H 13.87977 -4.03503 0.29600
H 17.03656 -4.80318 1.64901
H 16.90264 -4.10848 3.26062
H 18.52036 -3.37713 0.93795
H 19.05156 -3.50708 2.64899
H 18.14723 -2.05311 2.03022
H 15.73263 -0.19858 7.38205
H 15.41931 -1.57752 6.26875
H 14.05140 -0.47595 6.71700
H 13.87180 4.46861 5.41758
H 15.59501 7.85714 7.45913
H 15.99327 8.23326 5.67597
H 17.00869 7.26929 6.76474
