79

Mg 15.76628 1.41940 1.19766
C 15.98313 -1.36159 -1.04539
C 14.90012 -0.80534 3.63557
C 15.12764 3.89300 3.07652
C 15.53139 3.47426 -1.60734
N 15.50960 -0.77930 1.17542
C 15.68104 -1.73397 0.26637
C 15.58386 -3.17292 0.85574
C 14.69951 -2.85792 2.14443
C 15.08485 -1.40413 2.35402
C 13.19813 -2.93590 1.88696
C 16.98515 -3.74995 1.24963
C 17.01774 -5.25618 1.52452
H 18.19842 -6.01334 1.13716
N 15.58766 1.52347 3.16238
C 15.24302 0.51503 3.99878
C 15.24823 1.09419 5.35938
C 15.43844 2.56537 5.22694
C 15.36500 2.72484 3.79706
C 15.13267 0.27009 6.60487
C 15.64194 3.65603 6.23052
O 15.55373 4.89270 5.91836
C 15.86267 3.23264 7.62518
N 15.16304 3.37962 0.80870
C 15.01346 4.26512 1.79991
C 14.85636 5.65878 1.26795
C 15.17407 5.57395 -0.29462
C 15.39085 4.04481 -0.40868
C 13.47832 6.30253 1.47432
C 16.27480 6.51770 -0.84065
C 17.62107 6.11229 -0.28359
N 15.93267 1.16205 -0.95109
C 15.77668 2.15082 -1.93326
C 15.87198 1.47848 -3.24206
C 16.06147 0.13407 -2.92823
C 16.05691 -0.02719 -1.51321
C 15.72567 2.10272 -4.51224
C 16.24209 -1.20725 -3.45936
O 16.41960 -1.67805 -4.58378
C 16.07674 -2.24605 -2.26379
C 17.22427 -3.21576 -2.34227
O 18.39512 -2.83991 -2.12962
O 16.74478 -4.46666 -2.41888
C 17.83211 -5.48021 -2.46980
H 14.39397 -1.37589 4.41673
H 15.01256 4.79020 3.68825
H 15.55194 4.06307 -2.52621
H 15.06927 -3.89160 0.21769
H 15.00247 -3.45773 3.00242
H 12.98206 -3.06881 0.82698
H 12.79229 -1.98854 2.24235
H 12.73897 -3.70882 2.50385
H 17.26410 -3.37553 2.23455
H 17.72997 -3.50565 0.49141
H 16.11366 -5.74696 1.16302
H 16.99474 -5.40696 2.60384
H 14.83833 -0.75455 6.38125
H 14.29782 0.67373 7.17741
H 16.04152 0.30494 7.20580
H 15.00719 2.64754 7.96333
H 16.07745 4.14213 8.18513
H 16.72375 2.56457 7.65929
H 15.56371 6.33952 1.73984
H 14.29947 5.80553 -0.90299
H 13.51341 7.24796 2.01620
H 12.84278 5.58118 1.98719
H 12.91346 6.47668 0.55889
H 16.08984 7.54202 -0.51893
H 16.34012 6.51850 -1.92876
H 17.64071 6.60456 0.68806
H 18.42387 6.47971 -0.92370
H 17.67109 5.03790 -0.10563
H 16.51377 1.69489 -5.14513
H 15.80326 3.18676 -4.43198
H 14.72242 1.77487 -4.78400
H 15.11490 -2.73761 -2.40641
H 17.67196 -6.07795 -3.36719
H 17.82013 -5.99602 -1.50949
H 18.83762 -5.09968 -2.65273
