158

Mg 0.00000 0.00000 0.00000
C -0.21700 -2.21800 2.80100
C -1.25500 2.44200 2.02600
C -0.24500 1.85000 -2.56400
C 0.14600 -2.82400 -2.03700
N -0.61700 -0.00900 2.12600
C -0.59400 -0.90800 3.10500
C -0.93600 -0.30900 4.50200
C -1.77300 0.96400 4.03200
C -1.15500 1.16800 2.66000
C -3.26300 0.68500 3.86300
C 0.34500 0.11000 5.29900
C 0.12400 0.39700 6.78700
H 1.16800 0.03300 7.73300
N -0.18500 1.96100 -0.15200
C -0.70300 2.80000 0.77700
C -0.62000 4.15600 0.19300
C -0.18700 4.01500 -1.22500
C -0.21400 2.58300 -1.38000
C -0.88700 5.40600 0.97400
C 0.18100 5.01300 -2.27700
O 0.30300 4.69000 -3.50800
C 0.31000 6.41400 -1.83700
N -0.26500 -0.41300 -2.02900
C -0.27900 0.56900 -2.93700
C -0.19600 0.02400 -4.33200
C 0.12400 -1.53300 -4.18000
C 0.08600 -1.63200 -2.63500
C -1.45100 0.20500 -5.19700
C 1.37300 -2.07000 -4.92300
C 2.62600 -1.49000 -4.30600
N 0.15000 -2.14400 0.30300
C 0.17300 -3.13600 -0.68800
C 0.17300 -4.43800 0.00400
C 0.13300 -4.11100 1.35800
C 0.08300 -2.69500 1.50200
C 0.14900 -5.71500 -0.62300
C 0.09600 -4.62900 2.71600
O 0.20800 -5.74700 3.22100
C -0.25500 -3.42800 3.70100
C 0.71700 -3.48200 4.84800
O 1.93100 -3.25500 4.66900
O 0.03800 -3.55600 6.00300
C 0.94300 -3.58300 7.18300
H -1.85900 3.22000 2.49700
H -0.21800 2.45300 -3.47400
H 0.27600 -3.74700 -2.60500
H -1.55400 -0.94900 5.13200
H -1.58500 1.83100 4.66500
H -3.48400 -0.37700 3.96900
H -3.51100 1.02700 2.85800
H -3.85200 1.30100 4.54300
H 0.66900 1.09600 4.96600
H 1.13000 -0.63900 5.18900
H -0.84400 0.02600 7.12500
H 0.06200 1.47700 6.92100
H -1.34400 5.18600 1.93800
H -1.65100 5.96300 0.43200
H 0.00700 6.02000 1.08400
H -0.63500 6.74400 -1.40500
H 0.66500 6.97000 -2.70400
H 1.04800 6.46600 -1.03600
H 0.60800 0.50100 -4.89100
H -0.69200 -2.15600 -4.54700
H -1.26700 0.74000 -6.12900
H -2.20400 0.71400 -4.59600
H -1.96700 -0.72000 -5.45300
H 1.35600 -1.75900 -5.96700
H 1.45200 -3.15700 -4.90200
H 2.71400 -0.52200 -4.79800
H 3.48700 -2.12100 -4.52900
H 2.49500 -1.30300 -3.24000
H 0.86700 -6.33300 -0.08400
H 0.40400 -5.64200 -1.68000
H -0.89100 -5.99900 -0.46300
H -1.28300 -3.58100 4.02800
H 0.69800 -4.47800 7.75500
H 0.83300 -2.61900 7.68000
H 2.00000 -3.75400 6.97600
Mg 15.77335 1.42579 1.19303
C 15.15635 4.49875 2.94097
C 14.96039 3.07161 -1.68185
C 15.87010 -1.36452 -0.31435
C 15.42052 -0.21944 4.24499
N 15.15561 3.51440 0.80787
C 15.01537 4.60802 1.54182
C 14.78587 5.90686 0.72335
C 14.18157 5.24711 -0.61023
C 14.82988 3.86746 -0.51579
C 12.67298 5.07014 -0.56378
C 16.12355 6.67273 0.42999
C 15.94611 8.09966 -0.09358
H 16.91277 9.11568 0.31351
N 15.94092 1.01638 -0.74162
C 15.58289 1.80741 -1.77475
C 15.89000 1.04187 -2.99286
C 16.30510 -0.33003 -2.59251
C 16.02878 -0.28466 -1.17066
C 15.85338 1.64797 -4.36571
C 16.84743 -1.49484 -3.36408
O 16.91515 -2.66828 -2.85291
C 17.20978 -1.24095 -4.76612
N 15.45308 -0.52925 1.82358
C 15.61062 -1.56289 0.97819
C 15.59808 -2.87936 1.71787
C 15.64170 -2.50001 3.27086
C 15.57913 -0.96099 3.15728
C 14.39458 -3.78234 1.44844
C 16.77921 -3.13298 4.11826
C 18.11642 -2.57689 3.68465
N 15.54788 2.01348 3.25988
C 15.39097 1.16305 4.37623
C 15.15924 2.02662 5.55223
C 15.17463 3.32895 5.03052
C 15.37989 3.27949 3.62520
C 14.92249 1.57598 6.88151
C 15.05329 4.73377 5.34745
O 14.95797 5.38465 6.38717
C 14.90986 5.54759 3.98969
C 15.85449 6.71674 4.04691
O 17.08448 6.53485 4.07265
O 15.16266 7.85259 3.84304
C 16.05813 9.03945 3.87964
H 14.50665 3.42833 -2.60692
H 16.00523 -2.34938 -0.76741
H 15.39889 -0.65126 5.24785
H 14.06937 6.59528 1.15519
H 14.52439 5.76943 -1.49962
H 12.26902 5.30933 0.40872
H 12.49120 4.03070 -0.80374
H 12.20059 5.65064 -1.36140
H 16.61586 6.21424 -0.43728
H 16.75535 6.68183 1.29682
H 14.92176 8.46574 0.04656
H 16.08157 8.09082 -1.17783
H 15.35417 2.62479 -4.36099
H 15.20332 1.01368 -4.97805
H 16.84011 1.69641 -4.83122
H 16.33720 -0.87919 -5.30481
H 17.66063 -2.16859 -5.12402
H 17.95335 -0.43666 -4.79516
H 16.47442 -3.46772 1.47509
H 14.72591 -2.81408 3.79290
H 14.67625 -4.78591 1.07750
H 13.74541 -3.28381 0.74092
H 13.73345 -3.93684 2.29946
H 16.82209 -4.21173 3.94910
H 16.65974 -2.97886 5.18548
H 18.37019 -3.19295 2.81680
H 18.85327 -2.68919 4.47742
H 18.01820 -1.54198 3.33685
H 15.51218 2.20643 7.53366
H 15.18469 0.52649 6.99816
H 13.84403 1.74013 6.95393
H 13.86981 5.86529 3.90648
H 15.65368 9.72169 4.63373
H 16.10537 9.41026 2.83848
H 17.06785 8.89437 4.24551
