79

Mg 10.51746 0.95452 0.79772
C 9.92506 2.57305 3.94550
C 9.48918 3.83707 -0.70830
C 10.59768 -0.58333 -1.97644
C 10.39313 -2.08640 2.49567
N 9.82211 2.88671 1.61954
C 9.69720 3.40712 2.83112
C 9.38423 4.92742 2.84898
C 8.71853 5.05300 1.39297
C 9.40794 3.87558 0.70662
C 7.22073 4.79621 1.39186
C 10.68090 5.80329 2.96521
C 10.43421 7.27633 3.29843
H 11.39618 7.96726 4.15266
N 10.57907 1.65548 -1.05792
C 10.13847 2.85590 -1.48936
C 10.39197 2.88051 -2.93826
C 10.86691 1.53290 -3.35431
C 10.67562 0.79405 -2.12241
C 10.25657 4.12480 -3.76700
C 11.39267 0.99473 -4.65052
O 11.52235 -0.26411 -4.85382
C 11.66302 1.97983 -5.70787
N 10.28805 -1.04811 0.28861
C 10.42192 -1.45731 -0.98519
C 10.48909 -2.96352 -1.07006
C 10.61603 -3.47370 0.44030
C 10.50567 -2.11961 1.17492
C 9.29608 -3.64599 -1.73891
C 11.81901 -4.39865 0.77195
C 13.11235 -3.62439 0.65722
N 10.40129 0.32975 2.86272
C 10.33465 -0.99357 3.35106
C 10.15121 -0.90888 4.81448
C 10.10038 0.46877 5.07520
C 10.22188 1.19141 3.85762
C 10.00707 -2.01386 5.70012
C 9.96090 1.47587 6.10233
O 9.91104 1.46188 7.33158
C 9.71428 2.88123 5.40194
C 10.62910 3.88744 6.04471
O 11.86282 3.78791 5.92370
O 9.89617 4.91571 6.50932
C 10.76022 5.94519 7.14603
H 8.97118 4.60842 -1.27890
H 10.73152 -1.16290 -2.89277
H 10.44348 -2.98880 3.10871
H 8.67692 5.23669 3.60913
H 8.99310 5.98847 0.91248
H 6.86985 4.45445 2.35426
H 7.05264 4.03907 0.63719
H 6.68584 5.68678 1.04967
H 11.13213 5.90875 1.97022
H 11.36328 5.38113 3.67708
H 9.41076 7.45345 3.65074
H 10.50431 7.85732 2.37563
H 9.73265 4.91786 -3.21930
H 9.58797 3.88284 -4.60024
H 11.21182 4.46921 -4.16892
H 10.75023 2.52539 -5.93511
H 12.11609 1.41479 -6.52478
H 12.38175 2.71383 -5.32672
H 11.36461 -3.28104 -1.62300
H 9.74206 -4.06831 0.74434
H 9.58158 -4.27728 -2.60148
H 8.59240 -2.88246 -2.04288
H 8.69176 -4.26846 -1.08124
H 11.88039 -5.21452 0.04756
H 11.75996 -4.84723 1.75799
H 13.32974 -3.66446 -0.41433
H 13.89834 -4.10337 1.23759
H 12.96577 -2.57147 0.92468
H 10.61793 -1.79978 6.56703
H 10.30374 -2.94619 5.22418
H 8.93093 -1.97355 5.88873
H 8.66300 3.13641 5.54069
H 10.38386 6.09371 8.16288
H 10.73476 6.81811 6.46698
H 11.79366 5.68232 7.33930
