158

Mg 0.00000 0.00000 0.00000
C -0.21700 -2.21800 2.80100
C -1.25500 2.44200 2.02600
C -0.24500 1.85000 -2.56400
C 0.14600 -2.82400 -2.03700
N -0.61700 -0.00900 2.12600
C -0.59400 -0.90800 3.10500
C -0.93600 -0.30900 4.50200
C -1.77300 0.96400 4.03200
C -1.15500 1.16800 2.66000
C -3.26300 0.68500 3.86300
C 0.34500 0.11000 5.29900
C 0.12400 0.39700 6.78700
H 1.16800 0.03300 7.73300
N -0.18500 1.96100 -0.15200
C -0.70300 2.80000 0.77700
C -0.62000 4.15600 0.19300
C -0.18700 4.01500 -1.22500
C -0.21400 2.58300 -1.38000
C -0.88700 5.40600 0.97400
C 0.18100 5.01300 -2.27700
O 0.30300 4.69000 -3.50800
C 0.31000 6.41400 -1.83700
N -0.26500 -0.41300 -2.02900
C -0.27900 0.56900 -2.93700
C -0.19600 0.02400 -4.33200
C 0.12400 -1.53300 -4.18000
C 0.08600 -1.63200 -2.63500
C -1.45100 0.20500 -5.19700
C 1.37300 -2.07000 -4.92300
C 2.62600 -1.49000 -4.30600
N 0.15000 -2.14400 0.30300
C 0.17300 -3.13600 -0.68800
C 0.17300 -4.43800 0.00400
C 0.13300 -4.11100 1.35800
C 0.08300 -2.69500 1.50200
C 0.14900 -5.71500 -0.62300
C 0.09600 -4.62900 2.71600
O 0.20800 -5.74700 3.22100
C -0.25500 -3.42800 3.70100
C 0.71700 -3.48200 4.84800
O 1.93100 -3.25500 4.66900
O 0.03800 -3.55600 6.00300
C 0.94300 -3.58300 7.18300
H -1.85900 3.22000 2.49700
H -0.21800 2.45300 -3.47400
H 0.27600 -3.74700 -2.60500
H -1.55400 -0.94900 5.13200
H -1.58500 1.83100 4.66500
H -3.48400 -0.37700 3.96900
H -3.51100 1.02700 2.85800
H -3.85200 1.30100 4.54300
H 0.66900 1.09600 4.96600
H 1.13000 -0.63900 5.18900
H -0.84400 0.02600 7.12500
H 0.06200 1.47700 6.92100
H -1.34400 5.18600 1.93800
H -1.65100 5.96300 0.43200
H 0.00700 6.02000 1.08400
H -0.63500 6.74400 -1.40500
H 0.66500 6.97000 -2.70400
H 1.04800 6.46600 -1.03600
H 0.60800 0.50100 -4.89100
H -0.69200 -2.15600 -4.54700
H -1.26700 0.74000 -6.12900
H -2.20400 0.71400 -4.59600
H -1.96700 -0.72000 -5.45300
H 1.35600 -1.75900 -5.96700
H 1.45200 -3.15700 -4.90200
H 2.71400 -0.52200 -4.79800
H 3.48700 -2.12100 -4.52900
H 2.49500 -1.30300 -3.24000
H 0.86700 -6.33300 -0.08400
H 0.40400 -5.64200 -1.68000
H -0.89100 -5.99900 -0.46300
H -1.28300 -3.58100 4.02800
H 0.69800 -4.47800 7.75500
H 0.83300 -2.61900 7.68000
H 2.00000 -3.75400 6.97600
Mg 31.54143 2.84352 2.39869
C 32.45266 0.70489 5.13273
C 31.36544 5.39870 4.65139
C 30.30397 4.65038 0.10274
C 30.68492 -0.02816 0.61949
N 31.88737 2.91764 4.58206
C 32.28950 2.05582 5.50396
C 32.60780 2.69181 6.88373
C 31.69429 4.00664 6.75894
C 31.67109 4.14471 5.23806
C 30.26857 3.79691 7.24130
C 34.12556 3.05926 7.03668
C 34.56498 3.39654 8.46318
H 35.90377 3.00031 8.89112
N 31.39279 4.81749 2.25747
C 31.35870 5.70567 3.27297
C 31.22134 7.02914 2.64548
C 31.01145 6.83624 1.18485
C 30.87074 5.39508 1.12682
C 31.37261 8.31194 3.41030
C 30.93551 7.79192 0.03285
O 30.50906 7.42554 -1.11899
C 31.28660 9.19094 0.31741
N 30.42977 2.39853 0.69912
C 30.06283 3.36576 -0.15980
C 29.51528 2.78000 -1.43943
C 29.81645 1.21152 -1.35732
C 30.43317 1.14597 0.05716
C 28.02280 2.99915 -1.68616
C 30.60675 0.58388 -2.53806
C 32.02291 1.11280 -2.55029
N 31.72502 0.71243 2.70331
C 31.27699 -0.31390 1.84309
C 31.52256 -1.59749 2.53195
C 32.07968 -1.22484 3.76452
C 32.15599 0.19181 3.84685
C 31.19259 -2.88773 2.02943
C 32.61077 -1.70739 5.01903
O 32.87620 -2.81646 5.48080
C 32.75908 -0.47540 6.01230
C 34.12445 -0.54610 6.63942
O 35.14669 -0.40182 5.94602
O 33.99435 -0.55459 7.97859
C 35.32228 -0.61288 8.64570
H 31.06046 6.21662 5.30475
H 29.96241 5.22250 -0.76299
H 30.53595 -0.97233 0.09127
H 32.29675 2.10266 7.73809
H 32.17766 4.86795 7.21267
H 30.07184 2.76208 7.47915
H 29.63221 4.12631 6.43038
H 30.05350 4.46213 8.08246
H 34.31094 4.02526 6.54962
H 34.74791 2.28004 6.64156
H 33.81826 3.09329 9.20708
H 34.61630 4.48350 8.56263
H 31.35741 8.13868 4.49342
H 30.47331 8.90696 3.21777
H 32.24891 8.88576 3.10126
H 30.63247 9.57624 1.09595
H 31.25871 9.70126 -0.64730
H 32.30561 9.22117 0.71906
H 30.02511 3.19104 -2.30211
H 28.88979 0.61990 -1.32384
H 27.80916 3.51015 -2.64392
H 27.61878 3.56305 -0.85591
H 27.41461 2.09636 -1.67001
H 30.15844 0.87511 -3.49114
H 30.63288 -0.50039 -2.51242
H 31.92514 2.06776 -3.07524
H 32.68117 0.43280 -3.08725
H 32.37083 1.32962 -1.53363
H 32.03858 -3.52894 2.23836
H 30.97093 -2.85499 0.96474
H 30.30413 -3.10845 2.62708
H 31.96332 -0.55489 6.75394
H 35.30747 -1.48127 9.31156
H 35.46492 0.37892 9.11445
H 36.18434 -0.83497 8.02765
