158

Mg 0.00000 0.00000 0.00000
C -0.21700 -2.21800 2.80100
C -1.25500 2.44200 2.02600
C -0.24500 1.85000 -2.56400
C 0.14600 -2.82400 -2.03700
N -0.61700 -0.00900 2.12600
C -0.59400 -0.90800 3.10500
C -0.93600 -0.30900 4.50200
C -1.77300 0.96400 4.03200
C -1.15500 1.16800 2.66000
C -3.26300 0.68500 3.86300
C 0.34500 0.11000 5.29900
C 0.12400 0.39700 6.78700
H 1.16800 0.03300 7.73300
N -0.18500 1.96100 -0.15200
C -0.70300 2.80000 0.77700
C -0.62000 4.15600 0.19300
C -0.18700 4.01500 -1.22500
C -0.21400 2.58300 -1.38000
C -0.88700 5.40600 0.97400
C 0.18100 5.01300 -2.27700
O 0.30300 4.69000 -3.50800
C 0.31000 6.41400 -1.83700
N -0.26500 -0.41300 -2.02900
C -0.27900 0.56900 -2.93700
C -0.19600 0.02400 -4.33200
C 0.12400 -1.53300 -4.18000
C 0.08600 -1.63200 -2.63500
C -1.45100 0.20500 -5.19700
C 1.37300 -2.07000 -4.92300
C 2.62600 -1.49000 -4.30600
N 0.15000 -2.14400 0.30300
C 0.17300 -3.13600 -0.68800
C 0.17300 -4.43800 0.00400
C 0.13300 -4.11100 1.35800
C 0.08300 -2.69500 1.50200
C 0.14900 -5.71500 -0.62300
C 0.09600 -4.62900 2.71600
O 0.20800 -5.74700 3.22100
C -0.25500 -3.42800 3.70100
C 0.71700 -3.48200 4.84800
O 1.93100 -3.25500 4.66900
O 0.03800 -3.55600 6.00300
C 0.94300 -3.58300 7.18300
H -1.85900 3.22000 2.49700
H -0.21800 2.45300 -3.47400
H 0.27600 -3.74700 -2.60500
H -1.55400 -0.94900 5.13200
H -1.58500 1.83100 4.66500
H -3.48400 -0.37700 3.96900
H -3.51100 1.02700 2.85800
H -3.85200 1.30100 4.54300
H 0.66900 1.09600 4.96600
H 1.13000 -0.63900 5.18900
H -0.84400 0.02600 7.12500
H 0.06200 1.47700 6.92100
H -1.34400 5.18600 1.93800
H -1.65100 5.96300 0.43200
H 0.00700 6.02000 1.08400
H -0.63500 6.74400 -1.40500
H 0.66500 6.97000 -2.70400
H 1.04800 6.46600 -1.03600
H 0.60800 0.50100 -4.89100
H -0.69200 -2.15600 -4.54700
H -1.26700 0.74000 -6.12900
H -2.20400 0.71400 -4.59600
H -1.96700 -0.72000 -5.45300
H 1.35600 -1.75900 -5.96700
H 1.45200 -3.15700 -4.90200
H 2.71400 -0.52200 -4.79800
H 3.48700 -2.12100 -4.52900
H 2.49500 -1.30300 -3.24000
H 0.86700 -6.33300 -0.08400
H 0.40400 -5.64200 -1.68000
H -0.89100 -5.99900 -0.46300
H -1.28300 -3.58100 4.02800
H 0.69800 -4.47800 7.75500
H 0.83300 -2.61900 7.68000
H 2.00000 -3.75400 6.97600
Mg 31.54037 2.83909 2.38817
C 31.13432 6.15341 1.07309
C 31.00181 1.67948 -0.77408
C 31.44458 -0.09676 3.58778
C 30.91170 4.16601 5.54883
N 31.13263 3.88029 0.47980
C 31.06240 5.14429 0.09027
C 30.98686 5.34009 -1.44776
C 30.38097 3.90642 -1.84321
C 30.89602 3.08874 -0.66050
C 28.86190 3.86908 -1.82429
C 32.39999 5.56397 -2.09193
C 32.37564 6.06762 -3.53674
H 33.41326 7.00120 -3.96599
N 31.75040 1.07933 1.49503
C 31.50953 0.79074 0.19889
C 31.79596 -0.64412 0.04624
C 32.06693 -1.21433 1.39389
C 31.73684 -0.07893 2.23175
C 31.87217 -1.32085 -1.29154
C 32.53229 -2.56286 1.85336
O 32.47114 -2.91270 3.08490
C 32.97449 -3.49556 0.80645
N 31.01681 2.09641 4.25811
C 31.11439 0.78379 4.53273
C 30.95077 0.52213 6.01096
C 30.96405 1.96226 6.70623
C 31.04714 2.85102 5.44583
C 29.68210 -0.22729 6.41746
C 32.00264 2.18728 7.83910
C 33.40198 2.16982 7.26733
N 31.28352 4.81551 3.22235
C 31.00313 5.14408 4.56679
C 30.80242 6.60654 4.62480
C 30.95847 7.02773 3.29561
C 31.21680 5.90436 2.46446
C 30.47024 7.35509 5.78903
C 30.95287 8.16590 2.40498
O 30.87412 9.38471 2.55343
C 30.94115 7.63518 0.90679
C 31.98543 8.39578 0.13641
O 33.19151 8.26878 0.41184
O 31.40937 8.97550 -0.93244
C 32.40721 9.73263 -1.73425
H 30.62153 1.20179 -1.67745
H 31.50796 -1.07451 4.07096
H 30.80890 4.66853 6.51298
H 30.31886 6.12860 -1.77303
H 30.80688 3.54071 -2.77392
H 28.44127 4.78305 -1.43203
H 28.59609 3.02971 -1.19513
H 28.47821 3.63219 -2.82079
H 32.88410 4.59016 -2.24055
H 32.99326 6.22379 -1.48919
H 31.38407 6.43429 -3.82879
H 32.55484 5.22008 -4.20275
H 31.46453 -0.68552 -2.08752
H 31.19299 -2.17947 -1.25469
H 32.87776 -1.67555 -1.52747
H 32.16184 -3.66049 0.10299
H 33.35324 -4.37161 1.33652
H 33.78899 -3.02764 0.24231
H 31.77907 -0.06092 6.39449
H 30.00242 2.19057 7.18891
H 29.88614 -1.15716 6.98118
H 29.11127 -0.44188 5.52379
H 28.97470 0.34996 7.01038
H 31.95380 1.37197 8.56507
H 31.85333 3.11329 8.38427
H 33.63438 1.10189 7.21624
H 34.09177 2.69277 7.92669
H 33.41331 2.55902 6.24261
H 31.08734 8.24362 5.77447
H 30.63037 6.77369 6.69463
H 29.40921 7.54286 5.60403
H 29.93885 7.79888 0.50908
H 32.03569 10.75839 -1.82061
H 32.53153 9.16118 -2.67326
H 33.38332 9.89766 -1.29329
