158

Mg 0.00000 0.00000 0.00000
C -0.21700 -2.21800 2.80100
C -1.25500 2.44200 2.02600
C -0.24500 1.85000 -2.56400
C 0.14600 -2.82400 -2.03700
N -0.61700 -0.00900 2.12600
C -0.59400 -0.90800 3.10500
C -0.93600 -0.30900 4.50200
C -1.77300 0.96400 4.03200
C -1.15500 1.16800 2.66000
C -3.26300 0.68500 3.86300
C 0.34500 0.11000 5.29900
C 0.12400 0.39700 6.78700
H 1.16800 0.03300 7.73300
N -0.18500 1.96100 -0.15200
C -0.70300 2.80000 0.77700
C -0.62000 4.15600 0.19300
C -0.18700 4.01500 -1.22500
C -0.21400 2.58300 -1.38000
C -0.88700 5.40600 0.97400
C 0.18100 5.01300 -2.27700
O 0.30300 4.69000 -3.50800
C 0.31000 6.41400 -1.83700
N -0.26500 -0.41300 -2.02900
C -0.27900 0.56900 -2.93700
C -0.19600 0.02400 -4.33200
C 0.12400 -1.53300 -4.18000
C 0.08600 -1.63200 -2.63500
C -1.45100 0.20500 -5.19700
C 1.37300 -2.07000 -4.92300
C 2.62600 -1.49000 -4.30600
N 0.15000 -2.14400 0.30300
C 0.17300 -3.13600 -0.68800
C 0.17300 -4.43800 0.00400
C 0.13300 -4.11100 1.35800
C 0.08300 -2.69500 1.50200
C 0.14900 -5.71500 -0.62300
C 0.09600 -4.62900 2.71600
O 0.20800 -5.74700 3.22100
C -0.25500 -3.42800 3.70100
C 0.71700 -3.48200 4.84800
O 1.93100 -3.25500 4.66900
O 0.03800 -3.55600 6.00300
C 0.94300 -3.58300 7.18300
H -1.85900 3.22000 2.49700
H -0.21800 2.45300 -3.47400
H 0.27600 -3.74700 -2.60500
H -1.55400 -0.94900 5.13200
H -1.58500 1.83100 4.66500
H -3.48400 -0.37700 3.96900
H -3.51100 1.02700 2.85800
H -3.85200 1.30100 4.54300
H 0.66900 1.09600 4.96600
H 1.13000 -0.63900 5.18900
H -0.84400 0.02600 7.12500
H 0.06200 1.47700 6.92100
H -1.34400 5.18600 1.93800
H -1.65100 5.96300 0.43200
H 0.00700 6.02000 1.08400
H -0.63500 6.74400 -1.40500
H 0.66500 6.97000 -2.70400
H 1.04800 6.46600 -1.03600
H 0.60800 0.50100 -4.89100
H -0.69200 -2.15600 -4.54700
H -1.26700 0.74000 -6.12900
H -2.20400 0.71400 -4.59600
H -1.96700 -0.72000 -5.45300
H 1.35600 -1.75900 -5.96700
H 1.45200 -3.15700 -4.90200
H 2.71400 -0.52200 -4.79800
H 3.48700 -2.12100 -4.52900
H 2.49500 -1.30300 -3.24000
H 0.86700 -6.33300 -0.08400
H 0.40400 -5.64200 -1.68000
H -0.89100 -5.99900 -0.46300
H -1.28300 -3.58100 4.02800
H 0.69800 -4.47800 7.75500
H 0.83300 -2.61900 7.68000
H 2.00000 -3.75400 6.97600
Mg 13.14467 1.18607 0.99002
C 15.91903 -1.06950 1.29733
C 15.36072 3.73783 1.45069
C 10.67301 3.16709 1.17405
C 11.05282 -1.51132 1.69287
N 15.33163 1.20503 1.32033
C 16.28890 0.29033 1.35642
C 17.72960 0.86770 1.38094
C 17.39916 2.31248 1.99923
C 15.95065 2.45139 1.53534
C 17.41841 2.33561 3.51858
C 18.35071 0.98585 -0.05512
C 19.85792 1.24892 -0.08425
H 20.64985 0.64242 -1.15077
N 13.06120 3.15808 0.78321
C 14.06102 4.04088 0.98888
C 13.48634 5.36873 0.72294
C 12.02284 5.21112 0.50376
C 11.85521 3.81144 0.83974
C 14.32251 6.61093 0.61722
C 10.94938 6.16573 0.07643
O 9.70620 5.87204 0.18172
C 11.39412 7.49008 -0.38160
N 11.16952 0.92482 1.58403
C 10.28795 1.93794 1.51790
C 8.87592 1.44716 1.73168
C 8.96878 -0.14930 1.71478
C 10.49845 -0.31237 1.57728
C 8.20161 1.90380 3.02520
C 8.05226 -0.89695 0.70796
C 8.49329 -0.60319 -0.70787
N 13.38665 -0.94654 1.23802
C 12.38261 -1.88787 1.55407
C 13.05029 -3.19376 1.73094
C 14.41005 -2.91487 1.52654
C 14.58023 -1.52898 1.26227
C 12.40966 -4.41431 2.08585
C 15.74133 -3.47580 1.48474
O 16.20724 -4.61283 1.54677
C 16.79167 -2.28311 1.45938
C 17.79708 -2.57249 0.37867
O 17.45203 -2.59534 -0.81591
O 19.03263 -2.55893 0.91121
C 20.06543 -2.83000 -0.12401
H 15.93062 4.59468 1.81113
H 9.77343 3.78615 1.14271
H 10.45909 -2.41952 1.81665
H 18.42076 0.33700 2.02470
H 18.01877 3.08496 1.55119
H 17.53535 1.34619 3.93513
H 16.47036 2.76268 3.81832
H 18.18684 3.02740 3.87535
H 17.98971 1.90900 -0.52653
H 18.12429 0.11623 -0.64089
H 20.32642 1.07052 0.89127
H 20.02086 2.31348 -0.26915
H 15.34089 6.44316 0.98891
H 13.89690 7.34297 1.31209
H 14.32030 7.03580 -0.38884
H 11.95693 7.97633 0.41166
H 10.49186 7.99753 -0.72843
H 12.08529 7.35598 -1.22119
H 8.22813 1.77004 0.92594
H 8.69254 -0.58382 2.68675
H 7.25000 2.44186 2.85494
H 8.89775 2.52604 3.57177
H 7.98978 1.11084 3.74042
H 7.02368 -0.53796 0.79344
H 8.03192 -1.97124 0.85787
H 8.01030 0.35467 -0.92308
H 8.14745 -1.38077 -1.38596
H 9.57681 -0.44455 -0.75767
H 12.83256 -5.18333 1.45319
H 11.33059 -4.34704 1.96396
H 12.70016 -4.48853 3.13721
H 17.25409 -2.23278 2.44590
H 20.65286 -3.68417 0.22672
H 20.60294 -1.87381 -0.26731
H 19.72605 -3.18856 -1.08874
