158

Mg 0.00000 0.00000 0.00000
C -0.21700 -2.21800 2.80100
C -1.25500 2.44200 2.02600
C -0.24500 1.85000 -2.56400
C 0.14600 -2.82400 -2.03700
N -0.61700 -0.00900 2.12600
C -0.59400 -0.90800 3.10500
C -0.93600 -0.30900 4.50200
C -1.77300 0.96400 4.03200
C -1.15500 1.16800 2.66000
C -3.26300 0.68500 3.86300
C 0.34500 0.11000 5.29900
C 0.12400 0.39700 6.78700
H 1.16800 0.03300 7.73300
N -0.18500 1.96100 -0.15200
C -0.70300 2.80000 0.77700
C -0.62000 4.15600 0.19300
C -0.18700 4.01500 -1.22500
C -0.21400 2.58300 -1.38000
C -0.88700 5.40600 0.97400
C 0.18100 5.01300 -2.27700
O 0.30300 4.69000 -3.50800
C 0.31000 6.41400 -1.83700
N -0.26500 -0.41300 -2.02900
C -0.27900 0.56900 -2.93700
C -0.19600 0.02400 -4.33200
C 0.12400 -1.53300 -4.18000
C 0.08600 -1.63200 -2.63500
C -1.45100 0.20500 -5.19700
C 1.37300 -2.07000 -4.92300
C 2.62600 -1.49000 -4.30600
N 0.15000 -2.14400 0.30300
C 0.17300 -3.13600 -0.68800
C 0.17300 -4.43800 0.00400
C 0.13300 -4.11100 1.35800
C 0.08300 -2.69500 1.50200
C 0.14900 -5.71500 -0.62300
C 0.09600 -4.62900 2.71600
O 0.20800 -5.74700 3.22100
C -0.25500 -3.42800 3.70100
C 0.71700 -3.48200 4.84800
O 1.93100 -3.25500 4.66900
O 0.03800 -3.55600 6.00300
C 0.94300 -3.58300 7.18300
H -1.85900 3.22000 2.49700
H -0.21800 2.45300 -3.47400
H 0.27600 -3.74700 -2.60500
H -1.55400 -0.94900 5.13200
H -1.58500 1.83100 4.66500
H -3.48400 -0.37700 3.96900
H -3.51100 1.02700 2.85800
H -3.85200 1.30100 4.54300
H 0.66900 1.09600 4.96600
H 1.13000 -0.63900 5.18900
H -0.84400 0.02600 7.12500
H 0.06200 1.47700 6.92100
H -1.34400 5.18600 1.93800
H -1.65100 5.96300 0.43200
H 0.00700 6.02000 1.08400
H -0.63500 6.74400 -1.40500
H 0.66500 6.97000 -2.70400
H 1.04800 6.46600 -1.03600
H 0.60800 0.50100 -4.89100
H -0.69200 -2.15600 -4.54700
H -1.26700 0.74000 -6.12900
H -2.20400 0.71400 -4.59600
H -1.96700 -0.72000 -5.45300
H 1.35600 -1.75900 -5.96700
H 1.45200 -3.15700 -4.90200
H 2.71400 -0.52200 -4.79800
H 3.48700 -2.12100 -4.52900
H 2.49500 -1.30300 -3.24000
H 0.86700 -6.33300 -0.08400
H 0.40400 -5.64200 -1.68000
H -0.89100 -5.99900 -0.46300
H -1.28300 -3.58100 4.02800
H 0.69800 -4.47800 7.75500
H 0.83300 -2.61900 7.68000
H 2.00000 -3.75400 6.97600
Mg 7.89112 0.71453 0.60386
C 8.32137 -1.45297 3.43156
C 7.23951 3.22656 2.81740
C 7.06580 2.53650 -1.85920
C 7.44711 -2.14202 -1.34258
N 7.82021 0.75762 2.81415
C 8.06158 -0.11206 3.78356
C 8.10156 0.50605 5.20690
C 7.19860 1.80494 4.93046
C 7.45765 1.96877 3.43422
C 5.71278 1.55938 5.13388
C 9.55526 0.90008 5.64682
C 9.71208 1.22111 7.13481
H 10.95547 0.84351 7.80104
N 7.72773 2.68740 0.46359
C 7.48428 3.55709 1.46641
C 7.43751 4.88829 0.84200
C 7.50928 4.71662 -0.63452
C 7.41401 3.27423 -0.73713
C 7.41428 6.16038 1.63866
C 7.62926 5.69040 -1.76745
O 7.43437 5.33579 -2.98364
C 7.88964 7.09083 -1.40344
N 7.12768 0.27754 -1.27990
C 6.90672 1.25219 -2.17943
C 6.62173 0.67813 -3.54678
C 6.93697 -0.88542 -3.43053
C 7.27911 -0.96345 -1.92646
C 5.19739 0.87261 -4.06623
C 7.94822 -1.47718 -4.45027
C 9.32948 -0.92085 -4.18949
N 8.06172 -1.41755 0.90908
C 7.80569 -2.43735 -0.03354
C 7.94634 -3.72765 0.67198
C 8.25429 -3.36564 1.99206
C 8.28231 -1.94941 2.10613
C 7.74510 -5.01516 0.09932
C 8.55157 -3.85941 3.31739
O 8.75039 -4.97096 3.80594
C 8.48376 -2.64212 4.33719
C 9.70872 -2.69723 5.20837
O 10.83930 -2.52127 4.72109
O 9.33029 -2.73135 6.49911
C 10.51071 -2.77547 7.40270
H 6.79943 4.02703 3.41277
H 6.87983 3.11678 -2.76594
H 7.42074 -3.07964 -1.90192
H 7.64915 -0.10367 5.97979
H 7.56915 2.66747 5.47827
H 5.49804 0.51699 5.31677
H 5.23243 1.89037 4.22242
H 5.32922 2.20569 5.92854
H 9.80707 1.87775 5.21613
H 10.25777 0.13997 5.36515
H 8.84615 0.89068 7.72127
H 9.71968 2.30698 7.25661
H 7.20031 5.96819 2.69728
H 6.55396 6.74114 1.28874
H 8.31998 6.75629 1.50722
H 7.09285 7.44991 -0.75641
H 8.03162 7.61709 -2.34935
H 8.81445 7.13381 -0.81735
H 7.27487 1.11379 -4.29291
H 6.03383 -1.49534 -3.57942
H 5.15563 1.39585 -5.04017
H 4.63256 1.41418 -3.31910
H 4.61715 -0.04191 -4.17654
H 7.68001 -1.17826 -5.46657
H 7.99317 -2.56103 -4.43464
H 9.31057 0.04096 -4.71068
H 10.09163 -1.57862 -4.60242
H 9.47590 -0.71493 -3.12281
H 8.55102 -5.64341 0.45471
H 7.72614 -4.96834 -0.98752
H 6.76554 -5.26330 0.51664
H 7.56514 -2.74978 4.91521
H 10.39073 -3.65535 8.04232
H 10.54093 -1.78934 7.90308
H 11.47800 -2.97015 6.95449
