158

Mg 0.00000 0.00000 0.00000
C -0.21700 -2.21800 2.80100
C -1.25500 2.44200 2.02600
C -0.24500 1.85000 -2.56400
C 0.14600 -2.82400 -2.03700
N -0.61700 -0.00900 2.12600
C -0.59400 -0.90800 3.10500
C -0.93600 -0.30900 4.50200
C -1.77300 0.96400 4.03200
C -1.15500 1.16800 2.66000
C -3.26300 0.68500 3.86300
C 0.34500 0.11000 5.29900
C 0.12400 0.39700 6.78700
H 1.16800 0.03300 7.73300
N -0.18500 1.96100 -0.15200
C -0.70300 2.80000 0.77700
C -0.62000 4.15600 0.19300
C -0.18700 4.01500 -1.22500
C -0.21400 2.58300 -1.38000
C -0.88700 5.40600 0.97400
C 0.18100 5.01300 -2.27700
O 0.30300 4.69000 -3.50800
C 0.31000 6.41400 -1.83700
N -0.26500 -0.41300 -2.02900
C -0.27900 0.56900 -2.93700
C -0.19600 0.02400 -4.33200
C 0.12400 -1.53300 -4.18000
C 0.08600 -1.63200 -2.63500
C -1.45100 0.20500 -5.19700
C 1.37300 -2.07000 -4.92300
C 2.62600 -1.49000 -4.30600
N 0.15000 -2.14400 0.30300
C 0.17300 -3.13600 -0.68800
C 0.17300 -4.43800 0.00400
C 0.13300 -4.11100 1.35800
C 0.08300 -2.69500 1.50200
C 0.14900 -5.71500 -0.62300
C 0.09600 -4.62900 2.71600
O 0.20800 -5.74700 3.22100
C -0.25500 -3.42800 3.70100
C 0.71700 -3.48200 4.84800
O 1.93100 -3.25500 4.66900
O 0.03800 -3.55600 6.00300
C 0.94300 -3.58300 7.18300
H -1.85900 3.22000 2.49700
H -0.21800 2.45300 -3.47400
H 0.27600 -3.74700 -2.60500
H -1.55400 -0.94900 5.13200
H -1.58500 1.83100 4.66500
H -3.48400 -0.37700 3.96900
H -3.51100 1.02700 2.85800
H -3.85200 1.30100 4.54300
H 0.66900 1.09600 4.96600
H 1.13000 -0.63900 5.18900
H -0.84400 0.02600 7.12500
H 0.06200 1.47700 6.92100
H -1.34400 5.18600 1.93800
H -1.65100 5.96300 0.43200
H 0.00700 6.02000 1.08400
H -0.63500 6.74400 -1.40500
H 0.66500 6.97000 -2.70400
H 1.04800 6.46600 -1.03600
H 0.60800 0.50100 -4.89100
H -0.69200 -2.15600 -4.54700
H -1.26700 0.74000 -6.12900
H -2.20400 0.71400 -4.59600
H -1.96700 -0.72000 -5.45300
H 1.35600 -1.75900 -5.96700
H 1.45200 -3.15700 -4.90200
H 2.71400 -0.52200 -4.79800
H 3.48700 -2.12100 -4.52900
H 2.49500 -1.30300 -3.24000
H 0.86700 -6.33300 -0.08400
H 0.40400 -5.64200 -1.68000
H -0.89100 -5.99900 -0.46300
H -1.28300 -3.58100 4.02800
H 0.69800 -4.47800 7.75500
H 0.83300 -2.61900 7.68000
H 2.00000 -3.75400 6.97600
Mg 31.52336 2.84213 2.39941
C 29.39062 0.06493 1.61347
C 29.43252 4.78425 0.53094
C 33.61614 5.20830 2.69760
C 33.99983 0.53024 3.21668
N 29.68199 2.37038 1.26844
C 28.93207 1.29287 1.09258
C 27.57725 1.56083 0.38390
C 27.97380 2.91057 -0.39058
C 29.07531 3.41224 0.54091
C 28.58318 2.66163 -1.76026
C 26.40828 1.80489 1.40173
C 25.00553 1.76606 0.79137
H 23.91458 1.21250 1.58879
N 31.29731 4.79677 2.14087
C 30.38246 5.41446 1.36447
C 30.64626 6.85531 1.50063
C 31.89512 7.03092 2.29071
C 32.33894 5.65508 2.39151
C 29.71098 7.90674 0.97797
C 32.58362 8.23873 2.85050
O 33.78269 8.18248 3.29984
C 31.84712 9.50869 2.77148
N 33.58271 2.87570 2.68277
C 34.24101 4.03846 2.83297
C 35.65916 3.80639 3.29709
C 35.74297 2.25145 3.66138
C 34.32167 1.81630 3.24190
C 36.75425 4.15224 2.28835
C 36.23591 1.88865 5.08898
C 35.21883 2.33406 6.11491
N 31.64082 0.69406 2.59957
C 32.78198 -0.07108 2.92576
C 32.39484 -1.49344 2.82850
C 31.05101 -1.45705 2.42692
C 30.63611 -0.10762 2.26443
C 33.25428 -2.60646 3.04909
C 29.89215 -2.25354 2.09322
O 29.62129 -3.45298 2.13455
C 28.80205 -1.30630 1.42929
C 27.47763 -1.59370 2.08184
O 27.29712 -1.33733 3.28529
O 26.58029 -1.91837 1.13329
C 25.24795 -2.20152 1.73038
H 28.97309 5.43458 -0.21396
H 34.34826 5.98848 2.91849
H 34.68699 -0.25014 3.55060
H 27.27745 0.79923 -0.32592
H 27.14383 3.61202 -0.41208
H 28.75833 1.61105 -1.93839
H 29.51725 3.20796 -1.77035
H 27.96091 3.11422 -2.53760
H 26.43819 2.84942 1.73761
H 26.46541 1.11407 2.22035
H 25.00579 1.32978 -0.21491
H 24.66521 2.79306 0.63815
H 28.96310 7.47840 0.29929
H 30.30325 8.57444 0.34294
H 29.24977 8.49399 1.77489
H 31.61392 9.72684 1.73201
H 32.46319 10.23730 3.30201
H 30.88951 9.39066 3.29077
H 35.87542 4.38752 4.18513
H 36.44271 1.71587 3.00308
H 37.48471 4.88904 2.67258
H 36.28352 4.51863 1.38573
H 37.32867 3.30347 1.92116
H 37.16144 2.42293 5.31723
H 36.43396 0.83026 5.22158
H 35.46129 3.39106 6.26001
H 35.33556 1.77184 7.03920
H 34.20179 2.28184 5.70925
H 32.69427 -3.32024 3.63850
H 34.17147 -2.30703 3.55197
H 33.43539 -2.92046 2.01764
H 28.78732 -1.52274 0.36041
H 24.95591 -3.20300 1.39958
H 24.59827 -1.36033 1.42371
H 25.19426 -2.31047 2.80728
