158

Mg 0.00000 0.00000 0.00000
C -0.21700 -2.21800 2.80100
C -1.25500 2.44200 2.02600
C -0.24500 1.85000 -2.56400
C 0.14600 -2.82400 -2.03700
N -0.61700 -0.00900 2.12600
C -0.59400 -0.90800 3.10500
C -0.93600 -0.30900 4.50200
C -1.77300 0.96400 4.03200
C -1.15500 1.16800 2.66000
C -3.26300 0.68500 3.86300
C 0.34500 0.11000 5.29900
C 0.12400 0.39700 6.78700
H 1.16800 0.03300 7.73300
N -0.18500 1.96100 -0.15200
C -0.70300 2.80000 0.77700
C -0.62000 4.15600 0.19300
C -0.18700 4.01500 -1.22500
C -0.21400 2.58300 -1.38000
C -0.88700 5.40600 0.97400
C 0.18100 5.01300 -2.27700
O 0.30300 4.69000 -3.50800
C 0.31000 6.41400 -1.83700
N -0.26500 -0.41300 -2.02900
C -0.27900 0.56900 -2.93700
C -0.19600 0.02400 -4.33200
C 0.12400 -1.53300 -4.18000
C 0.08600 -1.63200 -2.63500
C -1.45100 0.20500 -5.19700
C 1.37300 -2.07000 -4.92300
C 2.62600 -1.49000 -4.30600
N 0.15000 -2.14400 0.30300
C 0.17300 -3.13600 -0.68800
C 0.17300 -4.43800 0.00400
C 0.13300 -4.11100 1.35800
C 0.08300 -2.69500 1.50200
C 0.14900 -5.71500 -0.62300
C 0.09600 -4.62900 2.71600
O 0.20800 -5.74700 3.22100
C -0.25500 -3.42800 3.70100
C 0.71700 -3.48200 4.84800
O 1.93100 -3.25500 4.66900
O 0.03800 -3.55600 6.00300
C 0.94300 -3.58300 7.18300
H -1.85900 3.22000 2.49700
H -0.21800 2.45300 -3.47400
H 0.27600 -3.74700 -2.60500
H -1.55400 -0.94900 5.13200
H -1.58500 1.83100 4.66500
H -3.48400 -0.37700 3.96900
H -3.51100 1.02700 2.85800
H -3.85200 1.30100 4.54300
H 0.66900 1.09600 4.96600
H 1.13000 -0.63900 5.18900
H -0.84400 0.02600 7.12500
H 0.06200 1.47700 6.92100
H -1.34400 5.18600 1.93800
H -1.65100 5.96300 0.43200
H 0.00700 6.02000 1.08400
H -0.63500 6.74400 -1.40500
H 0.66500 6.97000 -2.70400
H 1.04800 6.46600 -1.03600
H 0.60800 0.50100 -4.89100
H -0.69200 -2.15600 -4.54700
H -1.26700 0.74000 -6.12900
H -2.20400 0.71400 -4.59600
H -1.96700 -0.72000 -5.45300
H 1.35600 -1.75900 -5.96700
H 1.45200 -3.15700 -4.90200
H 2.71400 -0.52200 -4.79800
H 3.48700 -2.12100 -4.52900
H 2.49500 -1.30300 -3.24000
H 0.86700 -6.33300 -0.08400
H 0.40400 -5.64200 -1.68000
H -0.89100 -5.99900 -0.46300
H -1.28300 -3.58100 4.02800
H 0.69800 -4.47800 7.75500
H 0.83300 -2.61900 7.68000
H 2.00000 -3.75400 6.97600
Mg 15.76628 1.41940 1.19766
C 15.85555 1.17509 -2.37229
C 15.18256 -1.94183 1.26441
C 15.23264 1.68385 4.31245
C 15.22541 4.83950 0.80265
N 15.56782 -0.08346 -0.41561
C 15.68255 -0.05805 -1.73976
C 15.67737 -1.47494 -2.38765
C 14.90413 -2.27202 -1.24364
C 15.26752 -1.40198 -0.05330
C 13.38834 -2.26392 -1.41341
C 17.12336 -2.03679 -2.60018
C 17.22096 -3.25987 -3.51664
H 18.38203 -3.39466 -4.38331
N 15.76202 0.04618 2.61791
C 15.52107 -1.27796 2.46339
C 15.63284 -1.87274 3.81262
C 15.77078 -0.75844 4.79110
C 15.56503 0.38407 3.93804
C 15.65173 -3.34966 4.06179
C 16.03417 -0.72851 6.26347
O 15.88510 0.33341 6.95965
C 16.39050 -2.01279 6.89332
N 15.07810 2.98673 2.39245
C 14.99436 2.85629 3.72097
C 14.75276 4.17923 4.38535
C 14.93108 5.28471 3.24699
C 15.17776 4.34441 2.04147
C 13.38200 4.35185 5.05411
C 15.95259 6.41707 3.52028
C 17.35383 5.84881 3.54663
N 15.74597 2.82105 -0.45945
C 15.47592 4.19580 -0.39767
C 15.47139 4.69788 -1.78402
C 15.72434 3.56986 -2.56212
C 15.85116 2.43040 -1.71723
C 15.19493 6.03465 -2.18532
C 15.89254 3.05782 -3.91244
O 15.98098 3.56995 -5.02930
C 15.86315 1.46680 -3.85228
C 17.02465 0.95978 -4.66295
O 18.19933 1.15940 -4.29196
O 16.57400 0.12329 -5.61044
C 17.67921 -0.43869 -6.43194
H 14.76409 -2.94113 1.39944
H 15.14887 1.84029 5.38993
H 15.14756 5.91063 0.60750
H 15.12708 -1.54353 -3.32621
H 15.29890 -3.27919 -1.11140
H 13.08164 -1.60158 -2.22283
H 12.99073 -1.91127 -0.46155
H 13.00734 -3.27760 -1.54018
H 17.47943 -2.47477 -1.66773
H 17.79027 -1.25635 -2.96824
H 16.30160 -3.40710 -4.08410
H 17.29900 -4.14957 -2.89171
H 15.36615 -3.90959 3.17214
H 14.86110 -3.56131 4.78138
H 16.60959 -3.68672 4.45832
H 15.58485 -2.72908 6.73083
H 16.63016 -1.78261 7.93083
H 17.26881 -2.42031 6.39187
H 15.48106 4.35902 5.17508
H 13.99949 5.81151 3.03892
H 13.44017 4.60456 6.11310
H 12.81468 3.43414 4.90165
H 12.73277 5.08890 4.58223
H 15.76979 6.86518 4.49636
H 15.91993 7.21456 2.77786
H 17.44739 5.47897 4.56707
H 18.08577 6.63205 3.34659
H 17.44848 4.99182 2.87947
H 15.93371 6.28341 -2.94709
H 15.25025 6.72110 -1.34074
H 14.18050 5.92479 -2.56837
H 14.90594 1.15498 -4.26899
H 17.45528 -0.20650 -7.47318
H 17.76735 -1.48951 -6.15552
H 18.65365 0.03798 -6.31977
