79

Mg 15.77528 1.42332 1.19366
C 18.19746 -0.72317 2.74436
C 17.33022 4.04058 2.73206
C 13.39917 3.28295 0.21219
C 13.77910 -1.39555 0.73001
N 17.52822 1.51938 2.53910
C 18.40626 0.64635 3.00944
C 19.61795 1.28341 3.74121
C 18.94009 2.67772 4.15988
C 17.88721 2.77821 3.05805
C 18.22536 2.62106 5.49976
C 20.84380 1.50433 2.78700
C 22.15942 1.83357 3.49588
H 23.40310 1.31932 2.92908
N 15.67644 3.39806 1.02278
C 16.39608 4.31115 1.70809
C 15.93691 5.62512 1.23183
C 14.77216 5.41616 0.32939
C 14.55294 3.99469 0.50675
C 16.64022 6.90621 1.57474
C 13.97796 6.34472 -0.53850
O 12.85864 5.99233 -1.05402
C 14.50298 7.70951 -0.69085
N 13.77880 1.04570 0.75340
C 12.97517 2.02178 0.29583
C 11.66854 1.45970 -0.21128
C 11.85924 -0.12810 -0.22208
C 13.27363 -0.21729 0.39186
C 10.42817 1.81749 0.60717
C 11.58887 -0.86028 -1.56503
C 12.63633 -0.47303 -2.58397
N 16.00315 -0.70696 1.47302
C 15.03284 -1.70630 1.24087
C 15.61476 -2.98961 1.68463
C 16.88462 -2.64169 2.16929
C 17.07247 -1.23767 2.05557
C 14.96136 -4.25385 1.65479
C 18.10476 -3.14146 2.76106
O 18.55466 -4.25894 3.01120
C 18.95992 -1.90476 3.27646
C 20.37702 -2.09263 2.80841
O 20.65070 -2.06702 1.59555
O 21.20096 -2.05387 3.87142
C 22.61899 -2.22470 3.45690
H 17.60109 4.90097 3.34463
H 12.58808 3.86329 -0.23371
H 13.25796 -2.33389 0.52849
H 19.94684 0.74974 4.62484
H 19.64829 3.49896 4.08657
H 18.19030 1.61693 5.89553
H 17.22497 2.99019 5.31537
H 18.68212 3.32556 6.20074
H 20.69596 2.43468 2.22368
H 20.98245 0.65801 2.14268
H 22.11175 1.62413 4.57143
H 22.32320 2.91249 3.43992
H 17.36301 6.76320 2.38747
H 15.88756 7.58126 1.99627
H 17.09476 7.38334 0.70388
H 14.58319 8.17691 0.28770
H 13.84824 8.19511 -1.41707
H 15.51950 7.65016 -1.09556
H 11.46862 1.79651 -1.22107
H 11.17814 -0.62510 0.48427
H 9.64346 2.32213 0.01248
H 10.73490 2.43941 1.43763
H 9.94954 0.97929 1.11070
H 10.62533 -0.55118 -1.97759
H 11.56725 -1.94088 -1.47110
H 12.25647 0.47309 -2.98102
H 12.70905 -1.22780 -3.36441
H 13.59791 -0.26522 -2.10041
H 15.68411 -4.96921 1.28547
H 14.07183 -4.22698 1.02887
H 14.71495 -4.37107 2.71347
H 18.88714 -1.88685 4.36455
H 23.01849 -3.07004 4.02566
H 23.09729 -1.23989 3.61541
H 22.80850 -2.54594 2.43938
