79

Mg 10.50128 0.94868 0.79458
C 9.91495 -1.85487 -1.36768
C 10.22597 2.94069 -1.96054
C 11.45771 3.38749 2.58480
C 11.84038 -1.29051 3.10511
N 10.11804 0.48536 -1.33396
C 9.84976 -0.61030 -2.02816
C 9.41285 -0.35147 -3.49502
C 10.10053 1.08506 -3.70084
C 10.12163 1.55633 -2.24821
C 11.53462 1.00032 -4.19636
C 7.85347 -0.26910 -3.64854
C 7.34531 -0.32713 -5.09081
H 6.08367 -1.01254 -5.35721
N 10.32684 2.90362 0.50074
C 10.20125 3.54065 -0.68235
C 10.12878 4.97452 -0.36153
C 10.38737 5.14311 1.09430
C 10.76277 3.79035 1.45373
C 9.75920 6.01762 -1.37581
C 10.32166 6.32868 2.00879
O 10.81804 6.29622 3.19006
C 9.74254 7.55807 1.44779
N 11.69391 1.06840 2.49330
C 11.90936 2.24619 3.10513
C 12.56284 2.04959 4.45224
C 12.52127 0.47417 4.72409
C 11.90430 0.00315 3.38885
C 14.00257 2.54869 4.57239
C 11.86055 0.00590 6.04955
C 10.37724 0.29599 6.01744
N 10.66471 -1.19898 0.96455
C 11.28636 -1.92766 2.00216
C 11.24473 -3.35360 1.61823
C 10.61733 -3.35333 0.36329
C 10.30913 -2.01942 -0.01776
C 11.78821 -4.43359 2.36947
C 10.15524 -4.17721 -0.73050
O 10.06857 -5.38826 -0.92947
C 9.79378 -3.23285 -1.95684
C 8.44993 -3.65283 -2.48617
O 7.42743 -3.52146 -1.79057
O 8.56132 -3.93533 -3.79696
C 7.25183 -4.34629 -4.36981
H 10.38404 3.63219 -2.78862
H 11.71286 4.18237 3.28946
H 12.14906 -2.06000 3.81594
H 9.80438 -1.05800 -4.21702
H 9.47658 1.73877 -4.30475
H 11.89474 -0.01756 -4.21561
H 12.11953 1.59562 -3.50750
H 11.62641 1.48938 -5.17038
H 7.51921 0.73913 -3.37198
H 7.37247 -1.02990 -3.06505
H 8.12134 -0.66584 -5.78795
H 7.11547 0.68950 -5.41892
H 9.78772 5.61482 -2.39578
H 10.55157 6.77377 -1.36014
H 8.80514 6.50084 -1.15462
H 10.31409 7.86019 0.57343
H 9.69975 8.26609 2.27770
H 8.72691 7.33915 1.09965
H 12.00447 2.55533 5.23042
H 13.53170 0.04234 4.77302
H 14.14281 3.28494 5.38624
H 14.29749 2.97221 3.62150
H 14.75001 1.77119 4.72078
H 12.26817 0.56627 6.89453
H 12.01184 -1.04780 6.25888
H 10.32461 1.34630 6.31940
H 9.84652 -0.34367 6.71972
H 9.98465 0.22651 4.99631
H 11.05577 -5.22947 2.34511
H 12.01607 -4.13304 3.39002
H 12.69256 -4.63844 1.79027
H 10.58159 -3.34794 -2.70228
H 7.39942 -5.32661 -4.83336
H 6.94243 -3.51686 -5.03319
H 6.44627 -4.55916 -3.67684
