158

Mg 0.00000 0.00000 0.00000
C -0.21700 -2.21800 2.80100
C -1.25500 2.44200 2.02600
C -0.24500 1.85000 -2.56400
C 0.14600 -2.82400 -2.03700
N -0.61700 -0.00900 2.12600
C -0.59400 -0.90800 3.10500
C -0.93600 -0.30900 4.50200
C -1.77300 0.96400 4.03200
C -1.15500 1.16800 2.66000
C -3.26300 0.68500 3.86300
C 0.34500 0.11000 5.29900
C 0.12400 0.39700 6.78700
H 1.16800 0.03300 7.73300
N -0.18500 1.96100 -0.15200
C -0.70300 2.80000 0.77700
C -0.62000 4.15600 0.19300
C -0.18700 4.01500 -1.22500
C -0.21400 2.58300 -1.38000
C -0.88700 5.40600 0.97400
C 0.18100 5.01300 -2.27700
O 0.30300 4.69000 -3.50800
C 0.31000 6.41400 -1.83700
N -0.26500 -0.41300 -2.02900
C -0.27900 0.56900 -2.93700
C -0.19600 0.02400 -4.33200
C 0.12400 -1.53300 -4.18000
C 0.08600 -1.63200 -2.63500
C -1.45100 0.20500 -5.19700
C 1.37300 -2.07000 -4.92300
C 2.62600 -1.49000 -4.30600
N 0.15000 -2.14400 0.30300
C 0.17300 -3.13600 -0.68800
C 0.17300 -4.43800 0.00400
C 0.13300 -4.11100 1.35800
C 0.08300 -2.69500 1.50200
C 0.14900 -5.71500 -0.62300
C 0.09600 -4.62900 2.71600
O 0.20800 -5.74700 3.22100
C -0.25500 -3.42800 3.70100
C 0.71700 -3.48200 4.84800
O 1.93100 -3.25500 4.66900
O 0.03800 -3.55600 6.00300
C 0.94300 -3.58300 7.18300
H -1.85900 3.22000 2.49700
H -0.21800 2.45300 -3.47400
H 0.27600 -3.74700 -2.60500
H -1.55400 -0.94900 5.13200
H -1.58500 1.83100 4.66500
H -3.48400 -0.37700 3.96900
H -3.51100 1.02700 2.85800
H -3.85200 1.30100 4.54300
H 0.66900 1.09600 4.96600
H 1.13000 -0.63900 5.18900
H -0.84400 0.02600 7.12500
H 0.06200 1.47700 6.92100
H -1.34400 5.18600 1.93800
H -1.65100 5.96300 0.43200
H 0.00700 6.02000 1.08400
H -0.63500 6.74400 -1.40500
H 0.66500 6.97000 -2.70400
H 1.04800 6.46600 -1.03600
H 0.60800 0.50100 -4.89100
H -0.69200 -2.15600 -4.54700
H -1.26700 0.74000 -6.12900
H -2.20400 0.71400 -4.59600
H -1.96700 -0.72000 -5.45300
H 1.35600 -1.75900 -5.96700
H 1.45200 -3.15700 -4.90200
H 2.71400 -0.52200 -4.79800
H 3.48700 -2.12100 -4.52900
H 2.49500 -1.30300 -3.24000
H 0.86700 -6.33300 -0.08400
H 0.40400 -5.64200 -1.68000
H -0.89100 -5.99900 -0.46300
H -1.28300 -3.58100 4.02800
H 0.69800 -4.47800 7.75500
H 0.83300 -2.61900 7.68000
H 2.00000 -3.75400 6.97600
Mg 15.76026 1.41405 1.20456
C 14.84836 4.03136 3.48428
C 17.20676 -0.18173 3.84950
C 16.96642 -0.68338 -0.84811
C 15.27400 3.69218 -1.38762
N 15.93848 1.95522 3.34176
C 15.49953 2.94490 4.10478
C 15.70281 2.72191 5.62744
C 16.92912 1.68744 5.55738
C 16.66235 1.08510 4.17945
C 18.28828 2.36648 5.52682
C 14.44575 2.07718 6.31019
C 14.45439 2.11524 7.83997
H 13.18573 2.30146 8.53876
N 16.47986 -0.41063 1.50671
C 17.00820 -0.89818 2.64883
C 17.40956 -2.28118 2.34818
C 17.22592 -2.51649 0.89023
C 16.89610 -1.17693 0.44650
C 17.83432 -3.25416 3.40945
C 17.34209 -3.74156 0.03472
O 17.37220 -3.66907 -1.24460
C 17.51348 -5.02000 0.74020
N 16.28078 1.54603 -0.80392
C 16.73360 0.47111 -1.47282
C 16.77985 0.73324 -2.95927
C 16.03213 2.13074 -3.17255
C 15.74903 2.49386 -1.69830
C 18.17520 0.80309 -3.57935
C 14.84894 2.14950 -4.17873
C 13.70007 1.32789 -3.63980
N 14.99512 3.42666 1.02575
C 14.90381 4.20316 -0.15018
C 14.42806 5.54357 0.24905
C 14.29656 5.46024 1.64342
C 14.68366 4.16598 2.08446
C 14.22346 6.64815 -0.62511
C 13.92843 6.17620 2.84366
O 13.43904 7.27973 3.08129
C 14.38989 5.32285 4.10272
C 13.24104 5.26654 5.07200
O 12.18897 4.67540 4.77151
O 13.65032 5.72818 6.26772
C 12.54869 5.68187 7.26575
H 17.88511 -0.65576 4.55944
H 17.27162 -1.40314 -1.61118
H 15.00375 4.42810 -2.14792
H 15.99373 3.60647 6.18124
H 16.84801 0.92588 6.32862
H 18.20084 3.43912 5.43776
H 18.80284 1.95620 4.66779
H 18.87692 2.07117 6.40011
H 14.46807 0.99169 6.14913
H 13.54195 2.52299 5.94273
H 15.21316 2.80401 8.23088
H 14.76599 1.13534 8.20972
H 18.03039 -2.74888 4.36320
H 18.80928 -3.65159 3.10716
H 17.13432 -4.08454 3.52411
H 18.40786 -4.97499 1.35706
H 17.48770 -5.78765 -0.03563
H 16.66738 -5.15933 1.42235
H 16.24789 -0.03673 -3.50448
H 16.71322 2.90215 -3.56098
H 18.32303 0.08049 -4.40401
H 18.90486 0.64171 -2.79699
H 18.46124 1.78057 -3.96397
H 15.14671 1.68537 -5.12216
H 14.49375 3.14835 -4.40921
H 13.97272 0.30683 -3.92299
H 12.76296 1.62922 -4.10355
H 13.66676 1.36854 -2.54486
H 13.28707 7.10571 -0.33474
H 14.20694 6.33332 -1.66644
H 15.10717 7.24798 -0.39159
H 15.26300 5.81667 4.53097
H 12.43777 6.69423 7.66639
H 12.82665 4.88484 7.98076
H 11.54751 5.48887 6.89854
