158

Mg 0.00000 0.00000 0.00000
C -0.21700 -2.21800 2.80100
C -1.25500 2.44200 2.02600
C -0.24500 1.85000 -2.56400
C 0.14600 -2.82400 -2.03700
N -0.61700 -0.00900 2.12600
C -0.59400 -0.90800 3.10500
C -0.93600 -0.30900 4.50200
C -1.77300 0.96400 4.03200
C -1.15500 1.16800 2.66000
C -3.26300 0.68500 3.86300
C 0.34500 0.11000 5.29900
C 0.12400 0.39700 6.78700
H 1.16800 0.03300 7.73300
N -0.18500 1.96100 -0.15200
C -0.70300 2.80000 0.77700
C -0.62000 4.15600 0.19300
C -0.18700 4.01500 -1.22500
C -0.21400 2.58300 -1.38000
C -0.88700 5.40600 0.97400
C 0.18100 5.01300 -2.27700
O 0.30300 4.69000 -3.50800
C 0.31000 6.41400 -1.83700
N -0.26500 -0.41300 -2.02900
C -0.27900 0.56900 -2.93700
C -0.19600 0.02400 -4.33200
C 0.12400 -1.53300 -4.18000
C 0.08600 -1.63200 -2.63500
C -1.45100 0.20500 -5.19700
C 1.37300 -2.07000 -4.92300
C 2.62600 -1.49000 -4.30600
N 0.15000 -2.14400 0.30300
C 0.17300 -3.13600 -0.68800
C 0.17300 -4.43800 0.00400
C 0.13300 -4.11100 1.35800
C 0.08300 -2.69500 1.50200
C 0.14900 -5.71500 -0.62300
C 0.09600 -4.62900 2.71600
O 0.20800 -5.74700 3.22100
C -0.25500 -3.42800 3.70100
C 0.71700 -3.48200 4.84800
O 1.93100 -3.25500 4.66900
O 0.03800 -3.55600 6.00300
C 0.94300 -3.58300 7.18300
H -1.85900 3.22000 2.49700
H -0.21800 2.45300 -3.47400
H 0.27600 -3.74700 -2.60500
H -1.55400 -0.94900 5.13200
H -1.58500 1.83100 4.66500
H -3.48400 -0.37700 3.96900
H -3.51100 1.02700 2.85800
H -3.85200 1.30100 4.54300
H 0.66900 1.09600 4.96600
H 1.13000 -0.63900 5.18900
H -0.84400 0.02600 7.12500
H 0.06200 1.47700 6.92100
H -1.34400 5.18600 1.93800
H -1.65100 5.96300 0.43200
H 0.00700 6.02000 1.08400
H -0.63500 6.74400 -1.40500
H 0.66500 6.97000 -2.70400
H 1.04800 6.46600 -1.03600
H 0.60800 0.50100 -4.89100
H -0.69200 -2.15600 -4.54700
H -1.26700 0.74000 -6.12900
H -2.20400 0.71400 -4.59600
H -1.96700 -0.72000 -5.45300
H 1.35600 -1.75900 -5.96700
H 1.45200 -3.15700 -4.90200
H 2.71400 -0.52200 -4.79800
H 3.48700 -2.12100 -4.52900
H 2.49500 -1.30300 -3.24000
H 0.86700 -6.33300 -0.08400
H 0.40400 -5.64200 -1.68000
H -0.89100 -5.99900 -0.46300
H -1.28300 -3.58100 4.02800
H 0.69800 -4.47800 7.75500
H 0.83300 -2.61900 7.68000
H 2.00000 -3.75400 6.97600
Mg 7.87916 0.71194 0.58927
C 9.34580 -1.90302 -1.38305
C 9.47694 2.93690 -1.44329
C 6.97292 3.01977 2.56918
C 7.35400 -1.65836 3.08959
N 9.21056 0.43119 -1.15453
C 9.64777 -0.60715 -1.85099
C 10.38615 -0.23544 -3.16483
C 10.85052 1.24968 -2.76780
C 9.76175 1.58222 -1.74963
C 12.19479 1.29096 -2.06028
C 9.42733 -0.22471 -4.40684
C 10.13312 -0.17421 -5.76370
H 9.54048 -0.89966 -6.88396
N 7.76542 2.67334 0.30904
C 8.46974 3.41130 -0.57448
C 8.03528 4.80235 -0.37350
C 7.13805 4.84676 0.81298
C 7.27695 3.48878 1.29948
C 8.40798 5.91463 -1.31017
C 6.30428 5.93535 1.41796
O 5.78930 5.81887 2.58589
C 6.18595 7.17851 0.64206
N 7.44679 0.73615 2.62269
C 7.02459 1.86099 3.22635
C 6.51378 1.57434 4.61822
C 6.45608 -0.01960 4.73490
C 7.05416 -0.39569 3.36149
C 7.35348 2.13818 5.76425
C 5.09541 -0.64643 5.14522
C 4.07827 -0.43649 4.04671
N 8.09573 -1.42995 0.77220
C 7.84423 -2.21805 1.91664
C 8.24593 -3.60152 1.58941
C 8.72856 -3.51728 0.27470
C 8.65307 -2.17232 -0.17792
C 8.18620 -4.71609 2.47274
C 9.29459 -4.25841 -0.82940
O 9.50870 -5.44820 -1.05807
C 9.83703 -3.22382 -1.90726
C 9.35078 -3.66514 -3.26052
O 8.13666 -3.65634 -3.52966
O 10.40682 -3.81615 -4.08049
C 9.97454 -4.24251 -5.43813
H 10.11120 3.71108 -1.87600
H 6.55121 3.75742 3.25585
H 7.13070 -2.47337 3.78137
H 11.25117 -0.84812 -3.38872
H 10.79406 1.92221 -3.61979
H 12.56216 0.30075 -1.83517
H 12.03020 1.84982 -1.14835
H 12.91127 1.87405 -2.64594
H 8.89208 0.73304 -4.43771
H 8.75796 -1.06243 -4.37867
H 11.20267 -0.40249 -5.68073
H 10.10635 0.85468 -6.13069
H 9.20961 5.61205 -1.99518
H 8.85545 6.70829 -0.70212
H 7.54687 6.32170 -1.84445
H 7.17661 7.59272 0.47036
H 5.47991 7.80165 1.19440
H 5.77036 6.93799 -0.34285
H 5.51585 1.97296 4.75365
H 7.15427 -0.39798 5.49594
H 6.78064 2.80093 6.44004
H 8.19841 2.66509 5.34118
H 7.83737 1.39237 6.39259
H 4.70071 -0.14675 6.03330
H 5.15877 -1.70527 5.37287
H 3.71180 0.57615 4.23996
H 3.27605 -1.16774 4.12258
H 4.55865 -0.43076 3.06139
H 7.79003 -5.54514 1.90157
H 7.56952 -4.50113 3.34295
H 9.24335 -4.81541 2.73320
H 10.92582 -3.22462 -1.84318
H 10.51533 -5.16512 -5.67056
H 10.15657 -3.37243 -6.09659
H 8.94660 -4.56373 -5.55898
