158

Mg 0.00000 0.00000 0.00000
C -0.21700 -2.21800 2.80100
C -1.25500 2.44200 2.02600
C -0.24500 1.85000 -2.56400
C 0.14600 -2.82400 -2.03700
N -0.61700 -0.00900 2.12600
C -0.59400 -0.90800 3.10500
C -0.93600 -0.30900 4.50200
C -1.77300 0.96400 4.03200
C -1.15500 1.16800 2.66000
C -3.26300 0.68500 3.86300
C 0.34500 0.11000 5.29900
C 0.12400 0.39700 6.78700
H 1.16800 0.03300 7.73300
N -0.18500 1.96100 -0.15200
C -0.70300 2.80000 0.77700
C -0.62000 4.15600 0.19300
C -0.18700 4.01500 -1.22500
C -0.21400 2.58300 -1.38000
C -0.88700 5.40600 0.97400
C 0.18100 5.01300 -2.27700
O 0.30300 4.69000 -3.50800
C 0.31000 6.41400 -1.83700
N -0.26500 -0.41300 -2.02900
C -0.27900 0.56900 -2.93700
C -0.19600 0.02400 -4.33200
C 0.12400 -1.53300 -4.18000
C 0.08600 -1.63200 -2.63500
C -1.45100 0.20500 -5.19700
C 1.37300 -2.07000 -4.92300
C 2.62600 -1.49000 -4.30600
N 0.15000 -2.14400 0.30300
C 0.17300 -3.13600 -0.68800
C 0.17300 -4.43800 0.00400
C 0.13300 -4.11100 1.35800
C 0.08300 -2.69500 1.50200
C 0.14900 -5.71500 -0.62300
C 0.09600 -4.62900 2.71600
O 0.20800 -5.74700 3.22100
C -0.25500 -3.42800 3.70100
C 0.71700 -3.48200 4.84800
O 1.93100 -3.25500 4.66900
O 0.03800 -3.55600 6.00300
C 0.94300 -3.58300 7.18300
H -1.85900 3.22000 2.49700
H -0.21800 2.45300 -3.47400
H 0.27600 -3.74700 -2.60500
H -1.55400 -0.94900 5.13200
H -1.58500 1.83100 4.66500
H -3.48400 -0.37700 3.96900
H -3.51100 1.02700 2.85800
H -3.85200 1.30100 4.54300
H 0.66900 1.09600 4.96600
H 1.13000 -0.63900 5.18900
H -0.84400 0.02600 7.12500
H 0.06200 1.47700 6.92100
H -1.34400 5.18600 1.93800
H -1.65100 5.96300 0.43200
H 0.00700 6.02000 1.08400
H -0.63500 6.74400 -1.40500
H 0.66500 6.97000 -2.70400
H 1.04800 6.46600 -1.03600
H 0.60800 0.50100 -4.89100
H -0.69200 -2.15600 -4.54700
H -1.26700 0.74000 -6.12900
H -2.20400 0.71400 -4.59600
H -1.96700 -0.72000 -5.45300
H 1.35600 -1.75900 -5.96700
H 1.45200 -3.15700 -4.90200
H 2.71400 -0.52200 -4.79800
H 3.48700 -2.12100 -4.52900
H 2.49500 -1.30300 -3.24000
H 0.86700 -6.33300 -0.08400
H 0.40400 -5.64200 -1.68000
H -0.89100 -5.99900 -0.46300
H -1.28300 -3.58100 4.02800
H 0.69800 -4.47800 7.75500
H 0.83300 -2.61900 7.68000
H 2.00000 -3.75400 6.97600
Mg 10.51715 0.95231 0.80445
C 10.21734 -0.69948 3.97632
C 9.26805 3.74658 2.30991
C 10.34473 2.29943 -2.06312
C 10.64410 -2.20288 -0.67011
N 9.86482 1.34841 2.88046
C 9.85441 0.66298 4.01379
C 9.50836 1.50464 5.27133
C 8.69160 2.68593 4.55278
C 9.33392 2.62039 3.16865
C 7.20850 2.38912 4.40562
C 10.78854 2.04997 5.99644
C 10.54243 2.61638 7.39657
H 11.57126 2.42583 8.41522
N 10.36793 2.86328 0.29013
C 9.85586 3.86792 1.03159
C 9.95620 5.07533 0.19718
C 10.41758 4.67142 -1.15881
C 10.37372 3.22837 -1.03319
C 9.70507 6.45599 0.73022
C 10.81813 5.45430 -2.37242
O 10.95629 4.89657 -3.51814
C 10.95285 6.90810 -2.19974
N 10.28435 0.17173 -1.10835
C 10.29449 0.97308 -2.18801
C 10.38881 0.16938 -3.46299
C 10.68488 -1.33330 -3.00270
C 10.61905 -1.14641 -1.47099
C 9.14939 0.19262 -4.35724
C 11.93788 -2.02150 -3.61019
C 13.19312 -1.34959 -3.10196
N 10.63211 -1.08836 1.50481
C 10.64876 -2.26065 0.71770
C 10.61696 -3.40909 1.64641
C 10.56032 -2.82055 2.91877
C 10.53667 -1.40540 2.79122
C 10.59271 -4.78195 1.27118
C 10.50443 -3.07479 4.34037
O 10.58340 -4.07884 5.04704
C 10.15222 -1.71461 5.08352
C 11.10451 -1.55541 6.23691
O 12.32092 -1.39411 6.03460
O 10.39940 -1.40242 7.37260
C 11.30001 -1.22978 8.54346
H 8.67488 4.60544 2.62518
H 10.39624 2.71321 -3.07288
H 10.77991 -3.21858 -1.04771
H 8.87692 1.00243 5.99442
H 8.89187 3.64616 5.02098
H 6.96826 1.37924 4.70324
H 6.98096 2.53917 3.35836
H 6.61947 3.13173 4.95142
H 11.13086 2.95817 5.48386
H 11.55145 1.29719 6.04013
H 9.55732 2.33464 7.78789
H 10.50184 3.70617 7.32784
H 9.22213 6.42541 1.71471
H 8.95926 6.92053 0.07613
H 10.60459 7.07526 0.73620
H 10.00842 7.31944 -1.85144
H 11.33177 7.28174 -3.15299
H 11.68947 7.10002 -1.41160
H 11.20931 0.51634 -4.07903
H 9.86201 -2.01161 -3.27217
H 9.35855 0.54787 -5.38395
H 8.39960 0.81364 -3.88534
H 8.63219 -0.76039 -4.45452
H 11.94308 -1.90746 -4.69699
H 11.99286 -3.08394 -3.39760
H 13.29846 -0.48767 -3.76760
H 14.04670 -2.01930 -3.18528
H 13.04983 -0.96540 -2.08534
H 11.28530 -5.29559 1.92462
H 10.86057 -4.91291 0.22482
H 9.54146 -5.01674 1.45827
H 9.11528 -1.78140 5.41498
H 11.02828 -2.00003 9.27186
H 11.18278 -0.17560 8.85766
H 12.35402 -1.43690 8.39988
