158

Mg 0.00000 0.00000 0.00000
C -0.21700 -2.21800 2.80100
C -1.25500 2.44200 2.02600
C -0.24500 1.85000 -2.56400
C 0.14600 -2.82400 -2.03700
N -0.61700 -0.00900 2.12600
C -0.59400 -0.90800 3.10500
C -0.93600 -0.30900 4.50200
C -1.77300 0.96400 4.03200
C -1.15500 1.16800 2.66000
C -3.26300 0.68500 3.86300
C 0.34500 0.11000 5.29900
C 0.12400 0.39700 6.78700
H 1.16800 0.03300 7.73300
N -0.18500 1.96100 -0.15200
C -0.70300 2.80000 0.77700
C -0.62000 4.15600 0.19300
C -0.18700 4.01500 -1.22500
C -0.21400 2.58300 -1.38000
C -0.88700 5.40600 0.97400
C 0.18100 5.01300 -2.27700
O 0.30300 4.69000 -3.50800
C 0.31000 6.41400 -1.83700
N -0.26500 -0.41300 -2.02900
C -0.27900 0.56900 -2.93700
C -0.19600 0.02400 -4.33200
C 0.12400 -1.53300 -4.18000
C 0.08600 -1.63200 -2.63500
C -1.45100 0.20500 -5.19700
C 1.37300 -2.07000 -4.92300
C 2.62600 -1.49000 -4.30600
N 0.15000 -2.14400 0.30300
C 0.17300 -3.13600 -0.68800
C 0.17300 -4.43800 0.00400
C 0.13300 -4.11100 1.35800
C 0.08300 -2.69500 1.50200
C 0.14900 -5.71500 -0.62300
C 0.09600 -4.62900 2.71600
O 0.20800 -5.74700 3.22100
C -0.25500 -3.42800 3.70100
C 0.71700 -3.48200 4.84800
O 1.93100 -3.25500 4.66900
O 0.03800 -3.55600 6.00300
C 0.94300 -3.58300 7.18300
H -1.85900 3.22000 2.49700
H -0.21800 2.45300 -3.47400
H 0.27600 -3.74700 -2.60500
H -1.55400 -0.94900 5.13200
H -1.58500 1.83100 4.66500
H -3.48400 -0.37700 3.96900
H -3.51100 1.02700 2.85800
H -3.85200 1.30100 4.54300
H 0.66900 1.09600 4.96600
H 1.13000 -0.63900 5.18900
H -0.84400 0.02600 7.12500
H 0.06200 1.47700 6.92100
H -1.34400 5.18600 1.93800
H -1.65100 5.96300 0.43200
H 0.00700 6.02000 1.08400
H -0.63500 6.74400 -1.40500
H 0.66500 6.97000 -2.70400
H 1.04800 6.46600 -1.03600
H 0.60800 0.50100 -4.89100
H -0.69200 -2.15600 -4.54700
H -1.26700 0.74000 -6.12900
H -2.20400 0.71400 -4.59600
H -1.96700 -0.72000 -5.45300
H 1.35600 -1.75900 -5.96700
H 1.45200 -3.15700 -4.90200
H 2.71400 -0.52200 -4.79800
H 3.48700 -2.12100 -4.52900
H 2.49500 -1.30300 -3.24000
H 0.86700 -6.33300 -0.08400
H 0.40400 -5.64200 -1.68000
H -0.89100 -5.99900 -0.46300
H -1.28300 -3.58100 4.02800
H 0.69800 -4.47800 7.75500
H 0.83300 -2.61900 7.68000
H 2.00000 -3.75400 6.97600
Mg 7.88314 0.70970 0.59883
C 7.30628 2.11908 3.83814
C 6.83446 3.67871 -0.71583
C 7.95031 -0.65764 -2.26167
C 7.78795 -2.42922 2.11006
N 7.18609 2.58620 1.54409
C 7.06856 3.01789 2.79589
C 6.74207 4.53793 2.89714
C 6.07388 4.74783 1.46485
C 6.76442 3.62696 0.70806
C 4.56965 4.49560 1.45143
C 8.03002 5.41295 3.06224
C 7.78472 6.86194 3.49308
H 8.74276 7.49949 4.38359
N 7.92774 1.51413 -1.20499
C 7.47211 2.74063 -1.55624
C 7.73116 2.87181 -3.00619
C 8.20073 1.54975 -3.50595
C 8.01768 0.73171 -2.33434
C 7.57711 4.15913 -3.75640
C 8.72052 1.09340 -4.83249
O 8.85336 -0.14491 -5.12151
C 8.99012 2.14517 -5.82955
N 7.65292 -1.26530 -0.03679
C 7.78599 -1.59521 -1.32615
C 7.86140 -3.08267 -1.50418
C 7.99662 -3.69725 -0.03661
C 7.88700 -2.38568 0.77951
C 6.66995 -3.73208 -2.22162
C 9.20490 -4.63072 0.22626
C 10.49037 -3.83664 0.16213
N 7.77712 -0.04851 2.62982
C 7.72642 -1.39269 3.02641
C 7.55165 -1.40484 4.49044
C 7.49583 -0.05813 4.84414
C 7.60105 0.74413 3.67213
C 7.40768 -2.56396 5.30294
C 7.34705 0.88940 5.93679
O 7.31167 0.79836 7.16478
C 7.09605 2.33433 5.31632
C 8.00986 3.29768 6.02357
O 9.24786 3.22467 5.88427
O 7.28202 4.29096 6.55667
C 8.13108 5.29749 7.24814
H 6.30452 4.47527 -1.24175
H 8.08121 -1.17070 -3.21670
H 7.83469 -3.37082 2.66020
H 6.03125 4.79886 3.68140
H 6.33395 5.71363 1.03206
H 4.22570 4.08708 2.40155
H 4.40168 3.78008 0.64626
H 4.02803 5.39838 1.16786
H 8.47653 5.58371 2.08268
H 8.72877 4.94396 3.75587
H 6.76838 7.00126 3.86261
H 7.84033 7.49554 2.60784
H 7.06062 4.91060 -3.16052
H 6.90306 3.96314 -4.59004
H 8.52994 4.53082 -4.13363
H 8.07239 2.70068 -6.02378
H 9.43963 1.64106 -6.68434
H 9.69723 2.85950 -5.40685
H 8.73561 -3.36252 -2.09057
H 7.13030 -4.30066 0.23555
H 6.94987 -4.29996 -3.10924
H 5.95648 -2.94651 -2.46887
H 6.06287 -4.38772 -1.59791
H 9.26428 -5.39983 -0.54308
H 9.15928 -5.13176 1.19328
H 10.70679 -3.80958 -0.90523
H 11.28238 -4.35023 0.70817
H 10.33965 -2.80800 0.49023
H 8.02928 -2.39877 6.18289
H 7.71063 -3.46324 4.76711
H 6.33672 -2.53822 5.50351
H 6.04529 2.56904 5.48346
H 7.76393 5.37861 8.27130
H 8.11164 6.19583 6.63088
H 9.16919 5.01331 7.42394
