79

Mg 8.92989 0.79781 0.68582
C 7.44351 3.16021 2.94167
C 10.78524 -0.32345 3.31927
C 10.57641 -0.98250 -1.36037
C 7.83520 2.81997 -1.93300
N 9.01354 1.41780 2.80735
C 8.35823 2.28527 3.56392
C 8.64345 2.15674 5.08435
C 10.08717 1.45856 5.00000
C 9.94939 0.77567 3.64083
C 11.23310 2.45349 4.92067
C 7.60187 1.23620 5.81217
C 7.63371 1.31217 7.34023
H 6.37405 1.19369 8.06940
N 10.08806 -0.78257 1.00138
C 10.74577 -1.09557 2.13748
C 11.47272 -2.34205 1.85115
C 11.32218 -2.65082 0.40314
C 10.65928 -1.44659 -0.05564
C 12.14944 -3.15280 2.91799
C 11.72168 -3.82876 -0.43295
O 11.70520 -3.78199 -1.71372
C 12.22159 -5.00691 0.29062
N 9.35764 1.00659 -1.33798
C 10.04967 0.06231 -1.99931
C 9.99706 0.29170 -3.49096
C 8.92007 1.45361 -3.70922
C 8.58722 1.77039 -2.23469
C 11.31722 0.69154 -4.14949
C 7.74818 1.15305 -4.68340
C 6.85235 0.08469 -4.09904
N 7.68340 2.55181 0.49138
C 7.37604 3.25251 -0.69548
C 6.58982 4.44163 -0.30784
C 6.51332 4.36193 1.09084
C 7.22032 3.21574 1.54458
C 6.09746 5.43910 -1.19596
C 6.00425 4.99256 2.28743
O 5.26040 5.94501 2.51820
C 6.69093 4.31156 3.54882
C 5.61358 3.99460 4.54950
O 4.73590 3.15318 4.28811
O 5.92049 4.57232 5.72526
C 4.88696 4.27748 6.75323
H 11.57550 -0.59648 4.01915
H 11.03492 -1.62190 -2.11826
H 7.37367 3.44691 -2.69891
H 8.71649 3.09899 5.61407
H 10.21514 0.71964 5.78675
H 10.87907 3.46817 4.81466
H 11.81508 2.16352 4.05564
H 11.89546 2.33513 5.78299
H 7.89067 0.18683 5.67017
H 6.60776 1.43408 5.46117
H 8.20502 2.17732 7.69810
H 8.18770 0.44985 7.71908
H 12.23384 -2.59172 3.85685
H 13.18595 -3.30232 2.59681
H 11.68124 -4.12821 3.06639
H 13.08958 -4.72588 0.88229
H 12.37132 -5.77535 -0.47027
H 11.45186 -5.33586 0.99767
H 9.66226 -0.59937 -4.00769
H 9.37877 2.36061 -4.12968
H 11.62275 0.00874 -4.96467
H 12.08076 0.73575 -3.38425
H 11.34214 1.69986 -4.55923
H 8.13187 0.75495 -5.62597
H 7.15027 2.02624 -4.92223
H 7.36482 -0.84295 -4.37099
H 5.85994 0.13207 -4.54279
H 6.83356 0.14222 -3.00451
H 5.08304 5.65615 -0.88882
H 6.13754 5.10500 -2.23063
H 6.80851 6.24542 -0.99715
H 7.42235 5.01730 3.94446
H 4.53578 5.23978 7.13838
H 5.37022 3.59220 7.47476
H 3.95786 3.83261 6.41661
