158

Mg 0.00000 0.00000 0.00000
C -0.21700 -2.21800 2.80100
C -1.25500 2.44200 2.02600
C -0.24500 1.85000 -2.56400
C 0.14600 -2.82400 -2.03700
N -0.61700 -0.00900 2.12600
C -0.59400 -0.90800 3.10500
C -0.93600 -0.30900 4.50200
C -1.77300 0.96400 4.03200
C -1.15500 1.16800 2.66000
C -3.26300 0.68500 3.86300
C 0.34500 0.11000 5.29900
C 0.12400 0.39700 6.78700
H 1.16800 0.03300 7.73300
N -0.18500 1.96100 -0.15200
C -0.70300 2.80000 0.77700
C -0.62000 4.15600 0.19300
C -0.18700 4.01500 -1.22500
C -0.21400 2.58300 -1.38000
C -0.88700 5.40600 0.97400
C 0.18100 5.01300 -2.27700
O 0.30300 4.69000 -3.50800
C 0.31000 6.41400 -1.83700
N -0.26500 -0.41300 -2.02900
C -0.27900 0.56900 -2.93700
C -0.19600 0.02400 -4.33200
C 0.12400 -1.53300 -4.18000
C 0.08600 -1.63200 -2.63500
C -1.45100 0.20500 -5.19700
C 1.37300 -2.07000 -4.92300
C 2.62600 -1.49000 -4.30600
N 0.15000 -2.14400 0.30300
C 0.17300 -3.13600 -0.68800
C 0.17300 -4.43800 0.00400
C 0.13300 -4.11100 1.35800
C 0.08300 -2.69500 1.50200
C 0.14900 -5.71500 -0.62300
C 0.09600 -4.62900 2.71600
O 0.20800 -5.74700 3.22100
C -0.25500 -3.42800 3.70100
C 0.71700 -3.48200 4.84800
O 1.93100 -3.25500 4.66900
O 0.03800 -3.55600 6.00300
C 0.94300 -3.58300 7.18300
H -1.85900 3.22000 2.49700
H -0.21800 2.45300 -3.47400
H 0.27600 -3.74700 -2.60500
H -1.55400 -0.94900 5.13200
H -1.58500 1.83100 4.66500
H -3.48400 -0.37700 3.96900
H -3.51100 1.02700 2.85800
H -3.85200 1.30100 4.54300
H 0.66900 1.09600 4.96600
H 1.13000 -0.63900 5.18900
H -0.84400 0.02600 7.12500
H 0.06200 1.47700 6.92100
H -1.34400 5.18600 1.93800
H -1.65100 5.96300 0.43200
H 0.00700 6.02000 1.08400
H -0.63500 6.74400 -1.40500
H 0.66500 6.97000 -2.70400
H 1.04800 6.46600 -1.03600
H 0.60800 0.50100 -4.89100
H -0.69200 -2.15600 -4.54700
H -1.26700 0.74000 -6.12900
H -2.20400 0.71400 -4.59600
H -1.96700 -0.72000 -5.45300
H 1.35600 -1.75900 -5.96700
H 1.45200 -3.15700 -4.90200
H 2.71400 -0.52200 -4.79800
H 3.48700 -2.12100 -4.52900
H 2.49500 -1.30300 -3.24000
H 0.86700 -6.33300 -0.08400
H 0.40400 -5.64200 -1.68000
H -0.89100 -5.99900 -0.46300
H -1.28300 -3.58100 4.02800
H 0.69800 -4.47800 7.75500
H 0.83300 -2.61900 7.68000
H 2.00000 -3.75400 6.97600
Mg 13.14441 1.18775 1.00540
C 12.76342 -1.05141 3.78390
C 11.74574 3.60986 2.95776
C 13.05060 3.05856 -1.55559
C 13.43254 -1.61992 -1.03903
N 12.39310 1.16088 3.08556
C 12.35655 0.26960 4.06466
C 11.93155 0.84471 5.44241
C 11.10901 2.12354 4.92579
C 11.81079 2.34093 3.58679
C 9.64350 1.82701 4.65436
C 13.16226 1.26888 6.31843
C 12.83972 1.54874 7.78792
H 13.83023 1.18869 8.79873
N 12.95694 3.15814 0.86052
C 12.38274 3.98891 1.75573
C 12.48010 5.33660 1.17399
C 13.01065 5.21253 -0.21087
C 13.00696 3.77174 -0.36647
C 12.16344 6.58239 1.94934
C 13.43713 6.22377 -1.23151
O 13.64088 5.90088 -2.45505
C 13.51864 7.61962 -0.77712
N 13.01703 0.78581 -1.03042
C 13.04741 1.78044 -1.93469
C 13.22058 1.24022 -3.33418
C 13.54413 -0.31591 -3.15703
C 13.40801 -0.42962 -1.62278
C 12.01980 1.40733 -4.26508
C 14.84263 -0.84525 -3.82514
C 16.05359 -0.25563 -3.13862
N 13.29392 -0.94655 1.30617
C 13.38057 -1.94425 0.31060
C 13.34583 -3.25073 0.99932
C 13.21718 -2.92020 2.35678
C 13.15441 -1.50794 2.50193
C 13.38061 -4.52558 0.36712
C 13.10951 -3.44515 3.69899
O 13.19019 -4.56462 4.20298
C 12.68370 -2.26231 4.67159
C 13.58110 -2.30701 5.87791
O 14.79927 -2.08205 5.76813
O 12.82433 -2.39212 6.98715
C 13.66896 -2.42818 8.21072
H 11.11309 4.37801 3.40338
H 13.13154 3.66047 -2.46369
H 13.61601 -2.54031 -1.59750
H 11.28634 0.19817 6.02505
H 11.25908 2.97969 5.57836
H 9.42283 0.77348 4.74112
H 9.45565 2.17109 3.64572
H 9.00894 2.43675 5.30388
H 13.49713 2.26647 6.00629
H 13.94596 0.53938 6.25308
H 11.84836 1.17443 8.07085
H 12.76780 2.63010 7.92757
H 11.64067 6.35144 2.88570
H 11.43159 7.14730 1.36186
H 13.04199 7.20918 2.11655
H 12.54792 7.93442 -0.40155
H 13.92543 8.17869 -1.62201
H 14.21502 7.67259 0.06720
H 14.05497 1.71811 -3.83269
H 12.75508 -0.94803 -3.59022
H 12.26072 1.95868 -5.19355
H 11.23163 1.90840 -3.71893
H 11.53738 0.47948 -4.56766
H 14.88999 -0.52357 -4.86842
H 14.92200 -1.92722 -3.81782
H 16.15970 0.72070 -3.62092
H 16.93056 -0.87707 -3.30827
H 15.85561 -0.07818 -2.07515
H 14.06088 -5.13975 0.94203
H 13.69628 -4.44605 -0.67105
H 12.33031 -4.81593 0.45571
H 11.63634 -2.41539 4.93459
H 13.39117 -3.33048 8.76423
H 13.50550 -1.45738 8.71529
H 14.73407 -2.57965 8.08019
