158

Mg 0.00000 0.00000 0.00000
C -0.21700 -2.21800 2.80100
C -1.25500 2.44200 2.02600
C -0.24500 1.85000 -2.56400
C 0.14600 -2.82400 -2.03700
N -0.61700 -0.00900 2.12600
C -0.59400 -0.90800 3.10500
C -0.93600 -0.30900 4.50200
C -1.77300 0.96400 4.03200
C -1.15500 1.16800 2.66000
C -3.26300 0.68500 3.86300
C 0.34500 0.11000 5.29900
C 0.12400 0.39700 6.78700
H 1.16800 0.03300 7.73300
N -0.18500 1.96100 -0.15200
C -0.70300 2.80000 0.77700
C -0.62000 4.15600 0.19300
C -0.18700 4.01500 -1.22500
C -0.21400 2.58300 -1.38000
C -0.88700 5.40600 0.97400
C 0.18100 5.01300 -2.27700
O 0.30300 4.69000 -3.50800
C 0.31000 6.41400 -1.83700
N -0.26500 -0.41300 -2.02900
C -0.27900 0.56900 -2.93700
C -0.19600 0.02400 -4.33200
C 0.12400 -1.53300 -4.18000
C 0.08600 -1.63200 -2.63500
C -1.45100 0.20500 -5.19700
C 1.37300 -2.07000 -4.92300
C 2.62600 -1.49000 -4.30600
N 0.15000 -2.14400 0.30300
C 0.17300 -3.13600 -0.68800
C 0.17300 -4.43800 0.00400
C 0.13300 -4.11100 1.35800
C 0.08300 -2.69500 1.50200
C 0.14900 -5.71500 -0.62300
C 0.09600 -4.62900 2.71600
O 0.20800 -5.74700 3.22100
C -0.25500 -3.42800 3.70100
C 0.71700 -3.48200 4.84800
O 1.93100 -3.25500 4.66900
O 0.03800 -3.55600 6.00300
C 0.94300 -3.58300 7.18300
H -1.85900 3.22000 2.49700
H -0.21800 2.45300 -3.47400
H 0.27600 -3.74700 -2.60500
H -1.55400 -0.94900 5.13200
H -1.58500 1.83100 4.66500
H -3.48400 -0.37700 3.96900
H -3.51100 1.02700 2.85800
H -3.85200 1.30100 4.54300
H 0.66900 1.09600 4.96600
H 1.13000 -0.63900 5.18900
H -0.84400 0.02600 7.12500
H 0.06200 1.47700 6.92100
H -1.34400 5.18600 1.93800
H -1.65100 5.96300 0.43200
H 0.00700 6.02000 1.08400
H -0.63500 6.74400 -1.40500
H 0.66500 6.97000 -2.70400
H 1.04800 6.46600 -1.03600
H 0.60800 0.50100 -4.89100
H -0.69200 -2.15600 -4.54700
H -1.26700 0.74000 -6.12900
H -2.20400 0.71400 -4.59600
H -1.96700 -0.72000 -5.45300
H 1.35600 -1.75900 -5.96700
H 1.45200 -3.15700 -4.90200
H 2.71400 -0.52200 -4.79800
H 3.48700 -2.12100 -4.52900
H 2.49500 -1.30300 -3.24000
H 0.86700 -6.33300 -0.08400
H 0.40400 -5.64200 -1.68000
H -0.89100 -5.99900 -0.46300
H -1.28300 -3.58100 4.02800
H 0.69800 -4.47800 7.75500
H 0.83300 -2.61900 7.68000
H 2.00000 -3.75400 6.97600
Mg 13.14629 1.17603 1.00058
C 13.34261 -0.77337 -2.00614
C 12.39820 -1.71516 2.64861
C 12.52451 2.92172 3.57611
C 12.77663 3.99431 -1.01593
N 12.92829 -0.91131 0.30218
C 13.08670 -1.54216 -0.85163
C 13.04357 -3.09046 -0.74935
C 12.18735 -3.21835 0.60320
C 12.54930 -1.88239 1.24886
C 10.68662 -3.24286 0.36539
C 14.47211 -3.71875 -0.58642
C 14.53526 -5.23408 -0.79025
H 15.72340 -5.80265 -1.42074
N 13.03218 0.65098 2.91105
C 12.73953 -0.57116 3.40299
C 12.76136 -0.43125 4.86726
C 12.92847 1.01000 5.19832
C 12.81144 1.59874 3.87932
C 12.71026 -1.60794 5.79796
C 13.14357 1.73899 6.49003
O 13.02356 3.01241 6.57260
C 13.40694 0.90950 7.67496
N 12.50221 3.13655 1.25325
C 12.36158 3.66516 2.48155
C 12.15742 5.15978 2.41208
C 12.43281 5.56066 0.88858
C 12.67176 4.15449 0.29613
C 10.77528 5.66246 2.82847
C 13.49808 6.66160 0.63207
C 14.86961 6.15093 1.01086
N 13.25335 1.59943 -1.11538
C 13.04070 2.84384 -1.74809
C 13.10790 2.60861 -3.20500
C 13.33388 1.22870 -3.32016
C 13.38253 0.64181 -2.02683
C 12.91977 3.59270 -4.21609
C 13.53173 0.13337 -4.24200
O 13.67508 0.03839 -5.46027
C 13.42011 -1.23198 -3.43593
C 14.58259 -2.10096 -3.83095
O 15.74657 -1.76622 -3.54864
O 14.11791 -3.28089 -4.28062
C 15.23400 -4.18153 -4.67434
H 11.93533 -2.52002 3.22030
H 12.41137 3.58827 4.43425
H 12.76904 4.83789 -1.70946
H 12.52827 -3.58533 -1.56381
H 12.53754 -4.04515 1.21568
H 10.43928 -3.05069 -0.66807
H 10.27515 -2.47113 1.00270
H 10.26368 -4.18611 0.72278
H 14.77174 -3.65832 0.46777
H 15.17657 -3.23706 -1.23630
H 13.62554 -5.62477 -1.26218
H 14.55641 -5.71555 0.19044
H 12.42202 -2.52568 5.27063
H 11.88712 -1.42675 6.49759
H 13.63447 -1.73666 6.36535
H 12.57593 0.22522 7.82872
H 13.62249 1.61261 8.48184
H 14.29107 0.29219 7.48038
H 12.86769 5.67696 3.04544
H 11.52965 5.95735 0.40200
H 10.80936 6.40328 3.64950
H 10.17260 4.80945 3.11074
H 10.18555 6.10755 2.02889
H 13.30462 7.53072 1.26561
H 13.52018 7.01030 -0.39502
H 14.90493 6.31699 2.09173
H 15.64441 6.71803 0.49888
H 14.94831 5.07090 0.84055
H 13.68732 3.42546 -4.96000
H 12.97462 4.59915 -3.80644
H 11.90967 3.33955 -4.54910
H 12.46285 -1.68698 -3.69320
H 15.05384 -4.47870 -5.71209
H 15.25035 -4.98631 -3.91551
H 16.22506 -3.74917 -4.74717
