79

Mg 8.94052 0.81071 0.68433
C 8.61501 -0.63657 3.95212
C 7.69701 3.70000 2.00353
C 8.79062 1.97526 -2.26334
C 9.05995 -2.43167 -0.58784
N 8.27871 1.33982 2.72744
C 8.25865 0.72720 3.90160
C 7.90984 1.64800 5.10161
C 7.10293 2.78543 4.30535
C 7.75255 2.62985 2.93186
C 5.61921 2.48677 4.16854
C 9.18869 2.23203 5.79838
C 8.93767 2.88665 7.15860
H 9.95990 2.75592 8.19321
N 8.80363 2.68614 0.04983
C 8.29246 3.73785 0.72355
C 8.40340 4.88982 -0.18464
C 8.87024 4.39916 -1.50979
C 8.81854 2.96711 -1.29380
C 8.15619 6.30246 0.25892
C 9.28138 5.10217 -2.76794
O 9.42308 4.47273 -3.87544
C 9.42235 6.56332 -2.68638
N 8.71441 -0.08776 -1.17685
C 8.73448 0.64393 -2.30475
C 8.83186 -0.23892 -3.52601
C 9.11792 -1.71097 -2.97029
C 9.04456 -1.42765 -1.45380
C 7.59752 -0.26636 -4.42715
C 10.37082 -2.44184 -3.52593
C 11.62655 -1.74503 -3.05372
N 9.04148 -1.18229 1.51247
C 9.05666 -2.40190 0.80086
C 9.01403 -3.48940 1.79984
C 8.95329 -2.82161 3.03226
C 8.93737 -1.41721 2.81571
C 8.98504 -4.88304 1.51167
C 8.88830 -2.98552 4.46670
O 8.95837 -3.94340 5.23565
C 8.53875 -1.57962 5.12065
C 9.48543 -1.35245 6.26726
O 10.70372 -1.20982 6.06227
O 8.77483 -1.12497 7.38693
C 9.66981 -0.88306 8.54982
H 7.10638 4.57974 2.26063
H 8.84976 2.32437 -3.29684
H 9.19279 -3.46975 -0.89994
H 7.27194 1.19526 5.85120
H 7.30538 3.77231 4.71331
H 5.37233 1.49876 4.52776
H 5.39821 2.57159 3.11260
H 5.03087 3.26500 4.66306
H 9.53834 3.10454 5.23162
H 9.94760 1.47999 5.89383
H 7.94903 2.63467 7.56115
H 8.90287 3.97013 7.02115
H 7.66767 6.33619 1.24056
H 7.41632 6.72829 -0.42745
H 9.05873 6.91673 0.23113
H 8.47807 7.00014 -2.37018
H 9.80837 6.87441 -3.65905
H 10.15555 6.80113 -1.90761
H 9.65745 0.06475 -4.15789
H 8.29318 -2.40111 -3.20130
H 7.81410 0.02253 -5.47295
H 6.84823 0.38660 -3.99967
H 7.07613 -1.22122 -4.46723
H 10.38258 -2.39652 -4.61770
H 10.41935 -3.48902 -3.24653
H 11.73985 -0.92726 -3.77170
H 12.47724 -2.42258 -3.08973
H 11.47957 -1.29690 -2.06416
H 9.67145 -5.35768 2.20019
H 9.25802 -5.08090 0.47721
H 7.93161 -5.10073 1.70706
H 7.49967 -1.62062 5.44962
H 9.39024 -1.60462 9.32369
H 9.55608 0.18935 8.79632
H 10.72356 -1.10367 8.42571
