158

Mg 0.00000 0.00000 0.00000
C -0.21700 -2.21800 2.80100
C -1.25500 2.44200 2.02600
C -0.24500 1.85000 -2.56400
C 0.14600 -2.82400 -2.03700
N -0.61700 -0.00900 2.12600
C -0.59400 -0.90800 3.10500
C -0.93600 -0.30900 4.50200
C -1.77300 0.96400 4.03200
C -1.15500 1.16800 2.66000
C -3.26300 0.68500 3.86300
C 0.34500 0.11000 5.29900
C 0.12400 0.39700 6.78700
H 1.16800 0.03300 7.73300
N -0.18500 1.96100 -0.15200
C -0.70300 2.80000 0.77700
C -0.62000 4.15600 0.19300
C -0.18700 4.01500 -1.22500
C -0.21400 2.58300 -1.38000
C -0.88700 5.40600 0.97400
C 0.18100 5.01300 -2.27700
O 0.30300 4.69000 -3.50800
C 0.31000 6.41400 -1.83700
N -0.26500 -0.41300 -2.02900
C -0.27900 0.56900 -2.93700
C -0.19600 0.02400 -4.33200
C 0.12400 -1.53300 -4.18000
C 0.08600 -1.63200 -2.63500
C -1.45100 0.20500 -5.19700
C 1.37300 -2.07000 -4.92300
C 2.62600 -1.49000 -4.30600
N 0.15000 -2.14400 0.30300
C 0.17300 -3.13600 -0.68800
C 0.17300 -4.43800 0.00400
C 0.13300 -4.11100 1.35800
C 0.08300 -2.69500 1.50200
C 0.14900 -5.71500 -0.62300
C 0.09600 -4.62900 2.71600
O 0.20800 -5.74700 3.22100
C -0.25500 -3.42800 3.70100
C 0.71700 -3.48200 4.84800
O 1.93100 -3.25500 4.66900
O 0.03800 -3.55600 6.00300
C 0.94300 -3.58300 7.18300
H -1.85900 3.22000 2.49700
H -0.21800 2.45300 -3.47400
H 0.27600 -3.74700 -2.60500
H -1.55400 -0.94900 5.13200
H -1.58500 1.83100 4.66500
H -3.48400 -0.37700 3.96900
H -3.51100 1.02700 2.85800
H -3.85200 1.30100 4.54300
H 0.66900 1.09600 4.96600
H 1.13000 -0.63900 5.18900
H -0.84400 0.02600 7.12500
H 0.06200 1.47700 6.92100
H -1.34400 5.18600 1.93800
H -1.65100 5.96300 0.43200
H 0.00700 6.02000 1.08400
H -0.63500 6.74400 -1.40500
H 0.66500 6.97000 -2.70400
H 1.04800 6.46600 -1.03600
H 0.60800 0.50100 -4.89100
H -0.69200 -2.15600 -4.54700
H -1.26700 0.74000 -6.12900
H -2.20400 0.71400 -4.59600
H -1.96700 -0.72000 -5.45300
H 1.35600 -1.75900 -5.96700
H 1.45200 -3.15700 -4.90200
H 2.71400 -0.52200 -4.79800
H 3.48700 -2.12100 -4.52900
H 2.49500 -1.30300 -3.24000
H 0.86700 -6.33300 -0.08400
H 0.40400 -5.64200 -1.68000
H -0.89100 -5.99900 -0.46300
H -1.28300 -3.58100 4.02800
H 0.69800 -4.47800 7.75500
H 0.83300 -2.61900 7.68000
H 2.00000 -3.75400 6.97600
Mg 15.76924 1.42735 1.20402
C 16.88718 -0.39370 4.08726
C 13.47705 2.93534 3.23045
C 14.46681 2.70932 -1.38975
C 17.32316 -0.99784 -0.75799
N 15.33629 1.21527 3.36269
C 15.86689 0.53827 4.36990
C 15.32589 0.93745 5.76902
C 13.90694 1.53757 5.31592
C 14.26290 1.95769 3.89133
C 12.80641 0.49206 5.24467
C 16.21469 2.02731 6.46490
C 15.92520 2.23942 7.95250
H 17.04091 2.55318 8.84088
N 14.55032 2.98184 1.01339
C 13.70468 3.47174 1.94406
C 13.01791 4.60577 1.30650
C 13.40723 4.64277 -0.12939
C 14.15668 3.40663 -0.23124
C 12.15769 5.56996 2.07055
C 13.13746 5.62152 -1.23188
O 13.37174 5.33491 -2.45899
C 12.50410 6.88978 -0.84219
N 15.69433 0.82054 -0.78307
C 15.11022 1.58909 -1.71905
C 15.41866 1.08531 -3.10882
C 16.53468 -0.04424 -2.91849
C 16.61730 -0.06104 -1.37633
C 14.23564 0.50599 -3.88421
C 17.85014 0.12275 -3.72741
C 18.61741 1.32360 -3.22280
N 17.05727 -0.27041 1.55992
C 17.57222 -1.16688 0.59802
C 18.29933 -2.22272 1.33215
C 18.13617 -1.87714 2.68213
C 17.34501 -0.70097 2.78315
C 18.95041 -3.34514 0.74702
C 18.44439 -2.24582 4.04513
O 19.15275 -3.10111 4.57469
C 17.54331 -1.37270 5.02090
C 18.43029 -0.82174 6.10360
O 19.32663 -0.00384 5.83116
O 17.93717 -1.18134 7.30272
C 18.77666 -0.64902 8.40894
H 12.57542 3.29746 3.72524
H 14.13384 3.17174 -2.32183
H 17.91747 -1.73523 -1.30180
H 15.17842 0.10961 6.45218
H 13.63605 2.40464 5.91273
H 13.18874 -0.50635 5.39678
H 12.37529 0.58563 4.25653
H 12.00560 0.73919 5.94750
H 15.93819 3.01609 6.07683
H 17.25685 1.81440 6.32635
H 15.31473 1.43104 8.37298
H 15.30186 3.13029 8.06114
H 11.92378 5.19261 3.07370
H 11.18854 5.60665 1.56135
H 12.57897 6.57705 2.10155
H 11.55269 6.68431 -0.35735
H 12.47393 7.49293 -1.75168
H 13.13758 7.38246 -0.09615
H 15.82264 1.87788 -3.72667
H 16.16788 -1.03506 -3.22435
H 14.06248 1.00747 -4.85509
H 13.35409 0.57053 -3.26031
H 14.29601 -0.56151 -4.08911
H 17.62592 0.31722 -4.77910
H 18.49317 -0.75029 -3.69132
H 18.14442 2.15782 -3.74955
H 19.67134 1.24076 -3.48052
H 18.45109 1.47446 -2.14985
H 19.90120 -3.45176 1.25212
H 19.08139 -3.21443 -0.32515
H 18.22833 -4.13246 0.97937
H 16.76623 -2.02522 5.42081
H 19.07205 -1.50357 9.02552
H 18.16758 0.13619 8.89495
H 19.74251 -0.23184 8.14904
