158

Mg 0.00000 0.00000 0.00000
C -0.21700 -2.21800 2.80100
C -1.25500 2.44200 2.02600
C -0.24500 1.85000 -2.56400
C 0.14600 -2.82400 -2.03700
N -0.61700 -0.00900 2.12600
C -0.59400 -0.90800 3.10500
C -0.93600 -0.30900 4.50200
C -1.77300 0.96400 4.03200
C -1.15500 1.16800 2.66000
C -3.26300 0.68500 3.86300
C 0.34500 0.11000 5.29900
C 0.12400 0.39700 6.78700
H 1.16800 0.03300 7.73300
N -0.18500 1.96100 -0.15200
C -0.70300 2.80000 0.77700
C -0.62000 4.15600 0.19300
C -0.18700 4.01500 -1.22500
C -0.21400 2.58300 -1.38000
C -0.88700 5.40600 0.97400
C 0.18100 5.01300 -2.27700
O 0.30300 4.69000 -3.50800
C 0.31000 6.41400 -1.83700
N -0.26500 -0.41300 -2.02900
C -0.27900 0.56900 -2.93700
C -0.19600 0.02400 -4.33200
C 0.12400 -1.53300 -4.18000
C 0.08600 -1.63200 -2.63500
C -1.45100 0.20500 -5.19700
C 1.37300 -2.07000 -4.92300
C 2.62600 -1.49000 -4.30600
N 0.15000 -2.14400 0.30300
C 0.17300 -3.13600 -0.68800
C 0.17300 -4.43800 0.00400
C 0.13300 -4.11100 1.35800
C 0.08300 -2.69500 1.50200
C 0.14900 -5.71500 -0.62300
C 0.09600 -4.62900 2.71600
O 0.20800 -5.74700 3.22100
C -0.25500 -3.42800 3.70100
C 0.71700 -3.48200 4.84800
O 1.93100 -3.25500 4.66900
O 0.03800 -3.55600 6.00300
C 0.94300 -3.58300 7.18300
H -1.85900 3.22000 2.49700
H -0.21800 2.45300 -3.47400
H 0.27600 -3.74700 -2.60500
H -1.55400 -0.94900 5.13200
H -1.58500 1.83100 4.66500
H -3.48400 -0.37700 3.96900
H -3.51100 1.02700 2.85800
H -3.85200 1.30100 4.54300
H 0.66900 1.09600 4.96600
H 1.13000 -0.63900 5.18900
H -0.84400 0.02600 7.12500
H 0.06200 1.47700 6.92100
H -1.34400 5.18600 1.93800
H -1.65100 5.96300 0.43200
H 0.00700 6.02000 1.08400
H -0.63500 6.74400 -1.40500
H 0.66500 6.97000 -2.70400
H 1.04800 6.46600 -1.03600
H 0.60800 0.50100 -4.89100
H -0.69200 -2.15600 -4.54700
H -1.26700 0.74000 -6.12900
H -2.20400 0.71400 -4.59600
H -1.96700 -0.72000 -5.45300
H 1.35600 -1.75900 -5.96700
H 1.45200 -3.15700 -4.90200
H 2.71400 -0.52200 -4.79800
H 3.48700 -2.12100 -4.52900
H 2.49500 -1.30300 -3.24000
H 0.86700 -6.33300 -0.08400
H 0.40400 -5.64200 -1.68000
H -0.89100 -5.99900 -0.46300
H -1.28300 -3.58100 4.02800
H 0.69800 -4.47800 7.75500
H 0.83300 -2.61900 7.68000
H 2.00000 -3.75400 6.97600
Mg 8.93235 0.80884 0.68808
C 6.89724 -1.70003 2.25107
C 6.30745 2.95544 1.05764
C 10.52584 2.90497 -1.08236
C 10.90918 -1.77331 -0.56506
N 6.91601 0.54460 1.55801
C 6.27624 -0.43575 2.17766
C 4.92709 -0.01743 2.82135
C 4.60566 1.25734 1.89912
C 6.03078 1.63831 1.50342
C 3.83652 0.90771 0.63597
C 5.08458 0.38913 4.32864
C 3.77007 0.51094 5.10259
H 3.74983 0.11206 6.50721
N 8.70011 2.77083 0.50036
C 7.57199 3.48063 0.71203
C 7.91653 4.88051 0.41909
C 9.29468 4.91698 -0.14134
C 9.55827 3.49929 -0.28539
C 7.00641 6.02829 0.74725
C 10.21717 6.04191 -0.50154
O 11.27713 5.84759 -1.19549
C 9.79475 7.39101 -0.09783
N 10.36415 0.59441 -0.80401
C 10.93447 1.67009 -1.37459
C 12.12427 1.27466 -2.21626
C 12.38166 -0.27111 -1.89699
C 11.18897 -0.53639 -0.95226
C 11.96401 1.46268 -3.72468
C 13.80605 -0.66295 -1.41716
C 14.06987 -0.07513 -0.04958
N 9.04320 -1.33287 0.95043
C 9.93001 -2.22591 0.31002
C 9.54615 -3.59147 0.72271
C 8.43943 -3.39807 1.56310
C 8.14121 -2.01139 1.65078
C 10.16374 -4.79714 0.28559
C 7.44907 -4.05245 2.38753
O 7.25777 -5.20836 2.76306
C 6.32838 -2.99183 2.76901
C 6.06948 -3.10082 4.24671
O 6.95422 -2.79995 5.06728
O 4.75940 -3.33164 4.44868
C 4.45117 -3.43656 5.89982
H 5.47210 3.64222 0.91828
H 11.17513 3.59342 -1.62820
H 11.53681 -2.62543 -0.83458
H 4.13440 -0.75051 2.73178
H 4.14367 2.05503 2.47497
H 3.73555 -0.15982 0.50824
H 4.40320 1.33460 -0.18115
H 2.86893 1.41768 0.63049
H 5.43260 1.42859 4.38464
H 5.74297 -0.28681 4.83879
H 2.93008 0.05774 4.56225
H 3.50483 1.56872 5.17174
H 5.99643 5.68166 0.99864
H 6.87404 6.60507 -0.17452
H 7.41645 6.68381 1.51851
H 8.82833 7.61519 -0.54306
H 10.62456 8.04881 -0.36353
H 9.65105 7.40223 0.98837
H 13.00267 1.84255 -1.93518
H 12.22590 -0.90190 -2.78450
H 12.74234 2.11157 -4.16878
H 10.97837 1.86593 -3.91558
H 11.95374 0.54243 -4.30626
H 14.56031 -0.24214 -2.08662
H 13.96990 -1.73477 -1.38060
H 14.38780 0.94670 -0.27733
H 14.85584 -0.62868 0.46018
H 13.14535 -0.00996 0.53580
H 10.27536 -5.42453 1.15990
H 11.12267 -4.60279 -0.19028
H 9.41558 -5.15179 -0.42838
H 5.44118 -3.22633 2.17956
H 3.95689 -4.40095 6.05255
H 3.87087 -2.52815 6.14841
H 5.28684 -3.51632 6.58521
