158

Mg 0.00000 0.00000 0.00000
C -0.21700 -2.21800 2.80100
C -1.25500 2.44200 2.02600
C -0.24500 1.85000 -2.56400
C 0.14600 -2.82400 -2.03700
N -0.61700 -0.00900 2.12600
C -0.59400 -0.90800 3.10500
C -0.93600 -0.30900 4.50200
C -1.77300 0.96400 4.03200
C -1.15500 1.16800 2.66000
C -3.26300 0.68500 3.86300
C 0.34500 0.11000 5.29900
C 0.12400 0.39700 6.78700
H 1.16800 0.03300 7.73300
N -0.18500 1.96100 -0.15200
C -0.70300 2.80000 0.77700
C -0.62000 4.15600 0.19300
C -0.18700 4.01500 -1.22500
C -0.21400 2.58300 -1.38000
C -0.88700 5.40600 0.97400
C 0.18100 5.01300 -2.27700
O 0.30300 4.69000 -3.50800
C 0.31000 6.41400 -1.83700
N -0.26500 -0.41300 -2.02900
C -0.27900 0.56900 -2.93700
C -0.19600 0.02400 -4.33200
C 0.12400 -1.53300 -4.18000
C 0.08600 -1.63200 -2.63500
C -1.45100 0.20500 -5.19700
C 1.37300 -2.07000 -4.92300
C 2.62600 -1.49000 -4.30600
N 0.15000 -2.14400 0.30300
C 0.17300 -3.13600 -0.68800
C 0.17300 -4.43800 0.00400
C 0.13300 -4.11100 1.35800
C 0.08300 -2.69500 1.50200
C 0.14900 -5.71500 -0.62300
C 0.09600 -4.62900 2.71600
O 0.20800 -5.74700 3.22100
C -0.25500 -3.42800 3.70100
C 0.71700 -3.48200 4.84800
O 1.93100 -3.25500 4.66900
O 0.03800 -3.55600 6.00300
C 0.94300 -3.58300 7.18300
H -1.85900 3.22000 2.49700
H -0.21800 2.45300 -3.47400
H 0.27600 -3.74700 -2.60500
H -1.55400 -0.94900 5.13200
H -1.58500 1.83100 4.66500
H -3.48400 -0.37700 3.96900
H -3.51100 1.02700 2.85800
H -3.85200 1.30100 4.54300
H 0.66900 1.09600 4.96600
H 1.13000 -0.63900 5.18900
H -0.84400 0.02600 7.12500
H 0.06200 1.47700 6.92100
H -1.34400 5.18600 1.93800
H -1.65100 5.96300 0.43200
H 0.00700 6.02000 1.08400
H -0.63500 6.74400 -1.40500
H 0.66500 6.97000 -2.70400
H 1.04800 6.46600 -1.03600
H 0.60800 0.50100 -4.89100
H -0.69200 -2.15600 -4.54700
H -1.26700 0.74000 -6.12900
H -2.20400 0.71400 -4.59600
H -1.96700 -0.72000 -5.45300
H 1.35600 -1.75900 -5.96700
H 1.45200 -3.15700 -4.90200
H 2.71400 -0.52200 -4.79800
H 3.48700 -2.12100 -4.52900
H 2.49500 -1.30300 -3.24000
H 0.86700 -6.33300 -0.08400
H 0.40400 -5.64200 -1.68000
H -0.89100 -5.99900 -0.46300
H -1.28300 -3.58100 4.02800
H 0.69800 -4.47800 7.75500
H 0.83300 -2.61900 7.68000
H 2.00000 -3.75400 6.97600
Mg 8.94175 0.80750 0.67192
C 8.41349 4.35712 0.68676
C 8.30680 0.87746 -2.67868
C 8.95600 -2.36523 0.70369
C 8.40693 0.85340 4.11540
N 8.43818 2.46417 -0.70435
C 8.32558 3.77952 -0.59702
C 8.18651 4.52577 -1.95102
C 7.59703 3.31891 -2.83130
C 8.17495 2.14107 -2.04939
C 6.08099 3.22499 -2.78521
C 9.56854 5.01981 -2.50594
C 9.47753 6.01944 -3.66102
H 10.47732 7.08060 -3.74356
N 9.15524 -0.49075 -0.81386
C 8.87084 -0.28933 -2.11763
C 9.18221 -1.55610 -2.79770
C 9.51729 -2.57325 -1.76433
C 9.19525 -1.83875 -0.55732
C 9.22138 -1.68898 -4.29244
C 10.02915 -3.97932 -1.84897
O 10.02318 -4.76038 -0.83273
C 10.45074 -4.44461 -3.17835
N 8.50697 -0.58972 2.14877
C 8.64351 -1.90695 1.91597
C 8.54278 -2.70056 3.19677
C 8.55167 -1.61860 4.37442
C 8.56676 -0.32552 3.52995
C 7.30729 -3.59021 3.33268
C 9.62808 -1.79145 5.48082
C 11.00436 -1.54876 4.90433
N 8.67450 2.32714 2.18431
C 8.43915 2.12712 3.56224
C 8.20917 3.45737 4.16223
C 8.30464 4.34397 3.07903
C 8.55499 3.61571 1.88469
C 7.90603 3.71214 5.52946
C 8.24000 5.72939 2.67266
O 8.14063 6.80416 3.26319
C 8.18197 5.78825 1.08535
C 9.17900 6.81471 0.62185
O 10.39728 6.63669 0.79712
O 8.54968 7.72743 -0.14056
C 9.49919 8.76064 -0.63323
H 7.90238 0.75364 -3.68367
H 9.05916 -3.44944 0.78931
H 8.33054 0.96126 5.19947
H 7.48951 5.35517 -1.94309
H 7.99453 3.33692 -3.84275
H 5.65610 3.91495 -2.07137
H 5.85792 2.20419 -2.50367
H 5.66435 3.35907 -3.78759
H 10.06754 4.18664 -3.01738
H 10.17018 5.43097 -1.71880
H 8.46771 6.43360 -3.76912
H 9.64922 5.48379 -4.59784
H 8.76964 -0.81940 -4.78555
H 8.56290 -2.52353 -4.55663
H 10.22456 -1.89691 -4.67068
H 9.61531 -4.36646 -3.87003
H 10.86856 -5.44078 -3.02037
H 11.23252 -3.77397 -3.55207
H 9.39771 -3.35506 3.31441
H 7.60466 -1.61752 4.93389
H 7.55305 -4.65479 3.50690
H 6.70719 -3.47976 2.43926
H 6.61095 -3.29688 4.11644
H 9.62498 -2.81812 5.85511
H 9.47989 -1.13734 6.33357
H 11.25771 -2.51398 4.45571
H 11.70758 -1.28231 5.69079
H 10.96769 -0.80909 4.09613
H 8.50270 4.56412 5.82713
H 8.11356 2.84373 6.15121
H 6.83483 3.91826 5.45660
H 7.16175 6.05245 0.80440
H 9.10245 9.73258 -0.32397
H 9.59953 8.58023 -1.72003
H 10.48778 8.78497 -0.18989
