79

Mg 15.76628 1.41940 1.19766
C 15.87939 -2.15762 1.26358
C 14.65142 1.29514 4.42020
C 15.22598 4.53899 1.01638
C 15.78651 1.20880 -2.28097
N 15.35901 -0.27613 2.56147
C 15.50008 -1.59574 2.48467
C 15.28000 -2.32086 3.84597
C 14.36883 -1.22977 4.56796
C 14.84526 0.01007 3.83193
C 12.87714 -1.41279 4.30744
C 16.62110 -2.55075 4.62078
C 16.53828 -3.53239 5.79333
H 17.67821 -4.39444 6.06678
N 15.51697 2.76159 2.62568
C 15.07016 2.53200 3.88383
C 15.06114 3.84732 4.55950
C 15.35793 4.88704 3.53530
C 15.35289 4.09648 2.33098
C 14.83912 4.01475 6.03138
C 15.59624 6.36118 3.62616
O 15.60644 7.11351 2.59249
C 15.73123 6.92244 4.98255
N 15.31629 2.69248 -0.39432
C 15.18893 4.01095 -0.20879
C 15.15012 4.74508 -1.51626
C 15.52335 3.67116 -2.63749
C 15.63807 2.41791 -1.73501
C 13.81284 5.40969 -1.87119
C 16.70773 4.01594 -3.57492
C 17.99936 4.02379 -2.78832
N 16.00014 -0.15793 -0.27487
C 15.95236 -0.02286 -1.66992
C 16.05307 -1.37937 -2.23897
C 16.13629 -2.21618 -1.12781
C 16.06406 -1.43434 0.06038
C 16.00120 -1.70881 -3.62216
C 16.24464 -3.59110 -0.66770
O 16.43388 -4.67713 -1.21744
C 15.96011 -3.61913 0.89885
C 17.03993 -4.44580 1.54221
O 18.22457 -4.05356 1.55386
O 16.47839 -5.44213 2.24402
C 17.49406 -6.28318 2.93192
H 14.07616 1.37095 5.34501
H 15.14898 5.62264 0.90584
H 15.88448 1.07236 -3.35951
H 14.74276 -3.26681 3.77540
H 14.59500 -1.14969 5.63105
H 12.69489 -2.18721 3.56247
H 12.52403 -0.44662 3.94644
H 12.34127 -1.59883 5.23858
H 16.88575 -1.64066 5.15907
H 17.41074 -2.86901 3.93923
H 15.61754 -4.11555 5.76065
H 16.46179 -2.95682 6.71586
H 14.48367 3.09296 6.49020
H 14.01202 4.71425 6.15108
H 15.72347 4.40088 6.53849
H 14.82445 6.71325 5.55047
H 15.98596 7.97324 4.84919
H 16.54192 6.40738 5.49873
H 15.88351 5.55021 -1.53459
H 14.69189 3.48392 -3.31741
H 13.89166 6.48151 -2.05478
H 13.10888 5.20159 -1.06594
H 13.29841 4.97325 -2.72694
H 16.58147 5.01354 -3.99421
H 16.81636 3.31841 -4.40552
H 18.01423 5.02308 -2.35470
H 18.85061 3.87405 -3.45328
H 17.96769 3.31126 -1.96384
H 16.78381 -2.44885 -3.78901
H 16.15042 -0.82714 -4.24506
H 14.98930 -2.10667 -3.69717
H 14.97299 -4.06121 1.03030
H 17.32887 -7.31203 2.61191
H 17.40804 -6.06439 3.99641
H 18.53002 -6.13590 2.62464
