158

Mg 0.00000 0.00000 0.00000
C -0.21700 -2.21800 2.80100
C -1.25500 2.44200 2.02600
C -0.24500 1.85000 -2.56400
C 0.14600 -2.82400 -2.03700
N -0.61700 -0.00900 2.12600
C -0.59400 -0.90800 3.10500
C -0.93600 -0.30900 4.50200
C -1.77300 0.96400 4.03200
C -1.15500 1.16800 2.66000
C -3.26300 0.68500 3.86300
C 0.34500 0.11000 5.29900
C 0.12400 0.39700 6.78700
H 1.16800 0.03300 7.73300
N -0.18500 1.96100 -0.15200
C -0.70300 2.80000 0.77700
C -0.62000 4.15600 0.19300
C -0.18700 4.01500 -1.22500
C -0.21400 2.58300 -1.38000
C -0.88700 5.40600 0.97400
C 0.18100 5.01300 -2.27700
O 0.30300 4.69000 -3.50800
C 0.31000 6.41400 -1.83700
N -0.26500 -0.41300 -2.02900
C -0.27900 0.56900 -2.93700
C -0.19600 0.02400 -4.33200
C 0.12400 -1.53300 -4.18000
C 0.08600 -1.63200 -2.63500
C -1.45100 0.20500 -5.19700
C 1.37300 -2.07000 -4.92300
C 2.62600 -1.49000 -4.30600
N 0.15000 -2.14400 0.30300
C 0.17300 -3.13600 -0.68800
C 0.17300 -4.43800 0.00400
C 0.13300 -4.11100 1.35800
C 0.08300 -2.69500 1.50200
C 0.14900 -5.71500 -0.62300
C 0.09600 -4.62900 2.71600
O 0.20800 -5.74700 3.22100
C -0.25500 -3.42800 3.70100
C 0.71700 -3.48200 4.84800
O 1.93100 -3.25500 4.66900
O 0.03800 -3.55600 6.00300
C 0.94300 -3.58300 7.18300
H -1.85900 3.22000 2.49700
H -0.21800 2.45300 -3.47400
H 0.27600 -3.74700 -2.60500
H -1.55400 -0.94900 5.13200
H -1.58500 1.83100 4.66500
H -3.48400 -0.37700 3.96900
H -3.51100 1.02700 2.85800
H -3.85200 1.30100 4.54300
H 0.66900 1.09600 4.96600
H 1.13000 -0.63900 5.18900
H -0.84400 0.02600 7.12500
H 0.06200 1.47700 6.92100
H -1.34400 5.18600 1.93800
H -1.65100 5.96300 0.43200
H 0.00700 6.02000 1.08400
H -0.63500 6.74400 -1.40500
H 0.66500 6.97000 -2.70400
H 1.04800 6.46600 -1.03600
H 0.60800 0.50100 -4.89100
H -0.69200 -2.15600 -4.54700
H -1.26700 0.74000 -6.12900
H -2.20400 0.71400 -4.59600
H -1.96700 -0.72000 -5.45300
H 1.35600 -1.75900 -5.96700
H 1.45200 -3.15700 -4.90200
H 2.71400 -0.52200 -4.79800
H 3.48700 -2.12100 -4.52900
H 2.49500 -1.30300 -3.24000
H 0.86700 -6.33300 -0.08400
H 0.40400 -5.64200 -1.68000
H -0.89100 -5.99900 -0.46300
H -1.28300 -3.58100 4.02800
H 0.69800 -4.47800 7.75500
H 0.83300 -2.61900 7.68000
H 2.00000 -3.75400 6.97600
Mg 10.51995 0.95094 0.80122
C 11.58664 -1.18068 3.48402
C 10.50328 3.51834 3.04683
C 9.15296 2.75528 -1.42210
C 9.53380 -1.92326 -0.90529
N 11.00293 1.03331 2.95811
C 11.45633 0.17318 3.85753
C 11.86504 0.81365 5.21116
C 10.95446 2.13433 5.13697
C 10.83666 2.26510 3.61984
C 9.56048 1.93713 5.70905
C 13.39187 1.17102 5.26651
C 13.92237 1.51216 6.66077
H 15.28267 1.10850 7.00588
N 10.37616 2.92520 0.65905
C 10.41201 3.81858 1.66993
C 10.24449 5.13989 1.04524
C 9.94190 4.94132 -0.39827
C 9.78803 3.50094 -0.43964
C 10.45225 6.42532 1.79218
C 9.80022 5.89186 -1.54832
O 9.29973 5.52288 -2.66912
C 10.17800 7.28972 -1.29385
N 9.30067 0.50554 -0.82277
C 8.88707 1.47114 -1.66210
C 8.25620 0.88302 -2.90166
C 8.55125 -0.68714 -2.83024
C 9.25520 -0.75015 -1.45697
C 6.75269 1.11159 -3.05532
C 9.26150 -1.32619 -4.05493
C 10.67765 -0.80744 -4.15891
N 10.70782 -1.17988 1.10509
C 10.19964 -2.20721 0.28021
C 10.47928 -3.48912 0.95914
C 11.11529 -3.11440 2.15227
C 11.20626 -1.69794 2.22207
C 10.10961 -4.77942 0.48525
C 11.72088 -3.59455 3.37350
O 12.00726 -4.70321 3.82362
C 11.93970 -2.35879 4.34890
C 13.34127 -2.43615 4.88938
O 14.31887 -2.30256 4.13238
O 13.29555 -2.43713 6.23411
C 14.66235 -2.50161 6.81679
H 10.24554 4.34161 3.71368
H 8.76157 3.32557 -2.26771
H 9.34550 -2.86893 -1.41806
H 11.60430 0.23093 6.08651
H 11.47123 2.99439 5.55483
H 9.37205 0.90491 5.96432
H 8.87667 2.26707 4.93795
H 9.40323 2.60799 6.55849
H 13.55284 2.13327 4.76361
H 13.98285 0.38546 4.83725
H 13.22183 1.21789 7.45171
H 13.98723 2.59920 6.75099
H 10.50398 6.25749 2.87503
H 9.54670 7.02578 1.65334
H 11.31128 6.99136 1.42565
H 9.57673 7.68349 -0.47784
H 10.09301 7.79549 -2.25762
H 11.22043 7.31466 -0.95717
H 8.71359 1.28618 -3.79685
H 7.62453 -1.27198 -2.73546
H 6.48275 1.61939 -4.00049
H 6.40549 1.68242 -2.20436
H 6.14058 0.21324 -2.99618
H 8.75616 -1.03646 -4.97950
H 9.28181 -2.41048 -4.02518
H 10.55358 0.14561 -4.68178
H 11.29623 -1.49474 -4.73252
H 11.09025 -0.58812 -3.16729
H 10.96267 -5.42561 0.64405
H 9.82170 -4.75033 -0.56358
H 9.25898 -4.99087 1.13870
H 11.19160 -2.42897 5.13948
H 14.68350 -3.36659 7.48690
H 14.84090 -1.50856 7.27035
H 15.48232 -2.73286 6.14701
