79

Mg 15.76629 1.42408 1.20717
C 14.01250 -1.01787 3.16680
C 13.29936 3.63324 2.02477
C 17.03948 3.46048 -0.86635
C 17.42256 -1.21785 -0.34932
N 13.94427 1.21634 2.44384
C 13.41332 0.25881 3.18920
C 12.21725 0.71556 4.06691
C 11.75319 1.98475 3.19933
C 13.08584 2.32864 2.53717
C 10.75408 1.63549 2.10886
C 12.66261 1.13858 5.51076
C 11.51929 1.29989 6.51502
H 11.75527 0.92033 7.90525
N 15.54092 3.38807 1.03244
C 14.48650 4.12553 1.43939
C 14.79695 5.51337 1.06297
C 16.04590 5.51173 0.25376
C 16.25033 4.08673 0.08738
C 13.98694 6.68538 1.53595
C 16.90600 6.61097 -0.29224
O 17.81295 6.38390 -1.16900
C 16.59299 7.97439 0.16010
N 16.88825 1.15800 -0.52278
C 17.36207 2.21303 -1.20859
C 18.36493 1.78006 -2.25128
C 18.64772 0.23335 -1.95923
C 17.64859 0.00727 -0.80337
C 17.92813 1.95147 -3.70600
C 20.12900 -0.18362 -1.74803
C 20.65606 0.41637 -0.46443
N 15.88297 -0.71588 1.48106
C 16.61642 -1.63687 0.70137
C 16.29050 -2.98794 1.20218
C 15.36508 -2.75879 2.23154
C 15.11547 -1.36478 2.34958
C 16.79167 -4.21275 0.67799
C 14.53455 -3.37995 3.23806
O 14.39480 -4.52621 3.66268
C 13.52606 -2.28969 3.80436
C 13.54699 -2.37317 5.30606
O 14.57563 -2.08113 5.94104
O 12.29387 -2.57211 5.75382
C 12.26144 -2.65079 7.23860
H 12.46614 4.33649 2.03252
H 17.58801 4.12698 -1.53596
H 17.97188 -2.08723 -0.71689
H 11.40782 -0.00084 4.14007
H 11.42297 2.80012 3.83767
H 10.61032 0.56886 2.02075
H 11.16552 2.03875 1.19280
H 9.81269 2.16672 2.27592
H 13.03499 2.17071 5.48262
H 13.39184 0.45504 5.90014
H 10.58423 0.85831 6.14950
H 11.29224 2.36413 6.61436
H 13.03557 6.36467 1.97802
H 13.69513 7.25261 0.64546
H 14.54702 7.34184 2.20530
H 15.56471 8.21403 -0.10002
H 17.37076 8.60998 -0.26766
H 16.65591 8.00329 1.25364
H 19.29128 2.33199 -2.14956
H 18.31602 -0.40560 -2.79083
H 18.62170 2.57692 -4.29917
H 16.93217 2.37395 -3.71582
H 17.79113 1.02400 -4.25938
H 20.75223 0.21135 -2.55409
H 20.27605 -1.25824 -1.72431
H 20.94531 1.42776 -0.76532
H 21.51288 -0.14767 -0.10144
H 19.85925 0.50988 0.28256
H 17.05321 -4.83075 1.52662
H 17.64785 -4.04613 0.02763
H 15.91611 -4.56017 0.12304
H 12.53965 -2.51225 3.39567
H 11.78604 -3.60183 7.49784
H 11.75576 -1.72648 7.57577
H 13.20916 -2.73996 7.75659
