79

Mg 13.14546 1.18073 1.00582
C 13.27255 -2.40222 0.84654
C 12.04803 0.84994 4.21842
C 12.59309 4.30507 1.03379
C 13.13963 1.19685 -2.47921
N 12.75150 -0.59876 2.25901
C 12.89444 -1.90731 2.11206
C 12.69445 -2.72654 3.41529
C 11.77456 -1.68244 4.21688
C 12.23965 -0.38762 3.55371
C 10.28988 -1.85353 3.94161
C 14.04600 -2.99534 4.16567
C 13.96759 -4.04640 5.27512
H 15.11884 -4.91867 5.49017
N 12.90114 2.42811 2.52993
C 12.46914 2.12153 3.77116
C 12.44409 3.39136 4.51351
C 12.73886 4.49692 3.56191
C 12.73519 3.77244 2.30684
C 12.23860 3.46164 5.99886
C 12.97127 5.96565 3.74902
O 12.97427 6.77852 2.75802
C 13.10221 6.43730 5.13534
N 12.68822 2.54521 -0.49467
C 12.54979 3.85416 -0.22005
C 12.49726 4.67468 -1.48670
C 12.87367 3.66510 -2.66850
C 12.99691 2.35799 -1.85507
C 11.15547 5.33938 -1.79356
C 14.05214 4.07343 -3.59433
C 15.34970 4.04986 -2.81898
N 13.38125 -0.29261 -0.55678
C 13.31887 -0.07511 -1.95066
C 13.42273 -1.39671 -2.60259
C 13.51592 -2.30072 -1.53368
C 13.45284 -1.59435 -0.30219
C 13.37467 -1.63885 -4.00444
C 13.64261 -3.69290 -1.16697
O 13.82615 -4.74078 -1.78502
C 13.36347 -3.83238 0.39156
C 14.44980 -4.68813 0.98324
O 15.62847 -4.29178 0.99923
O 13.88988 -5.73034 1.62408
C 14.92691 -6.60238 2.23721
H 11.48469 0.85567 5.15197
H 12.51092 5.39333 0.98447
H 13.24408 1.12617 -3.56400
H 12.16694 -3.66400 3.28611
H 12.01577 -1.67605 5.27666
H 10.10569 -2.57442 3.15896
H 9.93061 -0.87597 3.64777
H 9.76144 -2.10348 4.86606
H 14.30626 -2.11152 4.76222
H 14.82086 -3.25892 3.47231
H 13.04404 -4.63547 5.22033
H 13.90051 -3.53167 6.23667
H 11.88321 2.50509 6.40149
H 11.40914 4.15521 6.17444
H 13.12132 3.82483 6.52949
H 12.20204 6.18299 5.68986
H 13.35257 7.49733 5.06097
H 13.92834 5.89782 5.61186
H 13.22831 5.47342 -1.46065
H 12.03500 3.52335 -3.36590
H 11.22855 6.43729 -1.90901
H 10.46035 5.08544 -1.00435
H 10.64616 4.96419 -2.67958
H 13.91940 5.09947 -3.94614
H 14.15103 3.44252 -4.47135
H 15.35650 5.02335 -2.31962
H 16.19721 3.94636 -3.49354
H 15.32835 3.27959 -2.03930
H 14.15207 -2.35888 -4.22285
H 13.51165 -0.72044 -4.57147
H 12.35917 -2.03248 -4.09968
H 12.37742 -4.28355 0.50867
H 14.76138 -7.61386 1.85355
H 14.83231 -6.45627 3.32966
H 15.95799 -6.43321 1.94960
