79

Mg 31.54017 2.84366 2.40087
C 31.80739 0.66405 5.23935
C 30.73292 5.33933 4.58138
C 30.85823 4.67312 -0.10022
C 31.23966 -0.00540 0.41637
N 31.33026 2.87444 4.60252
C 31.51645 2.00126 5.58090
C 31.46254 2.61200 7.00696
C 30.56950 3.90618 6.68069
C 30.92085 4.07977 5.20452
C 29.07563 3.64944 6.78912
C 32.88289 3.01356 7.53930
C 32.94364 3.32769 9.03576
H 34.14539 2.95500 9.77696
N 31.37186 4.81609 2.26029
C 31.05971 5.67874 3.25009
C 31.04277 7.01290 2.63051
C 31.20837 6.84962 1.16060
C 31.13001 5.40718 1.04513
C 30.96048 8.28053 3.43037
C 31.39233 7.83024 0.04224
O 31.27675 7.48082 -1.18551
C 31.61935 9.23044 0.42877
N 30.89970 2.41156 0.47074
C 30.72874 3.38948 -0.43612
C 30.53429 2.82082 -1.82147
C 30.85274 1.25885 -1.69332
C 31.10028 1.17511 -0.17111
C 29.14405 3.00838 -2.42846
C 31.93024 0.67944 -2.65038
C 33.28839 1.24375 -2.30057
N 31.70645 0.71118 2.70574
C 31.51741 -0.30528 1.74389
C 31.62265 -1.59835 2.45052
C 31.84449 -1.24131 3.78910
C 31.85520 0.17445 3.91166
C 31.46697 -2.88412 1.86003
C 32.06145 -1.74013 5.12806
O 32.23710 -2.85289 5.62268
C 31.92104 -0.52880 6.14754
C 33.08922 -0.58023 7.09371
O 34.24689 -0.39397 6.67932
O 32.63072 -0.62382 8.35793
C 33.75233 -0.66474 9.33370
H 30.25063 6.13359 5.15184
H 30.72545 5.25695 -1.01400
H 31.25516 -0.94017 -0.14811
H 30.96684 1.99510 7.74688
H 30.89875 4.76827 7.25494
H 28.85725 2.60465 6.95304
H 28.65113 3.98202 5.85091
H 28.63831 4.28887 7.56127
H 33.15429 3.99521 7.13009
H 33.60711 2.25977 7.29861
H 32.04497 2.98825 9.56501
H 32.93585 4.41292 9.16313
H 30.68181 8.08122 4.47249
H 30.11973 8.85729 3.02993
H 31.86838 8.88328 3.35904
H 30.78095 9.58063 1.02620
H 31.81671 9.76271 -0.50376
H 32.50518 9.27658 1.07203
H 31.22989 3.26489 -2.52293
H 29.96511 0.64361 -1.90166
H 29.15982 3.53652 -3.40051
H 28.52955 3.54209 -1.71565
H 28.57842 2.09053 -2.57950
H 31.72428 0.98195 -3.68004
H 31.98185 -0.40415 -2.63728
H 33.29541 2.20819 -2.81719
H 34.07964 0.59340 -2.66801
H 33.36605 1.44495 -1.22580
H 32.25342 -3.50876 2.26229
H 31.51598 -2.83161 0.77439
H 30.46492 -3.14114 2.21374
H 30.96871 -0.64579 6.66615
H 33.59869 -1.54882 9.96019
H 33.74403 0.31889 9.83982
H 34.74723 -0.85043 8.94621
