158

Mg 0.00000 0.00000 0.00000
C -0.21700 -2.21800 2.80100
C -1.25500 2.44200 2.02600
C -0.24500 1.85000 -2.56400
C 0.14600 -2.82400 -2.03700
N -0.61700 -0.00900 2.12600
C -0.59400 -0.90800 3.10500
C -0.93600 -0.30900 4.50200
C -1.77300 0.96400 4.03200
C -1.15500 1.16800 2.66000
C -3.26300 0.68500 3.86300
C 0.34500 0.11000 5.29900
C 0.12400 0.39700 6.78700
H 1.16800 0.03300 7.73300
N -0.18500 1.96100 -0.15200
C -0.70300 2.80000 0.77700
C -0.62000 4.15600 0.19300
C -0.18700 4.01500 -1.22500
C -0.21400 2.58300 -1.38000
C -0.88700 5.40600 0.97400
C 0.18100 5.01300 -2.27700
O 0.30300 4.69000 -3.50800
C 0.31000 6.41400 -1.83700
N -0.26500 -0.41300 -2.02900
C -0.27900 0.56900 -2.93700
C -0.19600 0.02400 -4.33200
C 0.12400 -1.53300 -4.18000
C 0.08600 -1.63200 -2.63500
C -1.45100 0.20500 -5.19700
C 1.37300 -2.07000 -4.92300
C 2.62600 -1.49000 -4.30600
N 0.15000 -2.14400 0.30300
C 0.17300 -3.13600 -0.68800
C 0.17300 -4.43800 0.00400
C 0.13300 -4.11100 1.35800
C 0.08300 -2.69500 1.50200
C 0.14900 -5.71500 -0.62300
C 0.09600 -4.62900 2.71600
O 0.20800 -5.74700 3.22100
C -0.25500 -3.42800 3.70100
C 0.71700 -3.48200 4.84800
O 1.93100 -3.25500 4.66900
O 0.03800 -3.55600 6.00300
C 0.94300 -3.58300 7.18300
H -1.85900 3.22000 2.49700
H -0.21800 2.45300 -3.47400
H 0.27600 -3.74700 -2.60500
H -1.55400 -0.94900 5.13200
H -1.58500 1.83100 4.66500
H -3.48400 -0.37700 3.96900
H -3.51100 1.02700 2.85800
H -3.85200 1.30100 4.54300
H 0.66900 1.09600 4.96600
H 1.13000 -0.63900 5.18900
H -0.84400 0.02600 7.12500
H 0.06200 1.47700 6.92100
H -1.34400 5.18600 1.93800
H -1.65100 5.96300 0.43200
H 0.00700 6.02000 1.08400
H -0.63500 6.74400 -1.40500
H 0.66500 6.97000 -2.70400
H 1.04800 6.46600 -1.03600
H 0.60800 0.50100 -4.89100
H -0.69200 -2.15600 -4.54700
H -1.26700 0.74000 -6.12900
H -2.20400 0.71400 -4.59600
H -1.96700 -0.72000 -5.45300
H 1.35600 -1.75900 -5.96700
H 1.45200 -3.15700 -4.90200
H 2.71400 -0.52200 -4.79800
H 3.48700 -2.12100 -4.52900
H 2.49500 -1.30300 -3.24000
H 0.86700 -6.33300 -0.08400
H 0.40400 -5.64200 -1.68000
H -0.89100 -5.99900 -0.46300
H -1.28300 -3.58100 4.02800
H 0.69800 -4.47800 7.75500
H 0.83300 -2.61900 7.68000
H 2.00000 -3.75400 6.97600
Mg 13.14552 1.18028 1.00563
C 13.28818 -2.38486 0.62024
C 12.06834 0.64239 4.19702
C 12.57893 4.29388 1.23344
C 13.11933 1.41581 -2.47137
N 12.76706 -0.67653 2.14638
C 12.91517 -1.97251 1.91649
C 12.72654 -2.87316 3.16661
C 11.80654 -1.88619 4.03745
C 12.26179 -0.54988 3.45461
C 10.32108 -2.04698 3.76014
C 14.08366 -3.18197 3.89109
C 14.01655 -4.30119 4.93253
H 15.17304 -5.17954 5.08584
N 12.90433 2.32798 2.60663
C 12.48098 1.94170 3.82845
C 12.45441 3.16211 4.64945
C 12.73853 4.32686 3.76778
C 12.73090 3.68284 2.46960
C 12.25724 3.13770 6.13739
C 12.96526 5.78203 4.04576
O 12.95875 6.65569 3.10794
C 13.10209 6.16608 5.45830
N 12.67327 2.63426 -0.40336
C 12.53041 3.92261 -0.04607
C 12.46673 4.82100 -1.25819
C 12.84090 3.88973 -2.50331
C 12.97489 2.53462 -1.77454
C 11.12013 5.49703 -1.51515
C 14.01206 4.36139 -3.40807
C 15.31421 4.29548 -2.64291
N 13.37899 -0.19054 -0.64797
C 13.30750 0.11399 -2.02500
C 13.41364 -1.16340 -2.75947
C 13.51721 -2.13245 -1.75017
C 13.45805 -1.50536 -0.47629
C 13.35854 -1.31701 -4.17350
C 13.65245 -3.54432 -1.47260
O 13.83721 -4.55027 -2.15645
C 13.38304 -3.78305 0.07556
C 14.47672 -4.66897 0.60615
O 15.65362 -4.26856 0.64057
O 13.92535 -5.75223 1.18313
C 14.96994 -6.65599 1.73437
H 11.51043 0.58652 5.13217
H 12.49147 5.38266 1.25323
H 13.21778 1.41410 -3.55902
H 12.20261 -3.80323 2.98153
H 12.05388 -1.94536 5.09418
H 10.13565 -2.71805 2.93466
H 9.95561 -1.05465 3.53046
H 9.79919 -2.35727 4.66991
H 14.34332 -2.33620 4.54069
H 14.85567 -3.39751 3.17823
H 13.09542 -4.89022 4.84583
H 13.95270 -3.84837 5.92495
H 11.90861 2.15594 6.48091
H 11.42563 3.81471 6.36089
H 13.14135 3.47113 6.68496
H 12.20635 5.87289 6.00066
H 13.34713 7.22992 5.44948
H 13.93346 5.60177 5.89532
H 13.19423 5.62013 -1.18590
H 11.99885 3.78801 -3.20361
H 11.18747 6.60038 -1.56160
H 10.43079 5.19045 -0.73968
H 10.60740 5.17586 -2.42023
H 13.87255 5.40688 -3.69380
H 14.10876 3.78747 -4.32363
H 15.31943 5.23562 -2.08326
H 16.15825 4.23888 -3.32733
H 15.30095 3.47755 -1.91321
H 14.13797 -2.01799 -4.44113
H 13.48798 -0.36405 -4.68229
H 12.34432 -1.70890 -4.28774
H 12.39977 -4.24560 0.16946
H 14.80683 -7.64211 1.28867
H 14.88103 -6.57944 2.83437
H 15.99853 -6.46392 1.45231
