158

Mg 0.00000 0.00000 0.00000
C -0.21700 -2.21800 2.80100
C -1.25500 2.44200 2.02600
C -0.24500 1.85000 -2.56400
C 0.14600 -2.82400 -2.03700
N -0.61700 -0.00900 2.12600
C -0.59400 -0.90800 3.10500
C -0.93600 -0.30900 4.50200
C -1.77300 0.96400 4.03200
C -1.15500 1.16800 2.66000
C -3.26300 0.68500 3.86300
C 0.34500 0.11000 5.29900
C 0.12400 0.39700 6.78700
H 1.16800 0.03300 7.73300
N -0.18500 1.96100 -0.15200
C -0.70300 2.80000 0.77700
C -0.62000 4.15600 0.19300
C -0.18700 4.01500 -1.22500
C -0.21400 2.58300 -1.38000
C -0.88700 5.40600 0.97400
C 0.18100 5.01300 -2.27700
O 0.30300 4.69000 -3.50800
C 0.31000 6.41400 -1.83700
N -0.26500 -0.41300 -2.02900
C -0.27900 0.56900 -2.93700
C -0.19600 0.02400 -4.33200
C 0.12400 -1.53300 -4.18000
C 0.08600 -1.63200 -2.63500
C -1.45100 0.20500 -5.19700
C 1.37300 -2.07000 -4.92300
C 2.62600 -1.49000 -4.30600
N 0.15000 -2.14400 0.30300
C 0.17300 -3.13600 -0.68800
C 0.17300 -4.43800 0.00400
C 0.13300 -4.11100 1.35800
C 0.08300 -2.69500 1.50200
C 0.14900 -5.71500 -0.62300
C 0.09600 -4.62900 2.71600
O 0.20800 -5.74700 3.22100
C -0.25500 -3.42800 3.70100
C 0.71700 -3.48200 4.84800
O 1.93100 -3.25500 4.66900
O 0.03800 -3.55600 6.00300
C 0.94300 -3.58300 7.18300
H -1.85900 3.22000 2.49700
H -0.21800 2.45300 -3.47400
H 0.27600 -3.74700 -2.60500
H -1.55400 -0.94900 5.13200
H -1.58500 1.83100 4.66500
H -3.48400 -0.37700 3.96900
H -3.51100 1.02700 2.85800
H -3.85200 1.30100 4.54300
H 0.66900 1.09600 4.96600
H 1.13000 -0.63900 5.18900
H -0.84400 0.02600 7.12500
H 0.06200 1.47700 6.92100
H -1.34400 5.18600 1.93800
H -1.65100 5.96300 0.43200
H 0.00700 6.02000 1.08400
H -0.63500 6.74400 -1.40500
H 0.66500 6.97000 -2.70400
H 1.04800 6.46600 -1.03600
H 0.60800 0.50100 -4.89100
H -0.69200 -2.15600 -4.54700
H -1.26700 0.74000 -6.12900
H -2.20400 0.71400 -4.59600
H -1.96700 -0.72000 -5.45300
H 1.35600 -1.75900 -5.96700
H 1.45200 -3.15700 -4.90200
H 2.71400 -0.52200 -4.79800
H 3.48700 -2.12100 -4.52900
H 2.49500 -1.30300 -3.24000
H 0.86700 -6.33300 -0.08400
H 0.40400 -5.64200 -1.68000
H -0.89100 -5.99900 -0.46300
H -1.28300 -3.58100 4.02800
H 0.69800 -4.47800 7.75500
H 0.83300 -2.61900 7.68000
H 2.00000 -3.75400 6.97600
Mg 10.50228 0.94976 0.80360
C 8.25116 -1.80335 0.32208
C 8.21944 2.90452 -0.80952
C 12.64712 3.28793 0.81084
C 13.03087 -1.39015 1.32967
N 8.52746 0.49429 -0.08234
C 7.74718 -0.57380 -0.15083
C 6.31782 -0.29281 -0.68704
C 6.63191 1.04371 -1.52007
C 7.84815 1.53801 -0.73961
C 7.06126 0.77313 -2.95247
C 5.28915 -0.02226 0.46650
C 3.82050 -0.04639 0.03724
H 2.83100 -0.57654 0.97121
N 10.27151 2.90498 0.55374
C 9.27474 3.52863 -0.10868
C 9.57262 4.96669 -0.02268
C 10.91296 5.13151 0.60264
C 11.34764 3.75036 0.66230
C 8.59317 6.02667 -0.43564
C 11.68222 6.33436 1.05827
O 12.92734 6.26489 1.35437
C 10.95852 7.61410 1.05808
N 12.58117 0.95603 0.82623
C 13.26848 2.11044 0.87981
C 14.73045 1.86213 1.16506
C 14.83869 0.30961 1.53323
C 13.37035 -0.10873 1.30006
C 15.69479 2.18256 0.02324
C 15.50202 -0.04694 2.89173
C 14.62771 0.42280 4.03204
N 10.61545 -1.19782 1.01132
C 11.77828 -1.97639 1.20039
C 11.36317 -3.39381 1.16822
C 9.98017 -3.34164 0.93786
C 9.56608 -1.98790 0.81368
C 12.22867 -4.51710 1.29170
C 8.77815 -4.12428 0.76092
O 8.49874 -5.31922 0.84919
C 7.62600 -3.16754 0.22838
C 6.39024 -3.42953 1.04493
O 6.36558 -3.15930 2.25859
O 5.37674 -3.74997 0.22000
C 4.12623 -4.00812 0.98248
H 7.67883 3.55446 -1.49814
H 13.41145 4.05942 0.92954
H 13.74409 -2.17728 1.58348
H 5.92125 -1.05658 -1.34519
H 5.81517 1.75693 -1.44516
H 7.19872 -0.28151 -3.13947
H 7.99383 1.30569 -3.08563
H 6.35241 1.22743 -3.65067
H 5.37481 1.02482 0.78435
H 5.43939 -0.70614 1.27912
H 3.68871 -0.49202 -0.95623
H 3.47730 0.98397 -0.08352
H 7.76043 5.60293 -1.01043
H 9.10987 6.67971 -1.14727
H 8.24343 6.62801 0.40623
H 10.59964 7.82588 0.05368
H 11.64590 8.33861 1.49907
H 10.07216 7.51488 1.69458
H 15.06412 2.44834 2.01248
H 15.44314 -0.24222 0.79840
H 16.47740 2.91222 0.30468
H 15.11943 2.54729 -0.81727
H 16.20730 1.32213 -0.40359
H 16.45588 0.47593 2.99622
H 15.70109 -1.10681 3.01021
H 14.90045 1.47747 4.13385
H 14.85204 -0.13238 4.94060
H 13.56721 0.38158 3.75765
H 11.73763 -5.21711 1.95455
H 13.20559 -4.22636 1.67230
H 12.27474 -4.84335 0.24925
H 7.47440 -3.39374 -0.82776
H 3.78173 -5.00830 0.70204
H 3.45440 -3.16047 0.75033
H 4.20665 -4.10619 2.05876
