79

Mg 15.76628 1.41940 1.19766
C 15.15098 3.77492 3.82163
C 14.83313 3.85355 -1.00398
C 15.86426 -0.76890 -1.09544
C 15.54684 -1.09340 3.60252
N 15.09936 3.50952 1.49306
C 14.96375 4.31042 2.54537
C 14.67756 5.79282 2.16073
C 14.05030 5.56075 0.71343
C 14.72730 4.24743 0.36302
C 12.54037 5.34560 0.73116
C 15.98512 6.65111 2.08751
C 15.77011 8.16667 2.04066
H 16.72382 9.03061 2.71992
N 15.87693 1.62354 -0.76421
C 15.46440 2.68903 -1.49210
C 15.76197 2.35895 -2.90249
C 16.20632 0.93836 -2.95333
C 15.97221 0.52780 -1.59245
C 15.66217 3.35272 -4.01882
C 16.74503 0.08315 -4.05630
O 16.85013 -1.18602 -3.94345
C 17.06796 0.76836 -5.32091
N 15.49632 -0.65056 1.19768
C 15.65123 -1.36667 0.07867
C 15.68927 -2.83713 0.37231
C 15.77175 -2.96857 1.96155
C 15.67918 -1.46669 2.32768
C 14.49780 -3.65418 -0.14618
C 16.94674 -3.79735 2.53856
C 18.25510 -3.08706 2.27247
N 15.59005 1.33083 3.35918
C 15.49220 0.17723 4.15057
C 15.28185 0.62321 5.54015
C 15.25520 2.01401 5.45764
C 15.41110 2.41094 4.09881
C 15.08593 -0.22368 6.66657
C 15.10663 3.25643 6.19803
O 15.03906 3.55153 7.39212
C 14.91121 4.44210 5.15313
C 15.83426 5.55968 5.55598
O 17.07273 5.42342 5.48536
O 15.12182 6.68305 5.73212
C 15.98176 7.83802 6.10454
H 14.33854 4.45763 -1.76714
H 16.00379 -1.55533 -1.84009
H 15.55392 -1.81859 4.41830
H 13.95557 6.29770 2.80279
H 14.34766 6.33949 0.01138
H 12.16227 5.25864 1.74968
H 12.37194 4.41894 0.18214
H 12.03122 6.12604 0.16506
H 16.45976 6.50100 1.11785
H 16.65351 6.40718 2.91400
H 14.74943 8.43315 2.31656
H 15.86479 8.49321 1.00499
H 15.15265 4.26169 -3.70148
H 15.00323 2.92070 -4.77173
H 16.63385 3.57077 -4.46223
H 16.17108 1.25363 -5.70650
H 17.52371 0.01545 -5.96300
H 17.78435 1.56493 -5.11795
H 16.56923 -3.30173 -0.07068
H 14.88257 -3.44111 2.37957
H 14.78308 -4.47465 -0.80509
H 13.81277 -2.97059 -0.64691
H 13.85773 -4.07225 0.63031
H 17.00315 -4.76817 2.04737
H 16.86378 -3.97270 3.61123
H 18.49791 -3.39659 1.25657
H 19.01901 -3.42094 2.97545
H 18.12533 -2.00469 2.26110
H 15.69046 0.19443 7.47137
H 15.37645 -1.25045 6.44530
H 14.01157 -0.11654 6.81533
H 13.86369 4.73711 5.20608
H 15.59241 8.23955 7.04018
H 16.00237 8.50075 5.23923
H 17.00696 7.60262 6.39243
