158

Mg 0.00000 0.00000 0.00000
C -0.21700 -2.21800 2.80100
C -1.25500 2.44200 2.02600
C -0.24500 1.85000 -2.56400
C 0.14600 -2.82400 -2.03700
N -0.61700 -0.00900 2.12600
C -0.59400 -0.90800 3.10500
C -0.93600 -0.30900 4.50200
C -1.77300 0.96400 4.03200
C -1.15500 1.16800 2.66000
C -3.26300 0.68500 3.86300
C 0.34500 0.11000 5.29900
C 0.12400 0.39700 6.78700
H 1.16800 0.03300 7.73300
N -0.18500 1.96100 -0.15200
C -0.70300 2.80000 0.77700
C -0.62000 4.15600 0.19300
C -0.18700 4.01500 -1.22500
C -0.21400 2.58300 -1.38000
C -0.88700 5.40600 0.97400
C 0.18100 5.01300 -2.27700
O 0.30300 4.69000 -3.50800
C 0.31000 6.41400 -1.83700
N -0.26500 -0.41300 -2.02900
C -0.27900 0.56900 -2.93700
C -0.19600 0.02400 -4.33200
C 0.12400 -1.53300 -4.18000
C 0.08600 -1.63200 -2.63500
C -1.45100 0.20500 -5.19700
C 1.37300 -2.07000 -4.92300
C 2.62600 -1.49000 -4.30600
N 0.15000 -2.14400 0.30300
C 0.17300 -3.13600 -0.68800
C 0.17300 -4.43800 0.00400
C 0.13300 -4.11100 1.35800
C 0.08300 -2.69500 1.50200
C 0.14900 -5.71500 -0.62300
C 0.09600 -4.62900 2.71600
O 0.20800 -5.74700 3.22100
C -0.25500 -3.42800 3.70100
C 0.71700 -3.48200 4.84800
O 1.93100 -3.25500 4.66900
O 0.03800 -3.55600 6.00300
C 0.94300 -3.58300 7.18300
H -1.85900 3.22000 2.49700
H -0.21800 2.45300 -3.47400
H 0.27600 -3.74700 -2.60500
H -1.55400 -0.94900 5.13200
H -1.58500 1.83100 4.66500
H -3.48400 -0.37700 3.96900
H -3.51100 1.02700 2.85800
H -3.85200 1.30100 4.54300
H 0.66900 1.09600 4.96600
H 1.13000 -0.63900 5.18900
H -0.84400 0.02600 7.12500
H 0.06200 1.47700 6.92100
H -1.34400 5.18600 1.93800
H -1.65100 5.96300 0.43200
H 0.00700 6.02000 1.08400
H -0.63500 6.74400 -1.40500
H 0.66500 6.97000 -2.70400
H 1.04800 6.46600 -1.03600
H 0.60800 0.50100 -4.89100
H -0.69200 -2.15600 -4.54700
H -1.26700 0.74000 -6.12900
H -2.20400 0.71400 -4.59600
H -1.96700 -0.72000 -5.45300
H 1.35600 -1.75900 -5.96700
H 1.45200 -3.15700 -4.90200
H 2.71400 -0.52200 -4.79800
H 3.48700 -2.12100 -4.52900
H 2.49500 -1.30300 -3.24000
H 0.86700 -6.33300 -0.08400
H 0.40400 -5.64200 -1.68000
H -0.89100 -5.99900 -0.46300
H -1.28300 -3.58100 4.02800
H 0.69800 -4.47800 7.75500
H 0.83300 -2.61900 7.68000
H 2.00000 -3.75400 6.97600
Mg 13.14558 1.18624 0.99088
C 15.89205 -1.03563 1.62277
C 15.24907 3.76187 1.74985
C 10.64180 3.13215 0.88184
C 11.02159 -1.54628 1.40041
N 15.27339 1.23052 1.59316
C 16.23179 0.32825 1.74052
C 17.64950 0.92435 1.95104
C 17.22319 2.35767 2.53647
C 15.84238 2.48251 1.89580
C 17.05152 2.36417 4.04638
C 18.44392 1.06667 0.60543
C 19.93891 1.35001 0.76812
H 20.86701 0.76594 -0.19623
N 13.06002 3.15914 0.79369
C 14.01323 4.05278 1.13145
C 13.45716 5.37577 0.80794
C 12.03512 5.20122 0.40538
C 11.84707 3.79580 0.70456
C 14.28183 6.63004 0.81961
C 11.00992 6.14620 -0.14431
O 9.76775 5.83491 -0.19860
C 11.48925 7.48134 -0.53050
N 11.11556 0.89225 1.32988
C 10.23459 1.89426 1.16314
C 8.81419 1.38246 1.19344
C 8.93165 -0.21234 1.17339
C 10.46870 -0.35358 1.22739
C 7.97651 1.81572 2.39634
C 8.15953 -0.96084 0.05256
C 8.77021 -0.64555 -1.29393
N 13.38556 -0.94560 1.24732
C 12.36362 -1.90361 1.42605
C 13.02279 -3.20241 1.67308
C 14.39325 -2.90328 1.64354
C 14.57503 -1.51240 1.41569
C 12.36055 -4.43522 1.93335
C 15.72728 -3.44601 1.76387
O 16.19823 -4.57738 1.87323
C 16.75506 -2.23929 1.88168
C 17.89210 -2.50329 0.93301
O 17.69987 -2.51744 -0.29559
O 19.05083 -2.47927 1.61648
C 20.20907 -2.72511 0.71655
H 15.75677 4.62214 2.18695
H 9.74433 3.73955 0.74366
H 10.43030 -2.46359 1.44021
H 18.26217 0.39574 2.67145
H 17.88276 3.14322 2.17697
H 17.12971 1.37182 4.46502
H 16.06726 2.77528 4.22877
H 17.75903 3.06208 4.50321
H 18.13146 1.99013 0.10111
H 18.30538 0.20069 -0.01223
H 20.28398 1.16701 1.79301
H 20.10824 2.41862 0.61511
H 15.24792 6.47167 1.31457
H 13.76188 7.34861 1.46240
H 14.39956 7.06600 -0.17475
H 11.94106 7.96616 0.33163
H 10.63029 7.98061 -0.98304
H 12.28208 7.36575 -1.27794
H 8.26787 1.70566 0.31584
H 8.54211 -0.66125 2.09890
H 7.04601 2.34299 2.11306
H 8.58952 2.44103 3.03175
H 7.68826 1.01213 3.07187
H 7.12323 -0.61649 0.01166
H 8.13618 -2.03691 0.18868
H 8.30412 0.30816 -1.55906
H 8.52344 -1.42006 -2.01730
H 9.84900 -0.47201 -1.20588
H 12.87056 -5.19149 1.35159
H 11.30441 -4.38091 1.67766
H 12.51803 -4.51726 3.01212
H 17.08940 -2.19380 2.91885
H 20.76027 -3.57526 1.13021
H 20.74633 -1.76035 0.65078
H 19.99853 -3.07739 -0.28646
