79

Mg 13.12834 1.18561 0.99790
C 11.68790 -1.63504 -0.68975
C 11.92632 3.12646 -1.53644
C 14.76252 3.61649 2.21760
C 15.14579 -1.06152 2.73744
N 11.97105 0.69337 -0.82162
C 11.42740 -0.40379 -1.32663
C 10.48964 -0.15762 -2.53888
C 11.10285 1.24041 -3.03725
C 11.67475 1.74239 -1.71301
C 12.24915 1.07800 -4.02161
C 8.98750 -0.00619 -2.11150
C 7.98151 -0.07259 -3.26273
H 6.68737 -0.70428 -3.02062
N 12.92650 3.13952 0.71499
C 12.39583 3.75522 -0.36232
C 12.49714 5.19769 -0.09182
C 13.28019 5.38642 1.15955
C 13.71399 4.02599 1.40676
C 11.81635 6.23403 -0.93796
C 13.59803 6.59382 1.98862
O 14.49362 6.56459 2.90507
C 12.89632 7.83604 1.63366
N 14.86683 1.28746 2.13351
C 15.33391 2.46726 2.57828
C 16.43084 2.27049 3.59732
C 16.43725 0.70515 3.92482
C 15.35518 0.23377 2.92866
C 17.82994 2.70459 3.16089
C 16.29598 0.29776 5.41705
C 14.91656 0.65580 5.92143
N 13.26750 -0.96302 1.17702
C 14.20205 -1.69658 1.94029
C 13.97177 -3.12722 1.65279
C 12.92617 -3.12567 0.71726
C 12.54615 -1.78767 0.42598
C 14.71577 -4.21435 2.19197
C 12.06465 -3.95129 -0.09811
O 11.86828 -5.16112 -0.20532
C 11.30972 -3.01865 -1.14054
C 9.85154 -3.38730 -1.12259
O 9.16298 -3.19303 -0.10536
O 9.46165 -3.70378 -2.37086
C 8.01965 -4.06600 -2.40631
H 11.79197 3.79125 -2.39019
H 15.28729 4.41412 2.74852
H 15.66768 -1.82853 3.31363
H 10.56224 -0.89750 -3.32696
H 10.32350 1.90885 -3.39383
H 12.54085 0.04428 -4.13335
H 13.06740 1.66061 -3.61901
H 11.99232 1.54046 -4.97895
H 8.81439 1.02241 -1.76981
H 8.72925 -0.73060 -1.36372
H 8.43332 -0.46248 -4.18295
H 7.68267 0.94608 -3.52161
H 11.45252 5.80774 -1.88099
H 12.58463 6.95264 -1.24324
H 11.02871 6.76594 -0.40003
H 13.11531 8.09170 0.59967
H 13.18750 8.56358 2.39378
H 11.81689 7.65695 1.69174
H 16.21696 2.81886 4.50651
H 17.37867 0.22795 3.61524
H 18.28619 3.45144 3.83774
H 17.76801 3.09265 2.15287
H 18.55165 1.89663 3.05347
H 17.00589 0.85722 6.03119
H 16.47676 -0.75692 5.59582
H 15.01588 1.71387 6.18162
H 14.66019 0.05731 6.79328
H 14.17285 0.58195 5.11949
H 13.99855 -4.97562 2.46866
H 15.31436 -3.90209 3.04517
H 15.33495 -4.47392 1.32912
H 11.76250 -3.18685 -2.11844
H 7.95138 -5.06220 -2.85421
H 7.51669 -3.23804 -2.94041
H 7.51953 -4.22566 -1.45824
