158

Mg 0.00000 0.00000 0.00000
C -0.21700 -2.21800 2.80100
C -1.25500 2.44200 2.02600
C -0.24500 1.85000 -2.56400
C 0.14600 -2.82400 -2.03700
N -0.61700 -0.00900 2.12600
C -0.59400 -0.90800 3.10500
C -0.93600 -0.30900 4.50200
C -1.77300 0.96400 4.03200
C -1.15500 1.16800 2.66000
C -3.26300 0.68500 3.86300
C 0.34500 0.11000 5.29900
C 0.12400 0.39700 6.78700
H 1.16800 0.03300 7.73300
N -0.18500 1.96100 -0.15200
C -0.70300 2.80000 0.77700
C -0.62000 4.15600 0.19300
C -0.18700 4.01500 -1.22500
C -0.21400 2.58300 -1.38000
C -0.88700 5.40600 0.97400
C 0.18100 5.01300 -2.27700
O 0.30300 4.69000 -3.50800
C 0.31000 6.41400 -1.83700
N -0.26500 -0.41300 -2.02900
C -0.27900 0.56900 -2.93700
C -0.19600 0.02400 -4.33200
C 0.12400 -1.53300 -4.18000
C 0.08600 -1.63200 -2.63500
C -1.45100 0.20500 -5.19700
C 1.37300 -2.07000 -4.92300
C 2.62600 -1.49000 -4.30600
N 0.15000 -2.14400 0.30300
C 0.17300 -3.13600 -0.68800
C 0.17300 -4.43800 0.00400
C 0.13300 -4.11100 1.35800
C 0.08300 -2.69500 1.50200
C 0.14900 -5.71500 -0.62300
C 0.09600 -4.62900 2.71600
O 0.20800 -5.74700 3.22100
C -0.25500 -3.42800 3.70100
C 0.71700 -3.48200 4.84800
O 1.93100 -3.25500 4.66900
O 0.03800 -3.55600 6.00300
C 0.94300 -3.58300 7.18300
H -1.85900 3.22000 2.49700
H -0.21800 2.45300 -3.47400
H 0.27600 -3.74700 -2.60500
H -1.55400 -0.94900 5.13200
H -1.58500 1.83100 4.66500
H -3.48400 -0.37700 3.96900
H -3.51100 1.02700 2.85800
H -3.85200 1.30100 4.54300
H 0.66900 1.09600 4.96600
H 1.13000 -0.63900 5.18900
H -0.84400 0.02600 7.12500
H 0.06200 1.47700 6.92100
H -1.34400 5.18600 1.93800
H -1.65100 5.96300 0.43200
H 0.00700 6.02000 1.08400
H -0.63500 6.74400 -1.40500
H 0.66500 6.97000 -2.70400
H 1.04800 6.46600 -1.03600
H 0.60800 0.50100 -4.89100
H -0.69200 -2.15600 -4.54700
H -1.26700 0.74000 -6.12900
H -2.20400 0.71400 -4.59600
H -1.96700 -0.72000 -5.45300
H 1.35600 -1.75900 -5.96700
H 1.45200 -3.15700 -4.90200
H 2.71400 -0.52200 -4.79800
H 3.48700 -2.12100 -4.52900
H 2.49500 -1.30300 -3.24000
H 0.86700 -6.33300 -0.08400
H 0.40400 -5.64200 -1.68000
H -0.89100 -5.99900 -0.46300
H -1.28300 -3.58100 4.02800
H 0.69800 -4.47800 7.75500
H 0.83300 -2.61900 7.68000
H 2.00000 -3.75400 6.97600
Mg 31.53895 2.84242 2.40297
C 31.39766 0.12845 4.74678
C 30.28861 4.84021 4.86875
C 31.22682 5.14494 0.24232
C 31.67726 0.45936 -0.13625
N 30.95880 2.42266 4.49569
C 31.00700 1.36780 5.29525
C 30.69158 1.67418 6.78394
C 29.82228 3.00832 6.57592
C 30.41197 3.47975 5.24826
C 28.34139 2.73582 6.37087
C 31.98667 1.95751 7.62328
C 31.78256 1.95907 9.13989
H 32.85384 1.44195 9.98690
N 31.32860 4.80205 2.63572
C 30.82386 5.44437 3.70994
C 30.86573 6.87702 3.37842
C 31.28307 7.01753 1.95687
C 31.27539 5.62921 1.54143
C 30.60549 7.95444 4.39077
C 31.61943 8.20593 1.10788
O 31.72531 8.11493 -0.16622
C 31.72915 9.49740 1.80182
N 31.24947 2.81440 0.34439
C 31.20055 3.95715 -0.36248
C 31.26300 3.68381 -1.84632
C 31.60912 2.12841 -1.98245
C 31.59842 1.73512 -0.48893
C 29.98978 3.99240 -2.63375
C 32.85236 1.75615 -2.83593
C 34.11142 2.23615 -2.15054
N 31.72507 0.69254 2.29602
C 31.73674 -0.10573 1.13124
C 31.76570 -1.51600 1.57023
C 31.74547 -1.44026 2.97107
C 31.68624 -0.07946 3.37629
C 31.75676 -2.65382 0.71500
C 31.75002 -2.20239 4.19901
O 31.87795 -3.39287 4.48206
C 31.39735 -1.22493 5.40175
C 32.38977 -1.46946 6.50530
O 33.59369 -1.20319 6.34312
O 31.72587 -1.77024 7.63629
C 32.66705 -2.01050 8.76247
H 29.68956 5.50141 5.49552
H 31.23033 5.90332 -0.54402
H 31.82038 -0.34030 -0.86614
H 30.09956 0.91939 7.28751
H 30.01961 3.73461 7.36009
H 28.13477 1.67973 6.28074
H 28.07040 3.25344 5.46000
H 27.75791 3.20421 7.16867
H 32.28918 3.00189 7.47334
H 32.76684 1.26835 7.36438
H 30.81963 1.51921 9.42666
H 31.71574 2.99537 9.47997
H 30.16168 7.54651 5.30730
H 29.82509 8.60142 3.97574
H 31.49094 8.55844 4.60014
H 30.79018 9.71864 2.30367
H 32.06281 10.20892 1.04400
H 32.49131 9.41050 2.58424
H 32.05140 4.26142 -2.31311
H 30.79136 1.56933 -2.46049
H 30.15140 4.70807 -3.46186
H 29.24547 4.36954 -1.94505
H 29.48998 3.12518 -3.06192
H 32.81314 2.26289 -3.80332
H 32.93852 0.69273 -3.03269
H 34.17228 3.28582 -2.45315
H 34.97546 1.67411 -2.49923
H 33.99919 2.21336 -1.06034
H 32.48503 -3.34801 1.11277
H 31.98681 -2.38054 -0.31270
H 30.71885 -2.97705 0.83128
H 30.37567 -1.44483 5.71381
H 32.44040 -3.00387 9.16188
H 32.53921 -1.15108 9.44717
H 33.71898 -2.11371 8.52320
