158

Mg 0.00000 0.00000 0.00000
C -0.21700 -2.21800 2.80100
C -1.25500 2.44200 2.02600
C -0.24500 1.85000 -2.56400
C 0.14600 -2.82400 -2.03700
N -0.61700 -0.00900 2.12600
C -0.59400 -0.90800 3.10500
C -0.93600 -0.30900 4.50200
C -1.77300 0.96400 4.03200
C -1.15500 1.16800 2.66000
C -3.26300 0.68500 3.86300
C 0.34500 0.11000 5.29900
C 0.12400 0.39700 6.78700
H 1.16800 0.03300 7.73300
N -0.18500 1.96100 -0.15200
C -0.70300 2.80000 0.77700
C -0.62000 4.15600 0.19300
C -0.18700 4.01500 -1.22500
C -0.21400 2.58300 -1.38000
C -0.88700 5.40600 0.97400
C 0.18100 5.01300 -2.27700
O 0.30300 4.69000 -3.50800
C 0.31000 6.41400 -1.83700
N -0.26500 -0.41300 -2.02900
C -0.27900 0.56900 -2.93700
C -0.19600 0.02400 -4.33200
C 0.12400 -1.53300 -4.18000
C 0.08600 -1.63200 -2.63500
C -1.45100 0.20500 -5.19700
C 1.37300 -2.07000 -4.92300
C 2.62600 -1.49000 -4.30600
N 0.15000 -2.14400 0.30300
C 0.17300 -3.13600 -0.68800
C 0.17300 -4.43800 0.00400
C 0.13300 -4.11100 1.35800
C 0.08300 -2.69500 1.50200
C 0.14900 -5.71500 -0.62300
C 0.09600 -4.62900 2.71600
O 0.20800 -5.74700 3.22100
C -0.25500 -3.42800 3.70100
C 0.71700 -3.48200 4.84800
O 1.93100 -3.25500 4.66900
O 0.03800 -3.55600 6.00300
C 0.94300 -3.58300 7.18300
H -1.85900 3.22000 2.49700
H -0.21800 2.45300 -3.47400
H 0.27600 -3.74700 -2.60500
H -1.55400 -0.94900 5.13200
H -1.58500 1.83100 4.66500
H -3.48400 -0.37700 3.96900
H -3.51100 1.02700 2.85800
H -3.85200 1.30100 4.54300
H 0.66900 1.09600 4.96600
H 1.13000 -0.63900 5.18900
H -0.84400 0.02600 7.12500
H 0.06200 1.47700 6.92100
H -1.34400 5.18600 1.93800
H -1.65100 5.96300 0.43200
H 0.00700 6.02000 1.08400
H -0.63500 6.74400 -1.40500
H 0.66500 6.97000 -2.70400
H 1.04800 6.46600 -1.03600
H 0.60800 0.50100 -4.89100
H -0.69200 -2.15600 -4.54700
H -1.26700 0.74000 -6.12900
H -2.20400 0.71400 -4.59600
H -1.96700 -0.72000 -5.45300
H 1.35600 -1.75900 -5.96700
H 1.45200 -3.15700 -4.90200
H 2.71400 -0.52200 -4.79800
H 3.48700 -2.12100 -4.52900
H 2.49500 -1.30300 -3.24000
H 0.86700 -6.33300 -0.08400
H 0.40400 -5.64200 -1.68000
H -0.89100 -5.99900 -0.46300
H -1.28300 -3.58100 4.02800
H 0.69800 -4.47800 7.75500
H 0.83300 -2.61900 7.68000
H 2.00000 -3.75400 6.97600
Mg 10.50564 0.94028 0.80546
C 9.29854 3.44830 3.07081
C 12.17155 -0.43110 3.44718
C 11.94195 -1.01248 -1.24177
C 9.70718 3.10967 -1.80258
N 10.63911 1.52388 2.93475
C 10.08814 2.45929 3.69356
C 10.33538 2.28096 5.21561
C 11.68103 1.40782 5.13996
C 11.47617 0.76108 3.77159
C 12.94368 2.25165 5.08521
C 9.17723 1.49141 5.92081
C 9.19867 1.54770 7.44991
H 7.92481 1.58121 8.16310
N 11.45218 -0.77611 1.11632
C 12.05073 -1.18044 2.25629
C 12.61914 -2.50548 1.96416
C 12.44971 -2.77859 0.51109
C 11.94912 -1.49616 0.05845
C 13.17498 -3.40530 3.02942
C 12.70896 -3.98908 -0.33372
O 12.71497 -3.92798 -1.61398
C 13.04772 -5.22778 0.38208
N 10.98224 1.11362 -1.21076
C 11.55876 0.09646 -1.87479
C 11.55456 0.34536 -3.36423
C 10.63480 1.63545 -3.58164
C 10.32536 1.97696 -2.10752
C 12.92284 0.58268 -4.00288
C 9.44710 1.49411 -4.57263
C 8.41684 0.54103 -4.01087
N 9.49172 2.83880 0.61667
C 9.29003 3.58423 -0.56558
C 8.65431 4.85882 -0.17350
C 8.55041 4.77555 1.22319
C 9.10209 3.54521 1.67197
C 8.30250 5.91895 -1.05581
C 8.10913 5.45330 2.42096
O 7.48778 6.48933 2.65397
C 8.68863 4.67902 3.68233
C 7.56722 4.49005 4.66683
O 6.59434 3.76817 4.38576
O 7.92904 5.01301 5.85257
C 6.85353 4.84021 6.86511
H 12.91222 -0.80813 4.15297
H 12.32632 -1.69691 -2.00157
H 9.33787 3.79714 -2.56656
H 10.51925 3.20129 5.75685
H 11.70513 0.65095 5.91966
H 12.72118 3.30376 4.98670
H 13.49576 1.89942 4.22371
H 13.57479 2.04252 5.95371
H 9.33387 0.41553 5.77019
H 8.22041 1.81606 5.56064
H 9.86937 2.33066 7.82419
H 9.63514 0.61893 7.82526
H 13.31701 -2.86856 3.97554
H 14.18858 -3.68067 2.71854
H 12.58620 -4.31559 3.16127
H 13.93642 -5.06386 0.98689
H 13.10962 -6.00139 -0.38575
H 12.23375 -5.46439 1.07641
H 11.11728 -0.49146 -3.89491
H 11.20906 2.48175 -3.98640
H 13.15074 -0.12502 -4.82221
H 13.67597 0.52307 -3.22843
H 13.07936 1.58386 -4.40078
H 9.78991 1.06028 -5.51519
H 8.96661 2.43780 -4.80837
H 8.81230 -0.44091 -4.28746
H 7.44401 0.71707 -4.46547
H 8.39131 0.58966 -2.91605
H 7.31946 6.25866 -0.75794
H 8.31365 5.59268 -2.09369
H 9.10649 6.62756 -0.83962
H 9.49768 5.28335 4.09441
H 6.62095 5.83515 7.25714
H 7.23764 4.09256 7.58431
H 5.88036 4.51892 6.51275
