79

Mg 31.54061 2.83230 2.39305
C 31.58665 3.03818 -1.18948
C 30.98527 -0.51504 2.04449
C 31.04670 2.68903 5.52402
C 30.95829 6.26799 2.44440
N 31.33326 1.54499 0.60641
C 31.43056 1.72372 -0.70238
C 31.43695 0.41174 -1.53198
C 30.67794 -0.53920 -0.48389
C 31.04593 0.18179 0.81127
C 29.16581 -0.51233 -0.63246
C 32.88993 -0.10230 -1.82627
C 32.98071 -1.20124 -2.88733
H 34.13866 -1.21587 -3.77693
N 31.57037 1.27916 3.62814
C 31.34529 -0.01407 3.31483
C 31.46221 -0.76013 4.57732
C 31.61171 0.21857 5.68841
C 31.38967 1.46126 4.97673
C 31.50645 -2.25949 4.63535
C 31.89355 0.06117 7.15196
O 31.74450 1.03265 7.97467
C 32.25909 -1.28793 7.60782
N 30.86154 4.22571 3.77855
C 30.78982 3.92183 5.08639
C 30.54050 5.15588 5.92026
C 30.70116 6.39149 4.91774
C 30.93801 5.61986 3.60098
C 29.17639 5.23110 6.60579
C 31.71604 7.49654 5.31969
C 33.12354 6.94703 5.27107
N 31.49273 4.42374 0.93254
C 31.20373 5.78630 1.16490
C 31.17872 6.45665 -0.15132
C 31.43418 5.42497 -1.06722
C 31.58623 4.19461 -0.37253
C 30.89573 7.83301 -0.37866
C 31.59924 5.09511 -2.46459
O 31.66245 5.74312 -3.50853
C 31.57987 3.51300 -2.61606
C 32.73639 3.11607 -3.49209
O 33.90717 3.29246 -3.11162
O 32.27492 2.39943 -4.53318
C 33.38613 1.97331 -5.42506
H 30.58436 -1.52901 2.04829
H 30.97359 2.71562 6.61371
H 30.88070 7.35561 2.38328
H 30.88154 0.45902 -2.46099
H 31.09130 -1.54441 -0.49139
H 28.84399 0.23455 -1.34290
H 28.77735 -0.28964 0.35271
H 28.79404 -1.50958 -0.88467
H 33.25837 -0.65433 -0.95204
H 33.53536 0.71185 -2.09311
H 32.05223 -1.29561 -3.46349
H 33.08132 -2.16457 -2.38147
H 31.20852 -2.70800 3.67959
H 30.72783 -2.57541 5.33807
H 32.47009 -2.63938 4.98141
H 31.45946 -1.98190 7.35991
H 32.50932 -1.18133 8.66513
H 33.14464 -1.61684 7.05264
H 31.27749 5.24510 6.70892
H 29.75663 6.94142 4.79418
H 29.24556 5.34855 7.70374
H 28.61780 4.33964 6.35316
H 28.52197 6.02340 6.24635
H 31.54207 7.81355 6.35090
H 31.65908 8.38269 4.69640
H 33.22728 6.44817 6.23930
H 33.84610 7.75344 5.16312
H 33.22015 6.18058 4.49333
H 31.61554 8.18274 -1.10672
H 30.95052 8.40776 0.54353
H 29.87277 7.76177 -0.75778
H 30.62025 3.23767 -3.05525
H 33.14446 2.33207 -6.43033
H 33.47582 0.87918 -5.28873
H 34.35777 2.42641 -5.26671
