79

Mg 31.53797 2.84493 2.40207
C 31.78565 0.67011 5.24599
C 29.87907 5.04277 4.41508
C 30.90842 4.58000 -0.17875
C 32.17085 0.06599 0.39642
N 30.96751 2.75513 4.53720
C 31.16910 1.90573 5.53330
C 30.75499 2.44221 6.92982
C 29.67677 3.53465 6.45771
C 30.22159 3.82827 5.06142
C 28.27271 2.97137 6.31386
C 31.95258 3.10962 7.69294
C 31.69954 3.37729 9.17822
H 32.81422 3.23522 10.11084
N 30.98582 4.74378 2.23444
C 30.34171 5.48843 3.15742
C 30.14780 6.81107 2.54327
C 30.58308 6.73671 1.12210
C 30.82854 5.31409 0.99568
C 29.67166 8.00579 3.31745
C 30.73880 7.77247 0.05012
O 30.90224 7.44962 -1.17947
C 30.60095 9.17506 0.46872
N 31.32814 2.35729 0.39197
C 31.10756 3.30976 -0.53110
C 31.26677 2.76173 -1.92921
C 31.87974 1.29569 -1.74879
C 31.88582 1.21198 -0.20660
C 29.98710 2.67919 -2.76110
C 33.19691 0.98488 -2.51110
C 34.33046 1.80495 -1.93844
N 32.09468 0.78346 2.73138
C 32.28330 -0.21606 1.75185
C 32.53942 -1.48331 2.46664
C 32.45860 -1.13492 3.82332
C 32.15235 0.24740 3.94537
C 32.75557 -2.75218 1.85890
C 32.55222 -1.62445 5.17989
O 32.87328 -2.69348 5.69743
C 31.99577 -0.50441 6.16084
C 32.97716 -0.34641 7.28975
O 34.12215 0.08916 7.07555
O 32.33664 -0.52767 8.45905
C 33.26608 -0.37002 9.60931
H 29.15416 5.70000 4.89614
H 30.80829 5.15526 -1.10208
H 32.47425 -0.82523 -0.15707
H 30.28478 1.71090 7.57625
H 29.71930 4.42564 7.07875
H 28.25405 1.89895 6.43920
H 27.94801 3.24156 5.31756
H 27.59044 3.47948 7.00136
H 32.07587 4.13978 7.33471
H 32.84806 2.53045 7.57757
H 30.81741 2.84141 9.54919
H 31.44387 4.43243 9.30204
H 29.27358 7.71712 4.29806
H 28.80624 8.41009 2.78129
H 30.43233 8.78512 3.39934
H 29.62132 9.32360 0.91675
H 30.83293 9.76871 -0.41764
H 31.33951 9.38072 1.25157
H 31.95953 3.36398 -2.50409
H 31.18716 0.51805 -2.10298
H 30.05140 3.23268 -3.71691
H 29.16592 3.04940 -2.16181
H 29.65887 1.67015 -3.00460
H 33.10418 1.27397 -3.56085
H 33.47139 -0.06449 -2.48909
H 34.22016 2.76742 -2.44693
H 35.28971 1.34517 -2.16753
H 34.18663 1.98035 -0.86596
H 33.57837 -3.21458 2.38775
H 32.97016 -2.65297 0.79688
H 31.78537 -3.22271 2.03943
H 31.01709 -0.83348 6.51223
H 33.20018 -1.28802 10.20146
H 32.96898 0.57249 10.10646
H 34.32763 -0.33270 9.39446
