79

Mg 10.51894 0.94019 0.79528
C 10.52044 1.59511 -2.73319
C 9.98908 -2.34234 0.03444
C 10.06367 0.39952 3.88847
C 9.90694 4.33603 1.28459
N 10.30168 -0.11445 -1.13676
C 10.38179 0.22832 -2.41364
C 10.38988 -0.96886 -3.40169
C 9.65186 -2.05172 -2.47346
C 10.02887 -1.49546 -1.10192
C 8.13788 -2.02192 -2.60126
C 11.84374 -1.42691 -3.77385
C 11.93157 -2.38280 -4.96562
H 13.07892 -2.27363 -5.86236
N 10.57714 -0.75546 1.82482
C 10.35977 -2.00131 1.35376
C 10.49833 -2.89887 2.51107
C 10.65240 -2.06608 3.73477
C 10.41092 -0.74615 3.18746
C 10.55650 -4.39311 2.37957
C 10.95305 -2.40325 5.16380
O 10.80525 -1.54445 6.10371
C 11.33591 -3.79512 5.44241
N 9.84414 2.14139 2.35223
C 9.79071 1.67485 3.61216
C 9.54045 2.79170 4.59725
C 9.67823 4.14508 3.75644
C 9.90617 3.54751 2.35061
C 8.18400 2.76617 5.30137
C 10.68802 5.20122 4.28329
C 12.09964 4.67665 4.15085
N 10.43959 2.70197 -0.45286
C 10.14135 4.02150 -0.04789
C 10.09473 4.85165 -1.26900
C 10.34835 3.94592 -2.31007
C 10.51955 2.63964 -1.77732
C 9.79690 6.24268 -1.31837
C 10.49965 3.79599 -3.73952
O 10.54469 4.57067 -4.69429
C 10.49246 2.24534 -4.08856
C 11.64191 1.97354 -5.01991
O 12.81554 2.11274 -4.63284
O 11.17442 1.38872 -6.13786
C 12.27864 1.08949 -7.08811
H 9.59722 -3.35281 -0.08503
H 10.00332 0.28822 4.97358
H 9.81901 5.42185 1.36159
H 9.82304 -0.81091 -4.31138
H 10.07396 -3.04372 -2.61176
H 7.80103 -1.19501 -3.20863
H 7.75924 -1.92879 -1.59180
H 7.77196 -2.98333 -2.97290
H 12.22743 -2.08061 -2.98000
H 12.47872 -0.57910 -3.94307
H 10.99715 -2.41355 -5.53909
H 12.04670 -3.40098 -4.58605
H 10.25117 -4.72099 1.37824
H 9.78914 -4.80280 3.04528
H 11.52752 -4.80356 2.66476
H 10.53954 -4.46061 5.11776
H 11.59777 -3.81967 6.50198
H 12.21765 -4.04255 4.84081
H 10.28598 2.78866 5.38292
H 8.72747 4.69645 3.71315
H 8.26521 2.74541 6.40457
H 7.63034 1.90784 4.94462
H 7.51837 3.59060 5.05147
H 10.52357 5.38432 5.34798
H 10.61581 6.15804 3.77705
H 12.21932 4.06116 5.04748
H 12.81371 5.49760 4.13746
H 12.19374 4.01504 3.28190
H 10.50486 6.68850 -2.00433
H 9.85760 6.69752 -0.33186
H 8.77016 6.20915 -1.69245
H 9.53014 2.01756 -4.54859
H 12.02184 1.56924 -8.03762
H 12.37961 -0.01212 -7.09144
H 13.24806 1.52905 -6.88444
