79

Mg 31.52365 2.84221 2.39996
C 29.32690 0.07646 1.76440
C 29.33278 4.78999 0.65616
C 33.64709 5.19484 2.55345
C 34.03081 0.51678 3.07241
N 29.61168 2.37805 1.38943
C 28.84487 1.30506 1.26678
C 27.45005 1.57919 0.64319
C 27.80632 2.92225 -0.16188
C 28.96758 3.42063 0.69589
C 28.32670 2.66226 -1.56578
C 26.34905 1.83656 1.73111
C 24.91048 1.80474 1.21029
H 23.86806 1.26289 2.07760
N 31.29511 4.79712 2.14568
C 30.33749 5.41750 1.42499
C 30.61913 6.85708 1.53661
C 31.91634 7.02767 2.24573
C 32.35624 5.64921 2.32581
C 29.66002 7.91257 1.06811
C 32.64687 8.23327 2.75471
O 33.87139 8.17069 3.12813
C 31.91550 9.50805 2.71531
N 33.59692 2.86250 2.55323
C 34.27126 4.02126 2.65556
C 35.71416 3.78138 3.03091
C 35.81012 2.22768 3.39753
C 34.36234 1.80062 3.07049
C 36.74601 4.11446 1.95354
C 36.38934 1.86839 4.79327
C 35.44179 2.32607 5.87866
N 31.63885 0.69437 2.60383
C 32.79302 -0.07727 2.86179
C 32.39087 -1.49729 2.79664
C 31.02473 -1.45330 2.48007
C 30.60963 -0.10176 2.33675
C 33.25488 -2.61532 2.96875
C 29.84181 -2.24315 2.22409
O 29.56592 -3.44041 2.28876
C 28.71860 -1.29143 1.62489
C 27.43588 -1.56618 2.36087
O 27.33311 -1.30262 3.57189
O 26.47851 -1.88910 1.47230
C 25.18444 -2.15982 2.15341
H 28.83187 5.43991 -0.06188
H 34.39694 5.97087 2.72374
H 34.73227 -0.26683 3.36668
H 27.10105 0.81627 -0.04233
H 26.98142 3.62948 -0.13496
H 28.48316 1.60959 -1.74895
H 29.26198 3.20185 -1.63745
H 27.65990 3.11545 -2.30492
H 26.40712 2.88249 2.05885
H 26.45282 1.14939 2.54820
H 24.84452 1.36353 0.20832
H 24.56820 2.83337 1.07325
H 28.86807 7.48625 0.44005
H 30.21574 8.57291 0.39358
H 29.25382 8.50700 1.88928
H 31.61893 9.72274 1.69139
H 32.56865 10.23484 3.20219
H 30.99164 9.39939 3.29435
H 35.98976 4.36531 3.90049
H 36.46345 1.68391 2.69945
H 37.50418 4.84791 2.28719
H 36.22199 4.47976 1.08033
H 37.29044 3.25983 1.55555
H 37.33099 2.39718 4.96007
H 36.58812 0.80928 4.91882
H 35.70008 3.38202 6.00259
H 35.61256 1.76758 6.79679
H 34.40094 2.27911 5.53797
H 32.72818 -3.32218 3.59598
H 34.20388 -2.31997 3.41142
H 33.36866 -2.93566 1.92966
H 28.63525 -1.51300 0.56021
H 24.86538 -3.16080 1.84696
H 24.52251 -1.31553 1.88366
H 25.19780 -2.26309 3.23212
