158

Mg 0.00000 0.00000 0.00000
C -0.21700 -2.21800 2.80100
C -1.25500 2.44200 2.02600
C -0.24500 1.85000 -2.56400
C 0.14600 -2.82400 -2.03700
N -0.61700 -0.00900 2.12600
C -0.59400 -0.90800 3.10500
C -0.93600 -0.30900 4.50200
C -1.77300 0.96400 4.03200
C -1.15500 1.16800 2.66000
C -3.26300 0.68500 3.86300
C 0.34500 0.11000 5.29900
C 0.12400 0.39700 6.78700
H 1.16800 0.03300 7.73300
N -0.18500 1.96100 -0.15200
C -0.70300 2.80000 0.77700
C -0.62000 4.15600 0.19300
C -0.18700 4.01500 -1.22500
C -0.21400 2.58300 -1.38000
C -0.88700 5.40600 0.97400
C 0.18100 5.01300 -2.27700
O 0.30300 4.69000 -3.50800
C 0.31000 6.41400 -1.83700
N -0.26500 -0.41300 -2.02900
C -0.27900 0.56900 -2.93700
C -0.19600 0.02400 -4.33200
C 0.12400 -1.53300 -4.18000
C 0.08600 -1.63200 -2.63500
C -1.45100 0.20500 -5.19700
C 1.37300 -2.07000 -4.92300
C 2.62600 -1.49000 -4.30600
N 0.15000 -2.14400 0.30300
C 0.17300 -3.13600 -0.68800
C 0.17300 -4.43800 0.00400
C 0.13300 -4.11100 1.35800
C 0.08300 -2.69500 1.50200
C 0.14900 -5.71500 -0.62300
C 0.09600 -4.62900 2.71600
O 0.20800 -5.74700 3.22100
C -0.25500 -3.42800 3.70100
C 0.71700 -3.48200 4.84800
O 1.93100 -3.25500 4.66900
O 0.03800 -3.55600 6.00300
C 0.94300 -3.58300 7.18300
H -1.85900 3.22000 2.49700
H -0.21800 2.45300 -3.47400
H 0.27600 -3.74700 -2.60500
H -1.55400 -0.94900 5.13200
H -1.58500 1.83100 4.66500
H -3.48400 -0.37700 3.96900
H -3.51100 1.02700 2.85800
H -3.85200 1.30100 4.54300
H 0.66900 1.09600 4.96600
H 1.13000 -0.63900 5.18900
H -0.84400 0.02600 7.12500
H 0.06200 1.47700 6.92100
H -1.34400 5.18600 1.93800
H -1.65100 5.96300 0.43200
H 0.00700 6.02000 1.08400
H -0.63500 6.74400 -1.40500
H 0.66500 6.97000 -2.70400
H 1.04800 6.46600 -1.03600
H 0.60800 0.50100 -4.89100
H -0.69200 -2.15600 -4.54700
H -1.26700 0.74000 -6.12900
H -2.20400 0.71400 -4.59600
H -1.96700 -0.72000 -5.45300
H 1.35600 -1.75900 -5.96700
H 1.45200 -3.15700 -4.90200
H 2.71400 -0.52200 -4.79800
H 3.48700 -2.12100 -4.52900
H 2.49500 -1.30300 -3.24000
H 0.86700 -6.33300 -0.08400
H 0.40400 -5.64200 -1.68000
H -0.89100 -5.99900 -0.46300
H -1.28300 -3.58100 4.02800
H 0.69800 -4.47800 7.75500
H 0.83300 -2.61900 7.68000
H 2.00000 -3.75400 6.97600
Mg 15.77189 1.42255 1.18924
C 18.54467 -0.85119 1.33374
C 18.02982 3.96069 1.49616
C 13.33021 3.42201 1.51758
C 13.71005 -1.25638 2.03651
N 17.97536 1.42755 1.38142
C 18.92677 0.50624 1.36220
C 20.37005 1.07344 1.29309
C 20.08896 2.52356 1.92318
C 18.61514 2.67051 1.55046
C 20.20382 2.55401 3.43818
C 20.90047 1.18012 -0.17976
C 22.40462 1.43230 -0.30491
H 23.12381 0.81494 -1.41581
N 15.68900 3.39407 0.97754
C 16.70576 4.27072 1.11528
C 16.12455 5.60131 0.87887
C 14.64913 5.45306 0.75289
C 14.49342 4.05628 1.10622
C 16.96085 6.83699 0.71419
C 13.55745 6.41318 0.38874
O 12.32137 6.12888 0.57348
C 13.98152 7.73207 -0.10339
N 13.83624 1.17831 1.90754
C 12.95917 2.19734 1.89150
C 11.56007 1.71769 2.19617
C 11.64081 0.12055 2.18201
C 13.15767 -0.05409 1.94957
C 10.97151 2.18547 3.52703
C 10.65777 -0.62549 1.23876
C 11.01093 -0.34183 -0.20353
N 16.01446 -0.71048 1.43296
C 15.02589 -1.64307 1.81648
C 15.69447 -2.95280 1.95804
C 17.04056 -2.68462 1.66714
C 17.20321 -1.30129 1.38530
C 15.06912 -4.16700 2.35901
C 18.36273 -3.25522 1.54480
O 18.82387 -4.39521 1.58352
C 19.41749 -2.07018 1.44714
C 20.35100 -2.37201 0.30697
O 19.93141 -2.39827 -0.86344
O 21.61764 -2.36465 0.76077
C 22.58147 -2.64815 -0.33581
H 18.62706 4.81521 1.81550
H 12.43467 4.04731 1.53949
H 13.11910 -2.15970 2.20220
H 21.09668 0.54100 1.89500
H 20.68442 3.28939 1.43299
H 20.33998 1.56584 3.85184
H 19.27940 2.98929 3.79459
H 20.99784 3.24205 3.74227
H 20.51684 2.10348 -0.63249
H 20.63177 0.30927 -0.74549
H 22.93228 1.25535 0.64019
H 22.56286 2.49475 -0.50536
H 17.99941 6.66380 1.02208
H 16.58474 7.57544 1.43050
H 16.89831 7.25692 -0.29199
H 14.59637 8.21818 0.65034
H 13.06272 8.24423 -0.39557
H 14.61763 7.58893 -0.98401
H 10.86513 2.04122 1.43100
H 11.42326 -0.30722 3.17172
H 10.01476 2.72946 3.41401
H 11.70484 2.80541 4.02547
H 10.79966 1.39756 4.25837
H 9.63906 -0.25877 1.38676
H 10.63958 -1.69886 1.39539
H 10.52189 0.61838 -0.39309
H 10.61787 -1.12024 -0.85439
H 12.09023 -0.19116 -0.32214
H 15.44618 -4.94211 1.70515
H 13.98501 -4.09264 2.30478
H 15.42461 -4.23812 3.39043
H 19.94133 -2.01831 2.40238
H 23.18395 -3.50475 -0.01811
H 23.11540 -1.69653 -0.51770
H 22.17969 -3.00901 -1.27539
