79

Mg 15.77369 1.41384 1.20282
C 15.98654 -1.51255 -0.86358
C 14.88096 -0.64658 3.77037
C 15.14081 4.00087 2.92740
C 15.55753 3.29459 -1.72323
N 15.50356 -0.77857 1.31520
C 15.67227 -1.79446 0.48223
C 15.57307 -3.19401 1.14630
C 14.67559 -2.79435 2.41661
C 15.06516 -1.32254 2.53779
C 13.18212 -2.87248 2.14685
C 16.97405 -3.74840 1.58437
C 16.99069 -5.23275 1.95609
H 18.17568 -6.01971 1.62596
N 15.58840 1.63468 3.16635
C 15.24029 0.68754 4.06247
C 15.22611 1.35823 5.37173
C 15.43341 2.81580 5.15438
C 15.37350 2.87774 3.70777
C 15.10865 0.61024 6.66793
C 15.63738 3.96573 6.09366
O 15.55900 5.18178 5.69630
C 15.83895 3.62741 7.51013
N 15.19064 3.34240 0.68993
C 15.03411 4.29047 1.63046
C 14.88350 5.65763 1.00710
C 15.21486 5.46098 -0.54503
C 15.42171 3.93059 -0.56771
C 13.50840 6.30845 1.15518
C 16.32410 6.36579 -1.14800
C 17.66617 6.00167 -0.55500
N 15.95417 1.02280 -0.91439
C 15.80216 1.94954 -1.96896
C 15.90180 1.19111 -3.23280
C 16.08330 -0.13821 -2.82235
C 16.07568 -0.20644 -1.40292
C 15.77588 1.73565 -4.54189
C 16.26896 -1.50070 -3.26714
O 16.44285 -2.04231 -4.35808
C 16.08803 -2.46869 -2.01948
C 17.23048 -3.44712 -2.02117
O 18.39697 -3.05706 -1.83743
O 16.73819 -4.69933 -2.02179
C 17.83317 -5.70568 -2.01239
H 14.37493 -1.17292 4.58017
H 15.02680 4.93967 3.47434
H 15.59829 3.82206 -2.67863
H 15.06394 -3.94356 0.55239
H 14.97994 -3.34362 3.30377
H 12.97043 -3.07056 1.10662
H 12.77984 -1.91112 2.43841
H 12.71719 -3.60745 2.81017
H 17.24609 -3.30914 2.55277
H 17.71250 -3.55640 0.83041
H 16.08157 -5.75038 1.62668
H 16.96794 -5.31801 3.04523
H 14.80382 -0.43094 6.50533
H 14.27306 1.05497 7.21916
H 16.01172 0.68034 7.27802
H 14.98093 3.06660 7.87311
H 16.05599 4.57411 8.00867
H 16.70639 2.96289 7.59110
H 15.59321 6.35676 1.43212
H 14.33979 5.66923 -1.17806
H 13.54506 7.29934 1.64597
H 12.86911 5.63345 1.70853
H 12.95685 6.43917 0.22572
H 16.14308 7.41149 -0.88743
H 16.38680 6.30963 -2.22962
H 17.67705 6.55465 0.38903
H 18.47398 6.32246 -1.20966
H 17.71239 4.93374 -0.31202
H 16.55765 1.28871 -5.14154
H 15.85389 2.82080 -4.53031
H 14.76734 1.39931 -4.79686
H 15.12321 -2.96569 -2.12764
H 17.67189 -6.36137 -2.87363
H 17.80068 -6.17317 -1.01031
H 18.84017 -5.35244 -2.20116
