158

Mg 0.00000 0.00000 0.00000
C -0.21700 -2.21800 2.80100
C -1.25500 2.44200 2.02600
C -0.24500 1.85000 -2.56400
C 0.14600 -2.82400 -2.03700
N -0.61700 -0.00900 2.12600
C -0.59400 -0.90800 3.10500
C -0.93600 -0.30900 4.50200
C -1.77300 0.96400 4.03200
C -1.15500 1.16800 2.66000
C -3.26300 0.68500 3.86300
C 0.34500 0.11000 5.29900
C 0.12400 0.39700 6.78700
H 1.16800 0.03300 7.73300
N -0.18500 1.96100 -0.15200
C -0.70300 2.80000 0.77700
C -0.62000 4.15600 0.19300
C -0.18700 4.01500 -1.22500
C -0.21400 2.58300 -1.38000
C -0.88700 5.40600 0.97400
C 0.18100 5.01300 -2.27700
O 0.30300 4.69000 -3.50800
C 0.31000 6.41400 -1.83700
N -0.26500 -0.41300 -2.02900
C -0.27900 0.56900 -2.93700
C -0.19600 0.02400 -4.33200
C 0.12400 -1.53300 -4.18000
C 0.08600 -1.63200 -2.63500
C -1.45100 0.20500 -5.19700
C 1.37300 -2.07000 -4.92300
C 2.62600 -1.49000 -4.30600
N 0.15000 -2.14400 0.30300
C 0.17300 -3.13600 -0.68800
C 0.17300 -4.43800 0.00400
C 0.13300 -4.11100 1.35800
C 0.08300 -2.69500 1.50200
C 0.14900 -5.71500 -0.62300
C 0.09600 -4.62900 2.71600
O 0.20800 -5.74700 3.22100
C -0.25500 -3.42800 3.70100
C 0.71700 -3.48200 4.84800
O 1.93100 -3.25500 4.66900
O 0.03800 -3.55600 6.00300
C 0.94300 -3.58300 7.18300
H -1.85900 3.22000 2.49700
H -0.21800 2.45300 -3.47400
H 0.27600 -3.74700 -2.60500
H -1.55400 -0.94900 5.13200
H -1.58500 1.83100 4.66500
H -3.48400 -0.37700 3.96900
H -3.51100 1.02700 2.85800
H -3.85200 1.30100 4.54300
H 0.66900 1.09600 4.96600
H 1.13000 -0.63900 5.18900
H -0.84400 0.02600 7.12500
H 0.06200 1.47700 6.92100
H -1.34400 5.18600 1.93800
H -1.65100 5.96300 0.43200
H 0.00700 6.02000 1.08400
H -0.63500 6.74400 -1.40500
H 0.66500 6.97000 -2.70400
H 1.04800 6.46600 -1.03600
H 0.60800 0.50100 -4.89100
H -0.69200 -2.15600 -4.54700
H -1.26700 0.74000 -6.12900
H -2.20400 0.71400 -4.59600
H -1.96700 -0.72000 -5.45300
H 1.35600 -1.75900 -5.96700
H 1.45200 -3.15700 -4.90200
H 2.71400 -0.52200 -4.79800
H 3.48700 -2.12100 -4.52900
H 2.49500 -1.30300 -3.24000
H 0.86700 -6.33300 -0.08400
H 0.40400 -5.64200 -1.68000
H -0.89100 -5.99900 -0.46300
H -1.28300 -3.58100 4.02800
H 0.69800 -4.47800 7.75500
H 0.83300 -2.61900 7.68000
H 2.00000 -3.75400 6.97600
Mg 15.76628 1.41940 1.19766
C 15.49652 -0.42668 4.25240
C 14.51477 4.10783 2.88561
C 15.56777 2.93431 -1.58123
C 15.90510 -1.63956 -0.46641
N 15.12647 1.68333 3.30043
C 15.12975 0.91444 4.38485
C 14.77897 1.68739 5.69132
C 13.96016 2.89851 5.05513
C 14.59489 2.92285 3.67583
C 12.46927 2.61364 4.90478
C 16.05559 2.19197 6.44456
C 15.82161 2.66579 7.88196
H 16.85162 2.41445 8.87858
N 15.60306 3.34727 0.79824
C 15.08377 4.30100 1.60819
C 15.18694 5.57199 0.85945
C 15.63364 5.24993 -0.52433
C 15.59360 3.81010 -0.49845
C 14.92443 6.91260 1.47393
C 16.02312 6.10440 -1.68894
O 16.15498 5.62807 -2.86805
C 16.16177 7.54842 -1.42699
N 15.51881 0.75684 -0.76636
C 15.52462 1.61692 -1.79067
C 15.61697 0.90007 -3.10504
C 15.91932 -0.62821 -2.75477
C 15.86375 -0.53176 -1.21014
C 14.37323 0.98192 -4.00082
C 17.17063 -1.26541 -3.40945
C 18.42284 -0.62351 -2.85534
N 15.89101 -0.67070 1.76946
C 15.91444 -1.77963 0.91133
C 15.89366 -2.98421 1.76141
C 15.84251 -2.48916 3.06301
C 15.80551 -1.06591 3.02732
C 15.86327 -4.32966 1.29962
C 15.78565 -2.83189 4.47480
O 15.88075 -3.87844 5.11760
C 15.43646 -1.51349 5.29681
C 16.39551 -1.43138 6.45301
O 17.61362 -1.23943 6.26139
O 15.70345 -1.35351 7.59998
C 16.59542 -1.23988 8.78472
H 13.91378 4.94419 3.24787
H 15.61071 3.41780 -2.55941
H 16.03170 -2.62778 -0.91233
H 14.14771 1.13720 6.38934
H 14.15026 3.83654 5.57635
H 12.23626 1.57541 5.14076
H 12.23558 2.82870 3.86188
H 11.87938 3.31546 5.49491
H 16.39324 3.12535 5.99418
H 16.83399 1.42818 6.43893
H 14.84629 2.34882 8.25234
H 15.76927 3.75457 7.87843
H 14.45489 6.81964 2.45242
H 14.17204 7.40373 0.85716
H 15.82346 7.52764 1.51655
H 15.21563 7.93847 -1.05118
H 16.53173 7.98780 -2.35269
H 16.89164 7.69423 -0.63013
H 16.43177 1.29585 -3.70992
H 15.10095 -1.28519 -3.05027
H 14.57269 1.39380 -4.99041
H 13.61910 1.56910 -3.47757
H 13.85054 0.03666 -4.14468
H 17.16801 -1.08806 -4.48439
H 17.23824 -2.34179 -3.25108
H 18.52604 0.27411 -3.46400
H 19.27965 -1.28513 -2.98699
H 18.28235 -0.30277 -1.82293
H 16.56908 -4.88128 1.92053
H 16.13032 -4.39245 0.24494
H 14.81876 -4.58208 1.48163
H 14.40350 -1.61505 5.62817
H 16.33514 -2.05362 9.46169
H 16.49001 -0.22009 9.15529
H 17.65277 -1.44489 8.61346
