158

Mg 0.00000 0.00000 0.00000
C -0.21700 -2.21800 2.80100
C -1.25500 2.44200 2.02600
C -0.24500 1.85000 -2.56400
C 0.14600 -2.82400 -2.03700
N -0.61700 -0.00900 2.12600
C -0.59400 -0.90800 3.10500
C -0.93600 -0.30900 4.50200
C -1.77300 0.96400 4.03200
C -1.15500 1.16800 2.66000
C -3.26300 0.68500 3.86300
C 0.34500 0.11000 5.29900
C 0.12400 0.39700 6.78700
H 1.16800 0.03300 7.73300
N -0.18500 1.96100 -0.15200
C -0.70300 2.80000 0.77700
C -0.62000 4.15600 0.19300
C -0.18700 4.01500 -1.22500
C -0.21400 2.58300 -1.38000
C -0.88700 5.40600 0.97400
C 0.18100 5.01300 -2.27700
O 0.30300 4.69000 -3.50800
C 0.31000 6.41400 -1.83700
N -0.26500 -0.41300 -2.02900
C -0.27900 0.56900 -2.93700
C -0.19600 0.02400 -4.33200
C 0.12400 -1.53300 -4.18000
C 0.08600 -1.63200 -2.63500
C -1.45100 0.20500 -5.19700
C 1.37300 -2.07000 -4.92300
C 2.62600 -1.49000 -4.30600
N 0.15000 -2.14400 0.30300
C 0.17300 -3.13600 -0.68800
C 0.17300 -4.43800 0.00400
C 0.13300 -4.11100 1.35800
C 0.08300 -2.69500 1.50200
C 0.14900 -5.71500 -0.62300
C 0.09600 -4.62900 2.71600
O 0.20800 -5.74700 3.22100
C -0.25500 -3.42800 3.70100
C 0.71700 -3.48200 4.84800
O 1.93100 -3.25500 4.66900
O 0.03800 -3.55600 6.00300
C 0.94300 -3.58300 7.18300
H -1.85900 3.22000 2.49700
H -0.21800 2.45300 -3.47400
H 0.27600 -3.74700 -2.60500
H -1.55400 -0.94900 5.13200
H -1.58500 1.83100 4.66500
H -3.48400 -0.37700 3.96900
H -3.51100 1.02700 2.85800
H -3.85200 1.30100 4.54300
H 0.66900 1.09600 4.96600
H 1.13000 -0.63900 5.18900
H -0.84400 0.02600 7.12500
H 0.06200 1.47700 6.92100
H -1.34400 5.18600 1.93800
H -1.65100 5.96300 0.43200
H 0.00700 6.02000 1.08400
H -0.63500 6.74400 -1.40500
H 0.66500 6.97000 -2.70400
H 1.04800 6.46600 -1.03600
H 0.60800 0.50100 -4.89100
H -0.69200 -2.15600 -4.54700
H -1.26700 0.74000 -6.12900
H -2.20400 0.71400 -4.59600
H -1.96700 -0.72000 -5.45300
H 1.35600 -1.75900 -5.96700
H 1.45200 -3.15700 -4.90200
H 2.71400 -0.52200 -4.79800
H 3.48700 -2.12100 -4.52900
H 2.49500 -1.30300 -3.24000
H 0.86700 -6.33300 -0.08400
H 0.40400 -5.64200 -1.68000
H -0.89100 -5.99900 -0.46300
H -1.28300 -3.58100 4.02800
H 0.69800 -4.47800 7.75500
H 0.83300 -2.61900 7.68000
H 2.00000 -3.75400 6.97600
Mg 10.51722 0.95430 0.80112
C 10.03094 1.05111 4.35544
C 9.35286 4.15892 0.70478
C 10.50716 0.75015 -2.36521
C 10.54305 -2.52254 1.03906
N 9.81436 2.32164 2.39128
C 9.73260 2.27045 3.71228
C 9.38466 3.62388 4.38809
C 8.65032 4.33059 3.14705
C 9.33548 3.58736 2.00213
C 7.16057 4.03752 3.08293
C 10.66407 4.41910 4.82714
C 10.39788 5.59815 5.76561
H 11.38116 5.89796 6.80279
N 10.47726 2.38115 -0.57768
C 9.98895 3.63176 -0.44058
C 10.17532 4.28190 -1.74700
C 10.66269 3.26088 -2.71379
C 10.54554 2.06030 -1.91069
C 9.97260 5.75402 -1.95960
C 11.14132 3.34855 -4.13133
O 11.29151 2.30290 -4.85720
C 11.33954 4.70051 -4.67393
N 10.31252 -0.64791 -0.50783
C 10.39774 -0.46934 -1.83779
C 10.49680 -1.79158 -2.56046
C 10.70474 -2.89111 -1.41794
C 10.59587 -1.98504 -0.17192
C 9.29105 -2.17223 -3.41934
C 11.94329 -3.81896 -1.55119
C 13.21125 -3.01728 -1.36415
N 10.51045 -0.49515 2.40333
C 10.49772 -1.90189 2.28089
C 10.37939 -2.45659 3.64498
C 10.30774 -1.32480 4.47107
C 10.35623 -0.14784 3.67614
C 10.30221 -3.83853 3.97726
C 10.19142 -0.85816 5.83393
O 10.19813 -1.39674 6.94010
C 9.87966 0.70024 5.80961
C 10.79869 1.37317 6.79200
O 12.02761 1.38543 6.60169
O 10.06349 2.07432 7.67418
C 10.93098 2.76877 8.66262
H 8.79111 5.07791 0.53514
H 10.61274 0.62242 -3.44504
H 10.64283 -3.59724 1.20558
H 8.70567 3.55038 5.22913
H 8.88029 5.39202 3.10429
H 6.86227 3.30410 3.81727
H 6.97624 3.66802 2.08266
H 6.58955 4.96622 3.17115
H 11.06673 4.95698 3.95921
H 11.38814 3.76221 5.26857
H 9.38767 5.56605 6.19152
H 10.41188 6.51935 5.17807
H 9.45553 6.21578 -1.10941
H 9.27257 5.86304 -2.79502
H 10.90001 6.27577 -2.20525
H 10.40459 5.25292 -4.61756
H 11.76812 4.55664 -5.66765
H 12.05727 5.23088 -4.03817
H 11.35345 -1.80693 -3.22304
H 9.85998 -3.59391 -1.37021
H 9.55178 -2.36339 -4.47742
H 8.55624 -1.38156 -3.34564
H 8.73241 -3.03986 -3.07243
H 11.99092 -4.24502 -2.55636
H 11.94007 -4.64701 -0.85026
H 13.38032 -2.58789 -2.35617
H 14.03412 -3.66523 -1.06905
H 13.05202 -2.18577 -0.66781
H 10.94678 -3.98946 4.83297
H 10.59893 -4.46606 3.13944
H 9.23517 -3.92665 4.19842
H 8.83004 0.82856 6.07682
H 10.59806 2.45417 9.65654
H 10.85374 3.84599 8.42308
H 11.97814 2.49126 8.69266
