158

Mg 0.00000 0.00000 0.00000
C -0.21700 -2.21800 2.80100
C -1.25500 2.44200 2.02600
C -0.24500 1.85000 -2.56400
C 0.14600 -2.82400 -2.03700
N -0.61700 -0.00900 2.12600
C -0.59400 -0.90800 3.10500
C -0.93600 -0.30900 4.50200
C -1.77300 0.96400 4.03200
C -1.15500 1.16800 2.66000
C -3.26300 0.68500 3.86300
C 0.34500 0.11000 5.29900
C 0.12400 0.39700 6.78700
H 1.16800 0.03300 7.73300
N -0.18500 1.96100 -0.15200
C -0.70300 2.80000 0.77700
C -0.62000 4.15600 0.19300
C -0.18700 4.01500 -1.22500
C -0.21400 2.58300 -1.38000
C -0.88700 5.40600 0.97400
C 0.18100 5.01300 -2.27700
O 0.30300 4.69000 -3.50800
C 0.31000 6.41400 -1.83700
N -0.26500 -0.41300 -2.02900
C -0.27900 0.56900 -2.93700
C -0.19600 0.02400 -4.33200
C 0.12400 -1.53300 -4.18000
C 0.08600 -1.63200 -2.63500
C -1.45100 0.20500 -5.19700
C 1.37300 -2.07000 -4.92300
C 2.62600 -1.49000 -4.30600
N 0.15000 -2.14400 0.30300
C 0.17300 -3.13600 -0.68800
C 0.17300 -4.43800 0.00400
C 0.13300 -4.11100 1.35800
C 0.08300 -2.69500 1.50200
C 0.14900 -5.71500 -0.62300
C 0.09600 -4.62900 2.71600
O 0.20800 -5.74700 3.22100
C -0.25500 -3.42800 3.70100
C 0.71700 -3.48200 4.84800
O 1.93100 -3.25500 4.66900
O 0.03800 -3.55600 6.00300
C 0.94300 -3.58300 7.18300
H -1.85900 3.22000 2.49700
H -0.21800 2.45300 -3.47400
H 0.27600 -3.74700 -2.60500
H -1.55400 -0.94900 5.13200
H -1.58500 1.83100 4.66500
H -3.48400 -0.37700 3.96900
H -3.51100 1.02700 2.85800
H -3.85200 1.30100 4.54300
H 0.66900 1.09600 4.96600
H 1.13000 -0.63900 5.18900
H -0.84400 0.02600 7.12500
H 0.06200 1.47700 6.92100
H -1.34400 5.18600 1.93800
H -1.65100 5.96300 0.43200
H 0.00700 6.02000 1.08400
H -0.63500 6.74400 -1.40500
H 0.66500 6.97000 -2.70400
H 1.04800 6.46600 -1.03600
H 0.60800 0.50100 -4.89100
H -0.69200 -2.15600 -4.54700
H -1.26700 0.74000 -6.12900
H -2.20400 0.71400 -4.59600
H -1.96700 -0.72000 -5.45300
H 1.35600 -1.75900 -5.96700
H 1.45200 -3.15700 -4.90200
H 2.71400 -0.52200 -4.79800
H 3.48700 -2.12100 -4.52900
H 2.49500 -1.30300 -3.24000
H 0.86700 -6.33300 -0.08400
H 0.40400 -5.64200 -1.68000
H -0.89100 -5.99900 -0.46300
H -1.28300 -3.58100 4.02800
H 0.69800 -4.47800 7.75500
H 0.83300 -2.61900 7.68000
H 2.00000 -3.75400 6.97600
Mg 7.87327 0.71278 0.60115
C 5.98778 -2.09115 -0.60797
C 6.12680 2.64608 -1.60038
C 9.82002 3.11346 1.31828
C 10.20358 -1.56457 1.83771
N 6.28730 0.22512 -0.86143
C 5.60773 -0.86350 -1.18924
C 4.40403 -0.60958 -2.13591
C 4.90854 0.76074 -2.80416
C 5.80464 1.26746 -1.67591
C 5.76909 0.54732 -4.03836
C 3.05997 -0.40578 -1.35235
C 1.79759 -0.46117 -2.21555
H 0.58916 -1.04941 -1.64446
N 7.65626 2.66686 0.33088
C 6.88954 3.28006 -0.59508
C 7.09107 4.72317 -0.39264
C 8.16561 4.90923 0.62001
C 8.61316 3.54069 0.78395
C 6.24712 5.76519 -1.06745
C 8.71004 6.12028 1.31511
O 9.80466 6.07947 1.98067
C 7.97333 7.37694 1.11623
N 9.84181 0.78126 1.26634
C 10.43432 1.95376 1.55289
C 11.74523 1.74118 2.27172
C 11.79385 0.18208 2.62450
C 10.48633 -0.27315 1.94002
C 13.00193 2.12550 1.49109
C 12.01859 -0.19571 4.11428
C 10.81769 0.21218 4.93698
N 7.99888 -1.43575 0.79115
C 9.07545 -2.18421 1.31544
C 8.74510 -3.61189 1.12831
C 7.49981 -3.59456 0.48221
C 7.09280 -2.25080 0.26277
C 9.57253 -4.71173 1.49138
C 6.44197 -4.40743 -0.07359
O 6.19489 -5.61242 -0.09982
C 5.47475 -3.47012 -0.91759
C 4.05826 -3.79429 -0.52905
O 3.64985 -3.56228 0.62247
O 3.36193 -4.11982 -1.63337
C 1.94796 -4.43895 -1.30072
H 5.80070 3.30018 -2.40952
H 10.48028 3.90373 1.68300
H 10.83319 -2.33716 2.28420
H 4.25951 -1.36447 -2.89948
H 4.08190 1.44628 -2.97166
H 5.99782 -0.49645 -4.19445
H 6.67614 1.11169 -3.86571
H 5.29354 1.00115 -4.91256
H 3.00320 0.63318 -1.00293
H 2.97808 -1.10939 -0.54684
H 1.99604 -0.87993 -3.20963
H 1.46926 0.56155 -2.41620
H 5.64932 5.33426 -1.88006
H 6.93287 6.45508 -1.57110
H 5.63186 6.32957 -0.36347
H 7.93419 7.60845 0.05447
H 8.46277 8.10805 1.76260
H 6.93826 7.23146 1.44499
H 11.77834 2.31096 3.19224
H 12.61625 -0.32841 2.10212
H 13.63092 2.86954 2.01536
H 12.70059 2.49825 0.52115
H 13.65369 1.29446 1.22694
H 12.87287 0.35235 4.51925
H 12.21177 -1.25220 4.26756
H 11.00512 1.27100 5.13908
H 10.77168 -0.36355 5.85918
H 9.89606 0.14731 4.34702
H 8.92802 -5.44628 1.95567
H 10.37239 -4.40336 2.16138
H 9.95057 -5.00432 0.50815
H 5.66533 -3.66831 -1.97304
H 1.74539 -5.44003 -1.69377
H 1.34869 -3.60530 -1.71261
H 1.69593 -4.56749 -0.25458
