79

Mg 31.53861 2.84414 2.40220
C 31.47477 0.62747 5.22379
C 30.14284 5.21298 4.42087
C 31.16506 4.66993 -0.16575
C 31.84354 0.02763 0.37242
N 30.93394 2.80564 4.52944
C 31.01450 1.92786 5.51805
C 30.65304 2.49830 6.91573
C 29.72660 3.72214 6.44371
C 30.32189 3.95875 5.05723
C 28.26493 3.34115 6.27725
C 31.91499 3.00243 7.70017
C 31.67843 3.28510 9.18540
H 32.75437 2.99493 10.12913
N 31.23131 4.79886 2.24988
C 30.67390 5.60938 3.17380
C 30.65543 6.95190 2.57258
C 31.09620 6.83748 1.15577
C 31.16281 5.39660 1.01598
C 30.32305 8.18927 3.35479
C 31.39446 7.85600 0.09754
O 31.53191 7.52733 -1.13368
C 31.42832 9.26059 0.53050
N 31.29515 2.40657 0.38438
C 31.20774 3.38827 -0.53025
C 31.31491 2.83841 -1.93259
C 31.73669 1.30526 -1.76184
C 31.71236 1.20624 -0.22073
C 30.04582 2.92548 -2.78007
C 33.01416 0.83900 -2.51240
C 34.23419 1.50448 -1.91738
N 31.82795 0.72591 2.71438
C 31.90224 -0.27967 1.72575
C 31.98808 -1.57604 2.42895
C 31.93416 -1.23367 3.78849
C 31.80225 0.17490 3.92276
C 32.05111 -2.85596 1.80931
C 31.94813 -1.74444 5.14038
O 32.12582 -2.85038 5.64936
C 31.52405 -0.57311 6.12756
C 32.50289 -0.55078 7.26944
O 33.69615 -0.26040 7.07345
O 31.82968 -0.66167 8.42913
C 32.75666 -0.63339 9.59176
H 29.50000 5.95129 4.90100
H 31.14981 5.26228 -1.08355
H 32.03981 -0.88914 -0.18766
H 30.08649 1.82551 7.54830
H 29.87260 4.59456 7.07531
H 28.11022 2.27838 6.39012
H 27.98955 3.65979 5.28041
H 27.64301 3.92413 6.96258
H 32.17118 4.01242 7.35517
H 32.73211 2.31652 7.58855
H 30.73132 2.86064 9.54003
H 31.55561 4.36272 9.31828
H 29.87929 7.94323 4.32739
H 29.52218 8.70435 2.81333
H 31.17437 8.86603 3.45433
H 30.46939 9.52659 0.96886
H 31.74436 9.82912 -0.34630
H 32.17671 9.36411 1.32411
H 32.08512 3.35450 -2.49253
H 30.95662 0.62432 -2.13284
H 30.19138 3.47591 -3.72870
H 29.26994 3.38998 -2.18611
H 29.59672 1.96811 -3.03884
H 32.97197 1.14779 -3.55978
H 33.15448 -0.23670 -2.49919
H 34.25209 2.47816 -2.41610
H 35.13103 0.93013 -2.14062
H 34.09971 1.68597 -0.84470
H 32.80250 -3.42325 2.34231
H 32.29011 -2.77401 0.75104
H 31.02729 -3.20265 1.97326
H 30.50736 -0.78008 6.46385
H 32.56846 -1.54163 10.17260
H 32.57381 0.33402 10.09617
H 33.81718 -0.72759 9.38961
