79

Mg 10.50484 0.94091 0.80533
C 9.59293 3.55823 3.08506
C 11.95133 -0.65487 3.45028
C 11.71100 -1.15651 -1.24733
C 10.01857 3.21905 -1.78684
N 10.68305 1.48208 2.94254
C 10.24410 2.47176 3.70556
C 10.44738 2.24878 5.22822
C 11.67369 1.21431 5.15816
C 11.40693 0.61196 3.78023
C 13.03285 1.89334 5.12760
C 9.19032 1.60405 5.91097
C 9.19896 1.64211 7.44075
H 7.93031 1.82833 8.13954
N 11.22443 -0.88377 1.10749
C 11.75278 -1.37131 2.24961
C 12.15414 -2.75431 1.94896
C 11.97050 -2.98962 0.49101
C 11.64067 -1.65007 0.04728
C 12.57890 -3.72730 3.01023
C 12.08666 -4.21470 -0.36450
O 12.11678 -4.14220 -1.64382
C 12.25805 -5.49313 0.34098
N 11.02535 1.07290 -1.20314
C 11.47817 -0.00202 -1.87204
C 11.52442 0.26011 -3.35849
C 10.77670 1.65761 -3.57177
C 10.49361 2.02072 -2.09752
C 12.91978 0.32996 -3.97857
C 9.59352 1.67637 -4.57795
C 8.44465 0.85476 -4.03902
N 9.73969 2.95353 0.62653
C 9.64838 3.73002 -0.54940
C 9.17264 5.07044 -0.15017
C 9.04113 4.98711 1.24420
C 9.42823 3.69284 1.68524
C 8.96803 6.17502 -1.02433
C 8.67300 5.70307 2.44444
O 8.18362 6.80659 2.68207
C 9.13446 4.84972 3.70350
C 7.98562 4.79341 4.67278
O 6.93354 4.20227 4.37229
O 8.39490 5.25505 5.86850
C 7.29326 5.20874 6.86653
H 12.62969 -1.12890 4.16022
H 12.01619 -1.87627 -2.01040
H 9.74833 3.95497 -2.54714
H 10.73830 3.13334 5.78202
H 11.59258 0.45275 5.92940
H 12.94542 2.96599 5.03854
H 13.54742 1.48307 4.26856
H 13.62149 1.59803 6.00089
H 9.21264 0.51855 5.74991
H 8.28652 2.04986 5.54351
H 9.95773 2.33088 7.83166
H 9.51057 0.66221 7.81050
H 12.77497 -3.22201 3.96398
H 13.55385 -4.12472 2.70794
H 11.87890 -4.55767 3.12489
H 13.15244 -5.44813 0.95784
H 12.23227 -6.26079 -0.43485
H 11.41195 -5.63246 1.02313
H 10.99246 -0.50987 -3.90370
H 11.45779 2.42902 -3.96020
H 13.06760 -0.39264 -4.80323
H 13.64944 0.16858 -3.19621
H 13.20581 1.30743 -4.36319
H 9.89128 1.21223 -5.52138
H 9.23832 2.67522 -4.80843
H 8.71729 -0.16630 -4.32221
H 7.50754 1.15609 -4.50277
H 8.41133 0.89540 -2.94408
H 8.03164 6.63257 -0.73396
H 8.95152 5.86019 -2.06567
H 9.85174 6.77485 -0.79081
H 10.00757 5.34354 4.13175
H 7.18234 6.22110 7.26717
H 7.57122 4.41170 7.58154
H 6.29208 5.01574 6.49932
