79

Mg 15.76258 1.42371 1.20661
C 13.52699 -1.15065 2.32636
C 13.06786 3.51247 1.10564
C 17.61251 3.58052 -0.20526
C 17.99605 -1.09771 0.31235
N 13.62535 1.10555 1.67912
C 12.90279 0.10247 2.15459
C 11.44797 0.48345 2.53922
C 11.27674 1.76750 1.59013
C 12.74193 2.18273 1.47399
C 10.76580 1.42493 0.20055
C 11.31125 0.86690 4.05457
C 9.87266 0.94989 4.56966
H 9.59853 0.52650 5.94008
N 15.52605 3.38379 1.00483
C 14.36276 4.06790 1.01049
C 14.72488 5.47902 0.80610
C 16.18246 5.55180 0.51476
C 16.49981 4.14217 0.40385
C 13.74411 6.60316 0.97293
C 17.13086 6.70041 0.34910
O 18.30609 6.53862 -0.13616
C 16.61040 8.03392 0.68432
N 17.45294 1.26280 0.00697
C 18.09599 2.35900 -0.43207
C 19.43088 2.00123 -1.04072
C 19.65821 0.45545 -0.69947
C 18.31586 0.15088 0.00106
C 19.55189 2.21214 -2.54978
C 20.97585 0.08300 0.03385
C 20.96569 0.65210 1.43435
N 15.86990 -0.71967 1.45652
C 16.88060 -1.58420 0.98203
C 16.45668 -2.96385 1.29712
C 15.20810 -2.80642 1.91742
C 14.86799 -1.42749 1.96606
C 17.17187 -4.14962 0.96761
C 14.09564 -3.49397 2.53256
O 13.86312 -4.65966 2.85008
C 12.90003 -2.46196 2.71109
C 12.37139 -2.60142 4.11237
O 13.07985 -2.29772 5.08832
O 11.05213 -2.86099 4.06183
C 10.47994 -2.99688 5.42783
H 12.25835 4.18526 0.82118
H 18.33709 4.29071 -0.61034
H 18.68185 -1.93276 0.15405
H 10.70260 -0.26316 2.29272
H 10.69744 2.54605 2.07964
H 10.71430 0.35801 0.04191
H 11.46588 1.87674 -0.48996
H 9.80527 1.91611 0.02040
H 11.61943 1.91177 4.18873
H 11.87729 0.19510 4.67014
H 9.15904 0.48993 3.87530
H 9.57572 2.00099 4.60191
H 12.71288 6.23278 1.02570
H 13.77396 7.19310 0.05047
H 13.98775 7.25306 1.81610
H 15.73975 8.24702 0.06869
H 17.46047 8.71212 0.58784
H 16.26556 8.02360 1.72432
H 20.22824 2.58106 -0.59226
H 19.68551 -0.16282 -1.60877
H 20.38501 2.88352 -2.83125
H 18.61074 2.59949 -2.91685
H 19.67120 1.30204 -3.13518
H 21.83262 0.52980 -0.47651
H 21.15374 -0.98593 0.08621
H 21.29786 1.68367 1.28395
H 21.65437 0.10513 2.07512
H 19.94667 0.68927 1.83668
H 17.13165 -4.78974 1.83890
H 18.19840 -3.92858 0.68277
H 16.57876 -4.50629 0.12128
H 12.14438 -2.70335 1.96255
H 9.98736 -3.97314 5.47222
H 9.84329 -2.10429 5.57520
H 11.17398 -3.07230 6.25673
