158

Mg 0.00000 0.00000 0.00000
C -0.21700 -2.21800 2.80100
C -1.25500 2.44200 2.02600
C -0.24500 1.85000 -2.56400
C 0.14600 -2.82400 -2.03700
N -0.61700 -0.00900 2.12600
C -0.59400 -0.90800 3.10500
C -0.93600 -0.30900 4.50200
C -1.77300 0.96400 4.03200
C -1.15500 1.16800 2.66000
C -3.26300 0.68500 3.86300
C 0.34500 0.11000 5.29900
C 0.12400 0.39700 6.78700
H 1.16800 0.03300 7.73300
N -0.18500 1.96100 -0.15200
C -0.70300 2.80000 0.77700
C -0.62000 4.15600 0.19300
C -0.18700 4.01500 -1.22500
C -0.21400 2.58300 -1.38000
C -0.88700 5.40600 0.97400
C 0.18100 5.01300 -2.27700
O 0.30300 4.69000 -3.50800
C 0.31000 6.41400 -1.83700
N -0.26500 -0.41300 -2.02900
C -0.27900 0.56900 -2.93700
C -0.19600 0.02400 -4.33200
C 0.12400 -1.53300 -4.18000
C 0.08600 -1.63200 -2.63500
C -1.45100 0.20500 -5.19700
C 1.37300 -2.07000 -4.92300
C 2.62600 -1.49000 -4.30600
N 0.15000 -2.14400 0.30300
C 0.17300 -3.13600 -0.68800
C 0.17300 -4.43800 0.00400
C 0.13300 -4.11100 1.35800
C 0.08300 -2.69500 1.50200
C 0.14900 -5.71500 -0.62300
C 0.09600 -4.62900 2.71600
O 0.20800 -5.74700 3.22100
C -0.25500 -3.42800 3.70100
C 0.71700 -3.48200 4.84800
O 1.93100 -3.25500 4.66900
O 0.03800 -3.55600 6.00300
C 0.94300 -3.58300 7.18300
H -1.85900 3.22000 2.49700
H -0.21800 2.45300 -3.47400
H 0.27600 -3.74700 -2.60500
H -1.55400 -0.94900 5.13200
H -1.58500 1.83100 4.66500
H -3.48400 -0.37700 3.96900
H -3.51100 1.02700 2.85800
H -3.85200 1.30100 4.54300
H 0.66900 1.09600 4.96600
H 1.13000 -0.63900 5.18900
H -0.84400 0.02600 7.12500
H 0.06200 1.47700 6.92100
H -1.34400 5.18600 1.93800
H -1.65100 5.96300 0.43200
H 0.00700 6.02000 1.08400
H -0.63500 6.74400 -1.40500
H 0.66500 6.97000 -2.70400
H 1.04800 6.46600 -1.03600
H 0.60800 0.50100 -4.89100
H -0.69200 -2.15600 -4.54700
H -1.26700 0.74000 -6.12900
H -2.20400 0.71400 -4.59600
H -1.96700 -0.72000 -5.45300
H 1.35600 -1.75900 -5.96700
H 1.45200 -3.15700 -4.90200
H 2.71400 -0.52200 -4.79800
H 3.48700 -2.12100 -4.52900
H 2.49500 -1.30300 -3.24000
H 0.86700 -6.33300 -0.08400
H 0.40400 -5.64200 -1.68000
H -0.89100 -5.99900 -0.46300
H -1.28300 -3.58100 4.02800
H 0.69800 -4.47800 7.75500
H 0.83300 -2.61900 7.68000
H 2.00000 -3.75400 6.97600
Mg 31.53256 2.83880 2.39533
C 31.43897 4.35008 -0.84805
C 31.03902 -0.16192 0.84770
C 31.15794 1.54326 5.26549
C 30.88458 5.99540 3.72259
N 31.28735 2.29212 0.26421
C 31.33116 2.95809 -0.88546
C 31.32780 2.03055 -2.13726
C 30.63675 0.74477 -1.49600
C 31.04034 0.94959 -0.04649
C 29.11439 0.76111 -1.58900
C 32.77437 1.71069 -2.64410
C 32.85446 1.08709 -4.04054
H 33.97108 1.44250 -4.90320
N 31.63845 0.95266 2.97334
C 31.42348 -0.14283 2.20590
C 31.62161 -1.30817 3.09439
C 31.78271 -0.79835 4.48443
C 31.50306 0.60251 4.29802
C 31.69129 -2.71946 2.59725
C 32.12281 -1.46924 5.77763
O 31.98378 -0.88292 6.90523
C 32.54457 -2.87933 5.69515
N 30.86887 3.60115 4.22179
C 30.85890 2.84267 5.32342
C 30.61917 3.66824 6.55261
C 30.70877 5.19262 6.08569
C 30.91519 4.96287 4.56817
C 29.28177 3.43128 7.26761
C 31.71413 6.10045 6.83769
C 33.12883 5.65770 6.53819
N 31.38887 4.86281 1.62475
C 31.08754 6.02281 2.35295
C 30.99685 7.13007 1.38351
C 31.23692 6.53038 0.14877
C 31.43727 5.13234 0.33220
C 30.66557 8.47976 1.68855
C 31.34642 6.74134 -1.28558
O 31.36255 7.73196 -2.01764
C 31.36080 5.31902 -2.00156
C 32.49030 5.32181 -2.99530
O 33.67751 5.37388 -2.61425
O 32.01161 5.02512 -4.21324
C 33.08575 4.98236 -5.24112
H 30.65387 -1.12128 0.49666
H 31.12735 1.15676 6.28634
H 30.76924 7.02282 4.07268
H 30.73054 2.39660 -2.97256
H 31.06349 -0.18120 -1.88096
H 28.74850 1.71603 -1.96607
H 28.75885 0.59179 -0.57242
H 28.75316 -0.08285 -2.17723
H 33.19033 0.89513 -2.05258
H 33.40076 2.60280 -2.61117
H 31.91040 1.18778 -4.57676
H 32.98810 0.01124 -3.92701
H 31.37338 -2.79418 1.55807
H 30.94550 -3.28933 3.15111
H 32.67707 -3.15961 2.74842
H 31.74997 -3.46625 5.23397
H 32.83286 -3.16658 6.70571
H 33.40521 -2.95210 5.02960
H 31.38343 3.47975 7.30547
H 29.75436 5.70918 6.19024
H 29.38945 3.14471 8.31403
H 28.73074 2.67474 6.70967
H 28.58991 4.27246 7.23352
H 31.57189 6.01326 7.91431
H 31.62192 7.15444 6.57526
H 33.28565 4.84676 7.24856
H 33.82896 6.47439 6.71721
H 33.20984 5.23406 5.53697
H 31.35642 9.09994 1.11753
H 30.74800 8.67585 2.75736
H 29.63542 8.51971 1.33492
H 30.39114 5.20125 -2.48427
H 32.80118 5.67665 -6.03183
H 33.21514 3.93402 -5.51067
H 34.05230 5.39196 -4.94561
