79

Mg 8.92409 0.80725 0.67977
C 7.24601 -2.00782 -0.78258
C 7.43940 2.74157 -1.70532
C 10.73049 3.22541 1.65794
C 11.11392 -1.45260 2.17759
N 7.54122 0.31488 -0.97476
C 6.92400 -0.77893 -1.39543
C 5.84488 -0.53050 -2.48324
C 6.40919 0.85373 -3.07004
C 7.14934 1.35972 -1.83358
C 7.42065 0.66546 -4.18845
C 4.41038 -0.35325 -1.87266
C 3.26710 -0.41578 -2.88792
H 2.00530 -1.02629 -2.47851
N 8.71427 2.76116 0.40270
C 8.06083 3.37440 -0.60637
C 8.21438 4.81771 -0.36674
C 9.15070 5.00674 0.77444
C 9.59403 3.64251 0.98043
C 7.44660 5.85588 -1.13234
C 9.58604 6.21710 1.54366
O 10.58909 6.18342 2.34091
C 8.86187 7.46601 1.26568
N 10.79254 0.89443 1.58732
C 11.32734 2.07142 1.95692
C 12.54076 1.86826 2.83255
C 12.56746 0.30613 3.17403
C 11.36280 -0.15877 2.32665
C 13.87967 2.27786 2.21941
C 12.60917 -0.08518 4.67663
C 11.30881 0.29759 5.34592
N 9.05614 -1.34141 0.86390
C 10.06928 -2.08130 1.51212
C 9.78579 -3.51107 1.27166
C 8.63118 -3.50307 0.47460
C 8.23538 -2.16247 0.21840
C 10.57709 -4.60382 1.72538
C 7.66328 -4.32367 -0.21714
O 7.43899 -5.53147 -0.28544
C 6.79595 -3.38995 -1.16702
C 5.34679 -3.73717 -0.96234
O 4.79395 -3.52339 0.13094
O 4.79918 -4.05961 -2.14831
C 3.35946 -4.40113 -1.99872
H 7.20781 3.40023 -2.54283
H 11.32826 4.02026 2.11002
H 11.69377 -2.22170 2.69231
H 5.80820 -1.27870 -3.26594
H 5.60018 1.53008 -3.33353
H 7.68230 -0.37339 -4.32437
H 8.29060 1.23986 -3.89808
H 7.05188 1.12263 -5.11112
H 4.29517 0.68092 -1.52341
H 4.23843 -1.06679 -1.09041
H 3.59465 -0.82079 -3.85312
H 2.95167 0.60467 -3.11860
H 6.96170 5.42612 -2.01754
H 8.17996 6.56035 -1.53948
H 6.73981 6.40420 -0.50587
H 8.95275 7.70877 0.20962
H 9.25575 8.19632 1.97518
H 7.79598 7.30319 1.46058
H 12.44995 2.42817 3.75523
H 13.45619 -0.18759 2.75422
H 14.42711 3.02430 2.82540
H 13.69689 2.65733 1.22285
H 14.57142 1.45852 2.03136
H 13.39789 0.46962 5.19071
H 12.79696 -1.14066 4.84305
H 11.45402 1.35649 5.57985
H 11.15596 -0.28892 6.24963
H 10.46944 0.22707 4.64440
H 9.89023 -5.35195 2.09823
H 11.28210 -4.29233 2.49331
H 11.07961 -4.88043 0.79466
H 7.12017 -3.57386 -2.19202
H 3.22233 -5.40038 -2.42344
H 2.80447 -3.57097 -2.47473
H 2.98019 -4.54462 -0.99372
