158

Mg 0.00000 0.00000 0.00000
C -0.21700 -2.21800 2.80100
C -1.25500 2.44200 2.02600
C -0.24500 1.85000 -2.56400
C 0.14600 -2.82400 -2.03700
N -0.61700 -0.00900 2.12600
C -0.59400 -0.90800 3.10500
C -0.93600 -0.30900 4.50200
C -1.77300 0.96400 4.03200
C -1.15500 1.16800 2.66000
C -3.26300 0.68500 3.86300
C 0.34500 0.11000 5.29900
C 0.12400 0.39700 6.78700
H 1.16800 0.03300 7.73300
N -0.18500 1.96100 -0.15200
C -0.70300 2.80000 0.77700
C -0.62000 4.15600 0.19300
C -0.18700 4.01500 -1.22500
C -0.21400 2.58300 -1.38000
C -0.88700 5.40600 0.97400
C 0.18100 5.01300 -2.27700
O 0.30300 4.69000 -3.50800
C 0.31000 6.41400 -1.83700
N -0.26500 -0.41300 -2.02900
C -0.27900 0.56900 -2.93700
C -0.19600 0.02400 -4.33200
C 0.12400 -1.53300 -4.18000
C 0.08600 -1.63200 -2.63500
C -1.45100 0.20500 -5.19700
C 1.37300 -2.07000 -4.92300
C 2.62600 -1.49000 -4.30600
N 0.15000 -2.14400 0.30300
C 0.17300 -3.13600 -0.68800
C 0.17300 -4.43800 0.00400
C 0.13300 -4.11100 1.35800
C 0.08300 -2.69500 1.50200
C 0.14900 -5.71500 -0.62300
C 0.09600 -4.62900 2.71600
O 0.20800 -5.74700 3.22100
C -0.25500 -3.42800 3.70100
C 0.71700 -3.48200 4.84800
O 1.93100 -3.25500 4.66900
O 0.03800 -3.55600 6.00300
C 0.94300 -3.58300 7.18300
H -1.85900 3.22000 2.49700
H -0.21800 2.45300 -3.47400
H 0.27600 -3.74700 -2.60500
H -1.55400 -0.94900 5.13200
H -1.58500 1.83100 4.66500
H -3.48400 -0.37700 3.96900
H -3.51100 1.02700 2.85800
H -3.85200 1.30100 4.54300
H 0.66900 1.09600 4.96600
H 1.13000 -0.63900 5.18900
H -0.84400 0.02600 7.12500
H 0.06200 1.47700 6.92100
H -1.34400 5.18600 1.93800
H -1.65100 5.96300 0.43200
H 0.00700 6.02000 1.08400
H -0.63500 6.74400 -1.40500
H 0.66500 6.97000 -2.70400
H 1.04800 6.46600 -1.03600
H 0.60800 0.50100 -4.89100
H -0.69200 -2.15600 -4.54700
H -1.26700 0.74000 -6.12900
H -2.20400 0.71400 -4.59600
H -1.96700 -0.72000 -5.45300
H 1.35600 -1.75900 -5.96700
H 1.45200 -3.15700 -4.90200
H 2.71400 -0.52200 -4.79800
H 3.48700 -2.12100 -4.52900
H 2.49500 -1.30300 -3.24000
H 0.86700 -6.33300 -0.08400
H 0.40400 -5.64200 -1.68000
H -0.89100 -5.99900 -0.46300
H -1.28300 -3.58100 4.02800
H 0.69800 -4.47800 7.75500
H 0.83300 -2.61900 7.68000
H 2.00000 -3.75400 6.97600
Mg 13.14553 1.18983 0.99419
C 12.52228 4.01227 3.12126
C 12.28384 3.17545 -1.64198
C 13.24894 -1.38779 -0.85313
C 12.84365 -0.82943 3.81858
N 12.50481 3.30383 0.88143
C 12.36367 4.29505 1.74856
C 12.11296 5.68403 1.10246
C 11.49866 5.19093 -0.29696
C 12.16021 3.81707 -0.38375
C 9.99235 4.99404 -0.25697
C 13.44023 6.49438 0.89344
C 13.24395 7.97390 0.55543
H 14.20639 8.94057 1.07671
N 13.29363 1.02853 -0.97828
C 12.91633 1.93940 -1.89981
C 13.21565 1.33621 -3.20776
C 13.64760 -0.07080 -2.98762
C 13.38786 -0.20731 -1.56847
C 13.15732 2.10962 -4.49301
C 14.19096 -1.12378 -3.90533
O 14.27514 -2.35140 -3.54657
C 14.53432 -0.69200 -5.26810
N 12.85008 -0.83214 1.37722
C 13.00666 -1.74967 0.40689
C 13.01457 -3.14872 0.97522
C 13.07335 -2.96711 2.56303
C 12.99583 -1.42674 2.64460
C 11.81597 -4.02299 0.60726
C 14.22643 -3.68985 3.31184
C 15.55341 -3.06998 2.93732
N 12.93953 1.51077 3.12083
C 12.80345 0.52523 4.12297
C 12.57814 1.23174 5.40067
C 12.57580 2.58940 5.04676
C 12.76473 2.71905 3.64427
C 12.36124 0.61522 6.66517
C 12.44584 3.94194 5.53916
O 12.35717 4.45598 6.65345
C 12.27905 4.91841 4.29615
C 13.21393 6.08074 4.48985
O 14.44569 5.90969 4.47933
O 12.50970 7.22605 4.43788
C 13.39502 8.40802 4.61388
H 11.81597 3.64092 -2.50992
H 13.38737 -2.30647 -1.42789
H 12.83780 -1.38406 4.75934
H 11.39560 6.30532 1.62511
H 11.82623 5.82436 -1.11721
H 9.59792 5.10497 0.74216
H 9.81692 3.99119 -0.62380
H 9.50538 5.66530 -0.97013
H 13.92620 6.15358 -0.02983
H 14.08221 6.40096 1.74771
H 12.21815 8.30893 0.75148
H 13.36656 8.10277 -0.52270
H 12.64958 3.07292 -4.36011
H 12.50563 1.55066 -5.17326
H 14.13796 2.22630 -4.95926
H 13.65222 -0.27439 -5.74764
H 14.98905 -1.56264 -5.74465
H 15.27036 0.11715 -5.20371
H 13.89312 -3.69288 0.65098
H 12.16666 -3.35368 3.05120
H 12.10206 -4.96904 0.11004
H 11.15403 -3.44619 -0.02494
H 11.16642 -4.28999 1.43913
H 14.27682 -4.73829 3.00789
H 14.11833 -3.67230 4.39120
H 15.80224 -3.56945 1.99620
H 16.30062 -3.27344 3.70173
H 15.44191 -2.00063 2.72352
H 12.95307 1.16473 7.38508
H 12.63408 -0.43786 6.64607
H 11.28232 0.75789 6.76921
H 11.23531 5.23336 4.26471
H 12.99358 8.98590 5.45208
H 13.42658 8.90720 3.62718
H 14.41028 8.22849 4.94775
