158

Mg 0.00000 0.00000 0.00000
C -0.21700 -2.21800 2.80100
C -1.25500 2.44200 2.02600
C -0.24500 1.85000 -2.56400
C 0.14600 -2.82400 -2.03700
N -0.61700 -0.00900 2.12600
C -0.59400 -0.90800 3.10500
C -0.93600 -0.30900 4.50200
C -1.77300 0.96400 4.03200
C -1.15500 1.16800 2.66000
C -3.26300 0.68500 3.86300
C 0.34500 0.11000 5.29900
C 0.12400 0.39700 6.78700
H 1.16800 0.03300 7.73300
N -0.18500 1.96100 -0.15200
C -0.70300 2.80000 0.77700
C -0.62000 4.15600 0.19300
C -0.18700 4.01500 -1.22500
C -0.21400 2.58300 -1.38000
C -0.88700 5.40600 0.97400
C 0.18100 5.01300 -2.27700
O 0.30300 4.69000 -3.50800
C 0.31000 6.41400 -1.83700
N -0.26500 -0.41300 -2.02900
C -0.27900 0.56900 -2.93700
C -0.19600 0.02400 -4.33200
C 0.12400 -1.53300 -4.18000
C 0.08600 -1.63200 -2.63500
C -1.45100 0.20500 -5.19700
C 1.37300 -2.07000 -4.92300
C 2.62600 -1.49000 -4.30600
N 0.15000 -2.14400 0.30300
C 0.17300 -3.13600 -0.68800
C 0.17300 -4.43800 0.00400
C 0.13300 -4.11100 1.35800
C 0.08300 -2.69500 1.50200
C 0.14900 -5.71500 -0.62300
C 0.09600 -4.62900 2.71600
O 0.20800 -5.74700 3.22100
C -0.25500 -3.42800 3.70100
C 0.71700 -3.48200 4.84800
O 1.93100 -3.25500 4.66900
O 0.03800 -3.55600 6.00300
C 0.94300 -3.58300 7.18300
H -1.85900 3.22000 2.49700
H -0.21800 2.45300 -3.47400
H 0.27600 -3.74700 -2.60500
H -1.55400 -0.94900 5.13200
H -1.58500 1.83100 4.66500
H -3.48400 -0.37700 3.96900
H -3.51100 1.02700 2.85800
H -3.85200 1.30100 4.54300
H 0.66900 1.09600 4.96600
H 1.13000 -0.63900 5.18900
H -0.84400 0.02600 7.12500
H 0.06200 1.47700 6.92100
H -1.34400 5.18600 1.93800
H -1.65100 5.96300 0.43200
H 0.00700 6.02000 1.08400
H -0.63500 6.74400 -1.40500
H 0.66500 6.97000 -2.70400
H 1.04800 6.46600 -1.03600
H 0.60800 0.50100 -4.89100
H -0.69200 -2.15600 -4.54700
H -1.26700 0.74000 -6.12900
H -2.20400 0.71400 -4.59600
H -1.96700 -0.72000 -5.45300
H 1.35600 -1.75900 -5.96700
H 1.45200 -3.15700 -4.90200
H 2.71400 -0.52200 -4.79800
H 3.48700 -2.12100 -4.52900
H 2.49500 -1.30300 -3.24000
H 0.86700 -6.33300 -0.08400
H 0.40400 -5.64200 -1.68000
H -0.89100 -5.99900 -0.46300
H -1.28300 -3.58100 4.02800
H 0.69800 -4.47800 7.75500
H 0.83300 -2.61900 7.68000
H 2.00000 -3.75400 6.97600
Mg 13.12991 1.18337 1.00415
C 14.18658 3.56321 3.47374
C 12.69797 -1.04370 3.55134
C 12.62881 -1.06434 -1.17853
C 14.70577 3.17174 -1.38515
N 13.43545 1.35567 3.18800
C 13.78059 2.32745 4.01919
C 13.60844 1.97969 5.52218
C 13.69915 0.38024 5.41085
C 13.21480 0.20747 3.97271
C 15.12037 -0.14982 5.50311
C 12.21796 2.43828 6.08635
C 12.10212 2.41052 7.61199
H 11.30541 3.44338 8.26843
N 12.26566 -0.59565 1.16769
C 12.15991 -1.34959 2.28199
C 11.45851 -2.57625 1.87271
C 11.30500 -2.55719 0.39258
C 12.09624 -1.38938 0.06053
C 10.93772 -3.58278 2.85714
C 10.57826 -3.45051 -0.56659
O 10.77629 -3.38350 -1.83116
C 9.69798 -4.46893 0.02452
N 13.77617 0.95495 -0.95863
C 13.36940 -0.08798 -1.70346
C 13.73631 0.10289 -3.15582
C 14.26261 1.60860 -3.27169
C 14.18956 2.01738 -1.78409
C 14.79748 -0.85054 -3.70472
C 13.56898 2.51765 -4.32296
C 12.13778 2.78104 -3.91345
N 14.08754 3.11995 0.97868
C 14.70388 3.75232 -0.12328
C 15.31411 5.00129 0.37684
C 15.02795 4.99746 1.75038
C 14.30885 3.81873 2.08647
C 16.06203 5.93073 -0.39959
C 15.17991 5.71738 2.99430
O 15.62466 6.81989 3.31116
C 14.75165 4.75942 4.18816
C 13.83403 5.53101 5.09652
O 12.71800 5.90670 4.69660
O 14.33105 5.50933 6.34667
C 13.45002 6.25234 7.28665
H 12.74634 -1.88473 4.24360
H 12.38856 -1.75437 -1.99071
H 15.13026 3.89442 -2.08531
H 14.39458 2.35266 6.16767
H 13.01578 -0.10334 6.10404
H 15.84823 0.64788 5.50986
H 15.25670 -0.77904 4.63332
H 15.22146 -0.80851 6.37043
H 11.46086 1.68719 5.82674
H 11.96219 3.41431 5.72224
H 13.08053 2.31302 8.09795
H 11.56679 1.50343 7.90290
H 11.34490 -3.41133 3.86124
H 11.34245 -4.55711 2.56264
H 9.84717 -3.64042 2.86358
H 10.27930 -5.11131 0.68169
H 9.19889 -4.94920 -0.81936
H 8.95423 -3.96637 0.65292
H 12.86842 -0.01601 -3.79279
H 15.32421 1.64835 -3.55674
H 14.45405 -1.42553 -4.58535
H 15.10068 -1.51825 -2.90925
H 15.73935 -0.38161 -3.98433
H 13.52686 2.01284 -5.29123
H 14.07479 3.46521 -4.47551
H 11.60980 1.89461 -4.27755
H 11.76385 3.68594 -4.38817
H 12.03771 2.79918 -2.82198
H 15.72837 6.91822 -0.10969
H 15.92390 5.76051 -1.46529
H 17.07629 5.68615 -0.07291
H 15.66273 4.44430 4.69828
H 14.07033 7.01095 7.77390
H 12.99084 5.48378 7.93643
H 12.66419 6.86421 6.85942
