79

Mg 8.93582 0.80696 0.66853
C 11.41322 -1.61160 -0.27602
C 11.20700 3.22382 -0.12841
C 6.94852 2.94497 1.91231
C 7.32871 -1.73330 2.43204
N 11.00899 0.69548 -0.09424
C 11.82412 -0.27693 -0.47414
C 13.12109 0.20824 -1.17560
C 13.19310 1.68643 -0.55220
C 11.70818 1.90511 -0.26958
C 13.94444 1.74716 0.76732
C 12.97618 0.24994 -2.73742
C 14.29182 0.41596 -3.50114
H 14.44336 -0.26669 -4.78313
N 8.84833 2.77435 0.42304
C 9.86035 3.59686 0.07581
C 9.28678 4.95128 0.04875
C 7.89406 4.88136 0.56851
C 7.84905 3.50420 1.01740
C 10.02088 6.13478 -0.51147
C 6.79014 5.89095 0.65966
O 5.74088 5.67957 1.36479
C 7.01534 7.17224 -0.02523
N 7.48367 0.68693 2.15150
C 6.72452 1.75194 2.46352
C 5.57142 1.35744 3.35521
C 5.57538 -0.24160 3.38046
C 6.83990 -0.50493 2.53367
C 5.62586 1.88891 4.78733
C 4.25530 -0.95507 2.97918
C 3.97024 -0.72622 1.51229
N 9.17490 -1.32966 0.88245
C 8.40853 -2.19695 1.69150
C 9.02140 -3.53764 1.59473
C 10.12414 -3.35098 0.74761
C 10.20539 -1.98590 0.36100
C 8.57957 -4.70558 2.27798
C 11.24411 -3.99618 0.10103
O 11.63236 -5.15853 -0.00826
C 12.20220 -2.87362 -0.48914
C 12.54734 -3.25380 -1.90295
O 11.66783 -3.28526 -2.78163
O 13.88573 -3.30510 -2.03123
C 14.27758 -3.66759 -3.41935
H 11.91657 4.05170 -0.13219
H 6.17334 3.61890 2.28432
H 6.82983 -2.59851 2.87387
H 14.01345 -0.34863 -0.91605
H 13.55218 2.40629 -1.28310
H 14.20500 0.76329 1.12823
H 13.27839 2.24108 1.46263
H 14.81875 2.39766 0.67368
H 12.47279 1.18178 -3.02556
H 12.45770 -0.61825 -3.09527
H 15.16483 0.23319 -2.86286
H 14.39116 1.46294 -3.79774
H 11.08381 5.91226 -0.66658
H 10.01576 6.90990 0.26249
H 9.55164 6.53306 -1.41362
H 7.91163 7.64191 0.37293
H 6.08068 7.72691 0.07782
H 7.20875 6.97309 -1.08521
H 4.62980 1.70008 2.94405
H 5.78420 -0.63270 4.38707
H 4.73460 2.48178 5.06704
H 6.52556 2.47948 4.89827
H 5.75155 1.12956 5.55725
H 3.41243 -0.52943 3.52923
H 4.26338 -2.02172 3.17715
H 3.48534 0.25455 1.50521
H 3.30672 -1.49737 1.12614
H 4.90079 -0.63802 0.93962
H 8.61075 -5.51583 1.56173
H 7.57980 -4.57308 2.68625
H 9.33802 -4.77117 3.06265
H 13.08511 -2.82753 0.14955
H 14.92374 -4.54808 -3.34931
H 14.71993 -2.75144 -3.85379
H 13.49946 -4.02844 -4.08175
