158

Mg 0.00000 0.00000 0.00000
C -0.21700 -2.21800 2.80100
C -1.25500 2.44200 2.02600
C -0.24500 1.85000 -2.56400
C 0.14600 -2.82400 -2.03700
N -0.61700 -0.00900 2.12600
C -0.59400 -0.90800 3.10500
C -0.93600 -0.30900 4.50200
C -1.77300 0.96400 4.03200
C -1.15500 1.16800 2.66000
C -3.26300 0.68500 3.86300
C 0.34500 0.11000 5.29900
C 0.12400 0.39700 6.78700
H 1.16800 0.03300 7.73300
N -0.18500 1.96100 -0.15200
C -0.70300 2.80000 0.77700
C -0.62000 4.15600 0.19300
C -0.18700 4.01500 -1.22500
C -0.21400 2.58300 -1.38000
C -0.88700 5.40600 0.97400
C 0.18100 5.01300 -2.27700
O 0.30300 4.69000 -3.50800
C 0.31000 6.41400 -1.83700
N -0.26500 -0.41300 -2.02900
C -0.27900 0.56900 -2.93700
C -0.19600 0.02400 -4.33200
C 0.12400 -1.53300 -4.18000
C 0.08600 -1.63200 -2.63500
C -1.45100 0.20500 -5.19700
C 1.37300 -2.07000 -4.92300
C 2.62600 -1.49000 -4.30600
N 0.15000 -2.14400 0.30300
C 0.17300 -3.13600 -0.68800
C 0.17300 -4.43800 0.00400
C 0.13300 -4.11100 1.35800
C 0.08300 -2.69500 1.50200
C 0.14900 -5.71500 -0.62300
C 0.09600 -4.62900 2.71600
O 0.20800 -5.74700 3.22100
C -0.25500 -3.42800 3.70100
C 0.71700 -3.48200 4.84800
O 1.93100 -3.25500 4.66900
O 0.03800 -3.55600 6.00300
C 0.94300 -3.58300 7.18300
H -1.85900 3.22000 2.49700
H -0.21800 2.45300 -3.47400
H 0.27600 -3.74700 -2.60500
H -1.55400 -0.94900 5.13200
H -1.58500 1.83100 4.66500
H -3.48400 -0.37700 3.96900
H -3.51100 1.02700 2.85800
H -3.85200 1.30100 4.54300
H 0.66900 1.09600 4.96600
H 1.13000 -0.63900 5.18900
H -0.84400 0.02600 7.12500
H 0.06200 1.47700 6.92100
H -1.34400 5.18600 1.93800
H -1.65100 5.96300 0.43200
H 0.00700 6.02000 1.08400
H -0.63500 6.74400 -1.40500
H 0.66500 6.97000 -2.70400
H 1.04800 6.46600 -1.03600
H 0.60800 0.50100 -4.89100
H -0.69200 -2.15600 -4.54700
H -1.26700 0.74000 -6.12900
H -2.20400 0.71400 -4.59600
H -1.96700 -0.72000 -5.45300
H 1.35600 -1.75900 -5.96700
H 1.45200 -3.15700 -4.90200
H 2.71400 -0.52200 -4.79800
H 3.48700 -2.12100 -4.52900
H 2.49500 -1.30300 -3.24000
H 0.86700 -6.33300 -0.08400
H 0.40400 -5.64200 -1.68000
H -0.89100 -5.99900 -0.46300
H -1.28300 -3.58100 4.02800
H 0.69800 -4.47800 7.75500
H 0.83300 -2.61900 7.68000
H 2.00000 -3.75400 6.97600
Mg 7.89064 0.71074 0.60625
C 6.46671 -1.20833 3.28368
C 7.85006 3.39619 2.70894
C 8.72046 2.52782 -1.85891
C 6.77360 -1.76533 -1.57710
N 7.22164 0.93897 2.70210
C 6.75535 0.12603 3.63808
C 6.66464 0.75877 5.05264
C 6.56973 2.30236 4.61997
C 7.28839 2.22373 3.27460
C 5.14554 2.77195 4.37398
C 7.94607 0.48161 5.91470
C 7.80092 0.80205 7.40399
H 8.49036 -0.04932 8.36955
N 8.68735 2.52782 0.56084
C 8.59097 3.48252 1.50980
C 9.33284 4.64201 0.99078
C 9.73554 4.35152 -0.41213
C 9.03004 3.10569 -0.63630
C 9.66360 5.83978 1.83303
C 10.60077 5.08156 -1.39428
O 10.62123 4.76793 -2.63688
C 11.35234 6.23396 -0.87600
N 7.58339 0.53387 -1.44233
C 8.09467 1.43582 -2.29848
C 7.98248 0.95724 -3.72634
C 7.50652 -0.56665 -3.63254
C 7.33232 -0.68363 -2.10239
C 7.01540 1.73836 -4.61572
C 8.38227 -1.62351 -4.35971
C 9.72708 -1.73643 -3.67843
N 6.98090 -1.23931 0.80049
C 6.57020 -2.09678 -0.24362
C 5.90310 -3.25667 0.38251
C 5.95195 -2.98028 1.75718
C 6.58552 -1.72640 1.97134
C 5.31205 -4.35044 -0.31064
C 5.60214 -3.45912 3.07514
O 5.12696 -4.50203 3.52268
C 5.80694 -2.27392 4.11425
C 6.56879 -2.81575 5.29260
O 7.74210 -3.20647 5.16115
O 5.86658 -2.58243 6.41636
C 6.58658 -3.09200 7.61376
H 7.67209 4.34939 3.20756
H 9.08447 3.06298 -2.73902
H 6.48514 -2.62647 -2.18366
H 5.78617 0.47717 5.62075
H 7.11811 2.94000 5.30849
H 4.43936 1.95606 4.41613
H 5.14918 3.21864 3.38834
H 4.88870 3.57679 5.06867
H 8.72468 1.20550 5.64177
H 8.27479 -0.53224 5.79358
H 6.75287 0.94268 7.69513
H 8.26521 1.77219 7.59707
H 9.09462 5.84154 2.77092
H 9.29989 6.72068 1.29303
H 10.73624 5.94951 2.00645
H 10.65819 6.96028 -0.45996
H 11.97999 6.56972 -1.70376
H 11.98626 5.89495 -0.04905
H 8.94395 0.99512 -4.22358
H 6.50941 -0.71001 -4.07420
H 7.49446 2.15268 -5.52286
H 6.57147 2.52887 -4.02533
H 6.14190 1.18077 -4.94931
H 8.58037 -1.30893 -5.38730
H 7.92420 -2.60586 -4.40627
H 10.29559 -0.91042 -4.11615
H 10.18991 -2.69575 -3.90101
H 9.64076 -1.54364 -2.60278
H 5.60672 -5.24849 0.21583
H 5.62639 -4.37783 -1.35190
H 4.25345 -4.09727 -0.20796
H 4.81781 -1.91206 4.39757
H 5.90425 -3.77381 8.13072
H 6.91706 -2.19370 8.16838
H 7.44276 -3.73529 7.44769
