79

Mg 31.53256 2.83880 2.39533
C 31.08568 6.27962 1.51597
C 30.96854 2.08182 -0.88369
C 31.47182 -0.22138 3.22492
C 30.93542 3.75956 5.70309
N 31.09579 4.10746 0.63454
C 31.01062 5.41668 0.42037
C 30.90965 5.79057 -1.08873
C 30.31744 4.42019 -1.64850
C 30.85444 3.47311 -0.58991
C 28.79333 4.36291 -1.63120
C 32.30793 6.10950 -1.71707
C 32.26811 6.79469 -3.08612
H 33.28620 7.78466 -3.40362
N 31.74259 1.20949 1.29802
C 31.48241 1.08550 -0.02569
C 31.79580 -0.31730 -0.37301
C 32.07790 -1.04762 0.89393
C 31.74550 -0.04248 1.87096
C 31.85321 -0.82304 -1.78180
C 32.55909 -2.43516 1.17909
O 32.51512 -2.94278 2.35168
C 33.00702 -3.22655 0.01887
N 31.02990 1.85780 4.16807
C 31.14645 0.52998 4.27889
C 31.00600 0.08667 5.70497
C 31.01058 1.41930 6.58465
C 31.07454 2.45856 5.43830
C 29.75088 -0.73499 6.02987
C 32.06048 1.50849 7.72050
C 33.45035 1.58736 7.12963
N 31.26268 4.69995 3.47900
C 31.00369 4.84780 4.84931
C 30.79084 6.28581 5.09602
C 30.92528 6.87652 3.84110
C 31.17842 5.86822 2.86767
C 30.45610 6.87620 6.34655
C 30.88955 8.12221 3.09221
O 30.80903 9.31370 3.39445
C 30.87098 7.77258 1.53875
C 31.89823 8.64106 0.86510
O 33.11508 8.48974 1.09691
O 31.31136 9.34514 -0.11490
C 32.28139 10.20593 -0.84308
H 30.57597 1.70858 -1.83159
H 31.55043 -1.25336 3.57316
H 30.82820 4.13091 6.72390
H 30.22489 6.60967 -1.30920
H 30.72850 4.16834 -2.62591
H 28.36811 5.22414 -1.11605
H 28.54264 3.44210 -1.10416
H 28.39856 4.24720 -2.64093
H 32.80021 5.17636 -1.99088
H 32.91139 6.70659 -1.03249
H 31.27418 7.18422 -3.30811
H 32.43980 6.03811 -3.85183
H 31.43795 -0.10098 -2.48376
H 31.17962 -1.67772 -1.84097
H 32.86001 -1.12796 -2.06765
H 32.18678 -3.31662 -0.69361
H 33.39935 -4.15862 0.42406
H 33.80057 -2.68266 -0.49436
H 31.84433 -0.54137 6.00362
H 30.05784 1.57903 7.09007
H 29.96697 -1.71068 6.46579
H 29.16795 -0.83592 5.11483
H 29.03754 -0.23911 6.68765
H 32.02571 0.61306 8.34014
H 31.91611 2.36939 8.37338
H 33.69621 0.54216 6.94539
H 34.14329 2.03115 7.84523
H 33.44466 2.09564 6.16521
H 31.07205 7.77094 6.43607
H 30.63682 6.18677 7.17094
H 29.39580 7.07911 6.19669
H 29.86239 7.98026 1.18274
H 31.90363 11.22729 -0.79454
H 32.41096 9.76073 -1.82969
H 33.26120 10.32667 -0.37968
