79

Mg 31.53291 2.84131 2.38504
C 33.83992 0.37825 1.16435
C 33.71797 5.21732 1.28291
C 29.74590 5.01955 3.84425
C 30.12625 0.34131 4.36418
N 33.49231 2.69256 1.36972
C 34.24036 1.70489 0.90147
C 35.44538 2.16455 0.03764
C 35.61463 3.64731 0.63063
C 34.17994 3.89020 1.09469
C 36.52635 3.70945 1.84482
C 35.10620 2.19374 -1.49407
C 36.31770 2.33345 -2.41846
H 36.29811 1.63670 -3.70167
N 31.44139 4.80739 2.13060
C 32.41265 5.61181 1.65015
C 31.85822 6.97411 1.68015
C 30.54092 6.92932 2.37112
C 30.53435 5.55723 2.83738
C 32.53184 8.14151 1.01922
C 29.47065 7.95567 2.58869
O 28.51546 7.76618 3.42208
C 29.62510 9.22708 1.86678
N 30.27686 2.75631 4.03956
C 29.57704 3.83512 4.43241
C 28.53982 3.46579 5.46593
C 28.52572 1.86717 5.50825
C 29.67038 1.57756 4.51263
C 28.78057 4.00980 6.87394
C 27.15638 1.16925 5.28354
C 26.69256 1.38849 3.86150
N 31.76859 0.70354 2.59102
C 31.09837 -0.14490 3.49933
C 31.67643 -1.49521 3.34141
C 32.66652 -1.33254 2.36073
C 32.71671 0.02753 1.95185
C 31.30838 -2.65015 4.08758
C 33.68786 -1.99999 1.58609
O 34.04389 -3.16884 1.44192
C 34.57912 -0.89706 0.86805
C 34.73905 -1.29544 -0.57356
O 33.75590 -1.32232 -1.33467
O 36.04997 -1.36739 -0.86800
C 36.25970 -1.74852 -2.29017
H 34.43237 6.03472 1.18102
H 29.03253 5.70813 4.30299
H 29.67533 -0.51237 4.87464
H 36.35580 1.59722 0.18946
H 35.88867 4.35500 -0.14747
H 36.81707 2.72531 2.18113
H 35.95942 4.21949 2.61260
H 37.39054 4.34626 1.63511
H 34.58303 3.13006 -1.72718
H 34.53545 1.32987 -1.77444
H 37.26140 2.14398 -1.89266
H 36.39290 3.37605 -2.73679
H 33.56387 7.90211 0.73459
H 32.63416 8.92384 1.77906
H 31.95843 8.53811 0.17863
H 30.57041 9.68737 2.14422
H 28.71819 9.79623 2.08000
H 29.68131 9.01523 0.79320
H 27.55867 3.81823 5.17226
H 28.85399 1.48252 6.48503
H 27.93939 4.61816 7.25655
H 29.69483 4.58823 6.86467
H 28.99180 3.25594 7.63043
H 26.39491 1.61223 5.93014
H 27.17510 0.10450 5.49078
H 26.22365 2.37610 3.90435
H 25.97567 0.62349 3.57015
H 27.54498 1.45778 3.17576
H 31.23869 -3.46744 3.38212
H 30.36959 -2.49931 4.61644
H 32.15836 -2.71942 4.77169
H 35.53573 -0.85784 1.39049
H 36.89781 -2.63762 -2.29190
H 36.65614 -0.84300 -2.78678
H 35.39990 -2.10420 -2.84577
