158

Mg 0.00000 0.00000 0.00000
C -0.21700 -2.21800 2.80100
C -1.25500 2.44200 2.02600
C -0.24500 1.85000 -2.56400
C 0.14600 -2.82400 -2.03700
N -0.61700 -0.00900 2.12600
C -0.59400 -0.90800 3.10500
C -0.93600 -0.30900 4.50200
C -1.77300 0.96400 4.03200
C -1.15500 1.16800 2.66000
C -3.26300 0.68500 3.86300
C 0.34500 0.11000 5.29900
C 0.12400 0.39700 6.78700
H 1.16800 0.03300 7.73300
N -0.18500 1.96100 -0.15200
C -0.70300 2.80000 0.77700
C -0.62000 4.15600 0.19300
C -0.18700 4.01500 -1.22500
C -0.21400 2.58300 -1.38000
C -0.88700 5.40600 0.97400
C 0.18100 5.01300 -2.27700
O 0.30300 4.69000 -3.50800
C 0.31000 6.41400 -1.83700
N -0.26500 -0.41300 -2.02900
C -0.27900 0.56900 -2.93700
C -0.19600 0.02400 -4.33200
C 0.12400 -1.53300 -4.18000
C 0.08600 -1.63200 -2.63500
C -1.45100 0.20500 -5.19700
C 1.37300 -2.07000 -4.92300
C 2.62600 -1.49000 -4.30600
N 0.15000 -2.14400 0.30300
C 0.17300 -3.13600 -0.68800
C 0.17300 -4.43800 0.00400
C 0.13300 -4.11100 1.35800
C 0.08300 -2.69500 1.50200
C 0.14900 -5.71500 -0.62300
C 0.09600 -4.62900 2.71600
O 0.20800 -5.74700 3.22100
C -0.25500 -3.42800 3.70100
C 0.71700 -3.48200 4.84800
O 1.93100 -3.25500 4.66900
O 0.03800 -3.55600 6.00300
C 0.94300 -3.58300 7.18300
H -1.85900 3.22000 2.49700
H -0.21800 2.45300 -3.47400
H 0.27600 -3.74700 -2.60500
H -1.55400 -0.94900 5.13200
H -1.58500 1.83100 4.66500
H -3.48400 -0.37700 3.96900
H -3.51100 1.02700 2.85800
H -3.85200 1.30100 4.54300
H 0.66900 1.09600 4.96600
H 1.13000 -0.63900 5.18900
H -0.84400 0.02600 7.12500
H 0.06200 1.47700 6.92100
H -1.34400 5.18600 1.93800
H -1.65100 5.96300 0.43200
H 0.00700 6.02000 1.08400
H -0.63500 6.74400 -1.40500
H 0.66500 6.97000 -2.70400
H 1.04800 6.46600 -1.03600
H 0.60800 0.50100 -4.89100
H -0.69200 -2.15600 -4.54700
H -1.26700 0.74000 -6.12900
H -2.20400 0.71400 -4.59600
H -1.96700 -0.72000 -5.45300
H 1.35600 -1.75900 -5.96700
H 1.45200 -3.15700 -4.90200
H 2.71400 -0.52200 -4.79800
H 3.48700 -2.12100 -4.52900
H 2.49500 -1.30300 -3.24000
H 0.86700 -6.33300 -0.08400
H 0.40400 -5.64200 -1.68000
H -0.89100 -5.99900 -0.46300
H -1.28300 -3.58100 4.02800
H 0.69800 -4.47800 7.75500
H 0.83300 -2.61900 7.68000
H 2.00000 -3.75400 6.97600
Mg 10.50893 0.93896 0.80587
C 8.42269 2.79502 3.06013
C 12.68804 0.52820 3.39766
C 12.57244 -0.30782 -1.25687
C 8.77399 2.44159 -1.81668
N 10.45134 1.61988 2.90951
C 9.57932 2.26536 3.66931
C 9.92966 2.27846 5.18148
C 11.51596 2.05841 5.06272
C 11.56138 1.32458 3.72402
C 12.29472 3.35583 4.92287
C 9.24384 1.10409 5.96412
C 9.29018 1.23350 7.48821
H 8.14859 0.75417 8.26247
N 12.10760 -0.19552 1.11539
C 12.85915 -0.25455 2.23475
C 13.92889 -1.22357 1.95047
C 13.84394 -1.60847 0.51543
C 12.82885 -0.68291 0.05390
C 14.85095 -1.75201 3.01065
C 14.56697 -2.63059 -0.30840
O 14.50360 -2.63093 -1.58856
C 15.42594 -3.57353 0.42271
N 10.79831 1.20688 -1.23541
C 11.73149 0.50270 -1.89965
C 11.57172 0.65825 -3.39319
C 10.18243 1.42307 -3.59931
C 9.80615 1.66700 -2.12137
C 12.68546 1.42593 -4.10498
C 9.13651 0.74499 -4.52610
C 8.63131 -0.52928 -3.88863
N 8.77568 2.21492 0.61667
C 8.23566 2.74918 -0.57371
C 7.12998 3.64851 -0.18496
C 7.11824 3.59245 1.21690
C 8.15714 2.73553 1.67064
C 6.32992 4.41694 -1.07688
C 6.47002 4.07163 2.41644
O 5.47389 4.75423 2.65207
C 7.36639 3.67564 3.66787
C 6.46661 3.07240 4.71143
O 5.88641 1.99325 4.49836
O 6.60978 3.75284 5.86333
C 5.74551 3.18502 6.93218
H 13.54187 0.53461 4.07575
H 13.18670 -0.79738 -2.01614
H 8.12121 2.87114 -2.57960
H 9.72083 3.21309 5.68806
H 11.88696 1.41997 5.86029
H 11.64107 4.20761 4.80732
H 12.91526 3.23327 4.04483
H 12.98327 3.47477 5.76434
H 9.83981 0.19149 5.83484
H 8.22859 0.97406 5.64321
H 9.57435 2.24352 7.80767
H 10.09374 0.59680 7.86626
H 14.78164 -1.16350 3.93383
H 15.87408 -1.58373 2.65744
H 14.71207 -2.81928 3.19588
H 16.17916 -3.01980 0.97814
H 15.78664 -4.28127 -0.32621
H 14.81464 -4.10219 1.16260
H 11.51625 -0.30823 -3.87893
H 10.32642 2.41394 -4.05458
H 13.16629 0.84606 -4.91532
H 13.41729 1.72765 -3.36747
H 12.38607 2.37937 -4.53686
H 9.60010 0.45595 -5.47251
H 8.29147 1.38279 -4.76298
H 9.39876 -1.26108 -4.15803
H 7.66191 -0.80472 -4.29904
H 8.62400 -0.44649 -2.79559
H 5.30649 4.31924 -0.73990
H 6.44471 4.07968 -2.10491
H 6.76101 5.40930 -0.91987
H 7.85312 4.58479 4.02301
H 5.12353 4.00311 7.30841
H 6.43587 2.70535 7.65126
H 4.99159 2.46457 6.63720
