158

Mg 0.00000 0.00000 0.00000
C -0.21700 -2.21800 2.80100
C -1.25500 2.44200 2.02600
C -0.24500 1.85000 -2.56400
C 0.14600 -2.82400 -2.03700
N -0.61700 -0.00900 2.12600
C -0.59400 -0.90800 3.10500
C -0.93600 -0.30900 4.50200
C -1.77300 0.96400 4.03200
C -1.15500 1.16800 2.66000
C -3.26300 0.68500 3.86300
C 0.34500 0.11000 5.29900
C 0.12400 0.39700 6.78700
H 1.16800 0.03300 7.73300
N -0.18500 1.96100 -0.15200
C -0.70300 2.80000 0.77700
C -0.62000 4.15600 0.19300
C -0.18700 4.01500 -1.22500
C -0.21400 2.58300 -1.38000
C -0.88700 5.40600 0.97400
C 0.18100 5.01300 -2.27700
O 0.30300 4.69000 -3.50800
C 0.31000 6.41400 -1.83700
N -0.26500 -0.41300 -2.02900
C -0.27900 0.56900 -2.93700
C -0.19600 0.02400 -4.33200
C 0.12400 -1.53300 -4.18000
C 0.08600 -1.63200 -2.63500
C -1.45100 0.20500 -5.19700
C 1.37300 -2.07000 -4.92300
C 2.62600 -1.49000 -4.30600
N 0.15000 -2.14400 0.30300
C 0.17300 -3.13600 -0.68800
C 0.17300 -4.43800 0.00400
C 0.13300 -4.11100 1.35800
C 0.08300 -2.69500 1.50200
C 0.14900 -5.71500 -0.62300
C 0.09600 -4.62900 2.71600
O 0.20800 -5.74700 3.22100
C -0.25500 -3.42800 3.70100
C 0.71700 -3.48200 4.84800
O 1.93100 -3.25500 4.66900
O 0.03800 -3.55600 6.00300
C 0.94300 -3.58300 7.18300
H -1.85900 3.22000 2.49700
H -0.21800 2.45300 -3.47400
H 0.27600 -3.74700 -2.60500
H -1.55400 -0.94900 5.13200
H -1.58500 1.83100 4.66500
H -3.48400 -0.37700 3.96900
H -3.51100 1.02700 2.85800
H -3.85200 1.30100 4.54300
H 0.66900 1.09600 4.96600
H 1.13000 -0.63900 5.18900
H -0.84400 0.02600 7.12500
H 0.06200 1.47700 6.92100
H -1.34400 5.18600 1.93800
H -1.65100 5.96300 0.43200
H 0.00700 6.02000 1.08400
H -0.63500 6.74400 -1.40500
H 0.66500 6.97000 -2.70400
H 1.04800 6.46600 -1.03600
H 0.60800 0.50100 -4.89100
H -0.69200 -2.15600 -4.54700
H -1.26700 0.74000 -6.12900
H -2.20400 0.71400 -4.59600
H -1.96700 -0.72000 -5.45300
H 1.35600 -1.75900 -5.96700
H 1.45200 -3.15700 -4.90200
H 2.71400 -0.52200 -4.79800
H 3.48700 -2.12100 -4.52900
H 2.49500 -1.30300 -3.24000
H 0.86700 -6.33300 -0.08400
H 0.40400 -5.64200 -1.68000
H -0.89100 -5.99900 -0.46300
H -1.28300 -3.58100 4.02800
H 0.69800 -4.47800 7.75500
H 0.83300 -2.61900 7.68000
H 2.00000 -3.75400 6.97600
Mg 8.93719 0.81227 0.68504
C 10.05513 -1.00877 3.56828
C 6.64500 2.32027 2.71146
C 7.63475 2.09424 -1.90873
C 10.49111 -1.61291 -1.27698
N 8.50424 0.60020 2.84370
C 9.03484 -0.07681 3.85091
C 8.49383 0.32238 5.25003
C 7.07488 0.92250 4.79693
C 7.43084 1.34262 3.37234
C 5.97435 -0.12302 4.72568
C 9.38264 1.41223 5.94591
C 9.09314 1.62434 7.43352
H 10.20885 1.93810 8.32190
N 7.71827 2.36677 0.49440
C 6.87262 2.85667 1.42508
C 6.18586 3.99070 0.78751
C 6.57518 4.02770 -0.64838
C 7.32462 2.79156 -0.75023
C 5.32563 4.95488 1.55157
C 6.30541 5.00645 -1.75087
O 6.53968 4.71984 -2.97798
C 5.67204 6.27471 -1.36118
N 8.86227 0.20547 -1.30205
C 8.27816 0.97402 -2.23804
C 8.58661 0.47024 -3.62780
C 9.70262 -0.65931 -3.43748
C 9.78525 -0.67611 -1.89531
C 7.40359 -0.10908 -4.40320
C 11.01809 -0.49233 -4.24639
C 11.78536 0.70853 -3.74179
N 10.22522 -0.88548 1.04093
C 10.74017 -1.78195 0.07903
C 11.46728 -2.83779 0.81316
C 11.30412 -2.49221 2.16314
C 10.51296 -1.31605 2.26416
C 12.11836 -3.96021 0.22803
C 11.61233 -2.86089 3.52614
O 12.32069 -3.71618 4.05571
C 10.71126 -1.98777 4.50191
C 11.59823 -1.43681 5.58461
O 12.49458 -0.61892 5.31217
O 11.10512 -1.79641 6.78373
C 11.94461 -1.26410 7.88995
H 5.74337 2.68239 3.20625
H 7.30179 2.55667 -2.84082
H 11.08542 -2.35030 -1.82079
H 8.34637 -0.50547 5.93319
H 6.80400 1.78956 5.39374
H 6.35668 -1.12143 4.87779
H 5.54323 -0.02944 3.73754
H 5.17355 0.12412 5.42852
H 9.10613 2.40102 5.55785
H 10.42480 1.19933 5.80736
H 8.48267 0.81597 7.85399
H 8.46981 2.51522 7.54216
H 5.09173 4.57754 2.55471
H 4.35649 4.99157 1.04237
H 5.74692 5.96197 1.58256
H 4.72064 6.06924 -0.87634
H 5.64188 6.87785 -2.27067
H 6.30553 6.76739 -0.61514
H 8.99058 1.26281 -4.24565
H 9.33582 -1.65014 -3.74334
H 7.23042 0.39240 -5.37408
H 6.52204 -0.04454 -3.77930
H 7.46395 -1.17659 -4.60810
H 10.79387 -0.29785 -5.29809
H 11.66112 -1.36537 -4.21031
H 11.31237 1.54274 -4.26853
H 12.83928 0.62569 -3.99951
H 11.61904 0.85939 -2.66883
H 13.06915 -4.06684 0.73313
H 12.24933 -3.82950 -0.84413
H 11.39628 -4.74754 0.46039
H 9.93417 -2.64029 4.90182
H 12.23999 -2.11865 8.50653
H 11.33553 -0.47888 8.37596
H 12.91046 -0.84691 7.63005
