158

Mg 0.00000 0.00000 0.00000
C -0.21700 -2.21800 2.80100
C -1.25500 2.44200 2.02600
C -0.24500 1.85000 -2.56400
C 0.14600 -2.82400 -2.03700
N -0.61700 -0.00900 2.12600
C -0.59400 -0.90800 3.10500
C -0.93600 -0.30900 4.50200
C -1.77300 0.96400 4.03200
C -1.15500 1.16800 2.66000
C -3.26300 0.68500 3.86300
C 0.34500 0.11000 5.29900
C 0.12400 0.39700 6.78700
H 1.16800 0.03300 7.73300
N -0.18500 1.96100 -0.15200
C -0.70300 2.80000 0.77700
C -0.62000 4.15600 0.19300
C -0.18700 4.01500 -1.22500
C -0.21400 2.58300 -1.38000
C -0.88700 5.40600 0.97400
C 0.18100 5.01300 -2.27700
O 0.30300 4.69000 -3.50800
C 0.31000 6.41400 -1.83700
N -0.26500 -0.41300 -2.02900
C -0.27900 0.56900 -2.93700
C -0.19600 0.02400 -4.33200
C 0.12400 -1.53300 -4.18000
C 0.08600 -1.63200 -2.63500
C -1.45100 0.20500 -5.19700
C 1.37300 -2.07000 -4.92300
C 2.62600 -1.49000 -4.30600
N 0.15000 -2.14400 0.30300
C 0.17300 -3.13600 -0.68800
C 0.17300 -4.43800 0.00400
C 0.13300 -4.11100 1.35800
C 0.08300 -2.69500 1.50200
C 0.14900 -5.71500 -0.62300
C 0.09600 -4.62900 2.71600
O 0.20800 -5.74700 3.22100
C -0.25500 -3.42800 3.70100
C 0.71700 -3.48200 4.84800
O 1.93100 -3.25500 4.66900
O 0.03800 -3.55600 6.00300
C 0.94300 -3.58300 7.18300
H -1.85900 3.22000 2.49700
H -0.21800 2.45300 -3.47400
H 0.27600 -3.74700 -2.60500
H -1.55400 -0.94900 5.13200
H -1.58500 1.83100 4.66500
H -3.48400 -0.37700 3.96900
H -3.51100 1.02700 2.85800
H -3.85200 1.30100 4.54300
H 0.66900 1.09600 4.96600
H 1.13000 -0.63900 5.18900
H -0.84400 0.02600 7.12500
H 0.06200 1.47700 6.92100
H -1.34400 5.18600 1.93800
H -1.65100 5.96300 0.43200
H 0.00700 6.02000 1.08400
H -0.63500 6.74400 -1.40500
H 0.66500 6.97000 -2.70400
H 1.04800 6.46600 -1.03600
H 0.60800 0.50100 -4.89100
H -0.69200 -2.15600 -4.54700
H -1.26700 0.74000 -6.12900
H -2.20400 0.71400 -4.59600
H -1.96700 -0.72000 -5.45300
H 1.35600 -1.75900 -5.96700
H 1.45200 -3.15700 -4.90200
H 2.71400 -0.52200 -4.79800
H 3.48700 -2.12100 -4.52900
H 2.49500 -1.30300 -3.24000
H 0.86700 -6.33300 -0.08400
H 0.40400 -5.64200 -1.68000
H -0.89100 -5.99900 -0.46300
H -1.28300 -3.58100 4.02800
H 0.69800 -4.47800 7.75500
H 0.83300 -2.61900 7.68000
H 2.00000 -3.75400 6.97600
Mg 15.76628 1.41940 1.19766
C 15.92178 0.29021 -2.19541
C 15.10823 -1.80890 2.08542
C 15.17617 2.46161 4.13402
C 15.30810 4.64086 -0.05052
N 15.56750 -0.43522 0.00539
C 15.70929 -0.74302 -1.28004
C 15.68623 -2.27652 -1.55430
C 14.87302 -2.75022 -0.26733
C 15.23134 -1.61653 0.67727
C 13.36148 -2.76035 -0.47139
C 17.12361 -2.89684 -1.58410
C 17.21289 -4.31139 -2.16414
H 18.38788 -4.67695 -2.94074
N 15.70361 0.44447 2.91476
C 15.43701 -0.87227 3.08916
C 15.50871 -1.11312 4.54640
C 15.65125 0.20779 5.21943
C 15.48760 1.10433 4.10372
C 15.49042 -2.48119 5.15615
C 15.88566 0.60009 6.64396
O 15.74583 1.80445 7.04961
C 16.20121 -0.49185 7.58265
N 15.08860 3.24625 1.94668
C 14.97541 3.45295 3.26328
C 14.74942 4.90357 3.57080
C 14.97459 5.68685 2.19765
C 15.22484 4.47153 1.27102
C 13.36962 5.25973 4.14115
C 16.01485 6.83499 2.20544
C 17.40256 6.26881 2.40739
N 15.80976 2.36313 -0.75644
C 15.56855 3.71394 -1.04594
C 15.60276 3.85404 -2.51334
C 15.84662 2.56357 -2.97925
C 15.93161 1.66921 -1.87417
C 15.36360 5.05258 -3.24187
C 16.03066 1.72801 -4.15475
O 16.15263 1.94362 -5.36146
C 15.96541 0.20306 -3.70075
C 17.13160 -0.50891 -4.33036
O 18.30268 -0.24193 -3.99174
O 16.68193 -1.54808 -5.05039
C 17.79088 -2.31506 -5.67819
H 14.66545 -2.73597 2.45477
H 15.07424 2.88341 5.13609
H 15.25754 5.63046 -0.50832
H 15.15351 -2.56837 -2.45954
H 15.24301 -3.69871 0.12150
H 13.08558 -2.31619 -1.42770
H 12.95264 -2.17489 0.35237
H 12.96110 -3.76731 -0.35098
H 17.45128 -3.09385 -0.56338
H 17.81462 -2.24384 -2.11835
H 16.30210 -4.58079 -2.69967
H 17.25897 -5.01805 -1.33546
H 15.21059 -3.24080 4.42729
H 14.68108 -2.49373 5.88590
H 16.43255 -2.72396 5.64785
H 15.38357 -1.21296 7.58382
H 16.42497 -0.01384 8.53569
H 17.08031 -1.02573 7.22057
H 15.46549 5.26307 4.30866
H 14.05906 6.15996 1.84178
H 13.41203 5.76783 5.10486
H 12.78560 4.34227 4.20815
H 12.74620 5.86600 3.48449
H 15.82232 7.51546 3.03419
H 16.01446 7.42231 1.28712
H 17.46755 6.16396 3.48980
H 18.15526 6.96543 2.03673
H 17.49187 5.27099 1.97742
H 16.12275 5.09137 -4.02299
H 15.41692 5.92716 -2.59389
H 14.35491 4.86692 -3.61055
H 15.01018 -0.18746 -4.05027
H 17.59298 -2.34658 -6.74968
H 17.85054 -3.26489 -5.14652
H 18.77303 -1.84124 -5.66417
