79

Mg 7.89113 0.70279 0.59797
C 7.99619 0.23061 -2.95802
C 7.28818 -2.64306 0.87425
C 7.34632 1.15719 3.69056
C 7.36272 4.09392 -0.00758
N 7.69119 -0.89484 -0.91857
C 7.81168 -0.96670 -2.23563
C 7.81014 -2.41126 -2.80378
C 7.01991 -3.13842 -1.60978
C 7.37909 -2.19143 -0.46659
C 5.51089 -3.12081 -1.78835
C 9.25918 -2.98985 -2.96967
C 9.34900 -4.26980 -3.80360
H 10.52029 -4.46615 -4.65331
N 7.87698 -0.59060 2.10313
C 7.63629 -1.91672 2.03424
C 7.72169 -2.41345 3.41632
C 7.86939 -1.24522 4.32635
C 7.67822 -0.15584 3.38998
C 7.74120 -3.87558 3.75574
C 8.12588 -1.12812 5.79832
O 7.97949 -0.01743 6.42105
C 8.46281 -2.37192 6.50607
N 7.21278 2.34040 1.68444
C 7.11589 2.28885 3.02454
C 6.87325 3.66076 3.60708
C 7.06911 4.68364 2.39343
C 7.31414 3.67519 1.24959
C 5.50001 3.88085 4.24123
C 8.09503 5.83161 2.59914
C 9.49421 5.26497 2.68033
N 7.89127 1.99162 -1.13609
C 7.62036 3.37712 -1.16913
C 7.62649 3.78822 -2.58807
C 7.87976 2.59954 -3.28906
C 8.00142 1.51996 -2.37297
C 7.36897 5.10073 -3.07501
C 8.06129 2.01069 -4.59634
O 8.15103 2.44995 -5.74209
C 8.01916 0.42870 -4.44828
C 9.18272 -0.14053 -5.21288
O 10.35010 0.08943 -4.85098
O 8.72620 -1.03427 -6.10909
C 9.84425 -1.63457 -6.88460
H 6.87121 -3.63307 1.06111
H 7.25669 1.38918 4.75434
H 7.30336 5.15153 -0.27331
H 7.27009 -2.53251 -3.73513
H 7.41731 -4.13226 -1.42078
H 5.21207 -2.51685 -2.63220
H 5.11072 -2.71190 -0.86982
H 5.12730 -4.14291 -1.85552
H 9.60515 -3.37223 -2.00074
H 9.92154 -2.24866 -3.37285
H 8.42822 -4.45907 -4.36865
H 9.42641 -5.12200 -3.12405
H 7.45109 -4.49203 2.89595
H 6.94681 -4.04380 4.49094
H 8.69318 -4.19578 4.18454
H 7.65621 -3.08995 6.37835
H 8.69821 -2.07155 7.52893
H 9.35156 -2.81058 6.03883
H 7.59921 3.88736 4.37828
H 6.13547 5.21244 2.15153
H 5.55393 4.20181 5.29866
H 4.93133 2.96494 4.15038
H 4.86393 4.59964 3.72748
H 7.91009 6.33909 3.54910
H 8.06186 6.58537 1.81956
H 9.57492 4.95584 3.72676
H 10.23107 6.02746 2.43606
H 9.59073 4.36476 2.06229
H 8.10549 5.29814 -3.84252
H 7.41852 5.83793 -2.27635
H 6.35103 4.97243 -3.45263
H 7.06224 0.08787 -4.84540
H 9.62398 -1.46824 -7.94361
H 9.91442 -2.68458 -6.54356
H 10.82038 -1.17213 -6.79644
