79

Mg 7.89072 0.71241 0.59193
C 7.38001 4.25830 0.38014
C 7.27463 0.57406 -2.76006
C 7.88904 -2.45205 0.82352
C 7.33713 0.97763 4.02252
N 7.40298 2.28138 -0.88884
C 7.29633 3.60138 -0.86521
C 7.16843 4.26148 -2.26431
C 6.57784 3.00429 -3.07026
C 7.14558 1.87540 -2.21238
C 5.06111 2.92044 -3.02717
C 8.55594 4.71320 -2.84119
C 8.47627 5.63848 -4.05744
H 9.48176 6.68772 -4.20082
N 8.10596 -0.67784 -0.80787
C 7.82977 -0.55765 -2.12337
C 8.13859 -1.86618 -2.72049
C 8.46291 -2.81773 -1.62319
C 8.13786 -2.00717 -0.46672
C 8.18535 -2.09314 -4.20364
C 8.96825 -4.22868 -1.61613
O 8.95279 -4.94413 -0.55278
C 9.39485 -4.77874 -2.91110
N 7.44086 -0.58698 2.15129
C 7.57215 -1.91687 2.00270
C 7.46041 -2.62774 3.33032
C 7.46817 -1.47378 4.43753
C 7.49433 -0.23657 3.51341
C 6.21979 -3.50136 3.51480
C 8.53758 -1.58154 5.55887
C 9.91821 -1.38200 4.97626
N 7.62267 2.32552 2.00404
C 7.37873 2.21380 3.39044
C 7.15205 3.58025 3.90411
C 7.25789 4.39640 2.76781
C 7.51121 3.59319 1.62318
C 6.84263 3.92205 5.25080
C 7.20237 5.75375 2.27463
O 7.10508 6.86404 2.79571
C 7.15340 5.71276 0.68645
C 8.15806 6.70337 0.16504
O 9.37445 6.53114 0.35827
O 7.53749 7.56913 -0.65698
C 8.49482 8.56487 -1.20820
H 6.87516 0.38903 -3.75760
H 7.98635 -3.52917 0.97785
H 7.25530 1.15392 5.09718
H 6.47553 5.09294 -2.31268
H 6.98100 2.95671 -4.07850
H 4.63572 3.65595 -2.36068
H 4.83143 1.92044 -2.68321
H 4.65069 2.99302 -4.03841
H 9.05361 3.84718 -3.29623
H 9.15526 5.17036 -2.07801
H 7.46913 6.04965 -4.19728
H 8.65047 5.04409 -4.95765
H 7.74066 -1.25429 -4.75316
H 7.52421 -2.93964 -4.41859
H 9.18956 -2.32910 -4.56219
H 8.56365 -4.74048 -3.61117
H 9.80685 -5.76489 -2.68826
H 10.18200 -4.13658 -3.32175
H 8.31142 -3.27745 3.49393
H 6.51810 -1.43310 4.99030
H 6.45929 -4.55397 3.75714
H 5.62518 -3.44465 2.61272
H 5.52060 -3.15603 4.27446
H 8.52733 -2.58257 5.99705
H 8.38794 -0.87434 6.36786
H 10.16924 -2.37472 4.59080
H 10.61840 -1.06977 5.74846
H 9.88968 -0.69455 4.12288
H 7.44187 4.78833 5.49769
H 7.04242 3.09359 5.92720
H 5.77288 4.12810 5.15887
H 6.13607 5.96342 0.38348
H 8.10121 9.55617 -0.96309
H 8.60026 8.31588 -2.28088
H 9.48105 8.61253 -0.76153
