79

Mg 31.53958 2.84551 2.39107
C 30.91861 5.79919 4.33251
C 30.70232 4.66505 -0.36988
C 31.64039 0.15617 0.71038
C 31.21210 1.00961 5.33521
N 30.90999 4.95114 2.14168
C 30.76899 5.99565 2.94383
C 30.52874 7.34231 2.21009
C 29.91974 6.76485 0.84095
C 30.57494 5.38522 0.84470
C 28.41227 6.57782 0.88449
C 31.86116 8.13175 1.95819
C 31.67409 9.58793 1.52654
H 32.63842 10.58108 1.99150
N 31.69777 2.55958 0.43357
C 31.33008 3.41231 -0.54568
C 31.63362 2.72654 -1.81128
C 32.05736 1.33422 -1.50045
C 31.78912 1.28859 -0.07706
C 31.58622 3.41770 -3.14299
C 32.60054 0.22302 -2.34685
O 32.67664 -0.97993 -1.91101
C 32.95356 0.56650 -3.73209
N 31.23199 0.85307 2.89895
C 31.38937 -0.12448 1.98926
C 31.38719 -1.48497 2.64459
C 31.43811 -1.20396 4.21813
C 31.36778 0.33883 4.20208
C 30.18631 -2.37516 2.32545
C 32.58343 -1.88339 5.01768
C 33.91552 -1.29446 4.61259
N 31.32344 3.30074 4.49205
C 31.17694 2.38093 5.55345
C 30.94809 3.16757 6.78278
C 30.95444 4.50023 6.34408
C 31.15175 4.54038 4.93732
C 30.72116 2.63294 8.08232
C 30.82848 5.88168 6.74956
O 30.73621 6.46531 7.82872
C 30.67341 6.77867 5.44657
C 31.61296 7.94657 5.57213
O 32.84390 7.76953 5.57957
O 30.91472 9.08956 5.44404
C 31.80491 10.27618 5.55040
H 30.24156 5.07706 -1.26812
H 31.77743 -0.79752 0.19542
H 31.19830 0.51539 6.30898
H 29.81160 7.99859 2.68839
H 30.25497 7.34384 -0.01564
H 28.01289 6.75329 1.87234
H 28.23389 5.55467 0.58053
H 27.93258 7.20505 0.12765
H 32.35051 7.73124 1.06105
H 32.49794 8.08939 2.82036
H 30.64890 9.93937 1.69513
H 31.80328 9.64806 0.44316
H 31.08254 4.38979 -3.07398
H 30.93553 2.82001 -3.79048
H 32.56998 3.50026 -3.60996
H 32.07620 0.95713 -4.24210
H 33.40658 -0.33451 -4.15021
H 33.69323 1.37470 -3.71450
H 32.26481 -2.05252 2.36039
H 30.52683 -1.55482 4.72439
H 30.47044 -3.35196 1.89047
H 29.53075 -1.83629 1.65434
H 29.53086 -2.58622 3.16869
H 32.63029 -2.94912 4.78065
H 32.46947 -1.79737 6.09313
H 34.16706 -1.85338 3.70626
H 34.65748 -1.45280 5.39263
H 33.81051 -0.24020 4.33123
H 31.31172 3.22399 8.76963
H 30.98887 1.57951 8.13117
H 29.64239 2.78685 8.17089
H 29.63143 7.09581 5.38929
H 31.40172 10.90756 6.34820
H 31.84439 10.71205 4.53443
H 32.81741 10.11337 5.90083
