79

Mg 7.89118 0.70303 0.59702
C 7.95801 0.68258 -2.99104
C 7.32115 -2.65703 0.45672
C 7.37928 0.75958 3.72786
C 7.32564 4.13778 0.42851
N 7.68730 -0.69331 -1.10619
C 7.79271 -0.59785 -2.42305
C 7.79716 -1.95950 -3.16833
C 7.02768 -2.83902 -2.06687
C 7.39208 -2.03956 -0.81757
C 5.51654 -2.81460 -2.22563
C 9.24918 -2.49775 -3.42119
C 9.34036 -3.66176 -4.41040
H 10.50312 -3.73774 -5.29056
N 7.90640 -0.76933 1.92762
C 7.67664 -2.07868 1.69506
C 7.78289 -2.74425 3.00269
C 7.93110 -1.69820 4.05079
C 7.71917 -0.50179 3.26099
C 7.81936 -4.23717 3.15528
C 8.20408 -1.76437 5.52297
O 8.05532 -0.74231 6.28198
C 8.56039 -3.08374 6.06500
N 7.21139 2.18408 1.88804
C 7.13094 1.96353 3.21198
C 6.88315 3.24880 3.96502
C 7.05548 4.41804 2.88763
C 7.29575 3.56390 1.62347
C 5.51567 3.37334 4.63649
C 8.07359 5.54153 3.22509
C 9.47860 4.98357 3.21936
N 7.85925 2.19950 -0.96107
C 7.57575 3.57531 -0.81667
C 7.56133 4.16151 -2.17261
C 7.81671 3.07301 -3.02022
C 7.95882 1.88817 -2.24856
C 7.28643 5.52210 -2.48782
C 7.98784 2.65501 -4.39306
O 8.06003 3.23566 -5.47535
C 7.96146 1.06660 -4.44470
C 9.12081 0.60995 -5.28726
O 10.29034 0.80457 -4.91183
O 8.66155 -0.16872 -6.28381
C 9.77554 -0.65530 -7.14060
H 6.91520 -3.66689 0.52203
H 7.30029 0.85511 4.81327
H 7.25378 5.21973 0.29856
H 7.24713 -1.96829 -4.10169
H 7.43607 -3.84459 -2.00864
H 5.20236 -2.11248 -2.98356
H 5.12375 -2.52849 -1.25872
H 5.14122 -3.82403 -2.41671
H 9.61004 -2.99529 -2.51181
H 9.90011 -1.70501 -3.73502
H 8.41462 -3.78797 -4.98487
H 9.43339 -4.59176 -3.84430
H 7.52449 -4.74362 2.22795
H 7.03532 -4.50459 3.87196
H 8.77918 -4.59893 3.53018
H 7.75871 -3.78826 5.85664
H 8.80531 -2.91189 7.11494
H 9.44736 -3.45105 5.53680
H 7.61621 3.38413 4.75077
H 6.11438 4.96344 2.72418
H 5.57936 3.55941 5.72525
H 4.95407 2.47032 4.43726
H 4.86719 4.14443 4.22407
H 7.89551 5.92368 4.23326
H 8.02448 6.38691 2.54691
H 9.57451 4.54623 4.21767
H 10.20573 5.77824 3.06506
H 9.57569 4.16921 2.49201
H 8.01198 5.82194 -3.23225
H 7.33898 6.15355 -1.60336
H 6.26524 5.43183 -2.86765
H 7.00292 0.76858 -4.87127
H 9.54120 -0.35947 -8.16786
H 9.85904 -1.73907 -6.93512
H 10.74852 -0.19760 -7.00545
