158

Mg 0.00000 0.00000 0.00000
C -0.21700 -2.21800 2.80100
C -1.25500 2.44200 2.02600
C -0.24500 1.85000 -2.56400
C 0.14600 -2.82400 -2.03700
N -0.61700 -0.00900 2.12600
C -0.59400 -0.90800 3.10500
C -0.93600 -0.30900 4.50200
C -1.77300 0.96400 4.03200
C -1.15500 1.16800 2.66000
C -3.26300 0.68500 3.86300
C 0.34500 0.11000 5.29900
C 0.12400 0.39700 6.78700
H 1.16800 0.03300 7.73300
N -0.18500 1.96100 -0.15200
C -0.70300 2.80000 0.77700
C -0.62000 4.15600 0.19300
C -0.18700 4.01500 -1.22500
C -0.21400 2.58300 -1.38000
C -0.88700 5.40600 0.97400
C 0.18100 5.01300 -2.27700
O 0.30300 4.69000 -3.50800
C 0.31000 6.41400 -1.83700
N -0.26500 -0.41300 -2.02900
C -0.27900 0.56900 -2.93700
C -0.19600 0.02400 -4.33200
C 0.12400 -1.53300 -4.18000
C 0.08600 -1.63200 -2.63500
C -1.45100 0.20500 -5.19700
C 1.37300 -2.07000 -4.92300
C 2.62600 -1.49000 -4.30600
N 0.15000 -2.14400 0.30300
C 0.17300 -3.13600 -0.68800
C 0.17300 -4.43800 0.00400
C 0.13300 -4.11100 1.35800
C 0.08300 -2.69500 1.50200
C 0.14900 -5.71500 -0.62300
C 0.09600 -4.62900 2.71600
O 0.20800 -5.74700 3.22100
C -0.25500 -3.42800 3.70100
C 0.71700 -3.48200 4.84800
O 1.93100 -3.25500 4.66900
O 0.03800 -3.55600 6.00300
C 0.94300 -3.58300 7.18300
H -1.85900 3.22000 2.49700
H -0.21800 2.45300 -3.47400
H 0.27600 -3.74700 -2.60500
H -1.55400 -0.94900 5.13200
H -1.58500 1.83100 4.66500
H -3.48400 -0.37700 3.96900
H -3.51100 1.02700 2.85800
H -3.85200 1.30100 4.54300
H 0.66900 1.09600 4.96600
H 1.13000 -0.63900 5.18900
H -0.84400 0.02600 7.12500
H 0.06200 1.47700 6.92100
H -1.34400 5.18600 1.93800
H -1.65100 5.96300 0.43200
H 0.00700 6.02000 1.08400
H -0.63500 6.74400 -1.40500
H 0.66500 6.97000 -2.70400
H 1.04800 6.46600 -1.03600
H 0.60800 0.50100 -4.89100
H -0.69200 -2.15600 -4.54700
H -1.26700 0.74000 -6.12900
H -2.20400 0.71400 -4.59600
H -1.96700 -0.72000 -5.45300
H 1.35600 -1.75900 -5.96700
H 1.45200 -3.15700 -4.90200
H 2.71400 -0.52200 -4.79800
H 3.48700 -2.12100 -4.52900
H 2.49500 -1.30300 -3.24000
H 0.86700 -6.33300 -0.08400
H 0.40400 -5.64200 -1.68000
H -0.89100 -5.99900 -0.46300
H -1.28300 -3.58100 4.02800
H 0.69800 -4.47800 7.75500
H 0.83300 -2.61900 7.68000
H 2.00000 -3.75400 6.97600
Mg 31.53256 2.83880 2.39533
C 31.73142 0.89597 -0.60435
C 30.78664 -0.05464 4.04295
C 30.90654 4.59041 4.96371
C 31.16981 5.65361 0.37272
N 31.31736 0.74871 1.69829
C 31.47816 0.12752 0.53406
C 31.42719 -1.42532 0.65012
C 30.57820 -1.54958 1.99391
C 30.94213 -0.22190 2.63480
C 29.07119 -1.58600 1.76131
C 32.85101 -2.05650 0.81159
C 32.92106 -3.57231 0.60477
H 34.10314 -4.13903 -0.02677
N 31.41424 2.32453 4.29911
C 31.11556 1.09749 4.78946
C 31.15275 1.22693 6.26206
C 31.31053 2.67156 6.58801
C 31.18886 3.26371 5.28036
C 31.09243 0.05487 7.19286
C 31.52481 3.40323 7.87520
O 31.40315 4.67281 7.96432
C 31.79760 2.57527 9.06394
N 30.87997 4.80546 2.64836
C 30.74493 5.33609 3.86868
C 30.54449 6.82099 3.79928
C 30.81416 7.23295 2.28029
C 31.05640 5.82092 1.69227
C 29.16161 7.33043 4.22840
C 31.87883 8.32978 2.02756
C 33.24955 7.80967 2.39866
N 31.63577 3.26400 0.26939
C 31.42991 4.50348 -0.35351
C 31.49658 4.27225 -1.80821
C 31.72156 2.90258 -1.93161
C 31.76486 2.31116 -0.63676
C 31.29826 5.25466 -2.81814
C 31.91089 1.79716 -2.85685
O 32.06170 1.70272 -4.07580
C 31.80332 0.43509 -2.03891
C 32.96612 -0.43019 -2.44204
O 34.13571 -0.10603 -2.15164
O 32.50843 -1.60884 -2.89133
C 33.61277 -2.52601 -3.28042
H 30.31645 -0.85290 4.62056
H 30.79375 5.25059 5.82619
H 31.15003 6.49828 -0.31836
H 30.90649 -1.92529 -0.16678
H 30.91956 -2.37681 2.61592
H 28.82427 -1.39025 0.71794
H 28.65877 -0.80692 2.40275
H 28.64663 -2.52444 2.11888
H 33.15377 -1.99771 1.85703
H 33.56666 -1.56875 0.14881
H 32.01553 -3.95217 0.13081
H 32.93510 -4.05037 1.58429
H 30.81079 -0.85804 6.66958
H 30.26854 0.23793 7.88236
H 32.01900 -0.07260 7.75281
H 30.96458 1.89053 9.22445
H 32.01257 3.27238 9.87305
H 32.67194 1.95381 8.86830
H 31.25327 7.34173 4.44184
H 29.91648 7.61692 1.79509
H 29.19576 8.06227 5.03583
H 28.55652 6.46827 4.50739
H 28.56485 7.76353 3.42609
H 31.68460 9.19860 2.65554
H 31.90966 8.66919 0.99214
H 33.29052 7.97733 3.47432
H 34.02453 8.37949 1.88493
H 33.32569 6.73481 2.23328
H 32.07359 5.08500 -3.56517
H 31.35763 6.26234 -2.40744
H 30.29336 4.99911 -3.15388
H 30.84702 -0.01488 -2.30371
H 33.43576 -2.82082 -4.31483
H 33.64104 -3.31387 -2.52751
H 34.60454 -2.07956 -3.36051
