158

Mg 0.00000 0.00000 0.00000
C -0.21700 -2.21800 2.80100
C -1.25500 2.44200 2.02600
C -0.24500 1.85000 -2.56400
C 0.14600 -2.82400 -2.03700
N -0.61700 -0.00900 2.12600
C -0.59400 -0.90800 3.10500
C -0.93600 -0.30900 4.50200
C -1.77300 0.96400 4.03200
C -1.15500 1.16800 2.66000
C -3.26300 0.68500 3.86300
C 0.34500 0.11000 5.29900
C 0.12400 0.39700 6.78700
H 1.16800 0.03300 7.73300
N -0.18500 1.96100 -0.15200
C -0.70300 2.80000 0.77700
C -0.62000 4.15600 0.19300
C -0.18700 4.01500 -1.22500
C -0.21400 2.58300 -1.38000
C -0.88700 5.40600 0.97400
C 0.18100 5.01300 -2.27700
O 0.30300 4.69000 -3.50800
C 0.31000 6.41400 -1.83700
N -0.26500 -0.41300 -2.02900
C -0.27900 0.56900 -2.93700
C -0.19600 0.02400 -4.33200
C 0.12400 -1.53300 -4.18000
C 0.08600 -1.63200 -2.63500
C -1.45100 0.20500 -5.19700
C 1.37300 -2.07000 -4.92300
C 2.62600 -1.49000 -4.30600
N 0.15000 -2.14400 0.30300
C 0.17300 -3.13600 -0.68800
C 0.17300 -4.43800 0.00400
C 0.13300 -4.11100 1.35800
C 0.08300 -2.69500 1.50200
C 0.14900 -5.71500 -0.62300
C 0.09600 -4.62900 2.71600
O 0.20800 -5.74700 3.22100
C -0.25500 -3.42800 3.70100
C 0.71700 -3.48200 4.84800
O 1.93100 -3.25500 4.66900
O 0.03800 -3.55600 6.00300
C 0.94300 -3.58300 7.18300
H -1.85900 3.22000 2.49700
H -0.21800 2.45300 -3.47400
H 0.27600 -3.74700 -2.60500
H -1.55400 -0.94900 5.13200
H -1.58500 1.83100 4.66500
H -3.48400 -0.37700 3.96900
H -3.51100 1.02700 2.85800
H -3.85200 1.30100 4.54300
H 0.66900 1.09600 4.96600
H 1.13000 -0.63900 5.18900
H -0.84400 0.02600 7.12500
H 0.06200 1.47700 6.92100
H -1.34400 5.18600 1.93800
H -1.65100 5.96300 0.43200
H 0.00700 6.02000 1.08400
H -0.63500 6.74400 -1.40500
H 0.66500 6.97000 -2.70400
H 1.04800 6.46600 -1.03600
H 0.60800 0.50100 -4.89100
H -0.69200 -2.15600 -4.54700
H -1.26700 0.74000 -6.12900
H -2.20400 0.71400 -4.59600
H -1.96700 -0.72000 -5.45300
H 1.35600 -1.75900 -5.96700
H 1.45200 -3.15700 -4.90200
H 2.71400 -0.52200 -4.79800
H 3.48700 -2.12100 -4.52900
H 2.49500 -1.30300 -3.24000
H 0.86700 -6.33300 -0.08400
H 0.40400 -5.64200 -1.68000
H -0.89100 -5.99900 -0.46300
H -1.28300 -3.58100 4.02800
H 0.69800 -4.47800 7.75500
H 0.83300 -2.61900 7.68000
H 2.00000 -3.75400 6.97600
Mg 13.13189 1.18503 0.99012
C 13.83609 -1.52266 -1.25746
C 14.08855 3.30656 -1.50359
C 12.95336 3.56459 3.08136
C 13.33505 -1.11347 3.60188
N 13.84894 0.81909 -1.07002
C 14.01744 -0.24880 -1.83525
C 14.32372 0.06830 -3.32360
C 14.93292 1.54213 -3.13503
C 14.22341 1.93618 -1.84119
C 16.43077 1.54594 -2.87862
C 13.02832 0.09112 -4.20871
C 13.28059 0.08771 -5.71805
H 12.34860 -0.63657 -6.57787
N 12.99640 3.14342 0.69870
C 13.41462 3.83626 -0.38128
C 13.10603 5.24661 -0.09875
C 12.62193 5.34880 1.30479
C 12.86345 3.99640 1.76606
C 13.20394 6.32506 -1.13836
C 12.04974 6.48025 2.10393
O 11.91833 6.40671 3.37678
C 11.73472 7.71144 1.36471
N 13.35117 1.26601 3.05596
C 13.17083 2.41791 3.72568
C 13.10755 2.17863 5.21536
C 13.04059 0.59068 5.39296
C 13.17247 0.16488 3.91421
C 14.27743 2.73251 6.02837
C 11.85547 0.02463 6.22226
C 10.55507 0.25154 5.48547
N 13.32953 -0.95953 1.16285
C 13.42092 -1.71462 2.35263
C 13.65953 -3.11865 1.95996
C 13.71378 -3.07899 0.55854
C 13.54263 -1.74134 0.11032
C 13.84248 -4.21243 2.85232
C 13.88753 -3.86294 -0.64310
O 13.98422 -5.06435 -0.89010
C 14.10070 -2.87140 -1.86695
C 13.20630 -3.32050 -2.98983
O 11.96935 -3.27058 -2.87120
O 13.95155 -3.52800 -4.09070
C 13.10754 -3.96431 -5.23486
H 14.58083 4.04719 -2.13446
H 12.78745 4.33128 3.84171
H 13.31231 -1.90549 4.35345
H 15.05799 -0.58134 -3.78468
H 14.63587 2.19933 -3.94818
H 16.81964 0.54706 -2.74765
H 16.57357 2.12864 -1.97799
H 16.94806 2.08949 -3.67442
H 12.53904 1.06785 -4.10220
H 12.37551 -0.71965 -3.94963
H 14.31587 -0.17964 -5.96232
H 13.17268 1.10941 -6.09022
H 13.74460 5.97853 -2.02774
H 13.84146 7.11290 -0.72275
H 12.23247 6.75412 -1.39297
H 12.63562 8.08395 0.88298
H 11.25354 8.37194 2.08864
H 11.02757 7.46754 0.56404
H 12.21311 2.61774 5.63992
H 13.92829 0.20101 5.91255
H 13.96226 3.42994 6.82733
H 14.96543 3.21822 5.34921
H 14.90925 1.98131 6.49922
H 11.77038 0.55652 7.17305
H 11.95411 -1.03115 6.45158
H 10.29724 1.28109 5.75126
H 9.79400 -0.44684 5.82764
H 10.70678 0.21938 4.40029
H 13.26406 -5.03685 2.45703
H 13.53228 -3.95684 3.86337
H 14.92481 -4.34694 2.77666
H 15.15530 -2.91260 -2.14209
H 13.52163 -4.91135 -5.59447
H 13.10303 -3.11503 -5.94371
H 12.08345 -4.24828 -5.02261
