79

Mg 15.75961 1.42160 1.18973
C 16.46380 -1.28609 -1.05785
C 16.71627 3.54312 -1.30398
C 15.58107 3.80115 3.28097
C 15.96276 -0.87691 3.80149
N 16.47665 1.05565 -0.87041
C 16.64515 -0.01224 -1.63564
C 16.95144 0.30486 -3.12399
C 17.56063 1.77870 -2.93542
C 16.85112 2.17274 -1.64158
C 19.05849 1.78251 -2.67901
C 15.65603 0.32768 -4.00910
C 15.90830 0.32428 -5.51844
H 14.97632 -0.40000 -6.37826
N 15.62411 3.37999 0.89831
C 16.04233 4.07282 -0.18167
C 15.73374 5.48318 0.10086
C 15.24965 5.58537 1.50440
C 15.49116 4.23297 1.96567
C 15.83165 6.56163 -0.93875
C 14.67745 6.71682 2.30354
O 14.54604 6.64327 3.57639
C 14.36243 7.94800 1.56432
N 15.97888 1.50258 3.25557
C 15.79854 2.65448 3.92530
C 15.73526 2.41519 5.41497
C 15.66830 0.82725 5.59257
C 15.80018 0.40144 4.11382
C 16.90514 2.96907 6.22798
C 14.48318 0.26119 6.42187
C 13.18278 0.48811 5.68508
N 15.95724 -0.72296 1.36246
C 16.04863 -1.47806 2.55224
C 16.28725 -2.88209 2.15957
C 16.34150 -2.84242 0.75815
C 16.17034 -1.50478 0.30993
C 16.47019 -3.97586 3.05193
C 16.51524 -3.62637 -0.44349
O 16.61193 -4.82778 -0.69049
C 16.72842 -2.63484 -1.66733
C 15.83401 -3.08393 -2.79022
O 14.59706 -3.03401 -2.67159
O 16.57926 -3.29143 -3.89109
C 15.73525 -3.72774 -5.03525
H 17.20854 4.28376 -1.93485
H 15.41516 4.56785 4.04132
H 15.94003 -1.66892 4.55306
H 17.68571 -0.34478 -3.58507
H 17.26358 2.43590 -3.74857
H 19.44735 0.78362 -2.54804
H 19.20128 2.36520 -1.77838
H 19.57578 2.32605 -3.47481
H 15.16676 1.30442 -3.90259
H 15.00323 -0.48309 -3.75002
H 16.94358 0.05692 -5.76271
H 15.80039 1.34597 -5.89061
H 16.37231 6.21509 -1.82813
H 16.46918 7.34947 -0.52314
H 14.86018 6.99069 -1.19336
H 15.26333 8.32052 1.08259
H 13.88125 8.60850 2.28826
H 13.65528 7.70410 0.76365
H 14.84082 2.85431 5.83953
H 16.55600 0.43758 6.11216
H 16.58997 3.66650 7.02694
H 17.59314 3.45479 5.54882
H 17.53697 2.21787 6.69883
H 14.39810 0.79309 7.37266
H 14.58182 -0.79459 6.65119
H 12.92496 1.51766 5.95087
H 12.42171 -0.21027 6.02725
H 13.33449 0.45595 4.59990
H 15.89177 -4.80028 2.65664
H 16.16000 -3.72027 4.06298
H 17.55252 -4.11037 2.97627
H 17.78301 -2.67603 -1.94248
H 16.14934 -4.67479 -5.39486
H 15.73075 -2.87847 -5.74410
H 14.71116 -4.01172 -4.82300
