158

Mg 0.00000 0.00000 0.00000
C -0.21700 -2.21800 2.80100
C -1.25500 2.44200 2.02600
C -0.24500 1.85000 -2.56400
C 0.14600 -2.82400 -2.03700
N -0.61700 -0.00900 2.12600
C -0.59400 -0.90800 3.10500
C -0.93600 -0.30900 4.50200
C -1.77300 0.96400 4.03200
C -1.15500 1.16800 2.66000
C -3.26300 0.68500 3.86300
C 0.34500 0.11000 5.29900
C 0.12400 0.39700 6.78700
H 1.16800 0.03300 7.73300
N -0.18500 1.96100 -0.15200
C -0.70300 2.80000 0.77700
C -0.62000 4.15600 0.19300
C -0.18700 4.01500 -1.22500
C -0.21400 2.58300 -1.38000
C -0.88700 5.40600 0.97400
C 0.18100 5.01300 -2.27700
O 0.30300 4.69000 -3.50800
C 0.31000 6.41400 -1.83700
N -0.26500 -0.41300 -2.02900
C -0.27900 0.56900 -2.93700
C -0.19600 0.02400 -4.33200
C 0.12400 -1.53300 -4.18000
C 0.08600 -1.63200 -2.63500
C -1.45100 0.20500 -5.19700
C 1.37300 -2.07000 -4.92300
C 2.62600 -1.49000 -4.30600
N 0.15000 -2.14400 0.30300
C 0.17300 -3.13600 -0.68800
C 0.17300 -4.43800 0.00400
C 0.13300 -4.11100 1.35800
C 0.08300 -2.69500 1.50200
C 0.14900 -5.71500 -0.62300
C 0.09600 -4.62900 2.71600
O 0.20800 -5.74700 3.22100
C -0.25500 -3.42800 3.70100
C 0.71700 -3.48200 4.84800
O 1.93100 -3.25500 4.66900
O 0.03800 -3.55600 6.00300
C 0.94300 -3.58300 7.18300
H -1.85900 3.22000 2.49700
H -0.21800 2.45300 -3.47400
H 0.27600 -3.74700 -2.60500
H -1.55400 -0.94900 5.13200
H -1.58500 1.83100 4.66500
H -3.48400 -0.37700 3.96900
H -3.51100 1.02700 2.85800
H -3.85200 1.30100 4.54300
H 0.66900 1.09600 4.96600
H 1.13000 -0.63900 5.18900
H -0.84400 0.02600 7.12500
H 0.06200 1.47700 6.92100
H -1.34400 5.18600 1.93800
H -1.65100 5.96300 0.43200
H 0.00700 6.02000 1.08400
H -0.63500 6.74400 -1.40500
H 0.66500 6.97000 -2.70400
H 1.04800 6.46600 -1.03600
H 0.60800 0.50100 -4.89100
H -0.69200 -2.15600 -4.54700
H -1.26700 0.74000 -6.12900
H -2.20400 0.71400 -4.59600
H -1.96700 -0.72000 -5.45300
H 1.35600 -1.75900 -5.96700
H 1.45200 -3.15700 -4.90200
H 2.71400 -0.52200 -4.79800
H 3.48700 -2.12100 -4.52900
H 2.49500 -1.30300 -3.24000
H 0.86700 -6.33300 -0.08400
H 0.40400 -5.64200 -1.68000
H -0.89100 -5.99900 -0.46300
H -1.28300 -3.58100 4.02800
H 0.69800 -4.47800 7.75500
H 0.83300 -2.61900 7.68000
H 2.00000 -3.75400 6.97600
Mg 31.54045 2.83175 2.39592
C 31.69334 1.69791 -1.00556
C 30.88021 -0.39452 3.28467
C 30.95485 3.86655 5.33764
C 31.07545 6.05490 1.15464
N 31.33879 0.98008 1.20307
C 31.47862 0.66027 -0.07463
C 31.46298 -0.86523 -0.36127
C 30.64280 -1.34478 0.93342
C 30.99914 -0.20431 1.88475
C 29.13722 -1.34195 0.72717
C 32.90505 -1.48301 -0.38902
C 32.98751 -2.89799 -0.96591
H 34.16861 -3.26547 -1.74207
N 31.48233 1.84481 4.11672
C 31.22171 0.53255 4.29375
C 31.27768 0.30358 5.74586
C 31.42974 1.62014 6.42281
C 31.27049 2.51632 5.29515
C 31.26868 -1.06875 6.35417
C 31.66511 2.00874 7.85102
O 31.52671 3.21849 8.25126
C 31.97118 0.91607 8.78583
N 30.87137 4.65294 3.14288
C 30.75282 4.85557 4.46682
C 30.52296 6.31553 4.77677
C 30.75391 7.08933 3.39638
C 31.00066 5.88073 2.46698
C 29.14368 6.66834 5.33309
C 31.79460 8.24241 3.40152
C 33.18317 7.68347 3.61325
N 31.58805 3.77134 0.45094
C 31.33973 5.12922 0.15331
C 31.37448 5.26601 -1.31724
C 31.61971 3.96360 -1.77773
C 31.70994 3.07412 -0.67311
C 31.14545 6.46668 -2.04666
C 31.81220 3.13713 -2.94761
O 31.92673 3.35189 -4.15363
C 31.74265 1.61189 -2.50583
C 32.90879 0.89431 -3.12851
O 34.07389 1.17342 -2.79497
O 32.45213 -0.14617 -3.84908
C 33.57245 -0.89573 -4.47747
H 30.44471 -1.32635 3.64650
H 30.85236 4.29558 6.33709
H 31.03705 7.04433 0.69395
H 30.93563 -1.15263 -1.26298
H 31.02138 -2.29029 1.31296
H 28.86120 -0.90373 -0.22042
H 28.72934 -0.76254 1.54508
H 28.73853 -2.35349 0.84618
H 33.22978 -1.68069 0.64065
H 33.58530 -0.83933 -0.91207
H 32.07274 -3.17847 -1.50208
H 33.04078 -3.60808 -0.13709
H 30.98224 -1.83217 5.62032
H 30.46038 -1.08561 7.09324
H 32.20867 -1.31463 6.85281
H 31.15537 0.19712 8.78054
H 32.19537 1.40045 9.73820
H 32.86002 0.38614 8.42562
H 31.24033 6.67391 5.50482
H 29.83266 7.57499 3.04244
H 29.18623 7.18174 6.31222
H 28.56201 5.75897 5.40551
H 28.52717 7.28569 4.68193
H 31.60298 8.92180 4.23571
H 31.78555 8.83647 2.49376
H 33.24267 7.57566 4.70041
H 33.93577 8.37701 3.24361
H 33.27499 6.68194 3.17717
H 31.89687 6.50687 -2.82400
H 31.19426 7.34024 -1.39992
H 30.13160 6.28256 -2.41200
H 30.78673 1.21460 -2.84929
H 33.37136 -0.92877 -5.55272
H 33.62061 -1.86367 -3.94406
H 34.55430 -0.43737 -4.45992
