79

Mg 13.12936 1.18616 1.00213
C 10.99663 -1.59104 0.21620
C 11.03852 3.12828 -0.86633
C 15.22215 3.55233 1.30033
C 15.60584 -1.12573 1.81941
N 11.28800 0.71441 -0.12884
C 10.53807 -0.36310 -0.30469
C 9.18325 -0.09514 -1.01337
C 9.57981 1.25460 -1.78785
C 10.68132 1.75627 -0.85636
C 10.18919 1.00567 -3.15753
C 8.01429 0.14892 0.00446
C 6.61154 0.11010 -0.60590
H 5.52059 -0.44347 0.19151
N 12.90332 3.14080 0.74359
C 11.98847 3.75850 -0.03280
C 12.25227 5.19934 0.10336
C 13.50113 5.37496 0.89343
C 13.94495 3.99911 0.99424
C 11.31699 6.25077 -0.41930
C 14.18963 6.58276 1.45323
O 15.38870 6.52652 1.90256
C 13.45313 7.85272 1.37421
N 15.18871 1.21973 1.28550
C 15.84702 2.38249 1.43570
C 17.26517 2.15042 1.89981
C 17.34898 0.59548 2.26410
C 15.92768 0.16033 1.84463
C 18.36025 2.49628 0.89107
C 17.84192 0.23268 3.69171
C 16.82484 0.67810 4.71763
N 13.24683 -0.96191 1.20230
C 14.38799 -1.72705 1.52849
C 14.00085 -3.14940 1.43123
C 12.65702 -3.11301 1.02964
C 12.24211 -1.76359 0.86715
C 14.86029 -4.26243 1.65181
C 11.49816 -3.90951 0.69595
O 11.22730 -5.10895 0.73728
C 10.40806 -2.96227 0.03202
C 9.08363 -3.24967 0.68457
O 8.90312 -2.99329 1.88802
O 8.18630 -3.57434 -0.26399
C 6.85396 -3.85749 0.33311
H 10.57909 3.77861 -1.61123
H 15.95427 4.33251 1.52121
H 16.29300 -1.90611 2.15333
H 8.88346 -0.85674 -1.72320
H 8.74983 1.95605 -1.80935
H 10.36434 -0.04492 -3.33567
H 11.12326 1.55199 -3.16763
H 9.56692 1.45826 -3.93488
H 8.04420 1.19345 0.34033
H 8.07142 -0.54189 0.82307
H 6.61179 -0.32618 -1.61218
H 6.27122 1.13709 -0.75913
H 10.56911 5.82244 -1.09799
H 11.90926 6.91847 -1.05433
H 10.85578 6.83803 0.37762
H 13.21993 8.07087 0.33474
H 14.06920 8.58133 1.90473
H 12.49551 7.73469 1.89350
H 17.48143 2.73156 2.78785
H 18.04872 0.05991 1.60580
H 19.09072 3.23307 1.27530
H 17.88953 2.86266 -0.01154
H 18.93468 1.64751 0.52389
H 18.76745 0.76696 3.91995
H 18.03996 -0.82571 3.82431
H 17.06730 1.73510 4.86274
H 16.94157 0.11588 5.64193
H 15.80780 0.62587 4.31197
H 14.30028 -4.97621 2.24122
H 15.77747 -3.96300 2.15469
H 15.04140 -4.57643 0.62037
H 10.39333 -3.17871 -1.03686
H 6.56192 -4.85897 0.00230
H 6.20428 -3.01629 0.02644
H 6.80027 -3.96644 1.41000
