158

Mg 0.00000 0.00000 0.00000
C -0.21700 -2.21800 2.80100
C -1.25500 2.44200 2.02600
C -0.24500 1.85000 -2.56400
C 0.14600 -2.82400 -2.03700
N -0.61700 -0.00900 2.12600
C -0.59400 -0.90800 3.10500
C -0.93600 -0.30900 4.50200
C -1.77300 0.96400 4.03200
C -1.15500 1.16800 2.66000
C -3.26300 0.68500 3.86300
C 0.34500 0.11000 5.29900
C 0.12400 0.39700 6.78700
H 1.16800 0.03300 7.73300
N -0.18500 1.96100 -0.15200
C -0.70300 2.80000 0.77700
C -0.62000 4.15600 0.19300
C -0.18700 4.01500 -1.22500
C -0.21400 2.58300 -1.38000
C -0.88700 5.40600 0.97400
C 0.18100 5.01300 -2.27700
O 0.30300 4.69000 -3.50800
C 0.31000 6.41400 -1.83700
N -0.26500 -0.41300 -2.02900
C -0.27900 0.56900 -2.93700
C -0.19600 0.02400 -4.33200
C 0.12400 -1.53300 -4.18000
C 0.08600 -1.63200 -2.63500
C -1.45100 0.20500 -5.19700
C 1.37300 -2.07000 -4.92300
C 2.62600 -1.49000 -4.30600
N 0.15000 -2.14400 0.30300
C 0.17300 -3.13600 -0.68800
C 0.17300 -4.43800 0.00400
C 0.13300 -4.11100 1.35800
C 0.08300 -2.69500 1.50200
C 0.14900 -5.71500 -0.62300
C 0.09600 -4.62900 2.71600
O 0.20800 -5.74700 3.22100
C -0.25500 -3.42800 3.70100
C 0.71700 -3.48200 4.84800
O 1.93100 -3.25500 4.66900
O 0.03800 -3.55600 6.00300
C 0.94300 -3.58300 7.18300
H -1.85900 3.22000 2.49700
H -0.21800 2.45300 -3.47400
H 0.27600 -3.74700 -2.60500
H -1.55400 -0.94900 5.13200
H -1.58500 1.83100 4.66500
H -3.48400 -0.37700 3.96900
H -3.51100 1.02700 2.85800
H -3.85200 1.30100 4.54300
H 0.66900 1.09600 4.96600
H 1.13000 -0.63900 5.18900
H -0.84400 0.02600 7.12500
H 0.06200 1.47700 6.92100
H -1.34400 5.18600 1.93800
H -1.65100 5.96300 0.43200
H 0.00700 6.02000 1.08400
H -0.63500 6.74400 -1.40500
H 0.66500 6.97000 -2.70400
H 1.04800 6.46600 -1.03600
H 0.60800 0.50100 -4.89100
H -0.69200 -2.15600 -4.54700
H -1.26700 0.74000 -6.12900
H -2.20400 0.71400 -4.59600
H -1.96700 -0.72000 -5.45300
H 1.35600 -1.75900 -5.96700
H 1.45200 -3.15700 -4.90200
H 2.71400 -0.52200 -4.79800
H 3.48700 -2.12100 -4.52900
H 2.49500 -1.30300 -3.24000
H 0.86700 -6.33300 -0.08400
H 0.40400 -5.64200 -1.68000
H -0.89100 -5.99900 -0.46300
H -1.28300 -3.58100 4.02800
H 0.69800 -4.47800 7.75500
H 0.83300 -2.61900 7.68000
H 2.00000 -3.75400 6.97600
Mg 31.54002 2.84035 2.40269
C 30.25561 0.85034 5.09884
C 31.34307 5.52950 4.49178
C 32.23919 4.69239 -0.07694
C 30.56802 0.28692 0.23915
N 30.87047 3.03762 4.50151
C 30.46183 2.20215 5.44456
C 30.33990 2.83574 6.85639
C 30.14549 4.36789 6.41640
C 30.85965 4.32718 5.06697
C 28.69314 4.74562 6.17696
C 31.64133 2.64447 7.71179
C 31.48517 2.96337 9.20031
H 32.23255 2.16239 10.16588
N 32.22054 4.70365 2.34294
C 32.06992 5.65564 3.28757
C 32.73427 6.85660 2.75796
C 33.14610 6.58427 1.35405
C 32.51906 5.29531 1.14072
C 32.99402 8.07743 3.59194
C 33.95782 7.36184 0.36275
O 33.99058 7.04326 -0.87832
C 34.63847 8.56206 0.87037
N 31.23233 2.63320 0.35702
C 31.68074 3.56078 -0.50695
C 31.59040 3.06821 -1.93159
C 31.21182 1.51795 -1.82698
C 31.05444 1.39869 -0.29518
C 30.57081 3.78205 -2.81888
C 32.14800 0.51425 -2.55420
C 33.50127 0.48989 -1.88082
N 30.75595 0.83805 2.61266
C 30.39382 -0.04929 1.57557
C 29.80476 -1.24537 2.21183
C 29.84429 -0.95887 3.58472
C 30.39898 0.33354 3.78846
C 29.27958 -2.37795 1.52803
C 29.53315 -1.45148 4.90731
O 29.12720 -2.51971 5.36317
C 29.66914 -0.25002 5.93900
C 30.47057 -0.73635 7.11531
O 31.66534 -1.05323 6.97850
O 29.76177 -0.54146 8.24225
C 30.51951 -0.99812 9.43770
H 31.10845 6.47236 4.98660
H 32.56356 5.24450 -0.96205
H 30.33071 -0.59399 -0.36115
H 29.48428 2.50260 7.43145
H 30.65675 5.04254 7.09818
H 28.03995 3.88719 6.22774
H 28.66280 5.18621 5.18903
H 28.39030 5.53654 6.86911
H 32.37122 3.41437 7.43027
H 32.03246 1.65265 7.59382
H 30.43210 3.03942 9.49730
H 31.88864 3.96184 9.38548
H 32.43164 8.04858 4.53338
H 32.57240 8.93072 3.04973
H 34.05864 8.25536 3.75806
H 33.90248 9.24558 1.28702
H 35.23881 8.93206 0.03696
H 35.29737 8.26816 1.69505
H 32.54460 3.16374 -2.43505
H 30.22310 1.30973 -2.26162
H 31.01745 4.22066 -3.73114
H 30.08154 4.54633 -2.22979
H 29.73216 3.16880 -3.14411
H 32.31979 0.83499 -3.58462
H 31.75238 -0.49520 -2.59284
H 34.01407 1.34758 -2.32633
H 34.02222 -0.43963 -2.10137
H 33.40940 0.68281 -0.80565
H 29.63329 -3.25278 2.05725
H 29.58882 -2.39128 0.48498
H 28.20777 -2.19130 1.63606
H 28.66091 0.05048 6.22667
H 29.88452 -1.71862 9.96243
H 30.79612 -0.07777 9.98561
H 31.41347 -1.58720 9.26956
