158

Mg 0.00000 0.00000 0.00000
C -0.21700 -2.21800 2.80100
C -1.25500 2.44200 2.02600
C -0.24500 1.85000 -2.56400
C 0.14600 -2.82400 -2.03700
N -0.61700 -0.00900 2.12600
C -0.59400 -0.90800 3.10500
C -0.93600 -0.30900 4.50200
C -1.77300 0.96400 4.03200
C -1.15500 1.16800 2.66000
C -3.26300 0.68500 3.86300
C 0.34500 0.11000 5.29900
C 0.12400 0.39700 6.78700
H 1.16800 0.03300 7.73300
N -0.18500 1.96100 -0.15200
C -0.70300 2.80000 0.77700
C -0.62000 4.15600 0.19300
C -0.18700 4.01500 -1.22500
C -0.21400 2.58300 -1.38000
C -0.88700 5.40600 0.97400
C 0.18100 5.01300 -2.27700
O 0.30300 4.69000 -3.50800
C 0.31000 6.41400 -1.83700
N -0.26500 -0.41300 -2.02900
C -0.27900 0.56900 -2.93700
C -0.19600 0.02400 -4.33200
C 0.12400 -1.53300 -4.18000
C 0.08600 -1.63200 -2.63500
C -1.45100 0.20500 -5.19700
C 1.37300 -2.07000 -4.92300
C 2.62600 -1.49000 -4.30600
N 0.15000 -2.14400 0.30300
C 0.17300 -3.13600 -0.68800
C 0.17300 -4.43800 0.00400
C 0.13300 -4.11100 1.35800
C 0.08300 -2.69500 1.50200
C 0.14900 -5.71500 -0.62300
C 0.09600 -4.62900 2.71600
O 0.20800 -5.74700 3.22100
C -0.25500 -3.42800 3.70100
C 0.71700 -3.48200 4.84800
O 1.93100 -3.25500 4.66900
O 0.03800 -3.55600 6.00300
C 0.94300 -3.58300 7.18300
H -1.85900 3.22000 2.49700
H -0.21800 2.45300 -3.47400
H 0.27600 -3.74700 -2.60500
H -1.55400 -0.94900 5.13200
H -1.58500 1.83100 4.66500
H -3.48400 -0.37700 3.96900
H -3.51100 1.02700 2.85800
H -3.85200 1.30100 4.54300
H 0.66900 1.09600 4.96600
H 1.13000 -0.63900 5.18900
H -0.84400 0.02600 7.12500
H 0.06200 1.47700 6.92100
H -1.34400 5.18600 1.93800
H -1.65100 5.96300 0.43200
H 0.00700 6.02000 1.08400
H -0.63500 6.74400 -1.40500
H 0.66500 6.97000 -2.70400
H 1.04800 6.46600 -1.03600
H 0.60800 0.50100 -4.89100
H -0.69200 -2.15600 -4.54700
H -1.26700 0.74000 -6.12900
H -2.20400 0.71400 -4.59600
H -1.96700 -0.72000 -5.45300
H 1.35600 -1.75900 -5.96700
H 1.45200 -3.15700 -4.90200
H 2.71400 -0.52200 -4.79800
H 3.48700 -2.12100 -4.52900
H 2.49500 -1.30300 -3.24000
H 0.86700 -6.33300 -0.08400
H 0.40400 -5.64200 -1.68000
H -0.89100 -5.99900 -0.46300
H -1.28300 -3.58100 4.02800
H 0.69800 -4.47800 7.75500
H 0.83300 -2.61900 7.68000
H 2.00000 -3.75400 6.97600
Mg 7.88314 0.70970 0.59883
C 7.91693 -2.73895 1.55688
C 6.70144 1.41181 3.72192
C 7.41470 3.69354 -0.36753
C 7.96853 -0.36294 -2.71596
N 7.41175 -0.58490 2.33159
C 7.52554 -1.88400 2.58960
C 7.26245 -2.24269 4.08275
C 6.36098 -0.99138 4.48718
C 6.87899 0.01763 3.47747
C 4.87118 -1.20960 4.24349
C 8.58242 -2.29344 4.92349
C 8.45473 -2.94982 6.30125
H 9.56988 -3.73455 6.80916
N 7.63455 2.36972 1.64066
C 7.15771 2.46871 2.90482
C 7.16380 3.91103 3.23095
C 7.50366 4.65723 1.98766
C 7.50554 3.59124 1.01861
C 6.91601 4.44415 4.60868
C 7.77218 6.10334 1.71418
O 7.81950 6.57354 0.52622
C 7.89214 6.98320 2.89083
N 7.49301 1.55213 -1.27086
C 7.39072 2.87704 -1.42299
C 7.39415 3.26206 -2.87271
C 7.76630 1.93637 -3.68130
C 7.83556 0.94642 -2.49241
C 6.07906 3.83847 -3.41519
C 8.97648 2.01710 -4.64533
C 10.25193 2.20027 -3.85365
N 8.11205 -1.18885 -0.42788
C 8.09522 -1.40556 -1.81331
C 8.17772 -2.86262 -2.02368
C 8.22039 -3.39677 -0.73732
C 8.14140 -2.34201 0.21637
C 8.14644 -3.52605 -3.28198
C 8.28950 -4.61486 0.05346
O 8.46602 -5.80665 -0.20341
C 7.97307 -4.24634 1.57000
C 9.02150 -4.90351 2.42570
O 10.21394 -4.53990 2.36868
O 8.42442 -5.68392 3.33949
C 9.40752 -6.34285 4.24031
H 6.10954 1.72534 4.58407
H 7.36356 4.71638 -0.74651
H 8.08512 -0.76586 -3.72368
H 6.70625 -3.16753 4.23682
H 6.56748 -0.65210 5.50205
H 4.68708 -2.14244 3.71072
H 4.54652 -0.35859 3.64444
H 4.31282 -1.14864 5.17800
H 8.85599 -1.28217 5.22441
H 9.37845 -2.78444 4.36261
H 7.52234 -3.50777 6.39205
H 8.37232 -2.16102 7.04905
H 6.53143 3.67193 5.27375
H 6.10212 5.16460 4.52969
H 7.79822 4.93036 5.02538
H 6.96980 6.93703 3.47024
H 8.17232 7.96319 2.50618
H 8.68089 6.60032 3.53907
H 8.14513 4.02521 -3.07286
H 6.94476 1.59873 -4.31355
H 6.18488 4.82910 -3.85807
H 5.35472 3.84934 -2.60124
H 5.57251 3.21055 -4.14768
H 8.88041 2.88034 -5.30300
H 9.08651 1.13264 -5.27293
H 10.27988 3.27580 -3.68251
H 11.11288 1.87558 -4.43894
H 10.18821 1.71672 -2.87866
H 8.91592 -4.29681 -3.23964
H 8.32730 -2.83032 -4.10103
H 7.12782 -3.91369 -3.28060
H 6.97412 -4.62566 1.78289
H 9.22640 -7.41622 4.18279
H 9.30496 -5.86389 5.21421
H 10.45240 -6.29365 3.93186
