158

Mg 0.00000 0.00000 0.00000
C -0.21700 -2.21800 2.80100
C -1.25500 2.44200 2.02600
C -0.24500 1.85000 -2.56400
C 0.14600 -2.82400 -2.03700
N -0.61700 -0.00900 2.12600
C -0.59400 -0.90800 3.10500
C -0.93600 -0.30900 4.50200
C -1.77300 0.96400 4.03200
C -1.15500 1.16800 2.66000
C -3.26300 0.68500 3.86300
C 0.34500 0.11000 5.29900
C 0.12400 0.39700 6.78700
H 1.16800 0.03300 7.73300
N -0.18500 1.96100 -0.15200
C -0.70300 2.80000 0.77700
C -0.62000 4.15600 0.19300
C -0.18700 4.01500 -1.22500
C -0.21400 2.58300 -1.38000
C -0.88700 5.40600 0.97400
C 0.18100 5.01300 -2.27700
O 0.30300 4.69000 -3.50800
C 0.31000 6.41400 -1.83700
N -0.26500 -0.41300 -2.02900
C -0.27900 0.56900 -2.93700
C -0.19600 0.02400 -4.33200
C 0.12400 -1.53300 -4.18000
C 0.08600 -1.63200 -2.63500
C -1.45100 0.20500 -5.19700
C 1.37300 -2.07000 -4.92300
C 2.62600 -1.49000 -4.30600
N 0.15000 -2.14400 0.30300
C 0.17300 -3.13600 -0.68800
C 0.17300 -4.43800 0.00400
C 0.13300 -4.11100 1.35800
C 0.08300 -2.69500 1.50200
C 0.14900 -5.71500 -0.62300
C 0.09600 -4.62900 2.71600
O 0.20800 -5.74700 3.22100
C -0.25500 -3.42800 3.70100
C 0.71700 -3.48200 4.84800
O 1.93100 -3.25500 4.66900
O 0.03800 -3.55600 6.00300
C 0.94300 -3.58300 7.18300
H -1.85900 3.22000 2.49700
H -0.21800 2.45300 -3.47400
H 0.27600 -3.74700 -2.60500
H -1.55400 -0.94900 5.13200
H -1.58500 1.83100 4.66500
H -3.48400 -0.37700 3.96900
H -3.51100 1.02700 2.85800
H -3.85200 1.30100 4.54300
H 0.66900 1.09600 4.96600
H 1.13000 -0.63900 5.18900
H -0.84400 0.02600 7.12500
H 0.06200 1.47700 6.92100
H -1.34400 5.18600 1.93800
H -1.65100 5.96300 0.43200
H 0.00700 6.02000 1.08400
H -0.63500 6.74400 -1.40500
H 0.66500 6.97000 -2.70400
H 1.04800 6.46600 -1.03600
H 0.60800 0.50100 -4.89100
H -0.69200 -2.15600 -4.54700
H -1.26700 0.74000 -6.12900
H -2.20400 0.71400 -4.59600
H -1.96700 -0.72000 -5.45300
H 1.35600 -1.75900 -5.96700
H 1.45200 -3.15700 -4.90200
H 2.71400 -0.52200 -4.79800
H 3.48700 -2.12100 -4.52900
H 2.49500 -1.30300 -3.24000
H 0.86700 -6.33300 -0.08400
H 0.40400 -5.64200 -1.68000
H -0.89100 -5.99900 -0.46300
H -1.28300 -3.58100 4.02800
H 0.69800 -4.47800 7.75500
H 0.83300 -2.61900 7.68000
H 2.00000 -3.75400 6.97600
Mg 15.76628 1.41940 1.19766
C 15.14997 4.36497 3.13570
C 14.93074 3.24156 -1.56362
C 15.86251 -1.27336 -0.47459
C 15.44395 -0.40963 4.14663
N 15.13928 3.52755 0.94620
C 15.00008 4.56786 1.76201
C 14.75404 5.91171 1.01309
C 14.15102 5.33582 -0.34585
C 14.80612 3.96588 -0.34097
C 12.63670 5.15625 -0.31260
C 16.08119 6.70339 0.76081
C 15.90024 8.16253 0.33242
H 16.85875 9.15321 0.79844
N 15.92067 1.12551 -0.74981
C 15.54614 1.98205 -1.73029
C 15.86467 1.30558 -3.00607
C 16.27888 -0.08969 -2.69023
C 16.00864 -0.14369 -1.27622
C 15.80896 1.99068 -4.33696
C 16.82084 -1.20172 -3.53153
O 16.89597 -2.40406 -3.10337
C 17.18392 -0.85920 -4.91857
N 15.45133 -0.58040 1.70682
C 15.61300 -1.55558 0.80578
C 15.61309 -2.90660 1.45746
C 15.66080 -2.63845 3.03086
C 15.59366 -1.09143 3.00874
C 14.41473 -3.80792 1.12949
C 16.80565 -3.31575 3.82522
C 18.13424 -2.71553 3.42313
N 15.54485 1.87609 3.30798
C 15.40604 0.95831 4.35921
C 15.17763 1.74038 5.58814
C 15.18295 3.06679 5.16100
C 15.37469 3.10937 3.75042
C 14.94075 1.20477 6.88484
C 15.04668 4.45693 5.56448
O 14.96163 5.04183 6.64529
C 14.89813 5.34720 4.25254
C 15.83706 6.51496 4.38699
O 17.07343 6.34546 4.38336
O 15.14588 7.65805 4.25985
C 16.02315 8.85543 4.35396
H 14.46483 3.64388 -2.46529
H 15.99977 -2.22292 -0.99606
H 15.41886 -0.90822 5.11732
H 14.03049 6.57246 1.49092
H 14.47930 5.90975 -1.21220
H 12.23645 5.33240 0.68574
H 12.45917 4.12470 -0.61738
H 12.15614 5.77875 -1.06780
H 16.57180 6.30834 -0.12874
H 16.72740 6.66277 1.63836
H 14.88029 8.50584 0.50775
H 16.02277 8.21861 -0.74927
H 15.31311 2.95818 -4.26892
H 15.15599 1.39505 -4.97459
H 16.79386 2.07546 -4.79643
H 16.30575 -0.47117 -5.43510
H 17.63594 -1.75579 -5.34124
H 17.91329 -0.04882 -4.90278
H 16.49142 -3.48118 1.16624
H 14.75333 -2.97729 3.53122
H 14.69523 -4.77138 0.70314
H 13.75495 -3.26003 0.45734
H 13.75026 -4.00855 1.96951
H 16.85072 -4.37923 3.59302
H 16.69739 -3.21641 4.90534
H 18.39057 -3.27275 2.52277
H 18.87644 -2.87561 4.20589
H 18.02835 -1.66833 3.13915
H 15.53799 1.80076 7.57482
H 15.21321 0.15074 6.93372
H 13.86621 1.36294 6.97545
H 13.85645 5.66292 4.20425
H 15.62396 9.48403 5.15003
H 16.07554 9.28073 3.35157
H 17.03700 8.68287 4.71682
