79

Mg 13.14645 1.17578 0.99865
C 13.29935 0.04195 -2.40284
C 12.48622 -2.05049 1.88740
C 12.56086 2.21058 3.94036
C 12.68146 4.39893 -0.24263
N 12.94480 -0.67589 -0.19421
C 13.08462 -0.99570 -1.47191
C 13.06898 -2.52120 -1.75854
C 12.24881 -3.00074 -0.46385
C 12.60515 -1.86028 0.48748
C 10.74323 -2.99791 -0.67011
C 14.51106 -3.13898 -1.78630
C 14.59351 -4.55396 -2.36318
H 15.77462 -4.92144 -3.13934
N 13.08834 0.18884 2.71945
C 12.82772 -1.12341 2.89648
C 12.88369 -1.35238 4.34858
C 13.03575 -0.03582 5.02553
C 12.87650 0.86035 3.89788
C 12.87469 -2.72472 4.95689
C 13.27112 0.35277 6.45375
O 13.13271 1.56252 6.85399
C 13.57719 -0.73990 7.38856
N 12.47737 2.99697 1.74561
C 12.35883 3.19961 3.06954
C 12.12897 4.65957 3.37950
C 12.35991 5.43337 1.99910
C 12.60667 4.22476 1.06971
C 10.74969 5.01238 3.93582
C 13.40061 6.58645 2.00424
C 14.78918 6.02750 2.21597
N 13.19406 2.11537 -0.94633
C 12.94574 3.47326 -1.24396
C 12.98049 3.61005 -2.71451
C 13.22572 2.30763 -3.17501
C 13.31595 1.41815 -2.07038
C 12.75146 4.81071 -3.44394
C 13.41821 1.48117 -4.34488
O 13.53274 1.69593 -5.55091
C 13.34866 -0.04408 -3.90310
C 14.51480 -0.76165 -4.52578
O 15.67990 -0.48255 -4.19224
O 14.05814 -1.80214 -5.24636
C 15.17845 -2.55170 -5.87475
H 12.05072 -2.98232 2.24923
H 12.45837 2.63961 4.93982
H 12.64306 5.38836 -0.70332
H 12.54164 -2.80859 -2.66025
H 12.62739 -3.94625 -0.08432
H 10.46721 -2.55970 -1.61770
H 10.33535 -2.41851 0.14780
H 10.34454 -4.00946 -0.55110
H 14.83579 -3.33666 -0.75663
H 15.19130 -2.49530 -2.30934
H 13.67875 -4.83444 -2.89936
H 14.64679 -5.26405 -1.53436
H 12.58825 -3.48814 4.22304
H 12.06639 -2.74158 5.69596
H 13.81468 -2.97059 5.45553
H 12.76138 -1.45885 7.38326
H 13.80138 -0.25552 8.34092
H 14.46603 -1.26982 7.02835
H 12.84634 5.01795 4.10754
H 11.43867 5.91903 1.64517
H 10.79223 5.52577 4.91494
H 10.16802 4.10301 4.00824
H 10.13318 5.62972 3.28466
H 13.20899 7.26583 2.83843
H 13.39156 7.18050 1.09649
H 14.84868 5.91969 3.30314
H 15.54178 6.72105 1.84634
H 14.88100 5.02597 1.77989
H 13.50288 4.85090 -4.22128
H 12.80027 5.68427 -2.79719
H 11.73761 4.62659 -3.80928
H 12.39274 -0.44136 -4.24656
H 14.97737 -2.58474 -6.94999
H 15.22662 -3.51964 -5.34133
H 16.16031 -2.09334 -5.85719
