158

Mg 0.00000 0.00000 0.00000
C -0.21700 -2.21800 2.80100
C -1.25500 2.44200 2.02600
C -0.24500 1.85000 -2.56400
C 0.14600 -2.82400 -2.03700
N -0.61700 -0.00900 2.12600
C -0.59400 -0.90800 3.10500
C -0.93600 -0.30900 4.50200
C -1.77300 0.96400 4.03200
C -1.15500 1.16800 2.66000
C -3.26300 0.68500 3.86300
C 0.34500 0.11000 5.29900
C 0.12400 0.39700 6.78700
H 1.16800 0.03300 7.73300
N -0.18500 1.96100 -0.15200
C -0.70300 2.80000 0.77700
C -0.62000 4.15600 0.19300
C -0.18700 4.01500 -1.22500
C -0.21400 2.58300 -1.38000
C -0.88700 5.40600 0.97400
C 0.18100 5.01300 -2.27700
O 0.30300 4.69000 -3.50800
C 0.31000 6.41400 -1.83700
N -0.26500 -0.41300 -2.02900
C -0.27900 0.56900 -2.93700
C -0.19600 0.02400 -4.33200
C 0.12400 -1.53300 -4.18000
C 0.08600 -1.63200 -2.63500
C -1.45100 0.20500 -5.19700
C 1.37300 -2.07000 -4.92300
C 2.62600 -1.49000 -4.30600
N 0.15000 -2.14400 0.30300
C 0.17300 -3.13600 -0.68800
C 0.17300 -4.43800 0.00400
C 0.13300 -4.11100 1.35800
C 0.08300 -2.69500 1.50200
C 0.14900 -5.71500 -0.62300
C 0.09600 -4.62900 2.71600
O 0.20800 -5.74700 3.22100
C -0.25500 -3.42800 3.70100
C 0.71700 -3.48200 4.84800
O 1.93100 -3.25500 4.66900
O 0.03800 -3.55600 6.00300
C 0.94300 -3.58300 7.18300
H -1.85900 3.22000 2.49700
H -0.21800 2.45300 -3.47400
H 0.27600 -3.74700 -2.60500
H -1.55400 -0.94900 5.13200
H -1.58500 1.83100 4.66500
H -3.48400 -0.37700 3.96900
H -3.51100 1.02700 2.85800
H -3.85200 1.30100 4.54300
H 0.66900 1.09600 4.96600
H 1.13000 -0.63900 5.18900
H -0.84400 0.02600 7.12500
H 0.06200 1.47700 6.92100
H -1.34400 5.18600 1.93800
H -1.65100 5.96300 0.43200
H 0.00700 6.02000 1.08400
H -0.63500 6.74400 -1.40500
H 0.66500 6.97000 -2.70400
H 1.04800 6.46600 -1.03600
H 0.60800 0.50100 -4.89100
H -0.69200 -2.15600 -4.54700
H -1.26700 0.74000 -6.12900
H -2.20400 0.71400 -4.59600
H -1.96700 -0.72000 -5.45300
H 1.35600 -1.75900 -5.96700
H 1.45200 -3.15700 -4.90200
H 2.71400 -0.52200 -4.79800
H 3.48700 -2.12100 -4.52900
H 2.49500 -1.30300 -3.24000
H 0.86700 -6.33300 -0.08400
H 0.40400 -5.64200 -1.68000
H -0.89100 -5.99900 -0.46300
H -1.28300 -3.58100 4.02800
H 0.69800 -4.47800 7.75500
H 0.83300 -2.61900 7.68000
H 2.00000 -3.75400 6.97600
Mg 15.77363 1.41415 1.20320
C 15.98336 -1.63757 -0.67353
C 14.85653 -0.47629 3.89017
C 15.14409 4.10757 2.75773
C 15.58296 3.10778 -1.83669
N 15.49201 -0.76556 1.45185
C 15.66026 -1.83269 0.68551
C 15.55046 -3.18714 1.43581
C 14.64798 -2.70412 2.67318
C 15.04418 -1.22941 2.70370
C 13.15565 -2.79220 2.40019
C 16.94623 -3.71928 1.91607
C 16.95345 -5.17732 2.38062
H 18.13632 -5.98896 2.10761
N 15.57860 1.75910 3.14782
C 15.22086 0.87192 4.09977
C 15.20278 1.62381 5.36408
C 15.41851 3.06382 5.05658
C 15.36689 3.03478 3.60862
C 15.07446 0.95952 6.70410
C 15.62300 4.26969 5.92275
O 15.55285 5.45865 5.44915
C 15.81506 4.02037 7.35887
N 15.20301 3.30923 0.56649
C 15.04599 4.31538 1.44452
C 14.90562 5.64123 0.73544
C 15.24456 5.34565 -0.79927
C 15.44393 3.81594 -0.72433
C 13.53297 6.30641 0.83423
C 16.36159 6.20556 -1.45156
C 17.69854 5.87335 -0.82900
N 15.96385 0.88966 -0.88409
C 15.82227 1.74881 -1.99580
C 15.92512 0.91181 -3.20876
C 16.09775 -0.38983 -2.71437
C 16.08196 -0.36846 -1.29353
C 15.80913 1.37337 -4.55026
C 16.27910 -1.77848 -3.07138
O 16.45631 -2.38853 -4.12502
C 16.08648 -2.66509 -1.76631
C 17.22405 -3.64694 -1.69973
O 18.39143 -3.25146 -1.53414
O 16.72556 -4.89442 -1.62436
C 17.81547 -5.90321 -1.54523
H 14.34343 -0.94823 4.72855
H 15.03173 5.07948 3.24379
H 15.63162 3.57382 -2.82315
H 15.04091 -3.97027 0.88732
H 14.94469 -3.19780 3.59492
H 12.94872 -3.05445 1.37328
H 12.75655 -1.81254 2.62828
H 12.68342 -3.48177 3.10576
H 17.21510 -3.22114 2.85645
H 17.68978 -3.57856 1.15582
H 16.04361 -5.71048 2.07917
H 16.92426 -5.19369 3.47282
H 14.76537 -0.08842 6.60563
H 14.23805 1.44194 7.22137
H 15.97448 1.06376 7.31382
H 14.95228 3.48750 7.75144
H 16.03405 4.99558 7.79806
H 16.67874 3.35827 7.48657
H 15.61643 6.36246 1.11971
H 14.37404 5.51763 -1.44924
H 13.57183 7.32607 1.26185
H 12.88728 5.67056 1.42526
H 12.98720 6.38085 -0.10481
H 16.18432 7.26643 -1.25842
H 16.42997 6.08108 -2.52711
H 17.70696 6.48464 0.07838
H 18.51153 6.14852 -1.49785
H 17.73811 4.82264 -0.51898
H 16.59197 0.88594 -5.11601
H 15.89246 2.45672 -4.60659
H 14.80036 1.02628 -4.78941
H 15.11982 -3.16347 -1.84858
H 17.65569 -6.61111 -2.36439
H 17.77513 -6.30648 -0.51591
H 18.82523 -5.56721 -1.75000
