158

Mg 0.00000 0.00000 0.00000
C -0.21700 -2.21800 2.80100
C -1.25500 2.44200 2.02600
C -0.24500 1.85000 -2.56400
C 0.14600 -2.82400 -2.03700
N -0.61700 -0.00900 2.12600
C -0.59400 -0.90800 3.10500
C -0.93600 -0.30900 4.50200
C -1.77300 0.96400 4.03200
C -1.15500 1.16800 2.66000
C -3.26300 0.68500 3.86300
C 0.34500 0.11000 5.29900
C 0.12400 0.39700 6.78700
H 1.16800 0.03300 7.73300
N -0.18500 1.96100 -0.15200
C -0.70300 2.80000 0.77700
C -0.62000 4.15600 0.19300
C -0.18700 4.01500 -1.22500
C -0.21400 2.58300 -1.38000
C -0.88700 5.40600 0.97400
C 0.18100 5.01300 -2.27700
O 0.30300 4.69000 -3.50800
C 0.31000 6.41400 -1.83700
N -0.26500 -0.41300 -2.02900
C -0.27900 0.56900 -2.93700
C -0.19600 0.02400 -4.33200
C 0.12400 -1.53300 -4.18000
C 0.08600 -1.63200 -2.63500
C -1.45100 0.20500 -5.19700
C 1.37300 -2.07000 -4.92300
C 2.62600 -1.49000 -4.30600
N 0.15000 -2.14400 0.30300
C 0.17300 -3.13600 -0.68800
C 0.17300 -4.43800 0.00400
C 0.13300 -4.11100 1.35800
C 0.08300 -2.69500 1.50200
C 0.14900 -5.71500 -0.62300
C 0.09600 -4.62900 2.71600
O 0.20800 -5.74700 3.22100
C -0.25500 -3.42800 3.70100
C 0.71700 -3.48200 4.84800
O 1.93100 -3.25500 4.66900
O 0.03800 -3.55600 6.00300
C 0.94300 -3.58300 7.18300
H -1.85900 3.22000 2.49700
H -0.21800 2.45300 -3.47400
H 0.27600 -3.74700 -2.60500
H -1.55400 -0.94900 5.13200
H -1.58500 1.83100 4.66500
H -3.48400 -0.37700 3.96900
H -3.51100 1.02700 2.85800
H -3.85200 1.30100 4.54300
H 0.66900 1.09600 4.96600
H 1.13000 -0.63900 5.18900
H -0.84400 0.02600 7.12500
H 0.06200 1.47700 6.92100
H -1.34400 5.18600 1.93800
H -1.65100 5.96300 0.43200
H 0.00700 6.02000 1.08400
H -0.63500 6.74400 -1.40500
H 0.66500 6.97000 -2.70400
H 1.04800 6.46600 -1.03600
H 0.60800 0.50100 -4.89100
H -0.69200 -2.15600 -4.54700
H -1.26700 0.74000 -6.12900
H -2.20400 0.71400 -4.59600
H -1.96700 -0.72000 -5.45300
H 1.35600 -1.75900 -5.96700
H 1.45200 -3.15700 -4.90200
H 2.71400 -0.52200 -4.79800
H 3.48700 -2.12100 -4.52900
H 2.49500 -1.30300 -3.24000
H 0.86700 -6.33300 -0.08400
H 0.40400 -5.64200 -1.68000
H -0.89100 -5.99900 -0.46300
H -1.28300 -3.58100 4.02800
H 0.69800 -4.47800 7.75500
H 0.83300 -2.61900 7.68000
H 2.00000 -3.75400 6.97600
Mg 7.87826 0.71715 0.60457
C 10.13571 1.02312 3.37754
C 5.47169 -0.16781 2.85399
C 5.99159 0.00358 -1.84466
C 10.67234 0.50268 -1.46733
N 7.91993 0.49292 2.80463
C 8.81743 0.69560 3.75739
C 8.25198 0.61711 5.20089
C 6.97181 -0.30707 4.90775
C 6.74440 0.04877 3.43999
C 7.26999 -1.79445 4.99796
C 7.83051 2.02328 5.75501
C 7.56064 2.06665 7.26068
H 7.92476 3.27304 7.99860
N 5.90743 0.49876 0.52262
C 5.08362 0.15830 1.53589
C 3.73208 0.11069 0.95689
C 3.84622 0.28952 -0.51610
C 5.28601 0.24921 -0.67574
C 2.49192 -0.00929 1.79418
C 2.82760 0.45497 -1.60294
O 3.14233 0.35605 -2.84149
C 1.43446 0.64331 -1.17262
N 8.26767 0.09999 -1.34217
C 7.26731 -0.09059 -2.22016
C 7.79832 -0.26172 -3.62342
C 9.35478 0.09623 -3.54041
C 9.47846 0.33645 -2.01976
C 7.62810 -1.65257 -4.23410
C 9.87694 1.19423 -4.50706
C 9.28887 2.53515 -4.13089
N 10.01406 0.93664 0.84588
C 11.00528 0.77989 -0.14760
C 12.31614 0.91417 0.52026
C 11.99445 1.11843 1.87055
C 10.58327 1.09177 2.03600
C 13.58690 0.79544 -0.10996
C 12.52808 1.33995 3.19527
O 13.65051 1.54126 3.65717
C 11.35235 1.16198 4.24996
C 11.40258 2.32523 5.20224
O 11.17415 3.48023 4.80174
O 11.49640 1.86021 6.46134
C 11.53822 2.97646 7.44320
H 4.70780 -0.67400 3.44487
H 5.38380 -0.13861 -2.74124
H 11.58878 0.54583 -2.05974
H 8.90364 0.13296 5.91832
H 6.11944 -0.00377 5.51012
H 8.32454 -1.98674 5.12864
H 6.92000 -2.22161 4.06732
H 6.66580 -2.25291 5.78606
H 6.83021 2.27172 5.37761
H 8.55779 2.76823 5.49664
H 7.93899 1.17380 7.77314
H 6.48034 2.03001 7.42079
H 2.72996 -0.28914 2.82783
H 1.92501 -0.86219 1.40555
H 1.86418 0.88314 1.74745
H 1.12426 -0.20754 -0.57071
H 0.86915 0.83259 -2.08721
H 1.38521 1.52367 -0.52211
H 7.31539 0.42648 -4.30625
H 9.98597 -0.77390 -3.77346
H 7.07038 -1.64446 -5.18959
H 7.13229 -2.28505 -3.50975
H 8.55514 -2.19333 -4.41680
H 9.54859 0.98688 -5.52850
H 10.95874 1.27376 -4.52642
H 8.30929 2.52042 -4.61801
H 9.90722 3.34521 -4.51233
H 9.11857 2.60095 -3.05000
H 14.20311 1.59529 0.27866
H 13.50012 0.84977 -1.19315
H 13.88021 -0.20179 0.22882
H 11.50948 0.20981 4.75815
H 12.44462 2.84187 8.04155
H 10.57100 2.93961 7.97880
H 11.68643 3.97820 7.05720
