158

Mg 0.00000 0.00000 0.00000
C -0.21700 -2.21800 2.80100
C -1.25500 2.44200 2.02600
C -0.24500 1.85000 -2.56400
C 0.14600 -2.82400 -2.03700
N -0.61700 -0.00900 2.12600
C -0.59400 -0.90800 3.10500
C -0.93600 -0.30900 4.50200
C -1.77300 0.96400 4.03200
C -1.15500 1.16800 2.66000
C -3.26300 0.68500 3.86300
C 0.34500 0.11000 5.29900
C 0.12400 0.39700 6.78700
H 1.16800 0.03300 7.73300
N -0.18500 1.96100 -0.15200
C -0.70300 2.80000 0.77700
C -0.62000 4.15600 0.19300
C -0.18700 4.01500 -1.22500
C -0.21400 2.58300 -1.38000
C -0.88700 5.40600 0.97400
C 0.18100 5.01300 -2.27700
O 0.30300 4.69000 -3.50800
C 0.31000 6.41400 -1.83700
N -0.26500 -0.41300 -2.02900
C -0.27900 0.56900 -2.93700
C -0.19600 0.02400 -4.33200
C 0.12400 -1.53300 -4.18000
C 0.08600 -1.63200 -2.63500
C -1.45100 0.20500 -5.19700
C 1.37300 -2.07000 -4.92300
C 2.62600 -1.49000 -4.30600
N 0.15000 -2.14400 0.30300
C 0.17300 -3.13600 -0.68800
C 0.17300 -4.43800 0.00400
C 0.13300 -4.11100 1.35800
C 0.08300 -2.69500 1.50200
C 0.14900 -5.71500 -0.62300
C 0.09600 -4.62900 2.71600
O 0.20800 -5.74700 3.22100
C -0.25500 -3.42800 3.70100
C 0.71700 -3.48200 4.84800
O 1.93100 -3.25500 4.66900
O 0.03800 -3.55600 6.00300
C 0.94300 -3.58300 7.18300
H -1.85900 3.22000 2.49700
H -0.21800 2.45300 -3.47400
H 0.27600 -3.74700 -2.60500
H -1.55400 -0.94900 5.13200
H -1.58500 1.83100 4.66500
H -3.48400 -0.37700 3.96900
H -3.51100 1.02700 2.85800
H -3.85200 1.30100 4.54300
H 0.66900 1.09600 4.96600
H 1.13000 -0.63900 5.18900
H -0.84400 0.02600 7.12500
H 0.06200 1.47700 6.92100
H -1.34400 5.18600 1.93800
H -1.65100 5.96300 0.43200
H 0.00700 6.02000 1.08400
H -0.63500 6.74400 -1.40500
H 0.66500 6.97000 -2.70400
H 1.04800 6.46600 -1.03600
H 0.60800 0.50100 -4.89100
H -0.69200 -2.15600 -4.54700
H -1.26700 0.74000 -6.12900
H -2.20400 0.71400 -4.59600
H -1.96700 -0.72000 -5.45300
H 1.35600 -1.75900 -5.96700
H 1.45200 -3.15700 -4.90200
H 2.71400 -0.52200 -4.79800
H 3.48700 -2.12100 -4.52900
H 2.49500 -1.30300 -3.24000
H 0.86700 -6.33300 -0.08400
H 0.40400 -5.64200 -1.68000
H -0.89100 -5.99900 -0.46300
H -1.28300 -3.58100 4.02800
H 0.69800 -4.47800 7.75500
H 0.83300 -2.61900 7.68000
H 2.00000 -3.75400 6.97600
Mg 31.53256 2.83880 2.39533
C 30.96808 4.03850 5.72013
C 30.46258 5.87947 1.27614
C 31.58937 1.65467 -0.54597
C 31.46063 -0.38949 3.70629
N 30.83238 4.64857 3.46076
C 30.72016 4.99997 4.73791
C 30.38727 6.50898 4.93652
C 29.70979 6.80534 3.52401
C 30.40107 5.73780 2.69430
C 28.20669 6.54700 3.50303
C 31.67211 7.37826 5.14931
C 31.42265 8.79600 5.67192
H 32.38292 9.38095 6.59554
N 31.56295 3.75544 0.64556
C 31.09964 4.99935 0.37480
C 31.34963 5.22286 -1.06542
C 31.82237 3.93725 -1.65007
C 31.64992 3.04615 -0.53133
C 31.18530 6.55409 -1.73218
C 32.33653 3.56792 -3.00557
O 32.47339 2.35095 -3.37276
C 32.59548 4.68172 -3.93586
N 31.30774 0.90663 1.63782
C 31.43482 0.65924 0.32952
C 31.51604 -0.81367 0.05772
C 31.66263 -1.51877 1.48289
C 31.55172 -0.26176 2.38060
C 30.32344 -1.42251 -0.69263
C 32.87671 -2.46093 1.67975
C 34.15811 -1.65802 1.65868
N 31.44185 1.95367 4.37507
C 31.39965 0.58695 4.68646
C 31.23347 0.48176 6.14775
C 31.17351 1.80323 6.58589
C 31.26821 2.67822 5.46620
C 31.09958 -0.72692 6.88640
C 31.02673 2.67933 7.73688
O 30.99892 2.51096 8.95687
C 30.76547 4.15920 7.21007
C 31.67894 5.08062 7.97156
O 32.91642 5.02267 7.82110
O 30.94964 6.03473 8.57018
C 31.79807 6.99992 9.31900
H 29.92592 6.70493 0.80438
H 31.71707 1.20342 -1.53213
H 31.51491 -1.36362 4.19575
H 29.67983 6.71647 5.73957
H 29.96288 7.79777 3.15150
H 27.87016 6.07776 4.42741
H 28.03733 5.88278 2.65532
H 27.65927 7.46315 3.27989
H 32.11212 7.61258 4.18001
H 32.37704 6.86999 5.80815
H 30.40785 8.90673 6.05510
H 31.47019 9.48436 4.82807
H 30.66882 7.26397 -1.08729
H 30.50731 6.40765 -2.57277
H 32.13419 6.95353 -2.09049
H 31.67408 5.24380 -4.08964
H 33.04232 4.23469 -4.82318
H 33.30173 5.37152 -3.47290
H 32.38811 -1.05168 -0.54996
H 30.80070 -2.14241 1.72127
H 30.60080 -1.93198 -1.61579
H 29.60494 -0.62648 -0.88595
H 29.72303 -2.11913 -0.10812
H 32.93515 -3.17976 0.86316
H 32.83903 -3.02209 2.61352
H 34.36819 -1.56272 0.59396
H 34.95565 -2.20103 2.16690
H 34.00457 -0.65284 2.05177
H 31.72552 -0.61439 7.77156
H 31.40354 -1.58916 6.29331
H 30.02969 -0.71918 7.09409
H 29.71463 4.37770 7.39746
H 31.43652 7.01462 10.34725
H 31.77090 7.93524 8.75968
H 32.83849 6.71039 9.47081
