79

Mg 7.88189 0.71427 0.60831
C 5.93202 -1.77233 2.30944
C 5.30007 2.88131 1.13053
C 9.37518 2.79028 -1.26991
C 9.75844 -1.88802 -0.75270
N 5.92245 0.46868 1.60457
C 5.31625 -0.50403 2.26842
C 4.01309 -0.07296 2.99335
C 3.64302 1.19953 2.08632
C 5.04301 1.56839 1.59985
C 2.79365 0.84920 0.87587
C 4.26777 0.33986 4.48557
C 3.00536 0.47484 5.33989
H 3.07073 0.08301 6.74512
N 7.65166 2.67692 0.42507
C 6.54393 3.39578 0.70337
C 6.87890 4.79171 0.38190
C 8.21932 4.81561 -0.26418
C 8.46368 3.39538 -0.41692
C 5.99903 5.94755 0.76044
C 9.12498 5.93215 -0.68762
O 10.13788 5.72688 -1.44574
C 8.73795 7.28619 -0.26540
N 9.21559 0.48232 -0.96960
C 9.75623 1.55110 -1.58062
C 10.88806 1.14307 -2.49324
C 11.15448 -0.40290 -2.18251
C 10.02175 -0.65504 -1.16332
C 10.63459 1.32483 -3.98960
C 12.60352 -0.80252 -1.79101
C 12.95676 -0.20989 -0.44587
N 7.99444 -1.42686 0.87463
C 8.83315 -2.32933 0.18456
C 8.46670 -3.69008 0.62785
C 7.41633 -3.48467 1.53505
C 7.13365 -2.09549 1.63387
C 9.04739 -4.90224 0.15924
C 6.47532 -4.12793 2.42354
O 6.30014 -5.28058 2.81652
C 5.38806 -3.05749 2.86899
C 5.22181 -3.15737 4.36060
O 6.15840 -2.85879 5.12234
O 3.92547 -3.37786 4.64569
C 3.70835 -3.47345 6.11387
H 4.46230 3.57333 1.04025
H 9.99355 3.47139 -1.85913
H 10.36208 -2.74590 -1.05656
H 3.21138 -0.80080 2.95765
H 3.22357 2.00331 2.68578
H 2.67759 -0.21821 0.76043
H 3.31075 1.26802 0.02249
H 1.83112 1.36601 0.92844
H 4.62568 1.37709 4.51404
H 4.95231 -0.33824 4.95696
H 2.13001 0.02498 4.85581
H 2.75220 1.53480 5.41991
H 5.00452 5.60936 1.07662
H 5.81291 6.52072 -0.15427
H 6.46119 6.60390 1.50090
H 7.74700 7.51506 -0.65024
H 9.55388 7.93675 -0.58621
H 8.66288 7.30377 0.82761
H 11.78623 1.70607 -2.27093
H 10.93896 -1.03692 -3.05510
H 11.38787 1.96596 -4.48517
H 9.64167 1.73415 -4.12037
H 10.58154 0.40183 -4.56446
H 13.31705 -0.39039 -2.50876
H 12.76205 -1.87529 -1.75908
H 13.26669 0.80852 -0.69859
H 13.76943 -0.76652 0.01648
H 12.07133 -0.13526 0.19608
H 9.20946 -5.52611 1.02816
H 9.97581 -4.71707 -0.37695
H 8.25343 -5.25505 -0.50441
H 4.46399 -3.28855 2.33769
H 3.21810 -4.43354 6.30249
H 3.15101 -2.55973 6.39356
H 4.58487 -3.55581 6.74583
