79

Mg 10.51522 0.94058 0.80625
C 7.83716 0.89942 3.19484
C 12.41321 2.48224 3.18438
C 12.74075 1.39817 -1.40849
C 8.11992 0.46263 -1.67967
N 10.07081 1.55734 2.88335
C 9.03868 1.43444 3.70430
C 9.33420 1.83753 5.17390
C 10.56979 2.82816 4.90772
C 11.07829 2.23725 3.59435
C 10.14516 4.26477 4.65239
C 9.76044 0.61170 6.05576
C 9.76451 0.87447 7.56330
H 9.37191 -0.20935 8.45979
N 12.44668 1.35661 0.99320
C 13.05078 1.96548 2.03513
C 14.47503 2.05538 1.67792
C 14.63542 1.59872 0.27064
C 13.24729 1.44989 -0.11803
C 15.53582 2.46267 2.65887
C 15.83869 1.35085 -0.58779
O 15.73940 1.18624 -1.85502
C 17.14510 1.39941 0.08482
N 10.42641 1.14449 -1.26085
C 11.54731 1.28061 -1.99089
C 11.25902 1.13253 -3.46580
C 9.74493 0.62613 -3.55888
C 9.37552 0.65587 -2.05954
C 11.42458 2.39841 -4.30636
C 9.48785 -0.68096 -4.35769
C 10.10370 -1.85719 -3.63478
N 8.39398 0.53439 0.74774
C 7.58328 0.39638 -0.40021
C 6.19013 0.24255 0.06659
C 6.28488 0.32545 1.46396
C 7.63867 0.53761 1.84042
C 5.04432 0.10295 -0.76633
C 5.54606 0.29236 2.70563
O 4.37920 0.05619 3.01613
C 6.50095 0.78894 3.87524
C 6.37543 -0.17887 5.01983
O 6.76010 -1.35522 4.89796
O 6.02613 0.49529 6.13063
C 5.90000 -0.42026 7.29582
H 13.01966 3.16915 3.77535
H 13.48343 1.44025 -2.20857
H 7.32784 0.21093 -2.38815
H 8.53098 2.36972 5.66927
H 11.32429 2.73616 5.68465
H 9.07229 4.36005 4.57487
H 10.61856 4.55054 3.72218
H 10.56402 4.92349 5.41853
H 10.82774 0.41046 5.89724
H 9.15022 -0.24362 5.83968
H 9.23355 1.79863 7.82206
H 10.79374 1.05886 7.88064
H 15.09901 2.89879 3.56573
H 16.09375 3.28743 2.20241
H 16.22978 1.65163 2.88974
H 17.27747 2.37494 0.54665
H 17.87514 1.10969 -0.67345
H 17.14807 0.66377 0.89688
H 11.90651 0.38869 -3.91363
H 9.09841 1.36384 -4.05651
H 12.14020 2.27736 -5.14141
H 11.73467 3.20350 -3.65352
H 10.50462 2.79089 -4.73627
H 9.97310 -0.62891 -5.33543
H 8.43580 -0.88167 -4.53058
H 11.14937 -1.82369 -3.95502
H 9.62707 -2.78660 -3.93986
H 10.08634 -1.70500 -2.54934
H 4.43387 -0.67542 -0.32818
H 5.32378 -0.13862 -1.78972
H 4.61915 1.10672 -0.68298
H 6.18321 1.79470 4.15282
H 4.89498 -0.27946 7.70546
H 6.75237 -0.17949 7.95858
H 5.90052 -1.48583 7.09831
