79

Mg 8.93705 0.80709 0.66884
C 11.54820 -1.56777 0.02003
C 11.25480 3.26256 0.18584
C 6.77864 2.90462 1.67337
C 7.15869 -1.77369 2.19289
N 11.09086 0.73159 0.17123
C 11.96124 -0.22565 -0.11247
C 13.32871 0.28443 -0.64107
C 13.30050 1.75643 0.00025
C 11.78885 1.95226 0.09634
C 13.87957 1.81245 1.40413
C 13.38010 0.34156 -2.20826
C 14.77854 0.53347 -2.79927
H 15.09948 -0.13282 -4.05845
N 8.85240 2.77576 0.43273
C 9.88789 3.61542 0.22295
C 9.30260 4.96233 0.13681
C 7.85688 4.86819 0.47702
C 7.77600 3.48565 0.90380
C 10.08383 6.16161 -0.31577
C 6.73568 5.86197 0.43837
O 5.60950 5.62889 1.00426
C 7.02628 7.15367 -0.20082
N 7.31237 0.65136 1.95668
C 6.50469 1.70268 2.18092
C 5.25478 1.28304 2.91714
C 5.27880 -0.31599 2.92772
C 6.64318 -0.55310 2.24388
C 5.12156 1.79925 4.34968
C 4.02995 -1.04239 2.35731
C 3.92769 -0.80106 0.86845
N 9.17847 -1.32841 0.89105
C 8.32944 -2.21472 1.58940
C 8.96904 -3.54601 1.55775
C 10.16642 -3.33535 0.85748
C 10.27563 -1.96510 0.49692
C 8.46209 -4.72722 2.16920
C 11.36787 -3.95843 0.35054
O 11.78363 -5.11424 0.27996
C 12.37595 -2.81677 -0.10421
C 12.90106 -3.17662 -1.46703
O 12.13917 -3.20997 -2.44939
O 14.24558 -3.20874 -1.42683
C 14.81356 -3.55056 -2.75814
H 11.94713 4.09976 0.27887
H 5.95322 3.56404 1.95146
H 6.62100 -2.65028 2.56051
H 14.18951 -0.26341 -0.27682
H 13.73786 2.48906 -0.67305
H 14.10712 0.82817 1.78565
H 13.12451 2.28975 2.01496
H 14.74916 2.47549 1.42703
H 12.90330 1.26978 -2.54856
H 12.92325 -0.52940 -2.63645
H 15.56723 0.35521 -2.05823
H 14.89903 1.58491 -3.07125
H 11.16095 5.95493 -0.33834
H 9.97048 6.92795 0.45866
H 9.72563 6.56363 -1.26590
H 7.85867 7.63072 0.31104
H 6.07811 7.69472 -0.21068
H 7.35390 6.96889 -1.22997
H 4.36723 1.61771 2.39431
H 5.36547 -0.71544 3.94888
H 4.19374 2.37710 4.52089
H 5.99157 2.40042 4.57817
H 5.16078 1.03312 5.12215
H 3.11868 -0.63410 2.80121
H 4.02866 -2.11097 2.54474
H 3.43329 0.17322 0.80976
H 3.32909 -1.57659 0.39489
H 4.92130 -0.69417 0.41792
H 8.59458 -5.52898 1.45496
H 7.41721 -4.61253 2.45001
H 9.11708 -4.79147 3.04219
H 13.17108 -2.76609 0.64062
H 15.45858 -4.42313 -2.61582
H 15.29349 -2.62385 -3.12505
H 14.12993 -3.91431 -3.51629
