79

Mg 15.76628 1.41940 1.19766
C 15.70568 -1.68098 2.98545
C 14.53777 2.89786 4.01688
C 15.38245 4.07467 -0.49314
C 15.89473 -0.44801 -1.74205
N 15.23214 0.60611 3.18611
C 15.31239 -0.58910 3.76247
C 15.01166 -0.55940 5.29089
C 14.12974 0.76760 5.34818
C 14.68976 1.48412 4.13207
C 12.64073 0.51947 5.12961
C 16.31308 -0.41990 6.15029
C 16.14351 -0.70942 7.64454
H 17.23089 -1.36036 8.35954
N 15.53308 3.29072 1.78642
C 15.03326 3.70983 2.97377
C 15.06424 5.18760 2.93022
C 15.44514 5.59423 1.54904
C 15.44323 4.32020 0.87658
C 14.80055 6.05170 4.12503
C 15.75054 6.92177 0.93057
O 15.83191 7.07970 -0.33553
C 15.86603 8.06546 1.85344
N 15.43218 1.77458 -0.83208
C 15.36186 3.02103 -1.31208
C 15.40275 3.03185 -2.81146
C 15.76205 1.54046 -3.25466
C 15.78587 0.87766 -1.85523
C 14.11167 3.47568 -3.51299
C 16.99279 1.35848 -4.17801
C 18.25581 1.71292 -3.42551
N 15.97430 -0.67878 0.68249
C 15.98054 -1.23419 -0.60520
C 16.03547 -2.69876 -0.44370
C 16.04068 -2.89549 0.93584
C 15.96559 -1.63492 1.59432
C 16.01498 -3.65471 -1.49734
C 16.06736 -3.87855 2.00669
O 16.22298 -5.09941 2.05940
C 15.72869 -3.13807 3.37520
C 16.74518 -3.57761 4.39346
O 17.94616 -3.25900 4.27729
O 16.11303 -4.09547 5.45777
C 17.06327 -4.52440 6.51853
H 13.93567 3.42618 4.75871
H 15.36123 4.97120 -1.11622
H 16.02269 -1.09157 -2.61435
H 14.43246 -1.40742 5.65670
H 14.32319 1.34612 6.25129
H 12.44706 -0.51374 4.84171
H 12.34677 1.19911 4.32950
H 12.06520 0.82077 6.00526
H 16.60254 0.62993 6.19640
H 17.10930 -1.04813 5.74942
H 15.19755 -1.21195 7.84832
H 16.06333 0.24231 8.16988
H 14.38597 5.47625 4.95179
H 14.00430 6.74263 3.84878
H 15.68461 6.61227 4.42922
H 14.93147 8.18025 2.40297
H 16.17516 8.91376 1.24379
H 16.63309 7.84388 2.59604
H 16.17404 3.70867 -3.17675
H 14.94619 1.06895 -3.80304
H 14.24792 4.32255 -4.18600
H 13.37157 3.70106 -2.74569
H 13.60635 2.69302 -4.07825
H 16.92877 2.03164 -5.03224
H 17.09609 0.34369 -4.56246
H 18.30375 2.79653 -3.52715
H 19.12103 1.23858 -3.88983
H 18.16202 1.48917 -2.36267
H 16.76648 -4.40279 -1.24515
H 16.22735 -3.18849 -2.45918
H 14.98833 -4.01329 -1.42473
H 14.71764 -3.43610 3.65101
H 16.85999 -5.57509 6.72583
H 16.95166 -3.81590 7.33948
H 18.11495 -4.57059 6.23362
