158

Mg 0.00000 0.00000 0.00000
C -0.21700 -2.21800 2.80100
C -1.25500 2.44200 2.02600
C -0.24500 1.85000 -2.56400
C 0.14600 -2.82400 -2.03700
N -0.61700 -0.00900 2.12600
C -0.59400 -0.90800 3.10500
C -0.93600 -0.30900 4.50200
C -1.77300 0.96400 4.03200
C -1.15500 1.16800 2.66000
C -3.26300 0.68500 3.86300
C 0.34500 0.11000 5.29900
C 0.12400 0.39700 6.78700
H 1.16800 0.03300 7.73300
N -0.18500 1.96100 -0.15200
C -0.70300 2.80000 0.77700
C -0.62000 4.15600 0.19300
C -0.18700 4.01500 -1.22500
C -0.21400 2.58300 -1.38000
C -0.88700 5.40600 0.97400
C 0.18100 5.01300 -2.27700
O 0.30300 4.69000 -3.50800
C 0.31000 6.41400 -1.83700
N -0.26500 -0.41300 -2.02900
C -0.27900 0.56900 -2.93700
C -0.19600 0.02400 -4.33200
C 0.12400 -1.53300 -4.18000
C 0.08600 -1.63200 -2.63500
C -1.45100 0.20500 -5.19700
C 1.37300 -2.07000 -4.92300
C 2.62600 -1.49000 -4.30600
N 0.15000 -2.14400 0.30300
C 0.17300 -3.13600 -0.68800
C 0.17300 -4.43800 0.00400
C 0.13300 -4.11100 1.35800
C 0.08300 -2.69500 1.50200
C 0.14900 -5.71500 -0.62300
C 0.09600 -4.62900 2.71600
O 0.20800 -5.74700 3.22100
C -0.25500 -3.42800 3.70100
C 0.71700 -3.48200 4.84800
O 1.93100 -3.25500 4.66900
O 0.03800 -3.55600 6.00300
C 0.94300 -3.58300 7.18300
H -1.85900 3.22000 2.49700
H -0.21800 2.45300 -3.47400
H 0.27600 -3.74700 -2.60500
H -1.55400 -0.94900 5.13200
H -1.58500 1.83100 4.66500
H -3.48400 -0.37700 3.96900
H -3.51100 1.02700 2.85800
H -3.85200 1.30100 4.54300
H 0.66900 1.09600 4.96600
H 1.13000 -0.63900 5.18900
H -0.84400 0.02600 7.12500
H 0.06200 1.47700 6.92100
H -1.34400 5.18600 1.93800
H -1.65100 5.96300 0.43200
H 0.00700 6.02000 1.08400
H -0.63500 6.74400 -1.40500
H 0.66500 6.97000 -2.70400
H 1.04800 6.46600 -1.03600
H 0.60800 0.50100 -4.89100
H -0.69200 -2.15600 -4.54700
H -1.26700 0.74000 -6.12900
H -2.20400 0.71400 -4.59600
H -1.96700 -0.72000 -5.45300
H 1.35600 -1.75900 -5.96700
H 1.45200 -3.15700 -4.90200
H 2.71400 -0.52200 -4.79800
H 3.48700 -2.12100 -4.52900
H 2.49500 -1.30300 -3.24000
H 0.86700 -6.33300 -0.08400
H 0.40400 -5.64200 -1.68000
H -0.89100 -5.99900 -0.46300
H -1.28300 -3.58100 4.02800
H 0.69800 -4.47800 7.75500
H 0.83300 -2.61900 7.68000
H 2.00000 -3.75400 6.97600
Mg 8.92400 0.80710 0.67852
C 7.48356 -2.01355 -1.00913
C 7.72198 2.74795 -1.85582
C 10.55818 3.23798 1.89822
C 10.94145 -1.44002 2.41806
N 7.76671 0.31486 -1.14100
C 7.22306 -0.78230 -1.64600
C 6.28530 -0.53612 -2.85826
C 6.89851 0.86190 -3.35663
C 7.47041 1.36389 -2.03239
C 8.04481 0.69949 -4.34099
C 4.78316 -0.38470 -2.43087
C 3.77717 -0.45109 -3.58211
H 2.48303 -1.08279 -3.34000
N 8.72216 2.76102 0.39561
C 8.19149 3.37671 -0.68170
C 8.29280 4.81918 -0.41120
C 9.07585 5.00792 0.84017
C 9.50965 3.64748 1.08738
C 7.61201 5.85553 -1.25733
C 9.39369 6.21532 1.66924
O 10.28928 6.18608 2.58569
C 8.69198 7.45754 1.31429
N 10.66249 0.90895 1.81413
C 11.12957 2.08875 2.25891
C 12.22650 1.89198 3.27794
C 12.23291 0.32664 3.60544
C 11.15084 -0.14474 2.60928
C 13.62560 2.32608 2.84152
C 12.09164 -0.08075 5.09767
C 10.71222 0.27729 5.60205
N 9.06316 -1.34153 0.85765
C 9.99771 -2.07509 1.62092
C 9.76743 -3.50573 1.33341
C 8.72183 -3.50418 0.39788
C 8.34181 -2.16618 0.10660
C 10.51143 -4.59286 1.87259
C 7.86031 -4.32980 -0.41749
O 7.66394 -5.53963 -0.52470
C 7.10538 -3.39716 -1.45992
C 5.64720 -3.76581 -1.44196
O 4.95864 -3.57154 -0.42474
O 5.25731 -4.08229 -2.69024
C 3.81531 -4.44451 -2.72569
H 7.58763 3.41275 -2.70956
H 11.08295 4.03561 2.42915
H 11.46334 -2.20704 2.99426
H 6.35790 -1.27601 -3.64634
H 6.11916 1.53035 -3.71321
H 8.33651 -0.33422 -4.45272
H 8.86305 1.28211 -3.93839
H 7.78798 1.16196 -5.29833
H 4.61005 0.64391 -2.08918
H 4.52491 -1.10910 -1.68310
H 4.22898 -0.84098 -4.50233
H 3.47833 0.56758 -3.84099
H 7.24818 5.42924 -2.20037
H 8.38029 6.57414 -1.56262
H 6.82437 6.38744 -0.71940
H 8.91097 7.71319 0.28029
H 8.98316 8.18508 2.07440
H 7.61255 7.27844 1.37236
H 12.01262 2.44036 4.18714
H 13.17433 -0.15056 3.29586
H 14.08185 3.07293 3.51837
H 13.56367 2.71414 1.83349
H 14.34731 1.51812 2.73409
H 12.80155 0.47871 5.71182
H 12.27242 -1.13543 5.27645
H 10.81154 1.33536 5.86225
H 10.45585 -0.32119 6.47391
H 9.96851 0.20345 4.80012
H 9.79421 -5.35413 2.14929
H 11.11002 -4.28060 2.72580
H 11.13061 -4.85242 1.00974
H 7.55816 -3.56536 -2.43781
H 3.74704 -5.44070 -3.17359
H 3.31235 -3.61654 -3.25978
H 3.31519 -4.60416 -1.77761
