158

Mg 0.00000 0.00000 0.00000
C -0.21700 -2.21800 2.80100
C -1.25500 2.44200 2.02600
C -0.24500 1.85000 -2.56400
C 0.14600 -2.82400 -2.03700
N -0.61700 -0.00900 2.12600
C -0.59400 -0.90800 3.10500
C -0.93600 -0.30900 4.50200
C -1.77300 0.96400 4.03200
C -1.15500 1.16800 2.66000
C -3.26300 0.68500 3.86300
C 0.34500 0.11000 5.29900
C 0.12400 0.39700 6.78700
H 1.16800 0.03300 7.73300
N -0.18500 1.96100 -0.15200
C -0.70300 2.80000 0.77700
C -0.62000 4.15600 0.19300
C -0.18700 4.01500 -1.22500
C -0.21400 2.58300 -1.38000
C -0.88700 5.40600 0.97400
C 0.18100 5.01300 -2.27700
O 0.30300 4.69000 -3.50800
C 0.31000 6.41400 -1.83700
N -0.26500 -0.41300 -2.02900
C -0.27900 0.56900 -2.93700
C -0.19600 0.02400 -4.33200
C 0.12400 -1.53300 -4.18000
C 0.08600 -1.63200 -2.63500
C -1.45100 0.20500 -5.19700
C 1.37300 -2.07000 -4.92300
C 2.62600 -1.49000 -4.30600
N 0.15000 -2.14400 0.30300
C 0.17300 -3.13600 -0.68800
C 0.17300 -4.43800 0.00400
C 0.13300 -4.11100 1.35800
C 0.08300 -2.69500 1.50200
C 0.14900 -5.71500 -0.62300
C 0.09600 -4.62900 2.71600
O 0.20800 -5.74700 3.22100
C -0.25500 -3.42800 3.70100
C 0.71700 -3.48200 4.84800
O 1.93100 -3.25500 4.66900
O 0.03800 -3.55600 6.00300
C 0.94300 -3.58300 7.18300
H -1.85900 3.22000 2.49700
H -0.21800 2.45300 -3.47400
H 0.27600 -3.74700 -2.60500
H -1.55400 -0.94900 5.13200
H -1.58500 1.83100 4.66500
H -3.48400 -0.37700 3.96900
H -3.51100 1.02700 2.85800
H -3.85200 1.30100 4.54300
H 0.66900 1.09600 4.96600
H 1.13000 -0.63900 5.18900
H -0.84400 0.02600 7.12500
H 0.06200 1.47700 6.92100
H -1.34400 5.18600 1.93800
H -1.65100 5.96300 0.43200
H 0.00700 6.02000 1.08400
H -0.63500 6.74400 -1.40500
H 0.66500 6.97000 -2.70400
H 1.04800 6.46600 -1.03600
H 0.60800 0.50100 -4.89100
H -0.69200 -2.15600 -4.54700
H -1.26700 0.74000 -6.12900
H -2.20400 0.71400 -4.59600
H -1.96700 -0.72000 -5.45300
H 1.35600 -1.75900 -5.96700
H 1.45200 -3.15700 -4.90200
H 2.71400 -0.52200 -4.79800
H 3.48700 -2.12100 -4.52900
H 2.49500 -1.30300 -3.24000
H 0.86700 -6.33300 -0.08400
H 0.40400 -5.64200 -1.68000
H -0.89100 -5.99900 -0.46300
H -1.28300 -3.58100 4.02800
H 0.69800 -4.47800 7.75500
H 0.83300 -2.61900 7.68000
H 2.00000 -3.75400 6.97600
Mg 31.53256 2.83880 2.39533
C 31.70118 1.49738 -0.91894
C 30.85360 -0.32409 3.48078
C 30.93143 4.06665 5.25674
C 31.09727 5.97729 0.94410
N 31.33116 0.91368 1.32108
C 31.47852 0.52486 0.05843
C 31.44936 -1.02275 -0.11885
C 30.62671 -1.41067 1.19064
C 30.98544 -0.22139 2.06405
C 29.11629 -1.42668 0.97883
C 32.88378 -1.65033 -0.10115
C 32.96924 -3.09901 -0.59043
H 34.14667 -3.51817 -1.33561
N 31.45557 1.97428 4.17002
C 31.18148 0.67239 4.42544
C 31.24394 0.52351 5.89534
C 31.38932 1.88352 6.48467
C 31.23628 2.70874 5.31378
C 31.21549 -0.80333 6.58992
C 31.61780 2.36371 7.88301
O 31.48172 3.59186 8.21119
C 31.92274 1.33163 8.89042
N 30.85983 4.71231 3.02385
C 30.74040 5.00207 4.32414
C 30.51992 6.47021 4.53838
C 30.75655 7.16437 3.11996
C 31.00588 5.89195 2.27318
C 29.13878 6.86794 5.07713
C 31.80244 8.30592 3.06148
C 33.18619 7.74720 3.30676
N 31.59150 3.65733 0.38596
C 31.35861 4.98832 0.01056
C 31.40161 5.03553 -1.46252
C 31.64163 3.71716 -1.84481
C 31.71608 2.89382 -0.68513
C 31.17243 6.18688 -2.26646
C 31.82801 2.80836 -2.96427
O 31.95770 2.94696 -4.18142
C 31.75268 1.31537 -2.41552
C 32.91879 0.55978 -2.99225
O 34.08929 0.84216 -2.66430
O 32.46794 -0.52061 -3.64802
C 33.57652 -1.33072 -4.21980
H 30.40420 -1.22400 3.90520
H 30.82607 4.55120 6.22964
H 31.05415 6.93631 0.42461
H 30.92020 -1.36859 -1.00700
H 30.98984 -2.33448 1.64058
H 28.84788 -1.04239 -0.00514
H 28.70582 -0.78860 1.76169
H 28.71025 -2.42220 1.16009
H 33.20483 -1.78415 0.93184
H 33.58096 -1.03547 -0.67143
H 32.06009 -3.39742 -1.11322
H 33.00723 -3.75226 0.28136
H 30.93593 -1.60606 5.90873
H 30.40209 -0.76615 7.31429
H 32.15368 -1.01898 7.10141
H 31.10154 0.61580 8.93224
H 32.14362 1.86770 9.81276
H 32.80117 0.77195 8.56781
H 31.23368 6.87217 5.25629
H 29.84536 7.61834 2.72967
H 29.17839 7.43555 6.00716
H 28.54985 5.95923 5.19837
H 28.52201 7.43450 4.37998
H 31.60872 9.03813 3.84461
H 31.81004 8.83422 2.10802
H 33.24468 7.71046 4.39399
H 33.94437 8.41561 2.89736
H 33.27291 6.72388 2.94101
H 31.93607 6.17288 -3.04404
H 31.22651 7.10029 -1.67454
H 30.16488 5.98301 -2.62858
H 30.79748 0.90801 -2.74531
H 33.38439 -1.42877 -5.28831
H 33.62853 -2.24543 -3.62903
H 34.56092 -0.86149 -4.22993
