79

Mg 10.50393 0.95011 0.80549
C 8.13569 -1.74161 0.96416
C 7.94086 2.94538 -0.23573
C 12.64075 3.22235 0.22383
C 13.02452 -1.45579 0.74216
N 8.35992 0.53953 0.44921
C 7.56071 -0.50555 0.60221
C 6.05033 -0.19066 0.43152
C 6.18035 1.12159 -0.48498
C 7.56463 1.59205 -0.04326
C 6.23246 0.81414 -1.97230
C 5.34851 0.13014 1.79774
C 3.81911 0.14308 1.74763
H 3.08049 -0.34122 2.91055
N 10.26717 2.90691 0.57437
C 9.15273 3.54909 0.16580
C 9.49851 4.97877 0.14084
C 10.95606 5.11360 0.40934
C 11.35722 3.72117 0.39194
C 8.47390 6.06070 -0.04085
C 11.84440 6.30021 0.63075
O 13.12189 6.19822 0.60969
C 11.17570 7.60100 0.77997
N 12.52242 0.89409 0.31061
C 13.23005 2.02799 0.16422
C 14.71032 1.74055 0.08302
C 14.86799 0.19189 0.44956
C 13.37786 -0.18586 0.59864
C 15.36756 2.01252 -1.26993
C 15.83967 -0.16160 1.60868
C 15.28897 0.35340 2.91899
N 10.61152 -1.19611 1.02959
C 11.76494 -2.00609 0.94222
C 11.31959 -3.41070 1.04795
C 9.92455 -3.32074 1.16734
C 9.52658 -1.95741 1.11779
C 12.16019 -4.55734 0.97915
C 8.69716 -4.06966 1.31335
O 8.41874 -5.25398 1.49669
C 7.47298 -3.08772 1.06123
C 6.47340 -3.29856 2.16527
O 6.75859 -3.00734 3.34021
O 5.27868 -3.60214 1.62596
C 4.25146 -3.80961 2.68122
H 7.26219 3.59966 -0.78366
H 13.42961 3.97233 0.13047
H 13.75856 -2.25968 0.82942
H 5.48335 -0.95309 -0.08907
H 5.42611 1.86026 -0.22645
H 6.29260 -0.24717 -2.16245
H 7.11549 1.31603 -2.34567
H 5.38364 1.27779 -2.48304
H 5.53681 1.17936 2.05933
H 5.67928 -0.54420 2.56356
H 3.43290 -0.31503 0.82898
H 3.48252 1.18114 1.69147
H 7.51390 5.65264 -0.38041
H 8.81323 6.68581 -0.87389
H 8.36004 6.68638 0.84697
H 10.58336 7.80658 -0.10847
H 11.96916 8.31177 1.01894
H 10.47362 7.53926 1.61896
H 15.25911 2.33061 0.80673
H 15.25635 -0.39020 -0.39908
H 16.21359 2.72289 -1.20925
H 14.61027 2.38024 -1.94951
H 15.73591 1.12997 -1.79014
H 16.80225 0.33397 1.46038
H 16.03540 -1.22485 1.69915
H 15.60477 1.40093 2.92470
H 15.71858 -0.19294 3.75624
H 14.19286 0.33955 2.91782
H 11.83239 -5.23098 1.75970
H 13.20809 -4.28981 1.09800
H 11.93697 -4.90231 -0.03398
H 7.05747 -3.32697 0.08160
H 3.82306 -4.80352 2.51906
H 3.56440 -2.94612 2.60321
H 4.59495 -3.89195 3.70576
