79

Mg 49.85900 46.63300 42.63200
C  46.74700 47.56400 41.43700
C  49.55900 43.68000 40.67700
C  53.19900 45.92500 43.11100
C  50.27500 49.68600 43.97500
N  48.35700 45.84900 41.07900
C  47.11500 46.31100 40.93300
C  46.22900 45.43900 40.06700
C  47.06700 44.07100 40.18600
C  48.47800 44.57000 40.53700
C  46.45200 43.09400 41.07600
C  46.08700 46.01200 38.62700
C  44.85600 45.61600 37.81000
H  45.06800 44.33400 36.99000
N  51.11500 44.99700 42.11200
C  50.83000 43.87000 41.36600
C  51.92000 42.99500 41.37600
C  52.95700 43.54400 42.10500
C  52.44300 44.94100 42.46300
C  51.86200 41.65700 40.82000
C  54.30500 42.92500 42.42600
O  54.68400 41.86800 41.93600
C  55.21800 43.51700 43.41400
N  51.55600 47.68800 43.26500
C  52.79700 47.16900 43.48800
C  53.72400 48.25900 44.00900
C  52.74300 49.38600 44.41000
C  51.41400 48.88700 43.83300
C  54.68700 47.83100 45.18400
C  53.11800 50.80800 43.91900
C  52.97000 51.96400 44.94200
N  48.81200 48.33700 42.68200
C  49.02500 49.54400 43.37000
C  47.91200 50.40100 43.25100
C  46.98200 49.68300 42.46800
C  47.58900 48.43200 42.18200
C  47.75500 51.74100 43.95300
C  45.65500 49.67600 41.96600
O  44.70200 50.46400 42.16900
C  45.49400 48.36900 41.13500
C  44.15600 47.78100 41.41800
O  43.25100 47.69000 40.56500
O  44.16900 47.05600 42.54400
C  43.00500 46.24000 42.90500
H  49.34900 42.74900 40.14700
H  54.27600 45.76400 43.18300
H  50.41000 50.54600 44.63400
H  45.19000 45.36500 40.38900
H  47.32400 43.57700 39.24900
H  45.52400 43.48600 41.49400
H  47.08600 42.91000 41.94300
H  46.18600 42.14100 40.62000
H  46.90700 45.60200 38.03700
H  46.11600 47.09800 38.53500
H  44.66800 46.48300 37.17500
H  43.91400 45.41700 38.32100
H  52.43600 41.61800 39.89500
H  50.87800 41.22100 40.64500
H  52.30800 40.96600 41.53500
H  56.02000 42.90400 43.82500
H  54.53900 43.94100 44.15500
H  55.73000 44.35600 42.94300
H  54.41400 48.49200 43.19800
H  52.57900 49.33500 45.48600
H  54.46400 46.89400 45.69300
H  54.83200 48.59600 45.94700
H  55.69400 47.69600 44.79100
H  52.67100 50.98400 42.94100
H  54.17800 50.85700 43.66800
H  52.40000 52.79200 44.51900
H  53.94300 52.35300 45.24200
H  52.45100 51.65300 45.84800
H  48.65200 52.28800 43.66400
H  47.70700 51.53200 45.02200
H  46.90700 52.15900 43.41000
H  45.55400 48.66300 40.08700
H  43.45200 45.46400 43.52700
H  42.52900 45.70900 42.08100
H  42.36600 46.91500 43.47500

