79

Mg -3.18200 17.47100 26.75100
C  -2.97100 15.53100 29.77600
C  -3.19800 20.21600 28.69100
C  -3.53900 19.14100 23.98500
C  -3.38900 14.40900 24.94600
N  -2.98600 17.84900 28.95900
C  -2.87400 16.94300 29.96700
C  -2.83000 17.59200 31.35100
C  -2.70100 19.11800 30.96100
C  -3.09200 19.09800 29.49300
C  -3.57000 20.17800 31.73300
C  -1.70300 16.97700 32.35500
C  -1.07300 17.94400 33.45500
H  -1.01700 17.46900 34.87200
N  -3.18700 19.46600 26.41200
C  -3.28800 20.48100 27.30300
C  -3.36000 21.79300 26.57800
C  -3.27700 21.48600 25.19700
C  -3.31900 19.93600 25.16800
C  -3.29800 23.17400 27.08400
C  -3.04500 22.29300 23.91600
O  -2.88900 21.81500 22.77900
C  -3.00400 23.77200 24.01800
N  -3.52600 16.84800 24.79300
C  -3.74800 17.72900 23.77500
C  -3.93100 17.10600 22.42100
C  -3.74800 15.59000 22.76700
C  -3.52600 15.57900 24.27200
C  -5.09200 17.61000 21.58200
C  -2.74000 14.74700 21.84000
C  -1.30900 15.18700 22.08400
N  -3.33800 15.34700 27.20000
C  -3.34000 14.23600 26.34600
C  -3.40100 13.04200 27.17600
C  -3.45400 13.50000 28.51400
C  -3.25900 14.93000 28.44600
C  -3.45400 11.62800 26.77500
C  -3.46000 13.04800 29.85600
O  -3.59800 11.91100 30.29600
C  -3.13500 14.29600 30.74600
C  -1.91300 13.95500 31.48100
O  -0.74300 14.02200 31.06900
O  -2.34000 13.45600 32.70300
C  -1.25400 13.12300 33.58300
H  -3.05900 21.19800 29.14700
H  -3.78200 19.79500 23.14600
H  -3.45000 13.56700 24.25300
H  -3.80100 17.50300 31.83900
H  -1.63600 19.28500 31.12100
H  -2.84400 20.79500 32.26300
H  -4.24300 19.67200 32.42500
H  -4.14900 20.84900 31.09800
H  -0.92700 16.63600 31.67000
H  -2.13900 16.13600 32.89300
H  -1.43500 18.97000 33.38400
H  -0.04700 17.97500 33.08800
H  -2.43000 23.54200 26.53700
H  -3.16600 23.29200 28.15900
H  -4.14400 23.74200 26.69800
H  -3.90300 24.16900 24.49000
H  -3.01500 24.26800 23.04800
H  -2.07400 24.00900 24.53400
H  -3.04100 17.50700 21.93700
H  -4.69300 15.06200 22.63900
H  -5.72900 16.78500 21.26400
H  -4.81400 18.24900 20.74400
H  -5.75700 18.19400 22.21900
H  -3.00800 14.82600 20.78600
H  -2.92000 13.69000 22.03400
H  -0.94000 15.61900 21.15400
H  -0.69100 14.34500 22.39600
H  -1.30400 15.99200 22.81800
H  -2.46700 11.22500 26.54500
H  -4.28000 11.73900 26.07300
H  -3.87300 11.10600 27.63500
H  -3.94400 14.48300 31.45200
H  -1.67400 12.18700 33.95100
H  -1.36200 13.83600 34.40100
H  -0.22200 13.12500 33.23300

