79

Mg 39.85600 10.42300 29.91900
C  42.02500 11.32100 32.51700
C  37.78400 9.04900 32.36500
C  38.09400 9.14200 27.45800
C  42.55700 11.12000 27.69400
N  39.90500 10.29200 32.19100
C  40.80800 10.80100 32.99700
C  40.45400 10.62200 34.45800
C  39.16300 9.71600 34.35400
C  38.93700 9.67600 32.87500
C  39.30300 8.24200 34.86400
C  40.27900 11.98000 35.28600
C  40.01500 11.62000 36.73400
H  40.03400 12.78500 37.63900
N  38.07400 9.42600 29.89500
C  37.35100 8.96800 30.99300
C  36.21300 8.33900 30.49000
C  36.20500 8.41700 29.03800
C  37.51400 8.99100 28.73400
C  35.08600 7.77300 31.37300
C  35.21300 7.92800 28.09000
O  35.37900 8.00600 26.86100
C  33.87700 7.37800 28.48000
N  40.27300 10.15300 27.83100
C  39.35800 9.64000 27.03900
C  39.91100 9.46700 25.58000
C  41.21400 10.38400 25.67300
C  41.31600 10.64000 27.20000
C  40.23500 8.08400 24.89800
C  41.09100 11.63900 24.77300
C  40.43900 12.97100 25.33700
N  41.86700 11.03600 29.97600
C  42.84300 11.28200 29.07300
C  44.05600 11.73600 29.65000
C  43.73500 11.85900 30.98900
C  42.38200 11.41400 31.15200
C  45.37400 11.92900 28.93400
C  44.24600 12.28500 32.28800
O  45.36700 12.72300 32.51400
C  43.16900 12.01300 33.32200
C  43.71100 11.13200 34.38600
O  44.26100 10.06300 34.29100
O  43.43900 11.66600 35.60200
C  43.97300 11.02900 36.81800
H  37.17300 8.61700 33.16000
H  37.50800 8.82700 26.59100
H  43.38000 11.25200 26.98800
H  41.27600 10.15600 35.00100
H  38.25400 10.01500 34.87600
H  39.21500 7.47900 34.09000
H  38.51100 8.06000 35.59000
H  40.19800 8.07900 35.46400
H  39.36700 12.37200 34.83700
H  41.16800 12.61200 35.27700
H  40.82600 10.97300 37.06700
H  39.10900 11.01500 36.76600
H  35.36100 7.76900 32.42700
H  34.86100 6.78000 30.98200
H  34.19200 8.35800 31.15400
H  33.25400 8.07200 29.04300
H  34.05000 6.45800 29.03800
H  33.35200 7.01300 27.59700
H  39.16300 9.93000 24.93700
H  42.08700 9.82200 25.34200
H  40.24400 7.36000 25.71400
H  41.22300 8.13200 24.44000
H  39.43200 7.96600 24.17100
H  40.44200 11.27400 23.97700
H  42.08000 11.86600 24.37700
H  41.18600 13.75700 25.23000
H  40.04300 12.90900 26.35000
H  39.52500 13.26300 24.81800
H  45.29400 12.79900 28.28200
H  45.58100 11.05100 28.32200
H  46.16300 12.16300 29.64900
H  42.77700 12.94400 33.73000
H  45.00600 11.37600 36.79500
H  43.94500 9.93900 36.81700
H  43.44900 11.46700 37.66700

