79

Mg 36.37500 48.86100 25.05000
C  36.43600 46.86800 27.88900
C  35.50400 51.61400 27.12200
C  36.20200 50.68700 22.32100
C  36.80900 45.99900 23.12500
N  35.90000 49.17700 27.26200
C  36.14800 48.23500 28.17500
C  36.03000 48.72300 29.60600
C  35.59100 50.27000 29.29500
C  35.66100 50.41900 27.81600
C  34.15300 50.62800 29.82600
C  37.32500 48.56400 30.41400
C  37.29300 47.92900 31.84200
H  36.04500 48.30100 32.74200
N  35.99500 50.88000 24.81600
C  35.69900 51.85100 25.75000
C  35.78100 53.14400 25.15400
C  35.87900 52.91600 23.73400
C  35.98800 51.43300 23.52900
C  35.60100 54.47100 25.88300
C  35.86300 53.95000 22.68600
O  35.62300 53.56200 21.54100
C  36.28800 55.36200 23.03200
N  36.46000 48.45000 22.97400
C  36.25100 49.32000 22.00800
C  36.54200 48.78500 20.61300
C  37.09100 47.39600 21.02100
C  36.74500 47.26100 22.47800
C  35.26500 48.75700 19.74200
C  38.67600 47.45100 20.79200
C  39.28200 46.34500 20.01500
N  36.51300 46.77500 25.39000
C  36.75800 45.72500 24.47000
C  36.88100 44.46800 25.25200
C  36.74000 44.93500 26.57600
C  36.51800 46.31200 26.59600
C  37.11500 43.03200 24.68900
C  36.78500 44.52900 27.97100
O  36.96000 43.48500 28.51800
C  36.42200 45.71300 28.84800
C  35.02600 45.44300 29.27900
O  34.03800 45.49100 28.60000
O  35.06000 45.07700 30.61300
C  33.70500 44.68800 31.27600
H  35.07200 52.41200 27.73000
H  36.09900 51.27700 21.40800
H  36.97500 45.21900 22.37900
H  35.20500 48.23000 30.12100
H  36.12900 51.12200 29.71000
H  33.92200 49.91600 30.61900
H  33.51300 50.46900 28.95800
H  34.01600 51.63800 30.21400
H  37.86700 49.51000 30.42600
H  37.86700 47.89900 29.74200
H  38.15600 48.34800 32.35900
H  37.43900 46.85100 31.76800
H  34.65800 54.92400 25.57900
H  36.47200 55.08000 25.64100
H  35.63600 54.38600 26.96900
H  36.52400 55.91000 22.12000
H  37.18100 55.35100 23.65700
H  35.46900 55.84700 23.56400
H  37.20800 49.46700 20.08400
H  36.62400 46.63600 20.39600
H  34.92300 49.77900 19.57800
H  34.42100 48.21200 20.16300
H  35.40700 48.30400 18.76000
H  39.09400 47.34100 21.79300
H  39.01700 48.44000 20.48600
H  38.55100 45.89200 19.34500
H  39.67100 45.63000 20.74000
H  40.10400 46.74900 19.42200
H  36.31000 42.37400 25.01800
H  37.96800 42.61000 25.22200
H  37.19200 42.90700 23.60900
H  37.12100 45.69100 29.68400
H  33.28200 43.94300 30.60100
H  33.16800 45.63400 31.34800
H  33.72800 44.28900 32.29000

