79

Mg 41.22500 9.41300 30.02000
C  42.61100 10.32800 33.15300
C  38.51200 8.30500 31.69300
C  40.13600 8.29700 27.05100
C  44.08900 10.73800 28.42200
N  40.67900 9.26800 32.13400
C  41.33800 9.74000 33.22800
C  40.50400 9.60800 34.49300
C  39.39200 8.57300 34.04500
C  39.54200 8.74000 32.55700
C  39.59200 7.07300 34.62000
C  39.89200 10.95200 34.98500
C  39.42600 10.92000 36.49400
H  40.52600 11.53000 37.43700
N  39.50600 8.46300 29.42400
C  38.47900 8.08200 30.24900
C  37.38300 7.54800 29.49400
C  37.91300 7.48300 28.09500
C  39.26900 8.07600 28.15800
C  36.09200 7.28400 30.09000
C  37.20400 6.99100 26.85300
O  37.73400 7.05100 25.75400
C  35.80100 6.39400 26.94400
N  41.90400 9.59500 27.97600
C  41.35600 8.90800 26.94800
C  42.22900 9.11200 25.68700
C  43.21500 10.22900 26.11100
C  43.04700 10.23900 27.63500
C  42.99400 7.95700 25.04100
C  42.69700 11.59200 25.54600
C  41.30300 12.18600 26.10000
N  43.04500 10.33800 30.65700
C  44.07900 10.85700 29.88800
C  45.16300 11.41100 30.86100
C  44.58400 11.23900 32.12600
C  43.34500 10.60100 31.93500
C  46.41300 12.04800 30.47000
C  44.84100 11.41400 33.52100
O  45.72800 11.97900 34.19500
C  43.59800 10.80600 34.20000
C  43.98800 9.74500 35.12900
O  43.73100 8.56200 35.03100
O  44.77300 10.32300 36.13400
C  45.20700 9.37800 37.23500
H  37.71200 7.82900 32.26500
H  39.75000 8.08200 26.05200
H  45.05500 11.05500 28.02400
H  41.21000 9.17400 35.20100
H  38.43200 8.97700 34.36600
H  40.52400 6.98600 35.17900
H  39.51100 6.30300 33.85300
H  38.90900 6.73100 35.39700
H  39.01600 11.18900 34.38200
H  40.48700 11.84800 34.81100
H  39.20800 9.89700 36.80100
H  38.44600 11.38200 36.61700
H  35.97900 6.20500 29.97800
H  35.35500 7.76200 29.44500
H  36.00500 7.55900 31.14100
H  35.75300 5.78100 27.84400
H  35.72700 5.63100 26.16900
H  35.09700 7.22200 26.85200
H  41.57400 9.43800 24.87900
H  44.26200 10.13800 25.82300
H  42.89800 7.98100 23.95600
H  42.57600 7.01500 25.39500
H  44.06100 8.00400 25.25800
H  42.67900 11.60000 24.45600
H  43.50000 12.31000 25.71700
H  41.17100 12.04400 27.17200
H  40.49700 11.62500 25.62900
H  41.27100 13.23400 25.79900
H  47.07600 11.19900 30.30700
H  46.73900 12.75300 31.23400
H  46.36700 12.52000 29.48800
H  43.11500 11.51800 34.87000
H  45.96100 9.73700 37.93500
H  45.52000 8.37900 36.93300
H  44.32800 9.25600 37.86700

