79

Mg 40.45900 9.51000 29.38400
C  42.31100 10.80200 32.07700
C  38.26400 8.16100 31.67600
C  38.92200 8.07600 26.83000
C  43.29700 10.32600 27.36800
N  40.36300 9.45000 31.62900
C  41.10500 10.20200 32.48400
C  40.50600 10.25900 33.93600
C  39.48300 9.08600 33.74100
C  39.28100 8.92700 32.21600
C  39.75900 7.73300 34.39900
C  39.79700 11.62100 34.30400
C  39.60400 11.70300 35.86700
H  40.29000 12.90400 36.61100
N  38.73800 8.43400 29.23600
C  37.94500 8.00300 30.31800
C  36.72400 7.33200 29.76200
C  36.86600 7.47900 28.31500
C  38.23100 8.02000 28.04800
C  35.63900 6.71400 30.63800
C  35.94000 7.15600 27.20100
O  36.09900 7.51500 26.03500
C  34.68800 6.40100 27.55100
N  40.99400 9.23600 27.42500
C  40.24000 8.54300 26.52200
C  40.96000 8.49500 25.16500
C  42.27800 9.18500 25.38000
C  42.15100 9.62800 26.81400
C  41.02700 7.11300 24.38900
C  42.70200 10.22800 24.34600
C  42.24900 11.70800 24.62800
N  42.35800 10.42300 29.59200
C  43.40100 10.68900 28.72100
C  44.48000 11.37400 29.40600
C  44.04100 11.46100 30.72400
C  42.77000 10.81100 30.76000
C  45.81100 11.72000 28.93200
C  44.47800 11.93300 31.97600
O  45.49300 12.50500 32.25400
C  43.35800 11.56900 32.89700
C  43.74400 10.79300 34.11000
O  43.67000 9.55600 34.27200
O  44.12100 11.70500 35.09900
C  44.31900 11.19800 36.45100
H  37.56700 7.68600 32.37000
H  38.49400 7.72500 25.88800
H  44.09200 10.62900 26.68400
H  41.24100 9.98400 34.69200
H  38.49800 9.35000 34.12600
H  39.03700 7.62100 35.20800
H  40.78000 7.72300 34.78000
H  39.63300 6.86400 33.75300
H  38.77700 11.60400 33.92000
H  40.33600 12.53000 34.03500
H  40.01200 10.81500 36.35000
H  38.52200 11.82400 35.91500
H  34.75800 7.33900 30.78600
H  36.00200 6.37000 31.60600
H  35.42400 5.77600 30.12400
H  34.99800 5.36500 27.69100
H  34.00700 6.43400 26.70100
H  34.13800 6.85800 28.37300
H  40.33500 9.11000 24.51800
H  43.04200 8.41300 25.47100
H  41.98600 6.59900 24.32700
H  40.53100 7.09800 23.41800
H  40.29800 6.50900 24.93000
H  42.25600 9.98200 23.38200
H  43.77300 10.23000 24.14500
H  41.66400 11.81800 25.54100
H  41.73300 12.12500 23.76300
H  43.17500 12.26000 24.79100
H  46.05500 11.27200 27.96900
H  46.46000 11.54800 29.79100
H  45.95000 12.80000 28.87800
H  42.72800 12.37000 33.28300
H  45.26500 11.62700 36.78000
H  44.43600 10.11800 36.54100
H  43.47900 11.50500 37.07400

