79

Mg 35.66500 49.88200 25.47700
C  35.40100 48.12700 28.51900
C  34.77300 52.75100 27.15100
C  35.73400 51.48800 22.53700
C  36.45600 46.95800 23.79800
N  35.07900 50.26800 27.60800
C  35.13900 49.46600 28.64800
C  34.94400 50.23900 29.99600
C  34.56800 51.65700 29.55400
C  34.82200 51.58300 28.01500
C  33.09700 51.95600 29.89300
C  36.08000 50.09000 30.92500
C  35.91100 49.84900 32.41800
H  34.42700 49.86000 32.95600
N  35.26900 51.81100 24.96400
C  34.99300 52.85000 25.75900
C  34.77200 54.08500 24.97800
C  35.03300 53.78700 23.63400
C  35.29900 52.25100 23.64100
C  34.39600 55.43000 25.51900
C  34.95600 54.67000 22.34200
O  35.08000 54.19500 21.23500
C  34.77000 56.14100 22.53300
N  35.97300 49.29400 23.40100
C  36.02700 50.16600 22.43100
C  36.40600 49.49100 21.05900
C  36.94700 48.08700 21.59900
C  36.43000 48.06800 22.98300
C  35.15300 49.43900 20.13000
C  38.52600 48.01000 21.54300
C  39.09000 46.68400 21.05000
N  35.97200 47.91300 26.02700
C  36.20300 46.81600 25.22200
C  36.14900 45.62600 26.09100
C  35.87300 46.08400 27.37500
C  35.74400 47.50300 27.29400
C  36.49800 44.19200 25.67000
C  35.74400 45.70000 28.77700
O  35.91200 44.65700 29.36200
C  35.45500 47.00700 29.55600
C  34.15400 46.74100 30.27200
O  33.03000 46.95200 29.87200
O  34.46300 46.08700 31.44600
C  33.25700 45.59400 32.14600
H  34.45400 53.54900 27.82500
H  35.90800 52.00500 21.59100
H  36.75600 46.05000 23.27000
H  34.08600 49.77400 30.48100
H  35.13200 52.42600 30.08300
H  32.57100 51.00200 29.90600
H  32.61100 52.60600 29.16600
H  33.04300 52.32800 30.91700
H  36.73800 50.95500 30.84200
H  36.73500 49.28300 30.59800
H  36.46000 50.65700 32.90200
H  36.33800 48.86700 32.62100
H  34.09600 55.41800 26.56700
H  33.51200 55.78500 24.99000
H  35.22600 56.13600 25.54300
H  35.64900 56.49800 23.06900
H  33.81200 56.22300 23.04500
H  34.69900 56.57500 21.53600
H  37.24500 49.91900 20.51000
H  36.46600 47.22100 21.14400
H  35.26200 50.05800 19.23900
H  34.32100 49.92900 20.63500
H  34.79200 48.43900 19.89200
H  38.87000 48.12000 22.57200
H  39.00600 48.91500 21.17100
H  40.16900 46.82600 20.98300
H  38.56900 46.40000 20.13600
H  38.88300 46.01600 21.88600
H  35.64000 43.54200 25.84200
H  37.27300 43.73900 26.28700
H  36.84200 44.30100 24.64100
H  36.34600 47.08800 30.17900
H  32.40000 45.19400 31.60500
H  32.83500 46.51100 32.55600
H  33.53600 44.86900 32.91100

