79

Mg 30.12200 58.41600 40.07000
C  27.30300 56.70000 39.02800
C  31.96100 55.79600 38.76200
C  32.91500 60.27600 40.26700
C  28.20000 61.13400 40.81000
N  29.63800 56.33800 39.15100
C  28.44200 55.89200 38.79300
C  28.44800 54.49800 38.22400
C  29.94100 54.09500 38.55600
C  30.53400 55.50600 38.73500
C  30.27000 53.23400 39.78400
C  27.90000 54.23200 36.84400
C  28.23700 55.27500 35.79500
H  27.13400 55.73300 34.77500
N  32.16300 58.06600 39.64600
C  32.68400 56.89600 39.20100
C  34.16800 56.95500 39.15800
C  34.46400 58.20000 39.69100
C  33.19700 58.92800 39.92500
C  35.09900 55.81500 38.60600
C  35.83300 58.65400 40.01400
O  36.77900 57.90800 39.71100
C  36.09800 59.89700 40.85100
N  30.53300 60.47600 40.29800
C  31.74600 60.98800 40.46600
C  31.64800 62.49400 40.80900
C  30.16700 62.62500 41.39800
C  29.57800 61.30600 40.81300
C  32.64900 63.06100 41.88200
C  29.43400 63.95300 40.91900
C  28.67800 64.67900 42.07400
N  28.18800 58.91800 39.86300
C  27.45000 59.98600 40.35700
C  26.05000 59.80600 40.32400
C  25.92900 58.54100 39.69500
C  27.24800 58.02600 39.51400
C  24.95100 60.76100 40.61300
C  24.96200 57.53800 39.20300
O  23.76000 57.53600 39.14900
C  25.85100 56.35500 38.70700
C  25.38200 55.18800 39.46700
O  25.75500 54.84400 40.54100
O  24.56600 54.45200 38.72600
C  23.86400 53.38400 39.41800
H  32.49900 54.89200 38.46700
H  33.84400 60.81600 40.46200
H  27.58900 61.99400 41.09400
H  27.82100 53.90000 38.88500
H  30.24400 53.59100 37.63800
H  30.70000 53.79600 40.61400
H  30.96900 52.46700 39.45200
H  29.40100 52.71000 40.18200
H  26.83000 54.03600 36.90900
H  28.33600 53.35100 36.37300
H  28.98500 54.84700 35.12800
H  28.65900 56.15400 36.28100
H  35.54100 56.16300 37.67300
H  34.48800 54.95100 38.34600
H  35.77100 55.57400 39.43000
H  35.88100 60.83100 40.33200
H  37.16200 59.96500 41.07900
H  35.55100 59.78300 41.78700
H  31.78800 63.09000 39.90600
H  30.25900 62.42700 42.46600
H  32.98700 62.20400 42.46500
H  32.25000 63.75000 42.62500
H  33.39600 63.63100 41.32900
H  28.73800 63.75600 40.10300
H  30.21800 64.64500 40.61000
H  27.69200 65.09900 41.87700
H  29.30000 65.48500 42.46200
H  28.53600 63.88400 42.80600
H  24.10200 60.26600 41.08300
H  24.68400 61.28700 39.69600
H  25.22800 61.46200 41.40000
H  25.76400 56.01600 37.67500
H  24.65900 52.64700 39.52900
H  23.01800 52.95800 38.88000
H  23.44100 53.74800 40.35500

