79

Mg 23.82600 -5.92600 45.39900
C  26.37500 -3.92600 43.98500
C  21.61600 -4.46000 43.39400
C  21.84300 -8.46500 46.20900
C  26.57400 -7.76100 47.15200
N  24.04600 -4.40700 44.00000
C  25.09700 -3.67700 43.49600
C  24.76700 -2.68000 42.52000
C  23.21400 -2.62400 42.59800
C  22.88500 -3.90700 43.38300
C  22.65500 -1.37100 43.21800
C  25.41800 -3.12000 41.19100
C  26.19500 -2.00700 40.43100
H  25.87500 -1.79500 38.97400
N  21.94900 -6.42000 44.90200
C  21.19400 -5.61000 44.02900
C  19.88400 -6.30300 43.92200
C  19.87900 -7.39100 44.83400
C  21.28300 -7.45400 45.38100
C  18.79200 -5.89000 42.99800
C  18.65700 -8.39400 45.01300
O  17.59300 -8.35700 44.39700
C  18.67300 -9.54200 46.06300
N  24.18200 -7.81700 46.49800
C  23.13000 -8.65700 46.75200
C  23.62600 -9.99900 47.39000
C  24.99900 -9.52200 48.11800
C  25.30200 -8.23700 47.20400
C  22.78000 -10.65000 48.49700
C  26.09400 -10.51600 48.20300
C  26.97900 -10.67600 49.51000
N  26.04000 -5.77000 45.67300
C  26.90600 -6.55700 46.39400
C  28.23200 -5.90400 46.19400
C  28.08900 -4.97300 45.24400
C  26.70700 -4.92000 44.93900
C  29.45900 -6.35500 46.89200
C  28.78900 -4.04900 44.44000
O  30.00400 -3.80500 44.48500
C  27.75500 -3.26000 43.61400
C  27.87700 -1.78300 43.93300
O  27.39500 -1.24900 44.88700
O  28.63200 -1.10500 42.97300
C  28.80600 0.34000 43.22800
H  20.85500 -3.92100 42.82700
H  21.19900 -9.30900 46.46500
H  27.43700 -8.28100 47.57300
H  25.12100 -1.71700 42.88800
H  22.90500 -2.80100 41.56800
H  23.32100 -0.69000 43.74900
H  22.01400 -1.69600 44.03700
H  22.06000 -0.83000 42.48200
H  24.66000 -3.44700 40.47900
H  26.10000 -3.96300 41.30300
H  27.23200 -2.34300 40.42900
H  26.39800 -1.10100 41.00200
H  19.20400 -5.12400 42.34100
H  17.85700 -5.55300 43.44500
H  18.60900 -6.68700 42.27700
H  19.37400 -10.28200 45.67700
H  17.67000 -9.96700 46.11300
H  19.03000 -9.11500 47.00000
H  23.79800 -10.70700 46.58000
H  24.86900 -9.20600 49.15300
H  22.17000 -11.39800 47.99000
H  22.07700 -9.98600 49.00000
H  23.38600 -11.07900 49.29500
H  26.81500 -10.40200 47.39400
H  25.63500 -11.48300 48.00000
H  27.06000 -9.78100 50.12700
H  27.92800 -11.13900 49.23700
H  26.59500 -11.47700 50.14200
H  29.44500 -7.40700 47.17600
H  29.54800 -5.83800 47.84800
H  30.33300 -6.24000 46.25100
H  28.01600 -3.48700 42.58100
H  29.09400 0.91900 42.35200
H  29.54100 0.46000 44.02400
H  27.89600 0.75100 43.66500

