79

Mg 28.70500 58.64300 41.58800
C  26.01900 56.49700 40.23900
C  30.88200 56.64400 39.80500
C  30.96000 61.08900 42.00800
C  26.17300 60.90800 42.66100
N  28.44400 56.77400 40.12900
C  27.28100 56.07500 39.82700
C  27.63900 54.98400 38.75200
C  29.19500 54.89900 38.77700
C  29.55600 56.21000 39.61000
C  29.74900 53.55200 39.35700
C  26.99500 55.31700 37.40200
C  26.50000 54.13900 36.51900
H  27.30500 53.86600 35.24900
N  30.70500 58.70000 41.15400
C  31.41200 57.81000 40.35000
C  32.80300 58.33500 40.14600
C  32.81200 59.45800 41.05400
C  31.49300 59.83700 41.43800
C  33.90700 57.66300 39.25500
C  34.11400 60.15200 41.43900
O  35.20600 59.60000 41.22100
C  34.14200 61.47100 42.25100
N  28.58200 60.67900 42.24300
C  29.65800 61.50700 42.29900
C  29.37000 62.90200 42.85500
C  27.83300 62.77600 43.20400
C  27.42700 61.40200 42.60800
C  30.15500 63.26200 44.13100
C  27.05000 64.04900 42.66000
C  26.38600 64.99700 43.72300
N  26.56200 58.70000 41.51600
C  25.73200 59.63900 42.06100
C  24.42400 59.17500 41.96700
C  24.43500 57.95600 41.28700
C  25.78700 57.73100 40.95300
C  23.23000 59.94500 42.44900
C  23.64500 56.80900 40.73200
O  22.43000 56.64000 40.76400
C  24.63900 55.91500 40.01200
C  24.46200 54.55500 40.50400
O  24.57800 54.19700 41.66200
O  24.38400 53.77200 39.42600
C  24.04600 52.36000 39.59500
H  31.49500 56.00500 39.16700
H  31.68300 61.84900 42.31200
H  25.43900 61.63200 43.02000
H  27.21200 54.03600 39.08000
H  29.60600 54.98700 37.77100
H  30.09600 52.84300 38.60500
H  28.98200 52.96700 39.86500
H  30.58400 53.81700 40.00400
H  27.67800 55.84600 36.73700
H  26.17100 56.02100 37.51900
H  25.46100 54.30400 36.23500
H  26.67500 53.22400 37.08400
H  34.41400 56.99400 39.95000
H  34.69700 58.35600 38.96400
H  33.42400 57.08700 38.46600
H  33.82400 62.30400 41.62300
H  35.12700 61.61800 42.69500
H  33.46900 61.36800 43.10100
H  29.76600 63.58800 42.10600
H  27.71600 62.51300 44.25500
H  29.55000 63.63500 44.95800
H  30.75800 64.13500 43.88100
H  30.80200 62.41900 44.37200
H  26.23200 63.81100 41.98100
H  27.63400 64.72000 42.02900
H  26.75100 66.01700 43.60400
H  26.66700 64.71900 44.73900
H  25.30300 64.98100 43.60100
H  22.95900 60.76600 41.78400
H  23.56200 60.54500 43.29600
H  22.42400 59.27400 42.74500
H  24.30000 55.88500 38.97600
H  24.19300 52.07200 40.63600
H  24.57300 51.67300 38.93200
H  22.99700 52.29000 39.30800

