79

Mg 43.09800 4.46600 47.89100
C  40.97100 7.21300 48.08100
C  40.15600 2.50100 47.29900
C  44.97300 2.05400 46.86500
C  45.91500 6.71000 47.98800
N  40.82200 4.87200 47.67000
C  40.26600 6.03500 48.02100
C  38.71100 5.90300 48.00100
C  38.47000 4.39100 47.89400
C  39.90100 3.85500 47.61100
C  37.66500 3.70500 49.08500
C  37.93200 6.72700 46.89600
C  38.62800 7.16300 45.58000
H  38.25100 6.50400 44.20300
N  42.61200 2.48800 47.35500
C  41.36200 1.85700 47.24100
C  41.66700 0.49600 46.88200
C  43.03600 0.39100 46.46400
C  43.61700 1.68000 46.85400
C  40.53300 -0.56300 46.65700
C  43.79300 -0.72900 45.68400
O  43.07100 -1.60100 45.29200
C  45.27400 -0.73900 45.20600
N  45.16500 4.42300 47.39700
C  45.67600 3.23200 47.20300
C  47.22300 3.29200 47.25200
C  47.54200 4.81000 47.41000
C  46.13700 5.33400 47.70000
C  47.90100 2.41900 48.31800
C  48.26900 5.50600 46.22800
C  49.76900 5.24600 46.19800
N  43.46400 6.51700 47.98400
C  44.65500 7.34000 48.00600
C  44.29800 8.63700 48.23300
C  42.83700 8.74500 48.20000
C  42.37200 7.36200 48.07800
C  45.20100 9.83400 48.44100
C  41.72000 9.55800 48.26900
O  41.60000 10.74800 48.37300
C  40.43700 8.61200 48.19500
C  39.55800 8.80700 49.32800
O  39.64500 8.27500 50.38400
O  38.54100 9.74000 49.09500
C  37.40000 9.99000 49.97100
H  39.32400 1.84600 47.03300
H  45.64700 1.23200 46.61400
H  46.78900 7.29700 48.27800
H  38.19700 6.19500 48.91700
H  37.92200 4.23200 46.96500
H  36.85500 4.36400 49.39600
H  38.43600 3.64200 49.85200
H  37.34300 2.68100 48.89200
H  37.47700 7.57300 47.41200
H  37.11100 6.12700 46.50400
H  39.70200 7.06100 45.73600
H  38.30300 8.20400 45.55900
H  40.11300 -0.57000 45.65100
H  39.63800 -0.45300 47.26900
H  41.04200 -1.51300 46.81400
H  45.93000 -0.87100 46.06600
H  45.48400 0.24200 44.77900
H  45.54500 -1.52600 44.50100
H  47.68700 3.05200 46.29500
H  48.16800 5.00100 48.28100
H  48.43300 1.59300 47.84500
H  47.12200 2.02400 48.97000
H  48.70600 2.97000 48.80400
H  48.10000 6.58200 46.27300
H  47.88200 5.10000 45.29300
H  50.37100 6.14500 46.06400
H  50.10300 4.55100 45.42800
H  50.05700 4.71800 47.10700
H  44.69200 10.50100 47.74500
H  46.25900 9.80500 48.17700
H  45.13600 10.11800 49.49100
H  39.89200 8.93400 47.30800
H  37.57800 9.47100 50.91300
H  36.65700 9.38400 49.45100
H  37.10600 11.03400 50.08000

