79

Mg 45.66600 3.67400 47.07800
C  43.56200 6.71000 46.86500
C  42.67200 1.90700 46.75600
C  47.40800 1.02700 46.36600
C  48.33500 5.77600 46.66600
N  43.38900 4.23700 46.73700
C  42.81600 5.50200 46.81800
C  41.27700 5.40300 46.45700
C  40.98900 3.87300 46.61100
C  42.43400 3.28400 46.74000
C  40.00800 3.49800 47.75700
C  40.84000 6.03300 45.09100
C  41.88900 6.02400 43.94600
H  41.50500 6.09600 42.49200
N  45.15600 1.63900 46.84800
C  43.89200 1.13800 46.77000
C  44.04800 -0.26300 46.45500
C  45.43100 -0.62300 46.37100
C  46.06800 0.71200 46.50400
C  42.81700 -1.17000 46.36000
C  45.94500 -2.00300 46.07800
O  45.15700 -2.87900 45.86800
C  47.39000 -2.38600 46.03100
N  47.57900 3.42100 46.70900
C  48.11400 2.23300 46.51100
C  49.66500 2.27100 46.34900
C  49.94000 3.82300 46.25500
C  48.51700 4.43100 46.60300
C  50.38500 1.52500 47.45700
C  50.49200 4.27600 44.87700
C  52.02000 4.60500 44.79400
N  45.96600 5.84500 46.87000
C  47.12800 6.54200 46.70800
C  46.91400 7.96600 46.72200
C  45.50000 8.03500 46.82900
C  44.97200 6.74800 46.88900
C  47.97500 9.03800 46.52400
C  44.38800 9.01400 46.84900
O  44.36900 10.26000 46.81500
C  43.05200 8.12900 46.73000
C  42.20400 8.51000 47.84300
O  42.27800 8.00700 48.93800
O  41.19400 9.36400 47.46800
C  40.01700 9.59000 48.27000
H  41.85600 1.18100 46.75200
H  48.07700 0.19300 46.14300
H  49.21600 6.41900 46.60500
H  40.78000 5.95500 47.25500
H  40.54400 3.44600 45.71200
H  39.35800 4.34800 47.96500
H  40.47900 3.20400 48.69500
H  39.46800 2.57600 47.54300
H  40.47000 7.04100 45.28000
H  40.19600 5.30900 44.59200
H  42.58000 5.18300 44.00700
H  42.43100 6.96100 44.07000
H  42.71300 -1.47300 45.31800
H  41.87800 -0.78400 46.75800
H  43.01500 -2.11500 46.86500
H  47.91400 -1.97600 46.89500
H  47.79300 -1.95000 45.11700
H  47.45600 -3.47400 46.03700
H  49.79900 1.76800 45.39200
H  50.67300 4.05300 47.02900
H  49.87900 1.65700 48.41400
H  51.42000 1.85500 47.55100
H  50.45800 0.48200 47.15000
H  49.98000 5.22600 44.72400
H  50.21500 3.53900 44.12400
H  52.06000 5.65400 44.50100
H  52.61600 4.07700 44.04900
H  52.42800 4.39300 45.78200
H  48.46900 9.05900 47.49500
H  47.45500 9.98600 46.38200
H  48.70300 8.89900 45.72500
H  42.44500 8.16600 45.82600
H  39.65400 10.61200 48.16400
H  40.16800 9.56400 49.34900
H  39.30700 8.85900 47.88400

