79

Mg -2.52400 17.12600 27.79000
C  -2.93400 15.02800 30.55800
C  -3.14300 19.95500 30.01100
C  -2.35400 19.15800 25.23800
C  -2.63600 14.38400 25.60900
N  -2.97200 17.41200 30.02300
C  -3.00500 16.38700 30.90000
C  -3.27700 16.93300 32.30800
C  -3.30700 18.52900 32.13800
C  -3.17300 18.66900 30.69300
C  -4.38300 19.31000 32.88800
C  -2.24500 16.53400 33.44200
C  -2.21300 17.25900 34.79800
H  -1.92600 16.40700 36.04600
N  -2.64400 19.26000 27.59700
C  -2.88100 20.20600 28.59900
C  -2.83200 21.56900 28.05100
C  -2.57000 21.43200 26.65400
C  -2.53500 19.92200 26.40200
C  -2.86700 22.84200 28.88500
C  -2.29300 22.46100 25.62300
O  -2.23000 22.16900 24.44100
C  -1.94400 23.84700 26.04400
N  -2.57400 16.85400 25.71400
C  -2.36200 17.88500 24.86900
C  -2.23800 17.35900 23.41100
C  -2.37800 15.79500 23.57300
C  -2.56400 15.66400 25.04400
C  -3.33800 17.97700 22.40300
C  -1.19400 15.06000 22.90600
C  0.22400 14.95000 23.55600
N  -2.59700 15.19500 27.94300
C  -2.69700 14.17800 26.99000
C  -2.85300 12.83700 27.63300
C  -2.88600 13.18200 29.00900
C  -2.78600 14.67200 29.16600
C  -3.09900 11.53200 27.05700
C  -3.09400 12.58200 30.35800
O  -3.27800 11.43700 30.70500
C  -3.13200 13.75600 31.43100
C  -2.00200 13.44300 32.34100
O  -0.85700 13.75900 32.15500
O  -2.46300 12.70100 33.38600
C  -1.45300 12.26800 34.35000
H  -3.14900 20.73200 30.77800
H  -2.21300 19.79700 24.36300
H  -2.61600 13.54000 24.91700
H  -4.24500 16.60500 32.68600
H  -2.36600 18.97500 32.46200
H  -5.19400 19.73500 32.29700
H  -3.87400 20.07900 33.46800
H  -4.85200 18.65200 33.62000
H  -1.22900 16.54400 33.04800
H  -2.51900 15.52500 33.75100
H  -3.16900 17.75400 34.97100
H  -1.50800 18.06400 34.58700
H  -1.89600 23.29900 29.07700
H  -3.33100 22.73700 29.86600
H  -3.45800 23.53800 28.28900
H  -1.51100 24.40700 25.21500
H  -1.10500 23.85400 26.74100
H  -2.78900 24.36100 26.50100
H  -1.34500 17.69300 22.88200
H  -3.35500 15.45900 23.22600
H  -3.89200 18.68300 23.02100
H  -3.92100 17.11500 22.07800
H  -2.87200 18.36800 21.49900
H  -1.03100 15.59400 21.96900
H  -1.52700 14.03600 22.73800
H  0.68200 15.92100 23.74300
H  0.88500 14.26100 23.02900
H  -0.02100 14.40600 24.46900
H  -3.70000 11.73500 26.17000
H  -3.55700 11.02400 27.90500
H  -2.12000 11.08000 26.89500
H  -4.09500 13.77800 31.94100
H  -0.63200 11.69000 33.92600
H  -1.89300 11.55000 35.04200
H  -1.04500 13.09800 34.92700

