79

Mg 8.79800 4.67000 28.06400
C  10.03800 3.08600 30.84800
C  6.96700 6.72000 30.24700
C  7.47600 6.12000 25.39600
C  10.28700 2.22700 26.06000
N  8.52900 4.87100 30.32000
C  9.20400 4.11600 31.25700
C  8.96300 4.62500 32.68500
C  7.75600 5.68000 32.42800
C  7.70700 5.75700 30.89800
C  6.44500 5.30500 33.20100
C  10.25300 5.18800 33.36500
C  10.61600 4.59000 34.75700
H  11.01400 5.63600 35.86400
N  7.51300 6.36700 27.89200
C  6.81700 6.96600 28.88000
C  6.07300 8.04000 28.25200
C  6.17200 7.88500 26.84700
C  7.07800 6.74600 26.63600
C  5.29500 9.01500 29.04700
C  5.58700 8.72500 25.71600
O  5.72500 8.46300 24.50800
C  4.77300 9.84900 25.96900
N  8.74000 4.09700 25.99100
C  8.26700 4.97200 25.08900
C  8.53700 4.47700 23.65900
C  9.46400 3.20600 23.85400
C  9.52600 3.17800 25.40000
C  7.26000 4.12200 22.91500
C  10.91000 3.43100 23.25700
C  11.18000 2.90300 21.81000
N  9.84700 2.98300 28.32900
C  10.41500 2.05100 27.43100
C  11.14600 1.06300 28.13500
C  11.07500 1.46500 29.48800
C  10.21400 2.57400 29.54200
C  11.89200 -0.06000 27.54400
C  11.45300 1.11600 30.85400
O  12.04400 0.12300 31.32700
C  10.93100 2.24100 31.72600
C  10.19100 1.54100 32.80300
O  9.02100 1.19800 32.71900
O  10.99400 1.49100 33.80700
C  10.50500 0.70700 35.00400
H  6.42300 7.34100 30.96200
H  7.11400 6.61000 24.49000
H  10.61800 1.45900 25.35800
H  8.69600 3.77900 33.31800
H  8.01900 6.71100 32.66000
H  6.55700 4.68600 34.09100
H  5.82000 4.77800 32.48000
H  5.91400 6.21200 33.48900
H  10.26900 6.27500 33.44600
H  11.03700 4.90500 32.66200
H  11.53600 4.03600 34.57000
H  9.87200 3.94300 35.22100
H  5.75700 9.39900 29.95700
H  4.50500 8.39400 29.47000
H  4.80600 9.83800 28.52600
H  4.01000 9.73000 26.73800
H  4.34300 10.30800 25.07900
H  5.48100 10.53100 26.44000
H  9.00500 5.30900 23.13300
H  9.01900 2.28800 23.47100
H  6.36000 4.57100 23.33300
H  7.11000 3.04200 22.91400
H  7.25400 4.49900 21.89300
H  11.68900 3.12800 23.95700
H  11.09500 4.50200 23.17800
H  11.77200 1.99000 21.87100
H  11.72700 3.70900 21.32100
H  10.32800 2.74600 21.14900
H  11.47000 -0.29100 26.56600
H  11.64100 -0.93500 28.14400
H  12.97700 0.03200 27.59400
H  11.74700 2.84400 32.12700
H  10.08400 1.42200 35.71200
H  11.28400 0.24700 35.61100
H  9.82600 -0.12900 34.83800

