79

Mg 0.56000 43.70400 26.40200
C  2.46500 43.08800 29.46800
C  -2.23900 43.36100 28.29400
C  -1.03400 43.24700 23.54500
C  3.64800 43.50100 24.75700
N  0.24600 43.14000 28.62100
C  1.09000 43.10700 29.66700
C  0.30300 42.91300 30.99100
C  -1.17500 42.74800 30.42100
C  -1.03200 43.20300 29.03700
C  -1.65100 41.27300 30.45500
C  0.47300 44.02700 31.98500
C  0.54700 43.79500 33.50000
H  0.24600 42.39200 34.04600
N  -1.40700 43.46000 25.98300
C  -2.42200 43.39200 26.89400
C  -3.72300 43.40900 26.13300
C  -3.40600 43.41500 24.80300
C  -1.87000 43.26600 24.68400
C  -5.05000 43.46900 26.91300
C  -4.34000 43.43700 23.58800
O  -3.85500 43.31700 22.45500
C  -5.78200 43.50700 23.74700
N  1.19800 43.44700 24.45300
C  0.34700 43.26600 23.38500
C  1.13500 43.20900 21.99400
C  2.56000 43.45000 22.42500
C  2.50200 43.48700 23.99200
C  0.83800 41.95500 21.04100
C  3.32800 44.82000 22.04500
C  4.19900 44.77600 20.78800
N  2.62600 43.49400 26.94000
C  3.77000 43.42700 26.12800
C  4.93100 43.33500 26.95100
C  4.43900 43.15000 28.26100
C  3.06400 43.19500 28.18700
C  6.39000 43.27800 26.59200
C  4.86600 42.93800 29.64600
O  5.98500 42.86300 30.06200
C  3.58300 42.98500 30.51400
C  3.58300 41.68700 31.20300
O  3.53600 40.49400 30.81400
O  3.78300 42.01400 32.55700
C  4.21000 40.96100 33.49700
H  -3.14800 43.26700 28.89100
H  -1.59400 43.10700 22.61800
H  4.50400 43.38300 24.08900
H  0.45700 41.95200 31.48100
H  -1.90300 43.31200 31.00400
H  -0.86500 40.64100 30.86800
H  -2.03300 40.89400 29.50700
H  -2.45800 41.04900 31.15300
H  -0.29800 44.78200 31.82900
H  1.42400 44.52300 31.79400
H  -0.02800 44.57300 34.00200
H  1.55300 44.01200 33.85700
H  -5.81500 44.12500 26.49800
H  -4.91200 43.69100 27.97100
H  -5.31800 42.41700 26.81400
H  -6.28400 43.84700 22.84200
H  -5.99400 44.25500 24.51200
H  -6.10000 42.50900 24.04800
H  0.89300 44.06300 21.36200
H  3.22900 42.61400 22.22000
H  0.49600 42.30500 20.06700
H  0.03800 41.32000 21.42100
H  1.73000 41.34700 20.89000
H  3.78000 45.29400 22.91600
H  2.53500 45.55700 21.91200
H  5.14600 45.30200 20.91200
H  3.54200 45.36800 20.15100
H  4.40000 43.79100 20.36700
H  6.54500 43.89100 25.70500
H  6.62400 42.24000 26.35700
H  6.94800 43.75200 27.40000
H  3.53500 43.86500 31.15500
H  3.53000 40.12600 33.33300
H  4.02100 41.32300 34.50800
H  5.26700 40.70000 33.54200

