79

Mg 1.39300 -1.36400 44.07900
C  4.71400 -0.62900 43.45300
C  0.58900 1.32100 42.11500
C  -1.81300 -2.47300 44.29800
C  2.43200 -4.52500 45.47700
N  2.55400 0.23200 42.93800
C  3.88500 0.34900 42.89600
C  4.37600 1.73800 42.46400
C  2.98800 2.39300 42.05300
C  1.95900 1.28700 42.36300
C  2.53500 3.75800 42.59300
C  5.38300 1.86900 41.25900
C  5.75800 0.84000 40.20800
H  5.43900 1.08600 38.69800
N  -0.28500 -0.74200 43.30600
C  -0.44500 0.36900 42.45600
C  -1.84700 0.46600 42.10300
C  -2.57600 -0.39800 42.94300
C  -1.53400 -1.24300 43.57900
C  -2.36300 1.61700 41.28900
C  -4.04100 -0.37500 43.08300
O  -4.69400 0.56500 42.60900
C  -4.83900 -1.39900 43.75500
N  0.35800 -3.22000 44.89900
C  -0.97400 -3.38500 44.94200
C  -1.34200 -4.82200 45.41700
C  0.05300 -5.41900 45.84500
C  1.01400 -4.31900 45.35300
C  -2.52600 -4.92600 46.37800
C  0.34400 -6.76400 45.19000
C  1.12300 -7.72700 46.15900
N  3.20400 -2.37300 44.48900
C  3.43600 -3.63300 45.04700
C  4.87800 -3.76200 45.15700
C  5.45100 -2.68200 44.54100
C  4.38000 -1.84100 44.09900
C  5.58900 -5.00300 45.78000
C  6.68300 -2.08000 44.12400
O  7.84300 -2.41300 44.20100
C  6.24000 -0.66200 43.50300
C  6.85900 0.38900 44.31500
O  6.37300 0.90700 45.31600
O  8.06000 0.79100 43.78800
C  8.62800 2.00200 44.30000
H  0.23600 2.26100 41.68500
H  -2.85300 -2.78800 44.19100
H  2.75300 -5.53300 45.74600
H  4.78900 2.26300 43.32500
H  2.93600 2.53000 40.97300
H  3.11900 4.11100 43.44300
H  1.47300 3.81500 42.82900
H  2.55900 4.45000 41.75200
H  6.31700 2.35200 41.54700
H  4.83100 2.66100 40.75300
H  5.20300 -0.07300 40.42200
H  6.81400 0.57400 40.24400
H  -1.62200 2.15700 40.70000
H  -2.89400 2.26400 41.98600
H  -3.12800 1.27900 40.58900
H  -5.90200 -1.16400 43.69000
H  -4.55300 -1.42000 44.80700
H  -4.63800 -2.30100 43.17700
H  -1.73600 -5.33300 44.53800
H  0.08200 -5.57100 46.92400
H  -3.41700 -5.33900 45.90700
H  -2.74700 -3.88500 46.61100
H  -2.19400 -5.37100 47.31700
H  0.97300 -6.62700 44.31100
H  -0.58500 -7.28700 44.96100
H  0.47200 -8.57900 46.35900
H  1.54400 -7.32600 47.08100
H  1.98900 -8.11400 45.62300
H  5.20300 -5.10800 46.79300
H  6.65800 -4.81000 45.86900
H  5.40900 -5.91900 45.21700
H  6.68300 -0.64000 42.50700
H  9.22500 1.68100 45.15400
H  7.78900 2.57900 44.68800
H  9.22000 2.51500 43.54200

