79

Mg 47.40100 35.75300 26.09700
C  45.53400 33.98400 28.65300
C  47.48300 38.32800 28.27500
C  49.08100 37.26000 23.79300
C  46.43800 33.15900 23.84900
N  46.55200 36.06100 28.26100
C  46.03100 35.15900 29.12400
C  46.02000 35.65800 30.54400
C  46.11400 37.21600 30.26100
C  46.82900 37.25600 28.88600
C  44.76900 37.97100 30.21400
C  47.23400 35.16800 31.36600
C  46.94400 34.78700 32.84800
H  45.77100 35.44400 33.63800
N  48.22000 37.51300 26.09100
C  48.11400 38.51800 27.03700
C  48.87500 39.71100 26.55000
C  49.31700 39.42300 25.16600
C  48.89500 38.02200 24.97600
C  48.78200 40.99600 27.21900
C  49.96800 40.24600 24.22700
O  50.38600 39.86100 23.15900
C  50.21400 41.72600 24.52700
N  47.78700 35.17300 24.19200
C  48.53200 36.04900 23.45200
C  48.81900 35.40100 22.07300
C  47.93200 34.10200 22.04400
C  47.31600 34.12700 23.38600
C  48.40500 36.39600 20.84800
C  48.78400 32.81600 21.83500
C  48.19200 31.56600 21.13000
N  46.17100 33.92400 26.13900
C  45.96500 32.93700 25.19200
C  45.27200 31.80100 25.81900
C  45.06500 32.20300 27.13200
C  45.63200 33.47700 27.30100
C  44.99100 30.48800 25.18500
C  44.40700 31.76700 28.33900
O  43.73800 30.73700 28.60300
C  44.62000 32.96900 29.43700
C  45.29600 32.30400 30.58600
O  46.49500 32.11900 30.66400
O  44.36700 31.83800 31.54200
C  44.78600 31.14600 32.69600
H  47.24100 39.16600 28.93200
H  49.68700 37.60600 22.95300
H  46.34100 32.39600 23.07300
H  45.08800 35.47400 31.07900
H  46.70100 37.57300 31.10800
H  43.99500 37.26100 30.50700
H  44.45000 38.35600 29.24500
H  44.90000 38.85100 30.84300
H  48.02600 35.91400 31.29700
H  47.60100 34.23000 30.94800
H  47.83200 35.06000 33.41900
H  46.81300 33.70600 32.89300
H  49.77100 41.43800 27.34100
H  48.37400 40.90500 28.22600
H  48.13200 41.71800 26.72500
H  49.42800 42.24000 25.07900
H  50.45800 42.13200 23.54500
H  51.11400 41.61100 25.13100
H  49.88000 35.15400 22.04200
H  47.18900 34.28600 21.26800
H  47.57800 37.04500 21.13900
H  48.17100 35.80300 19.96400
H  49.16600 37.13700 20.60400
H  49.09000 32.54200 22.84500
H  49.73700 33.02900 21.35000
H  48.74500 31.24200 20.24900
H  47.19400 31.76000 20.73700
H  48.15300 30.73700 21.83700
H  44.02400 30.55000 24.68600
H  45.07500 29.69000 25.92400
H  45.77200 30.32000 24.44400
H  43.65000 33.38600 29.71000
H  44.06300 31.50900 33.42700
H  45.80900 31.31900 33.02800
H  44.48800 30.11600 32.49900

