79

Mg 10.42500 46.34000 25.40300
C  8.26200 46.55900 28.11900
C  12.78700 47.79000 27.43000
C  12.41300 46.47300 22.73400
C  7.64200 45.72800 23.31500
N  10.50200 47.02800 27.64100
C  9.55600 46.97400 28.53700
C  9.97100 47.50700 29.86400
C  11.30000 48.25200 29.53900
C  11.61600 47.66400 28.11800
C  11.18200 49.78300 29.55500
C  9.99100 46.32500 30.96100
C  10.92900 46.32700 32.23700
H  10.68400 45.40000 33.39200
N  12.31100 46.95100 25.15400
C  13.15800 47.49700 26.09300
C  14.44200 47.72400 25.50800
C  14.40800 47.20000 24.18900
C  12.99500 46.84900 23.93500
C  15.49500 48.62900 26.17400
C  15.51900 46.82800 23.29700
O  15.38600 46.20100 22.24600
C  16.89700 47.28100 23.78500
N  10.09800 46.18600 23.31400
C  11.09700 46.14800 22.41800
C  10.61900 45.88100 20.99000
C  9.10000 45.74900 21.23500
C  8.89800 45.85000 22.69300
C  11.02000 47.01600 20.02300
C  8.52400 44.41700 20.60800
C  7.54700 44.72100 19.45500
N  8.38200 46.03100 25.68200
C  7.39100 45.85800 24.72100
C  6.13200 45.69300 25.39600
C  6.43700 45.85400 26.72000
C  7.79600 46.13100 26.87900
C  4.77900 45.51900 24.75200
C  5.86600 46.03400 28.02700
O  4.67900 45.91500 28.37500
C  7.01500 46.45600 28.97600
C  7.07900 45.47400 30.05600
O  7.53600 44.36100 29.96000
O  6.53200 45.98800 31.22300
C  6.50000 45.02400 32.28500
H  13.58700 48.26100 28.00400
H  12.97200 46.45800 21.79600
H  6.78800 45.64700 22.63900
H  9.25400 48.25700 30.19900
H  12.10900 47.89400 30.17600
H  10.16100 50.09800 29.76700
H  11.46700 50.13200 28.56200
H  11.95500 50.24000 30.17400
H  10.03600 45.35400 30.46800
H  9.03800 46.39700 31.48500
H  10.96200 47.36400 32.57100
H  11.94200 46.06200 31.93500
H  14.94300 49.28200 26.85000
H  16.03100 49.27900 25.48300
H  16.13100 47.99100 26.78900
H  17.76400 47.07900 23.15600
H  17.02600 46.76700 24.73700
H  16.78400 48.36500 23.76000
H  11.20900 45.04100 20.62400
H  8.56100 46.56900 20.76000
H  11.55400 47.80900 20.54600
H  10.12800 47.46300 19.58300
H  11.69500 46.57200 19.29200
H  7.93000 43.92000 21.37500
H  9.41800 43.86500 20.31600
H  7.04600 45.68700 19.38400
H  6.69600 44.04100 19.47300
H  8.10700 44.54000 18.53700
H  4.74800 44.54800 24.25800
H  4.64100 46.18500 23.90000
H  3.94100 45.61100 25.44300
H  6.74400 47.40000 29.44900
H  5.66200 45.34200 32.90500
H  7.45700 45.04600 32.80500
H  6.37800 43.99600 31.94200

