79

Mg 41.02600 9.38000 29.94700
C  42.75100 10.57800 32.70800
C  38.74400 7.97200 32.17800
C  39.57400 7.86300 27.36400
C  43.73200 10.34100 27.91200
N  40.85700 9.13500 32.21000
C  41.58400 9.93200 33.08000
C  41.02400 9.81000 34.53600
C  39.74300 8.94600 34.28900
C  39.76500 8.70800 32.83500
C  39.64700 7.65400 35.18800
C  40.70500 11.22400 35.03500
C  39.86300 11.32500 36.30000
H  40.50800 12.23800 37.29500
N  39.34700 8.19400 29.76100
C  38.55200 7.71900 30.77500
C  37.44400 6.90700 30.19000
C  37.56600 6.95300 28.74900
C  38.89900 7.61700 28.57000
C  36.30400 6.41000 31.03200
C  36.69900 6.33200 27.75900
O  36.92200 6.35700 26.57500
C  35.50300 5.57400 28.23100
N  41.53800 9.17800 27.89700
C  40.75400 8.52000 27.01800
C  41.28600 8.55700 25.55000
C  42.65800 9.34300 25.80500
C  42.66000 9.66500 27.30900
C  41.59600 7.18200 24.81800
C  42.58800 10.67400 24.92300
C  41.67900 11.73600 25.47900
N  42.85700 10.37700 30.19900
C  43.84300 10.64200 29.29900
C  44.86900 11.43900 29.92500
C  44.39500 11.52600 31.27900
C  43.24600 10.72400 31.41200
C  46.15600 11.95100 29.34000
C  44.89100 12.05500 32.54300
O  45.87700 12.63000 32.95400
C  43.81400 11.38000 33.54000
C  44.62500 10.60400 34.47400
O  45.31500 9.61500 34.18400
O  44.44300 11.11100 35.68500
C  44.90900 10.29400 36.79700
H  38.02700 7.60800 32.91600
H  39.13600 7.54600 26.41600
H  44.50000 10.76900 27.26500
H  41.74900 9.28400 35.15700
H  38.84500 9.52600 34.50400
H  38.65500 7.44000 35.58600
H  40.20600 8.00100 36.05700
H  40.09300 6.79300 34.68900
H  40.06600 11.69200 34.28600
H  41.64200 11.78000 35.07000
H  39.81500 10.36000 36.80500
H  38.88200 11.69500 36.00100
H  35.40400 6.91200 30.67800
H  36.43000 6.56600 32.10400
H  36.20700 5.34100 30.84500
H  34.90700 5.14600 27.42500
H  34.87400 6.28200 28.77100
H  35.82700 4.80600 28.93200
H  40.52200 9.10600 25.00000
H  43.54300 8.74400 25.59000
H  41.51100 6.44800 25.62000
H  42.58700 7.26200 24.37200
H  40.88000 6.95500 24.02800
H  42.34900 10.53400 23.86800
H  43.61900 11.02700 24.90200
H  41.22200 11.48200 26.43500
H  40.94800 12.10200 24.75800
H  42.19200 12.69600 25.53600
H  46.09000 11.79000 28.26400
H  47.00600 11.47300 29.82800
H  46.29300 13.03200 29.36800
H  43.37700 12.25800 34.01600
H  45.82000 10.82700 37.06700
H  45.04600 9.23800 36.56400
H  44.19400 10.26700 37.61900

