79

Mg 16.10900 -1.56900 28.61300
C  15.07000 0.15700 31.53500
C  18.19300 -3.30600 30.63100
C  17.43000 -3.04200 25.92200
C  14.39100 0.61500 26.63200
N  16.51200 -1.61000 30.84700
C  15.93400 -0.87400 31.80600
C  16.50700 -1.18700 33.20400
C  17.55700 -2.33400 32.82300
C  17.41200 -2.43800 31.33500
C  19.04400 -2.07100 33.33700
C  15.37500 -1.56400 34.20700
C  15.33500 -0.80600 35.59300
H  16.69500 -0.40000 36.25200
N  17.46900 -3.06500 28.32900
C  18.22300 -3.66600 29.28200
C  19.23100 -4.51700 28.69300
C  19.04400 -4.46700 27.32700
C  17.92200 -3.51700 27.13700
C  20.13200 -5.23500 29.57900
C  19.67500 -5.27600 26.17000
O  19.39100 -5.13100 24.96900
C  20.57100 -6.39800 26.47200
N  15.97200 -1.16600 26.57800
C  16.62000 -1.91000 25.63500
C  16.39700 -1.33100 24.21900
C  15.16600 -0.41600 24.49600
C  15.16400 -0.34000 25.96900
C  17.66000 -0.73400 23.56000
C  13.81000 -0.92000 24.01800
C  13.37900 -0.45500 22.63600
N  14.89200 0.07500 28.92300
C  14.21000 0.86100 28.02200
C  13.39500 1.77400 28.71100
C  13.69100 1.56200 30.08300
C  14.55100 0.49400 30.23400
C  12.55700 2.77600 28.08100
C  13.39800 2.02800 31.45000
O  12.61400 2.83700 31.90700
C  14.33500 1.11800 32.40200
C  15.24400 2.07600 33.00100
O  16.34500 2.34400 32.57300
O  14.78100 2.60900 34.18800
C  15.69900 3.33600 35.05700
H  18.90800 -3.83200 31.26700
H  17.86000 -3.53100 25.04500
H  13.80100 1.30600 26.02600
H  17.06100 -0.33600 33.60000
H  17.18300 -3.25300 33.27500
H  19.37800 -2.75300 34.11800
H  19.14600 -1.11200 33.84400
H  19.82900 -2.27200 32.60700
H  15.43600 -2.60700 34.51700
H  14.40100 -1.50500 33.72100
H  14.90900 -1.58500 36.22500
H  14.64300 0.02900 35.48000
H  20.74800 -4.60300 30.21900
H  20.85100 -5.77700 28.96500
H  19.56700 -6.01300 30.09200
H  19.99500 -7.02300 27.15400
H  21.54500 -6.06800 26.83300
H  20.63000 -7.05000 25.60000
H  16.06300 -2.09300 23.51400
H  15.51300 0.58600 24.24500
H  18.48100 -0.78000 24.27600
H  17.58600 0.32800 23.32500
H  17.99100 -1.24700 22.65700
H  12.99000 -0.59500 24.65900
H  13.81300 -2.00900 24.00300
H  13.92000 0.44300 22.33600
H  12.32800 -0.20700 22.78600
H  13.47600 -1.28300 21.93500
H  11.79900 2.30800 27.45300
H  13.08900 3.45300 27.41300
H  12.04400 3.32800 28.86800
H  13.65100 0.70900 33.14600
H  15.63300 4.40000 34.82900
H  16.75100 3.05100 35.02300
H  15.31200 3.31600 36.07600

