79

Mg -1.67200 17.61200 26.69600
C  -2.06600 15.31900 29.21600
C  -2.16400 20.25600 28.98200
C  -1.94500 19.83700 24.04400
C  -2.19700 15.01200 24.32000
N  -2.03300 17.71600 28.86600
C  -2.09300 16.66600 29.67600
C  -2.13500 17.10300 31.16600
C  -2.28600 18.70600 31.03400
C  -2.23200 18.87300 29.55200
C  -3.32300 19.37300 31.86700
C  -0.85400 16.70900 32.00200
C  -0.40700 17.66400 33.22900
H  -0.00600 16.98400 34.44000
N  -1.87600 19.68900 26.55100
C  -2.06600 20.60100 27.59300
C  -2.09300 21.97300 27.06000
C  -2.11900 21.81500 25.66800
C  -2.01800 20.39200 25.37400
C  -2.29200 23.21600 27.92000
C  -2.32400 22.89500 24.59200
O  -2.44500 22.65500 23.37600
C  -2.27600 24.33200 25.05800
N  -1.88100 17.47500 24.45100
C  -1.96100 18.56200 23.61700
C  -1.88700 18.03700 22.14900
C  -2.01200 16.50000 22.27700
C  -2.08500 16.28700 23.76300
C  -2.82700 18.65300 21.09400
C  -0.96900 15.59000 21.44700
C  -1.43900 14.90300 20.15400
N  -1.96900 15.62400 26.73100
C  -2.17000 14.69600 25.72600
C  -2.25100 13.36000 26.24600
C  -2.15300 13.53100 27.66600
C  -2.09000 14.91400 27.85600
C  -2.55500 12.09800 25.50300
C  -2.20100 12.87000 28.97000
O  -2.24700 11.66600 29.21900
C  -2.19900 14.05700 30.05600
C  -1.16400 13.81300 31.09900
O  0.04700 13.91700 31.02300
O  -1.82200 13.35700 32.25900
C  -0.92900 12.65200 33.24700
H  -2.35700 21.11700 29.62500
H  -1.88000 20.52500 23.19800
H  -2.35800 14.20700 23.59900
H  -2.98500 16.62200 31.65000
H  -1.31600 19.15200 31.25600
H  -4.04800 19.89900 31.24500
H  -2.82600 20.00900 32.60000
H  -3.82500 18.62900 32.48400
H  0.07800 16.55200 31.45900
H  -1.22700 15.86600 32.58200
H  -1.23500 18.32600 33.48300
H  0.47700 18.21800 32.91400
H  -1.49200 23.93300 27.73400
H  -2.30200 23.15300 29.00800
H  -3.21800 23.73900 27.68200
H  -3.24600 24.73100 25.35400
H  -2.09500 24.82600 24.10400
H  -1.47000 24.36800 25.79200
H  -0.83900 18.14600 21.86900
H  -3.03000 16.24600 21.97900
H  -2.71300 19.73200 20.98500
H  -3.86700 18.38200 21.27500
H  -2.54100 18.20600 20.14200
H  -0.47700 14.87000 22.10200
H  -0.08000 16.13000 21.12300
H  -1.40100 13.83200 20.35400
H  -0.72900 15.20300 19.38300
H  -2.43600 15.17600 19.80800
H  -3.36900 12.37600 24.83300
H  -2.79800 11.33400 26.24100
H  -1.64800 11.92000 24.92500
H  -3.11800 14.03900 30.64300
H  0.15000 12.58700 33.11000
H  -1.26500 11.61900 33.33200
H  -1.06500 13.15100 34.20700

