79

Mg -0.26900 7.74200 26.86800
C  0.49300 9.71500 29.75100
C  -0.60300 5.11400 29.06900
C  -0.49300 5.72400 24.25800
C  0.66100 10.46700 24.89800
N  0.03800 7.44700 29.17200
C  0.13200 8.42500 30.10100
C  -0.27000 7.90100 31.49000
C  -0.33200 6.37700 31.29500
C  -0.33700 6.31800 29.76100
C  0.97500 5.57800 31.72000
C  -1.54800 8.54500 32.07000
C  -1.65300 8.40000 33.66600
H  -0.50500 8.01800 34.56500
N  -0.62200 5.72600 26.68100
C  -0.75400 4.78000 27.69900
C  -1.05600 3.50200 27.15900
C  -1.12800 3.70100 25.75400
C  -0.73400 5.06600 25.46900
C  -1.37800 2.25700 28.02000
C  -1.43400 2.71600 24.67900
O  -1.33900 3.04500 23.47700
C  -1.89300 1.32900 25.07200
N  -0.21200 8.19500 24.92200
C  -0.26000 7.13400 23.99900
C  0.05000 7.61800 22.60400
C  0.18000 9.17400 22.72400
C  0.21900 9.33500 24.28900
C  1.29500 6.95400 21.89000
C  -0.84600 10.06800 22.10700
C  -2.35200 9.87100 22.50400
N  0.41600 9.75400 27.22300
C  0.78900 10.70000 26.33800
C  1.31300 11.83200 27.09700
C  1.22200 11.49900 28.44500
C  0.66500 10.20900 28.45100
C  1.63300 13.17300 26.50600
C  1.41500 11.94000 29.77900
O  1.91800 13.02100 30.21500
C  0.85600 10.83500 30.70700
C  1.94700 10.62600 31.70700
O  2.99500 10.03400 31.48700
O  1.63200 11.21000 32.88500
C  2.78200 11.29400 33.87300
H  -0.48900 4.23700 29.70900
H  -0.51800 5.17100 23.31700
H  0.95200 11.30000 24.25400
H  0.50900 8.26900 32.15800
H  -1.16900 5.82000 31.71700
H  1.62800 6.17900 32.35400
H  1.66400 5.27800 30.93000
H  0.67600 4.62700 32.16100
H  -2.30300 7.83100 31.74100
H  -1.67300 9.53600 31.63400
H  -2.43200 7.68500 33.93300
H  -2.11700 9.33700 33.97300
H  -1.31200 2.52700 29.07400
H  -0.65100 1.46100 27.85900
H  -2.33700 1.74000 27.96800
H  -2.88300 1.35600 25.52600
H  -0.97700 0.98700 25.55500
H  -1.95000 0.83900 24.10000
H  -0.76600 7.36900 21.92600
H  1.17100 9.54000 22.45700
H  2.18300 7.58500 21.83800
H  0.94900 6.58500 20.92400
H  1.64200 6.06800 22.42300
H  -0.85700 9.95700 21.02300
H  -0.61600 11.09100 22.40400
H  -2.90500 9.98500 21.57200
H  -2.68700 10.64100 23.19900
H  -2.45400 8.87800 22.94100
H  1.73600 13.19800 25.42100
H  2.51800 13.59800 26.98100
H  0.88800 13.83600 26.94400
H  0.00900 11.24900 31.25300
H  2.36000 11.80100 34.74100
H  3.55000 11.88900 33.37900
H  3.25400 10.33600 34.09100

