79

Mg 48.81000 45.17200 42.12200
C  45.28700 45.22200 41.50300
C  48.81600 41.95100 41.19300
C  52.10900 45.52000 42.00000
C  48.49900 48.77000 42.68800
N  47.22600 43.78700 41.39300
C  45.89300 43.95900 41.30700
C  45.13600 42.74200 40.84200
C  46.19700 41.63200 41.07200
C  47.50200 42.48000 41.22500
C  45.94300 40.65500 42.23900
C  44.59600 42.91600 39.35100
C  43.13200 42.44000 39.07500
H  42.84600 41.79800 37.72200
N  50.29800 43.89600 41.51600
C  50.07300 42.55200 41.26500
C  51.37100 41.98100 40.86200
C  52.32800 42.94400 41.12800
C  51.59200 44.17600 41.56900
C  51.50100 40.54000 40.34400
C  53.79500 42.67100 40.99600
O  54.19900 41.57100 40.58200
C  54.91100 43.68400 41.39200
N  50.15400 47.07100 42.02800
C  51.48400 46.74100 42.27500
C  52.21100 48.08400 42.50500
C  51.04100 49.09500 42.88500
C  49.85000 48.27000 42.53700
C  53.33300 47.98900 43.59300
C  51.21100 50.34700 42.00000
C  50.99200 51.61400 42.77400
N  47.25300 46.74500 42.12700
C  47.29300 48.09300 42.48400
C  45.96500 48.61300 42.56000
C  45.15000 47.54400 42.05500
C  45.96500 46.43800 41.91100
C  45.56100 49.97700 43.03900
C  43.73100 47.21300 41.86700
O  42.73600 47.85100 41.99400
C  43.84900 45.61800 41.39600
C  42.99300 44.88600 42.33500
O  41.95800 44.41900 41.94000
O  43.54100 44.73300 43.64300
C  42.81500 43.97500 44.67500
H  48.77400 40.90000 40.89800
H  53.19500 45.61200 42.06400
H  48.35400 49.81400 42.97500
H  44.34100 42.61100 41.57600
H  46.18200 40.92300 40.24400
H  45.69100 41.24400 43.12100
H  46.86900 40.14700 42.51200
H  45.20300 39.87600 42.05700
H  45.26300 42.31000 38.73800
H  44.63400 43.96800 39.06800
H  42.54100 43.35600 39.05100
H  42.61800 41.84700 39.83200
H  51.64800 40.49700 39.26400
H  50.62100 39.91900 40.50400
H  52.35600 40.11400 40.87000
H  54.77000 43.93100 42.44400
H  54.80600 44.59200 40.79700
H  55.91700 43.31100 41.19700
H  52.70600 48.30100 41.55800
H  51.17700 49.51400 43.88200
H  53.28500 46.97100 43.97800
H  53.25200 48.72600 44.39200
H  54.32800 48.08300 43.15800
H  50.58900 50.30300 41.10700
H  52.20000 50.37000 41.54200
H  51.94500 51.89900 43.21800
H  50.22100 51.68500 43.54200
H  50.66500 52.27700 41.97300
H  44.48000 50.10200 43.09700
H  45.90600 50.72100 42.32100
H  45.82000 50.24200 44.06400
H  43.44800 45.49400 40.39000
H  43.58900 43.60500 45.34700
H  42.33700 43.09100 44.25200
H  42.08000 44.60700 45.17300

