79

Mg 54.80700 24.48400 43.47800
C  52.42200 27.15700 43.27100
C  52.48800 22.31300 42.42400
C  57.31000 22.24900 43.32600
C  57.24000 27.01000 44.17100
N  52.68500 24.83500 42.68900
C  51.92800 25.88800 42.76100
C  50.58900 25.48300 42.16500
C  50.51900 23.97100 42.40800
C  52.01800 23.64700 42.52300
C  49.82800 23.48000 43.70000
C  50.19800 25.96700 40.76500
C  51.37100 26.28400 39.82900
H  51.33300 25.67200 38.36300
N  54.86200 22.62500 42.93900
C  53.84400 21.81800 42.68300
C  54.17400 20.50700 42.67000
C  55.56000 20.43900 42.75300
C  55.95100 21.85600 42.99100
C  53.12700 19.44100 42.47700
C  56.38500 19.15400 42.69100
O  55.82200 18.04100 42.56300
C  57.82100 19.13700 43.04600
N  57.00400 24.64600 43.68600
C  57.81700 23.51200 43.52800
C  59.34200 23.89500 43.58300
C  59.28900 25.43500 43.95600
C  57.75000 25.75800 43.83200
C  60.43700 23.04600 44.37600
C  60.24100 26.44400 43.16200
C  59.58500 27.16800 41.96800
N  54.78400 26.56100 43.78100
C  55.86400 27.36200 44.19200
C  55.30000 28.65600 44.58100
C  53.95400 28.61600 44.20600
C  53.71100 27.36400 43.72600
C  56.01000 29.83700 45.09600
C  52.75900 29.42400 44.15900
O  52.56500 30.54200 44.55900
C  51.63900 28.48900 43.51000
C  51.07100 29.06900 42.23900
O  51.74100 29.42200 41.29000
O  49.69400 29.05400 42.26600
C  48.95100 29.52500 41.09100
H  51.72000 21.60500 42.10600
H  58.17100 21.59800 43.49000
H  58.05800 27.69700 44.39600
H  49.74100 25.83500 42.75200
H  50.29300 23.26500 41.61000
H  50.49000 22.87100 44.31600
H  48.97600 22.84300 43.46300
H  49.46500 24.29400 44.32800
H  49.63500 26.88100 40.95100
H  49.62600 25.16800 40.29400
H  52.34400 25.99000 40.22300
H  51.45700 27.34800 39.60800
H  53.47000 18.89500 41.59800
H  52.09700 19.74500 42.28900
H  53.11400 18.77700 43.34100
H  58.35300 18.19100 42.94700
H  57.83400 19.42500 44.09700
H  58.40800 19.81700 42.42800
H  59.62500 23.71700 42.54500
H  59.40100 25.74900 44.99400
H  60.47500 23.22200 45.45100
H  61.45600 23.24300 44.04500
H  60.28800 21.96800 44.31500
H  60.98200 25.79900 42.69000
H  60.79800 26.96100 43.94300
H  59.58500 28.22600 42.23100
H  58.71600 26.59500 41.64600
H  60.29800 27.12000 41.14500
H  55.28100 30.60900 45.34400
H  56.75600 30.19900 44.38800
H  56.48800 29.53500 46.02700
H  50.82100 28.32400 44.21200
H  49.12000 30.60100 41.05400
H  47.88000 29.32500 41.05200
H  49.36300 28.99600 40.23200

