79

Mg 0.78400 8.35400 25.24100
C  1.51200 10.24100 28.12000
C  0.95700 5.48800 27.17200
C  0.82000 6.61700 22.40000
C  0.97400 11.40100 23.39700
N  1.09000 7.92400 27.41500
C  1.29500 8.83400 28.36000
C  1.32000 8.18100 29.82100
C  1.32100 6.69700 29.48100
C  1.04900 6.67300 27.92500
C  2.61500 5.94900 29.80300
C  0.29900 8.69700 30.84000
C  0.62800 8.41700 32.34000
H  1.90900 7.62200 32.71700
N  0.77600 6.32800 24.83200
C  0.82600 5.31300 25.75900
C  0.85400 3.98000 25.06600
C  0.77500 4.28100 23.67800
C  0.82800 5.81000 23.59300
C  0.90300 2.62900 25.75800
C  0.63600 3.37700 22.46700
O  0.62500 3.80200 21.29400
C  0.36200 1.92300 22.66600
N  0.85900 8.95500 23.24400
C  0.86100 8.01900 22.25700
C  0.55600 8.65900 20.84700
C  0.71600 10.15900 21.17200
C  0.80500 10.18300 22.69200
C  1.43000 8.21100 19.70400
C  -0.40500 11.00200 20.53200
C  -1.71000 11.18300 21.36700
N  0.95400 10.52000 25.70100
C  1.08900 11.54000 24.79900
C  1.45200 12.76000 25.55000
C  1.62200 12.33900 26.88500
C  1.26500 10.94400 26.93900
C  1.64600 14.13000 24.91800
C  1.91800 12.72600 28.20300
O  2.20900 13.81100 28.67200
C  1.98600 11.45100 29.11200
C  3.25600 11.04600 29.81200
O  3.90300 10.13600 29.43600
O  3.40600 11.89600 30.90300
C  4.62300 11.53000 31.73400
H  1.09000 4.58700 27.77400
H  0.77600 6.01800 21.48900
H  1.04500 12.33200 22.83100
H  2.27400 8.43400 30.28400
H  0.40700 6.31200 29.93400
H  2.27600 5.09800 30.39300
H  3.35200 6.49400 30.39400
H  3.13600 5.52200 28.94600
H  -0.68400 8.24500 30.70400
H  0.21600 9.78000 30.75900
H  -0.19900 7.81100 32.70900
H  0.69000 9.32100 32.94700
H  -0.07000 2.17300 25.58000
H  0.99600 2.71200 26.84100
H  1.70500 1.95700 25.45100
H  1.14100 1.48500 23.29100
H  0.41900 1.35600 21.73800
H  -0.63500 1.87300 23.10200
H  -0.48000 8.43100 20.60000
H  1.69300 10.42200 20.76500
H  0.86100 7.46200 19.15300
H  2.35600 7.69900 19.96700
H  1.59000 9.07600 19.06000
H  -0.58500 10.44300 19.61400
H  -0.09800 12.01500 20.27300
H  -2.51700 11.18500 20.63300
H  -1.66500 12.06300 22.00900
H  -1.88100 10.26400 21.92700
H  1.73800 14.16300 23.83300
H  2.50300 14.53600 25.45500
H  0.70600 14.66000 25.07300
H  1.37000 11.68900 29.97900
H  4.71000 12.29900 32.50100
H  5.50600 11.56700 31.09700
H  4.53300 10.55700 32.21600

