79

Mg 35.39000 49.33800 25.00900
C  35.00800 47.55000 28.08400
C  33.78200 52.03100 26.65300
C  35.19600 50.89700 22.14600
C  36.39600 46.40100 23.45700
N  34.57900 49.76100 27.18700
C  34.60700 48.92700 28.21600
C  34.03600 49.46600 29.50800
C  33.55300 50.92400 29.03200
C  34.04200 50.98200 27.54800
C  32.08100 51.22700 29.18600
C  35.07000 49.47300 30.69800
C  34.55100 49.09900 32.10400
H  33.00800 48.81800 32.27700
N  34.74300 51.22900 24.53300
C  34.11000 52.18400 25.33700
C  33.93300 53.41600 24.58700
C  34.33600 53.10800 23.22300
C  34.72600 51.66800 23.27100
C  33.13900 54.59200 25.12100
C  34.26500 54.09500 21.99700
O  34.30100 53.64600 20.82800
C  33.96200 55.57000 22.20400
N  35.62300 48.67800 23.05700
C  35.50200 49.56100 21.99500
C  35.93900 48.90000 20.66200
C  36.45200 47.46500 21.15600
C  36.21100 47.50700 22.64600
C  34.84500 48.98600 19.57800
C  37.83500 47.05700 20.71600
C  39.07800 47.39100 21.58500
N  35.72400 47.37200 25.58500
C  36.18900 46.24300 24.90000
C  36.32100 45.13100 25.75700
C  35.89100 45.57100 26.99500
C  35.44000 46.92800 26.87200
C  36.96900 43.76200 25.53400
C  35.80000 45.24000 28.38200
O  36.20500 44.25000 28.99900
C  35.12000 46.41100 29.09800
C  33.76000 45.92400 29.63700
O  32.68400 46.39300 29.26700
O  33.96700 45.26400 30.86100
C  32.77700 44.84800 31.60000
H  33.41300 52.85500 27.26600
H  35.23100 51.49200 21.23100
H  36.79500 45.48100 23.02500
H  33.18100 48.88300 29.85100
H  34.12800 51.64200 29.61600
H  31.90700 51.91100 30.01700
H  31.65700 50.26900 29.48800
H  31.61300 51.73600 28.34300
H  35.65100 50.39100 30.60500
H  35.84800 48.71000 30.73700
H  34.86400 49.91700 32.75400
H  35.13900 48.30900 32.57000
H  33.76700 55.47000 24.97300
H  32.98500 54.58600 26.20000
H  32.22800 54.65700 24.52600
H  32.90400 55.49400 22.45300
H  34.06300 55.97600 21.19800
H  34.44600 56.17700 22.96900
H  36.73400 49.61000 20.43200
H  35.95500 46.65500 20.62300
H  33.94500 49.23300 20.14100
H  34.71300 48.07800 18.98800
H  34.99300 49.81900 18.89000
H  38.11800 47.58400 19.80500
H  37.81800 46.00500 20.43200
H  39.54400 48.24700 21.09700
H  39.77400 46.55200 21.58500
H  38.85600 47.67200 22.61400
H  37.78300 43.76100 24.80900
H  36.14700 43.06900 25.35600
H  37.47800 43.50700 26.46400
H  35.67600 46.63200 30.00800
H  32.68900 43.76200 31.57900
H  31.78700 45.23500 31.35800
H  33.06300 45.12200 32.61600

