79

Mg 47.62500 15.40800 28.56800
C  45.54000 15.62900 31.29900
C  50.03200 17.26500 30.49100
C  49.67400 15.51300 26.03700
C  44.96000 14.29200 26.66400
N  47.68000 16.35800 30.58600
C  46.76300 16.22900 31.60500
C  47.31200 16.64300 32.97700
C  48.63300 17.36000 32.60500
C  48.83500 16.93000 31.10700
C  48.62600 18.91500 32.89700
C  47.44200 15.42200 33.92400
C  47.24500 15.67800 35.44600
H  46.78400 17.07000 35.89100
N  49.63400 16.10300 28.25700
C  50.41000 16.82500 29.17400
C  51.64900 17.09700 28.58000
C  51.67000 16.51700 27.28000
C  50.30000 15.99500 27.16800
C  52.77100 17.85900 29.30500
C  52.79100 16.31400 26.22000
O  52.64500 15.88600 25.11900
C  54.13900 16.83900 26.49700
N  47.37100 14.87100 26.62600
C  48.41300 14.94100 25.76800
C  47.90000 14.66500 24.38300
C  46.53200 14.04300 24.56800
C  46.22500 14.44500 26.01000
C  47.93500 15.87000 23.41700
C  46.47600 12.47100 24.42000
C  47.43300 11.60300 25.24500
N  45.63900 14.97400 28.83700
C  44.68100 14.46400 28.03600
C  43.47800 14.22800 28.74700
C  43.71000 14.64500 30.09400
C  45.05000 15.09000 30.09600
C  42.27200 13.62400 28.14000
C  43.22800 14.70900 31.44000
O  42.18500 14.29700 31.92200
C  44.40700 15.29800 32.29300
C  43.87400 16.48800 33.02700
O  44.04900 17.66500 32.71800
O  43.14100 16.08300 34.10500
C  42.27300 16.97000 34.84100
H  50.74300 17.88600 31.03900
H  50.30100 15.64300 25.15200
H  44.21200 13.74500 26.08600
H  46.55100 17.33800 33.33300
H  49.45900 16.99800 33.21600
H  49.43000 19.30400 33.52200
H  47.71700 19.28400 33.37100
H  48.75300 19.43000 31.94500
H  48.40900 14.94800 33.75300
H  46.65600 14.72800 33.62600
H  48.07700 15.43300 36.10600
H  46.54300 14.91700 35.78600
H  53.57400 18.25700 28.68400
H  52.99000 17.28700 30.20600
H  52.25400 18.76000 29.63700
H  54.25800 17.89700 26.26600
H  54.82900 16.37200 25.79400
H  54.42600 16.64800 27.53100
H  48.55200 13.92100 23.92700
H  45.76800 14.54200 23.97100
H  48.17000 16.72400 24.05200
H  46.95900 16.00100 22.95000
H  48.70100 15.76100 22.65000
H  46.61900 12.19100 23.37600
H  45.46200 12.12000 24.61000
H  48.05600 11.05700 24.53700
H  46.89300 10.86600 25.84100
H  48.03200 12.18300 25.94700
H  42.21900 13.74400 27.05800
H  41.43700 13.92900 28.77000
H  42.38900 12.54000 28.14400
H  44.71700 14.59700 33.06800
H  42.41900 17.99400 34.49500
H  42.58200 17.01900 35.88500
H  41.21100 16.74200 34.75500

