79

Mg 36.10700 49.25200 25.37200
C  36.37400 47.45000 28.33600
C  34.71800 51.92000 27.19000
C  35.65100 50.84800 22.55400
C  37.28200 46.46600 23.63900
N  35.46100 49.54100 27.45800
C  35.83700 48.73800 28.50200
C  35.61300 49.46600 29.79800
C  34.95400 50.83300 29.45800
C  35.11000 50.77600 27.95800
C  33.49400 51.04000 29.89900
C  36.96200 49.78800 30.53100
C  36.82800 50.06400 32.07600
H  35.41300 50.06000 32.79500
N  35.16200 51.09600 24.90800
C  34.68800 52.09500 25.77600
C  34.26900 53.28400 25.07000
C  34.52600 52.98800 23.68000
C  35.11600 51.62300 23.65100
C  33.78700 54.63400 25.72400
C  34.19500 53.74500 22.45000
O  34.41000 53.29500 21.36300
C  33.40600 55.08900 22.47900
N  36.27800 48.70200 23.37700
C  36.09700 49.57200 22.38100
C  36.39000 48.92000 20.95600
C  37.15700 47.63900 21.38100
C  36.90500 47.57100 22.89700
C  35.08700 48.60700 20.17800
C  38.61500 47.59900 20.86300
C  39.60400 48.51500 21.64400
N  36.61400 47.27100 25.81000
C  37.22400 46.27300 25.04300
C  37.47100 45.07600 25.84600
C  37.22200 45.57500 27.17800
C  36.72700 46.91100 27.10500
C  37.92600 43.72200 25.56800
C  37.28200 45.18200 28.54600
O  37.73900 44.12100 28.99100
C  36.71000 46.37000 29.39500
C  35.33500 45.92200 29.81800
O  34.44700 45.42600 29.16100
O  35.33600 46.09000 31.20700
C  34.24000 45.55300 31.96100
H  34.38200 52.79000 27.75800
H  35.56600 51.40000 21.61600
H  37.92300 45.78200 23.07800
H  34.89600 48.93800 30.42700
H  35.56300 51.66900 29.80300
H  32.75200 51.19100 29.11400
H  33.51400 51.98000 30.45100
H  33.09900 50.21600 30.49300
H  37.50500 50.61100 30.06700
H  37.62200 48.92700 30.42300
H  37.28200 51.04200 32.23800
H  37.41500 49.35600 32.66100
H  34.40100 55.49200 25.45000
H  33.81100 54.55600 26.81100
H  32.74900 54.83800 25.46200
H  33.34300 55.46600 21.45800
H  33.95900 55.86100 23.01300
H  32.40400 54.93100 22.87900
H  36.99600 49.65500 20.42500
H  36.59000 46.82800 20.92400
H  34.20400 48.85400 20.76600
H  35.08300 47.57300 19.83200
H  35.08100 49.40100 19.43100
H  38.45200 47.81300 19.80600
H  38.91800 46.55200 20.88300
H  40.13700 47.79900 22.27000
H  39.04300 49.20000 22.27900
H  40.27600 49.04200 20.96600
H  38.56100 43.75700 24.68300
H  37.06100 43.08200 25.39500
H  38.48300 43.30900 26.40900
H  37.42700 46.58200 30.18800
H  33.57700 46.38600 32.19600
H  34.47000 45.08100 32.91600
H  33.66500 44.88700 31.31700

