79

Mg -2.33000 33.98200 27.66300
C  -4.23900 32.17700 30.01100
C  -1.08000 35.90400 30.20400
C  -0.97900 36.07200 25.44600
C  -3.94900 32.25700 25.05000
N  -2.65400 34.00400 29.86100
C  -3.44200 33.19500 30.63200
C  -3.23100 33.48700 32.13600
C  -2.51800 34.86300 32.08100
C  -1.98900 34.93700 30.62600
C  -3.50600 36.13900 32.45000
C  -2.46700 32.43800 33.02100
C  -3.22300 32.17200 34.30500
H  -2.44900 31.91200 35.55400
N  -0.99500 35.59400 27.81500
C  -0.58800 36.25100 28.96200
C  0.45300 37.23100 28.59400
C  0.44500 37.29600 27.18100
C  -0.52400 36.29200 26.72500
C  1.23900 38.04500 29.63700
C  1.26800 38.25700 26.30400
O  1.20800 38.27400 25.10700
C  2.25600 39.17900 26.92100
N  -2.48500 34.14000 25.60100
C  -1.84100 35.09800 24.94800
C  -2.15200 35.08100 23.44700
C  -2.81300 33.63200 23.21400
C  -3.10900 33.25300 24.71500
C  -3.12100 36.19100 22.86800
C  -1.89400 32.66100 22.39600
C  -2.60800 31.55100 21.60700
N  -3.74300 32.50200 27.47900
C  -4.23500 31.85200 26.40100
C  -5.11300 30.72300 26.82900
C  -5.15900 30.85000 28.18500
C  -4.29900 31.98700 28.58500
C  -5.70800 29.78300 25.90100
C  -5.76900 30.26100 29.41300
O  -6.62200 29.37000 29.59700
C  -5.11500 31.06200 30.56600
C  -6.24200 31.47700 31.39700
O  -7.24600 32.08700 30.96700
O  -6.08900 31.16600 32.67400
C  -7.20100 31.31600 33.59100
H  -0.76300 36.57800 31.00300
H  -0.62700 36.66300 24.59900
H  -4.33300 31.57800 24.28600
H  -4.22800 33.64900 32.54600
H  -1.68400 34.94500 32.77900
H  -4.50100 35.72600 32.61500
H  -3.49400 36.76500 31.55800
H  -3.09200 36.56100 33.36600
H  -1.50500 32.87000 33.29600
H  -2.28200 31.53300 32.44200
H  -3.57000 31.22300 33.89500
H  -4.06700 32.82300 34.52900
H  1.15800 37.63300 30.64300
H  1.01400 39.11000 29.59000
H  2.26600 37.80600 29.36300
H  2.62600 39.85500 26.15100
H  3.17400 38.72500 27.29500
H  1.70000 39.77200 27.64800
H  -1.23700 35.09900 22.85400
H  -3.73800 33.72000 22.64300
H  -3.30200 36.77200 23.77300
H  -4.06600 35.88300 22.42000
H  -2.60900 36.76400 22.09600
H  -1.24300 32.03800 23.01000
H  -1.20600 33.07200 21.65700
H  -2.27700 31.49000 20.57000
H  -3.68600 31.66100 21.71900
H  -2.36600 30.56500 22.00500
H  -4.94600 29.55900 25.15500
H  -6.55900 30.22700 25.38300
H  -5.95400 28.81200 26.33200
H  -4.44500 30.36900 31.07500
H  -7.13100 30.36800 34.12300
H  -8.20100 31.38600 33.16300
H  -7.02500 32.15300 34.26600

