79

Mg -0.01500 7.84800 26.46900
C  0.84000 9.84400 29.39900
C  -0.28900 5.15800 28.59200
C  -0.42100 6.11900 23.78900
C  0.42400 10.74800 24.63100
N  0.48900 7.51400 28.72900
C  0.59200 8.49000 29.75900
C  0.44500 7.83900 31.11300
C  0.20600 6.32600 30.73100
C  0.13500 6.32400 29.24700
C  1.33500 5.39100 31.33300
C  -0.71300 8.39200 31.94300
C  -0.39800 8.74000 33.40300
H  0.83500 8.11900 33.99200
N  -0.28000 5.91400 26.22800
C  -0.41800 4.93500 27.18800
C  -0.83600 3.67300 26.58400
C  -0.81000 3.92600 25.18400
C  -0.55400 5.39000 25.01400
C  -1.23600 2.45600 27.38600
C  -1.04500 3.00100 24.01100
O  -1.02600 3.30600 22.82200
C  -1.29400 1.50300 24.21200
N  0.02500 8.26800 24.51300
C  -0.14700 7.37100 23.49800
C  0.05100 8.05300 22.14000
C  -0.26600 9.56800 22.44600
C  0.00500 9.53500 23.99700
C  1.36300 7.91300 21.36100
C  -1.71500 9.95500 22.30400
C  -2.10600 10.60600 20.99800
N  0.55100 9.90700 26.79400
C  0.76400 10.93200 25.97300
C  1.21700 12.15800 26.67700
C  1.13700 11.73900 28.02300
C  0.81600 10.36700 28.02000
C  1.54400 13.46800 26.02400
C  1.34900 12.19400 29.30400
O  1.68300 13.31700 29.64900
C  1.16000 10.97700 30.28600
C  2.33500 10.95000 31.13800
O  3.31500 10.28100 30.81100
O  2.20300 11.73900 32.24700
C  3.28000 11.82200 33.29800
H  -0.63300 4.27500 29.13400
H  -0.41400 5.56000 22.85000
H  0.61300 11.53500 23.89900
H  1.43300 7.85700 31.57300
H  -0.73100 5.91500 31.10600
H  0.99200 5.11000 32.32900
H  2.30500 5.87300 31.21200
H  1.48700 4.48300 30.74900
H  -1.58600 7.74500 32.03200
H  -1.01400 9.28600 31.39800
H  -1.27600 8.41100 33.95900
H  -0.28600 9.81300 33.55400
H  -0.90000 1.56400 26.85600
H  -2.31700 2.50200 27.25200
H  -0.87800 2.39200 28.41400
H  -0.53500 0.93800 24.75300
H  -1.54600 1.11300 23.22600
H  -2.20900 1.44700 24.80300
H  -0.72100 7.66800 21.47400
H  0.40700 10.25900 21.94000
H  2.05200 8.74100 21.53000
H  1.19300 7.71400 20.30300
H  1.94200 7.11100 21.81700
H  -1.97200 10.74000 23.01600
H  -2.33800 9.07900 22.48900
H  -1.55200 10.41700 20.07800
H  -2.01600 11.69100 21.06600
H  -3.10300 10.31000 20.67100
H  0.60600 14.02000 25.96000
H  2.06200 13.28900 25.08200
H  2.11800 14.07200 26.72600
H  0.27100 11.21900 30.86900
H  4.16900 11.41700 32.81500
H  3.18800 11.22000 34.20300
H  3.44600 12.86100 33.58100

