79

Mg -2.33800 34.66800 26.59400
C  -3.91700 32.89500 29.23000
C  -0.90600 36.63600 29.08100
C  -1.31300 36.68500 24.18700
C  -4.20600 32.82500 24.34300
N  -2.69700 34.84600 28.97000
C  -3.16800 33.94900 29.81900
C  -2.75300 34.11500 31.22800
C  -2.06800 35.53800 31.19200
C  -1.85500 35.71100 29.63800
C  -2.95600 36.66400 31.89800
C  -1.93600 32.84300 31.84200
C  -2.64200 32.28200 33.13400
H  -1.80600 32.36000 34.42400
N  -1.14500 36.28000 26.59400
C  -0.67600 37.00900 27.68200
C  0.16200 38.10200 27.17100
C  0.06300 38.17500 25.78200
C  -0.79200 37.02000 25.50800
C  0.86200 39.00100 28.05700
C  0.64100 39.15100 24.76400
O  0.48500 39.07300 23.57300
C  1.46600 40.25000 25.19100
N  -2.88100 34.79900 24.61700
C  -2.26100 35.70200 23.84700
C  -2.69400 35.53200 22.38700
C  -3.35700 34.11000 22.38500
C  -3.50600 33.89000 23.88000
C  -3.59100 36.75800 21.95100
C  -2.76300 33.00200 21.50300
C  -1.43300 32.33000 21.91200
N  -3.78400 33.15100 26.67600
C  -4.36500 32.42000 25.67600
C  -5.03300 31.28600 26.25500
C  -4.86500 31.45700 27.65800
C  -4.17100 32.64100 27.81600
C  -5.71000 30.11900 25.50100
C  -5.21700 30.80600 28.95900
O  -5.83600 29.77600 29.19100
C  -4.64200 31.81100 30.04500
C  -5.75600 32.34900 30.88200
O  -6.44100 33.37300 30.69500
O  -5.79100 31.59400 32.06600
C  -6.92700 31.91700 33.02200
H  -0.21800 37.23300 29.68300
H  -1.00500 37.42000 23.44000
H  -4.66500 32.13600 23.63100
H  -3.58900 34.26200 31.91200
H  -1.13600 35.45300 31.75100
H  -3.38800 37.25800 31.09200
H  -2.36500 37.42800 32.40300
H  -3.77400 36.34700 32.54500
H  -0.94600 33.19200 32.13700
H  -1.80900 32.07100 31.08400
H  -2.71100 31.19800 33.03700
H  -3.62000 32.71800 33.33900
H  0.42000 39.99600 28.11700
H  1.88800 39.13300 27.71500
H  1.04800 38.39800 28.94600
H  2.49700 39.98000 25.42100
H  0.93200 40.75700 25.99400
H  1.52700 40.91900 24.33300
H  -1.71200 35.57200 21.91600
H  -4.36500 34.27300 22.00200
H  -4.54800 36.39500 21.57400
H  -3.07800 37.23700 21.11700
H  -3.79200 37.54100 22.68200
H  -2.54000 33.42200 20.52200
H  -3.52200 32.22900 21.38300
H  -1.11400 32.66600 22.89900
H  -0.68300 32.48500 21.13600
H  -1.64100 31.26000 21.92300
H  -5.21400 29.94700 24.54600
H  -6.75600 30.37800 25.33700
H  -5.66500 29.26700 26.17900
H  -3.88600 31.24500 30.59000
H  -7.79800 32.32100 32.50600
H  -6.61800 32.63200 33.78400
H  -7.28800 30.99600 33.47900

