79

Mg 1.23600 42.26300 25.43800
C  2.41600 42.44300 28.89400
C  -1.41800 40.41700 26.79700
C  0.25400 41.94500 22.41700
C  4.45500 43.56100 24.45000
N  0.64200 41.52500 27.62800
C  1.12000 42.02800 28.82400
C  0.07700 41.84500 30.01800
C  -1.01500 40.94000 29.29700
C  -0.58500 40.86800 27.80000
C  -1.32900 39.66500 29.99300
C  -0.48400 43.18500 30.68300
C  -0.44600 43.33900 32.20200
H  -0.59100 42.11100 33.10900
N  -0.32300 41.33500 24.68200
C  -1.36800 40.68100 25.30900
C  -2.35900 40.30700 24.38000
C  -1.93400 40.77800 23.06500
C  -0.61200 41.38400 23.34500
C  -3.66900 39.67100 24.82400
C  -2.64100 40.72800 21.71300
O  -2.22000 41.27900 20.75800
C  -3.94400 40.00600 21.61700
N  2.20000 42.77200 23.71400
C  1.53900 42.47400 22.53800
C  2.28600 42.91700 21.36000
C  3.41800 43.74900 21.94000
C  3.41900 43.30900 23.50200
C  2.86000 41.62500 20.60700
C  3.48200 45.24600 21.69300
C  4.01400 45.74500 20.28700
N  3.13900 42.70700 26.45900
C  4.30900 43.26900 25.89300
C  5.24300 43.45700 26.97000
C  4.49700 43.22000 28.15400
C  3.23100 42.74200 27.78500
C  6.64200 43.95800 26.82800
C  4.59200 43.14100 29.63700
O  5.57000 43.47100 30.32700
C  3.19800 42.64800 30.14300
C  3.41700 41.34900 30.76800
O  3.70900 40.30800 30.21300
O  3.21100 41.44300 32.12300
C  3.05200 40.22700 32.92600
H  -2.31100 39.92000 27.18400
H  -0.23800 41.96600 21.44200
H  5.44900 43.90000 24.15200
H  0.49200 41.20400 30.79600
H  -1.89600 41.57700 29.22400
H  -2.30900 39.78100 30.45600
H  -0.64600 39.23400 30.72500
H  -1.57700 38.83800 29.32900
H  -1.49800 43.32800 30.31100
H  0.26500 43.88700 30.31900
H  -1.24500 44.04600 32.42500
H  0.46800 43.86000 32.48700
H  -3.90600 39.86200 25.87100
H  -3.53800 38.62600 24.54600
H  -4.53300 39.97800 24.23400
H  -3.72500 38.97500 21.89300
H  -4.26500 40.04000 20.57600
H  -4.74800 40.45900 22.19700
H  1.71900 43.58600 20.71300
H  4.39200 43.42900 21.57000
H  3.07500 41.94700 19.58900
H  2.14900 40.79800 20.61900
H  3.72300 41.25000 21.15700
H  4.20800 45.70000 22.36800
H  2.51100 45.63600 21.99700
H  3.99800 44.93100 19.56200
H  5.00100 46.18700 20.42200
H  3.30700 46.42200 19.80700
H  7.10900 43.14900 26.26600
H  7.06700 44.13600 27.81600
H  6.86500 44.77400 26.14200
H  2.79000 43.37100 30.84900
H  2.04900 39.81400 32.82300
H  3.33100 40.28600 33.97800
H  3.73100 39.42100 32.64800

