79

Mg 42.18800 40.96800 26.79700
C  41.45000 43.48000 29.13400
C  43.13300 38.97500 29.41600
C  43.03800 38.58300 24.46900
C  41.38700 43.21500 24.23400
N  42.35100 41.27500 29.04800
C  41.87500 42.35000 29.78300
C  42.02200 42.07400 31.26400
C  42.76200 40.73200 31.28100
C  42.73000 40.28400 29.84300
C  44.19500 40.81900 31.93000
C  40.59700 41.96100 31.91200
C  40.48900 42.70300 33.21300
H  39.85000 41.91800 34.41900
N  42.74600 38.96900 26.93900
C  43.19600 38.38000 28.14200
C  43.53400 37.00100 27.81000
C  43.48700 36.81500 26.39600
C  43.00600 38.10800 25.81100
C  43.86900 35.92000 28.87200
C  43.85600 35.57500 25.57800
O  43.55800 35.51100 24.38100
C  44.42700 34.37100 26.21500
N  42.36900 40.95700 24.62600
C  42.63800 39.82200 23.87500
C  42.44100 40.17400 22.33800
C  41.68400 41.53400 22.32300
C  41.82300 41.92500 23.85700
C  43.87100 40.28400 21.74000
C  40.13600 41.40800 21.96400
C  39.38400 40.20100 22.57700
N  41.74300 42.99800 26.61700
C  41.31800 43.71300 25.53100
C  40.93900 45.03400 25.98900
C  40.94200 45.03800 27.41700
C  41.37500 43.72600 27.74500
C  40.53100 46.19400 25.21100
C  40.76400 45.84000 28.66000
O  40.46900 46.99600 28.81800
C  40.88500 44.73500 29.73200
C  41.73600 45.35000 30.81600
O  42.90800 45.49400 30.81100
O  40.88900 45.89200 31.74100
C  41.59800 46.34000 33.02600
H  43.38700 38.31700 30.25000
H  43.09700 37.89900 23.62000
H  41.21700 43.95000 23.44600
H  42.59200 42.87000 31.74300
H  42.09400 40.06900 31.83000
H  44.33800 40.08500 32.72300
H  44.54300 41.82600 32.15900
H  44.93900 40.48100 31.20800
H  40.33300 40.92700 32.13200
H  39.89400 42.41300 31.21200
H  39.91100 43.60500 33.01000
H  41.48900 43.03100 33.49700
H  44.93100 35.73900 28.70500
H  43.34300 34.96600 28.86400
H  43.75900 36.36000 29.86300
H  43.94300 34.05800 27.14000
H  45.49600 34.51600 26.36900
H  44.42600 33.50800 25.54900
H  41.97400 39.38000 21.75400
H  42.11200 42.32700 21.70800
H  43.94600 39.46400 21.02600
H  44.65700 40.30800 22.49400
H  44.05300 41.18200 21.15100
H  40.16000 41.44800 20.87500
H  39.61400 42.35300 22.11300
H  38.86800 39.66000 21.78400
H  38.54700 40.55700 23.17900
H  39.96300 39.69100 23.34600
H  39.79600 46.69100 25.84400
H  40.03600 45.88300 24.29100
H  41.39600 46.83000 25.02300
H  39.90800 44.52500 30.16700
H  41.91600 45.61900 33.77900
H  40.97200 46.98400 33.64400
H  42.43800 46.97900 32.75300

