79

Mg 47.81300 35.49600 27.83500
C  46.06100 33.82800 30.22800
C  48.04500 38.16700 29.91700
C  48.92500 37.19700 25.17800
C  46.98200 32.83600 25.50900
N  47.10700 35.93600 29.85300
C  46.59500 35.01100 30.66900
C  46.66700 35.61800 32.14300
C  46.87000 37.11200 31.93200
C  47.36800 37.12600 30.51500
C  45.53800 37.77400 32.24200
C  47.74400 34.86500 33.07100
C  48.63200 35.56800 34.02300
H  47.92700 36.40300 35.12300
N  48.48500 37.32800 27.61100
C  48.53700 38.31300 28.60300
C  49.18500 39.43800 28.08600
C  49.50300 39.28700 26.71000
C  48.96600 37.86800 26.43200
C  49.41300 40.60800 28.96800
C  50.11300 40.20600 25.62400
O  50.47200 39.84800 24.53400
C  50.39800 41.56700 26.11500
N  47.96000 35.07500 25.62700
C  48.43500 35.95000 24.73800
C  48.21900 35.50600 23.28700
C  47.76400 34.08900 23.45700
C  47.68200 33.90700 24.97600
C  47.26600 36.57200 22.58200
C  48.67400 33.00000 22.75200
C  48.02400 31.97800 21.84600
N  46.83900 33.62400 27.86600
C  46.61800 32.62500 26.89500
C  45.87100 31.52300 27.47400
C  45.56200 31.99200 28.76400
C  46.25800 33.23700 28.98400
C  45.50700 30.21000 26.89500
C  44.87500 31.60600 29.94400
O  44.24600 30.61000 30.21700
C  45.10500 32.87500 30.87100
C  45.46500 32.41900 32.22700
O  46.37100 31.63300 32.50000
O  44.58400 32.88400 33.15500
C  44.75300 32.42800 34.53900
H  48.21900 38.96800 30.63800
H  49.28300 37.65100 24.25200
H  46.59200 31.97600 24.96000
H  45.69400 35.35500 32.55800
H  47.61200 37.58900 32.57200
H  45.65500 38.85600 32.19400
H  45.29400 37.67300 33.30000
H  44.77400 37.45100 31.53500
H  48.45000 34.25900 32.50200
H  47.15700 34.16000 33.66100
H  49.25100 36.21300 33.40000
H  49.30500 34.83900 34.47500
H  50.36700 41.11900 28.83700
H  49.45100 40.27000 30.00300
H  48.62600 41.35600 28.86900
H  51.30200 41.55900 26.72500
H  49.57200 41.89900 26.74400
H  50.50500 42.32100 25.33400
H  49.20700 35.35000 22.85200
H  46.69900 33.92500 23.29000
H  47.26300 37.44800 23.23100
H  46.27600 36.12800 22.47500
H  47.61300 36.66800 21.55300
H  49.19800 32.33100 23.43500
H  49.48000 33.44100 22.16600
H  48.01500 32.41600 20.84700
H  46.96400 31.87700 22.07600
H  48.49800 31.00000 21.92300
H  45.91200 30.13500 25.88600
H  44.44400 29.98400 26.80500
H  46.09100 29.49000 27.46900
H  44.16600 33.38900 31.07300
H  43.73400 32.36100 34.91900
H  45.34800 33.17000 35.07300
H  45.24500 31.45800 34.60400

