79

Mg 9.74000 47.87400 25.65400
C  7.30200 48.34600 28.29900
C  12.13400 48.88200 27.94500
C  11.86100 47.79800 23.09400
C  7.03600 47.17800 23.47400
N  9.68700 48.43600 27.95000
C  8.66300 48.37800 28.76900
C  9.19900 48.50100 30.26000
C  10.56400 49.18000 29.95600
C  10.85500 48.72700 28.55300
C  10.62700 50.74100 29.99000
C  9.30100 47.15700 30.96300
C  8.69300 47.07300 32.31200
H  9.44000 46.22700 33.42900
N  11.71300 48.41200 25.49800
C  12.53500 48.70600 26.57300
C  13.96700 48.82100 26.06200
C  13.85300 48.50900 24.69100
C  12.41700 48.20200 24.43000
C  15.18800 49.23300 26.96000
C  14.97500 48.21800 23.72000
O  14.89200 48.10400 22.51500
C  16.37900 48.00800 24.30700
N  9.49000 47.63500 23.52600
C  10.56000 47.58000 22.67100
C  10.14500 47.17900 21.27600
C  8.64100 46.79700 21.42600
C  8.32400 47.23200 22.88000
C  10.39500 48.24900 20.21700
C  8.22000 45.41000 21.15800
C  8.56800 44.24600 22.20200
N  7.59200 47.67600 25.79300
C  6.65300 47.39600 24.81500
C  5.37700 47.46500 25.44000
C  5.57400 47.86100 26.77600
C  6.97900 47.98000 26.97200
C  4.06500 47.07900 24.83400
C  4.87200 48.19700 28.04000
O  3.70100 48.07400 28.27400
C  6.00300 48.52200 29.07600
C  5.74400 47.70800 30.30900
O  5.57100 46.49300 30.28100
O  5.50500 48.51500 31.38600
C  4.72300 47.94200 32.39800
H  12.96600 49.15100 28.60000
H  12.53600 47.76800 22.23600
H  6.13600 46.84800 22.95000
H  8.49300 49.22500 30.66700
H  11.29800 48.82600 30.67900
H  11.37700 51.07100 30.70800
H  9.69200 51.18400 30.33200
H  10.80800 51.19200 29.01400
H  10.30500 46.73500 30.92400
H  8.67500 46.50100 30.36000
H  7.69900 46.65500 32.15700
H  8.39100 48.02700 32.74400
H  14.91800 49.62300 27.94100
H  15.47200 50.18100 26.50300
H  15.98900 48.49800 27.04000
H  16.51500 47.22300 25.05000
H  16.73800 48.94600 24.73200
H  17.13200 47.86300 23.53200
H  10.72700 46.29300 21.02000
H  8.00300 47.52200 20.92100
H  10.99700 49.07200 20.60100
H  9.49900 48.71000 19.80100
H  11.04000 47.82600 19.44600
H  8.67600 45.07100 20.22800
H  7.15200 45.42200 20.93800
H  9.38100 43.60100 21.86900
H  7.63200 43.70200 22.32900
H  8.71800 44.60200 23.22100
H  3.36100 47.83600 25.18000
H  3.91500 46.02800 25.08000
H  4.13400 47.27600 23.76400
H  6.11900 49.55600 29.40100
H  5.41000 47.45000 33.08600
H  3.94800 47.29000 31.99400
H  4.23800 48.76500 32.92200

