79

Mg 5.51200 52.91200 41.10100
C  4.87100 49.43700 40.80900
C  8.55300 52.35000 39.61700
C  5.69000 56.17700 40.63300
C  2.08800 53.31200 41.96900
N  6.57600 51.06400 40.33300
C  6.11000 49.77600 40.27100
C  7.17300 48.86100 39.56200
C  8.49000 49.77300 39.62900
C  7.82100 51.16700 39.94900
C  9.37900 49.36600 40.86400
C  6.82000 48.47000 38.12800
C  5.85200 49.40400 37.36900
H  6.57600 50.41200 36.39000
N  6.96100 54.07900 40.33600
C  8.08200 53.67600 39.63900
C  8.86500 54.82000 39.28400
C  8.10800 55.93100 39.67100
C  6.84200 55.39000 40.22800
C  10.21900 54.72200 38.76500
C  8.47600 57.40500 39.48500
O  9.52200 57.74800 38.97400
C  7.56900 58.53500 39.88200
N  4.02700 54.46900 41.19200
C  4.44300 55.79200 41.13200
C  3.23300 56.77500 41.27300
C  2.01300 55.86600 41.54700
C  2.72700 54.43200 41.57100
C  3.54700 57.64200 42.55200
C  0.97600 55.88200 40.37000
C  0.08700 57.14800 40.40100
N  3.88800 51.74300 41.51300
C  2.60600 52.00200 41.95600
C  1.95000 50.81000 42.38500
C  2.82100 49.74900 41.95400
C  3.95900 50.35600 41.34400
C  0.61300 50.75800 43.21900
C  2.93500 48.35000 41.81600
O  2.12500 47.57300 42.21400
C  4.28400 48.05100 41.12300
C  4.01400 47.15600 39.95100
O  3.35700 47.44000 38.93900
O  4.52400 45.88300 40.18500
C  3.79600 44.86500 39.42400
H  9.56000 52.16200 39.23600
H  5.68500 57.26200 40.51100
H  1.12000 53.51700 42.43000
H  7.34000 47.92000 40.08600
H  9.13400 49.74200 38.75000
H  9.07300 48.37400 41.19600
H  9.35300 50.12900 41.64100
H  10.41100 49.26500 40.52700
H  6.29400 47.51900 38.21700
H  7.68200 48.26200 37.49400
H  5.20400 50.04100 37.97200
H  5.16500 48.77700 36.80100
H  10.35500 54.42900 37.72400
H  10.71500 53.93100 39.32800
H  10.80600 55.62100 38.95300
H  8.18400 59.42500 39.74800
H  7.44900 58.49900 40.96500
H  6.71900 58.61900 39.20400
H  3.23200 57.32800 40.33400
H  1.54100 56.05300 42.51100
H  4.43400 57.26300 43.05900
H  2.72600 57.62500 43.26800
H  3.78700 58.68600 42.35000
H  0.38200 54.99000 40.57000
H  1.31500 55.85000 39.33500
H  0.03400 57.50400 39.37200
H  0.55900 57.83900 41.09800
H  -0.94500 56.88700 40.63700
H  -0.13400 50.07200 42.82000
H  0.15000 51.74500 43.21900
H  0.75500 50.51600 44.27200
H  4.89800 47.48800 41.82600
H  4.25500 44.74200 38.44300
H  2.76100 45.12100 39.19800
H  3.86900 43.90800 39.93900

