79

Mg 1.69000 -1.07100 44.12900
C  5.09800 -0.25300 43.43300
C  0.81400 1.69400 42.26600
C  -1.37600 -2.05200 44.54200
C  2.87700 -4.04800 45.47300
N  2.84700 0.48000 42.88700
C  4.19100 0.64500 42.83200
C  4.58500 1.76200 41.91600
C  3.22800 2.58700 41.75200
C  2.21300 1.54200 42.26400
C  2.99900 3.82400 42.65200
C  5.35700 1.34300 40.58500
C  6.70000 2.01000 40.28300
H  7.00200 2.72900 39.02100
N  -0.01800 -0.19400 43.62600
C  -0.18800 0.87100 42.80400
C  -1.63700 1.14400 42.60900
C  -2.28600 0.14400 43.28500
C  -1.25000 -0.74400 43.91500
C  -2.22200 2.22600 41.79100
C  -3.86600 0.08300 43.36100
O  -4.56600 0.88500 42.75600
C  -4.59200 -1.01400 44.06400
N  0.91000 -2.85200 44.79900
C  -0.44700 -3.03500 44.83100
C  -0.86700 -4.41700 45.36500
C  0.48000 -4.90500 45.99200
C  1.48200 -3.90700 45.33600
C  -2.21400 -4.67500 46.18500
C  0.69300 -6.45200 45.91400
C  0.87700 -7.17900 47.23100
N  3.57100 -2.01700 44.37200
C  3.87900 -3.26200 44.88200
C  5.32600 -3.47700 44.91400
C  5.82200 -2.24100 44.49000
C  4.73800 -1.43200 44.03500
C  6.03500 -4.69100 45.45400
C  7.04600 -1.47400 44.36200
O  8.16300 -1.73000 44.77400
C  6.60800 -0.16700 43.63500
C  6.99900 0.95300 44.50700
O  6.67500 1.06600 45.67900
O  7.77500 1.84600 43.82900
C  8.57900 2.81600 44.61400
H  0.55500 2.55300 41.64300
H  -2.41600 -2.37300 44.63600
H  3.18200 -4.92500 46.04800
H  5.36500 2.35100 42.39900
H  2.90900 2.82200 40.73600
H  3.84200 4.13800 43.26700
H  2.18500 3.69300 43.36500
H  2.69400 4.65700 42.02000
H  4.69100 1.40200 39.72300
H  5.58700 0.28100 40.67100
H  7.47900 1.25300 40.38100
H  6.83900 2.77100 41.05100
H  -2.91300 1.82500 41.05000
H  -1.48300 2.87900 41.32800
H  -2.89700 2.81100 42.41600
H  -5.62500 -0.70500 44.22600
H  -4.18400 -0.95800 45.07400
H  -4.35200 -2.00900 43.68900
H  -1.01100 -4.87500 44.38600
H  0.41300 -4.67600 47.05500
H  -2.91000 -5.35300 45.69000
H  -2.66500 -3.71200 46.42100
H  -1.88600 -5.17400 47.09700
H  1.58600 -6.60600 45.30700
H  -0.09900 -6.89500 45.31100
H  0.34500 -8.12300 47.11200
H  0.41500 -6.65300 48.06700
H  1.95600 -7.16400 47.38500
H  7.07800 -4.58400 45.15600
H  5.64900 -5.58200 44.95900
H  5.98100 -4.72200 46.54200
H  7.23800 -0.13400 42.74700
H  9.51000 2.97000 44.06900
H  8.69000 2.46200 45.64000
H  8.18200 3.83100 44.60800

