79

Mg 29.73300 57.41700 41.20900
C  26.99000 55.51100 40.16800
C  31.83200 54.86500 39.95100
C  32.26000 59.59800 41.25100
C  27.39300 60.12000 41.69600
N  29.45600 55.46700 40.28700
C  28.27400 54.89700 39.92300
C  28.46600 53.47600 39.31400
C  29.99500 53.17200 39.56600
C  30.48500 54.59300 39.95500
C  30.27100 52.15100 40.71500
C  28.09400 53.38800 37.73200
C  28.45200 54.60900 36.91800
H  27.63100 55.06800 35.74000
N  31.77000 57.21800 40.75800
C  32.44000 56.06900 40.21800
C  33.90400 56.39500 40.32800
C  34.08700 57.76400 40.81200
C  32.67800 58.25300 40.85600
C  34.93700 55.40600 39.96700
C  35.46600 58.52800 41.10600
O  36.54200 57.91100 41.04000
C  35.40500 59.92600 41.48900
N  29.78300 59.52100 41.40800
C  31.03700 60.15700 41.53800
C  30.82700 61.69300 41.82500
C  29.27200 61.79100 41.84100
C  28.73900 60.41000 41.68800
C  31.46600 62.11300 43.16500
C  28.60600 62.79900 40.82700
C  28.02300 64.09400 41.37200
N  27.58300 57.77500 41.07000
C  26.79100 58.88600 41.23900
C  25.42300 58.59500 40.95200
C  25.48600 57.22800 40.60400
C  26.78800 56.82700 40.62100
C  24.19200 59.48500 40.99200
C  24.69200 56.07200 40.14100
O  23.52800 55.94200 39.82700
C  25.76200 54.92500 39.79200
C  25.30800 53.69100 40.47500
O  25.36400 53.42400 41.65800
O  24.53700 52.97400 39.54500
C  23.88400 51.77400 40.10600
H  32.57000 54.07500 39.79600
H  33.00400 60.39600 41.30500
H  26.78100 61.02400 41.72300
H  27.85500 52.79000 39.90000
H  30.44800 52.86000 38.62400
H  29.36900 51.84300 41.24500
H  31.01500 52.48400 41.43800
H  30.73000 51.25600 40.29400
H  27.10800 52.92200 37.72700
H  28.71700 52.61800 37.27600
H  29.43800 54.45900 36.47800
H  28.54100 55.51300 37.52000
H  35.85000 55.87100 39.59600
H  34.48900 54.89600 39.11500
H  35.19300 54.82100 40.85000
H  35.02900 60.54200 40.67300
H  36.46200 60.18600 41.54500
H  34.80800 60.00500 42.39800
H  31.32100 62.20800 41.00000
H  28.89000 62.08500 42.81900
H  32.22000 62.82800 42.83600
H  31.86900 61.21300 43.62800
H  30.77800 62.58800 43.86500
H  27.84000 62.32500 40.21300
H  29.33800 63.03900 40.05700
H  28.46400 64.94400 40.85200
H  28.30800 64.12800 42.42400
H  26.95600 64.00000 41.17100
H  23.60800 59.62000 40.08200
H  24.47700 60.45100 41.40800
H  23.59300 58.96400 41.73900
H  25.67500 54.86900 38.70700
H  24.43500 51.23200 40.87400
H  23.50900 51.16700 39.28200
H  22.90800 51.98400 40.54200

