79

Mg -11.03500 40.23500 38.76200
C  -9.98300 37.01700 37.83400
C  -7.74000 41.27700 37.96800
C  -12.05200 43.52100 38.59600
C  -14.32700 39.23700 38.72300
N  -9.15800 39.24000 38.01900
C  -8.95000 37.93100 37.88700
C  -7.50800 37.50000 37.62400
C  -6.78400 38.89800 37.93500
C  -7.97700 39.88500 37.93700
C  -5.89500 38.92100 39.24400
C  -7.36500 36.84300 36.25800
C  -7.76800 37.68700 35.03400
H  -8.74600 37.02900 34.03600
N  -10.03300 42.16000 38.45300
C  -8.68200 42.33300 38.11000
C  -8.43800 43.70900 37.99900
C  -9.63000 44.46400 38.34100
C  -10.68300 43.35600 38.39200
C  -7.10200 44.21400 37.65100
C  -9.65300 45.98200 38.44100
O  -8.61700 46.61100 38.41800
C  -10.98700 46.68000 38.59500
N  -12.87500 41.30300 38.73400
C  -13.08700 42.63600 38.82800
C  -14.51900 43.04800 39.09900
C  -15.26900 41.67300 39.15200
C  -14.14000 40.66200 38.86600
C  -14.69300 43.90700 40.31100
C  -16.56700 41.57100 38.22500
C  -17.86300 40.78500 38.77900
N  -11.99400 38.41900 38.48000
C  -13.31100 38.18600 38.45500
C  -13.50700 36.77000 38.28300
C  -12.22800 36.26800 38.03800
C  -11.34700 37.30200 38.13000
C  -14.78700 35.97300 38.33100
C  -11.43100 35.07700 37.80500
O  -11.71900 33.87900 37.88400
C  -9.95500 35.52600 37.57600
C  -8.98000 34.82500 38.43200
O  -9.01500 34.90500 39.71500
O  -8.11400 33.95100 37.78400
C  -7.16900 33.25400 38.66500
H  -6.69500 41.45500 37.70400
H  -12.34200 44.57400 38.58100
H  -15.36800 38.90500 38.72300
H  -7.18200 36.74100 38.33600
H  -6.07000 39.11900 37.14000
H  -4.83300 38.81800 39.02400
H  -6.19000 38.11200 39.91300
H  -5.97300 39.92200 39.66800
H  -7.85200 35.86900 36.20500
H  -6.28300 36.73300 36.18500
H  -6.78300 37.77900 34.57500
H  -8.00600 38.69000 35.38900
H  -7.27100 44.88600 36.81000
H  -6.29200 43.50100 37.49500
H  -6.70100 44.77100 38.49800
H  -11.52100 46.24800 39.44100
H  -11.51900 46.46100 37.67000
H  -10.81000 47.72800 38.83900
H  -14.92800 43.65200 38.28900
H  -15.54500 41.41400 40.17400
H  -13.91700 44.07300 41.05800
H  -15.60000 43.57100 40.81300
H  -14.98000 44.84000 39.82800
H  -16.24100 40.95600 37.38600
H  -16.83200 42.54000 37.80400
H  -17.73100 39.88100 38.18500
H  -18.78900 41.28800 38.49700
H  -17.81500 40.69500 39.86400
H  -15.66100 36.51700 38.68800
H  -14.63100 35.20200 39.08600
H  -14.92300 35.46800 37.37500
H  -9.77600 35.28300 36.52800
H  -7.18800 33.46800 39.73400
H  -6.20800 33.67600 38.37300
H  -7.17800 32.17900 38.48500

