79

Mg 10.32800 48.09800 25.83700
C  8.11500 48.38100 28.49200
C  12.51600 49.94500 27.63000
C  12.53600 47.99000 23.24900
C  7.74500 47.32200 23.72500
N  10.28900 48.96800 27.81900
C  9.34400 48.92400 28.75600
C  9.74500 49.56200 30.09700
C  10.94400 50.43400 29.59000
C  11.28200 49.79300 28.23700
C  10.68100 51.91600 29.41200
C  10.20200 48.53900 31.12400
C  9.55800 48.73700 32.56900
H  9.70600 47.54400 33.52600
N  12.28800 48.68900 25.55100
C  13.02100 49.43500 26.40000
C  14.42900 49.60200 25.93900
C  14.39800 49.07600 24.62500
C  13.06500 48.52300 24.45900
C  15.45700 50.24000 26.77000
C  15.45800 49.09600 23.60100
O  15.30000 48.59300 22.47200
C  16.73900 49.86400 23.87800
N  10.26400 47.61400 23.81500
C  11.27300 47.62000 22.90300
C  10.82600 47.19400 21.48400
C  9.28600 46.92700 21.72800
C  9.04700 47.42000 23.20500
C  11.15600 48.32600 20.36200
C  8.84900 45.43500 21.50800
C  9.55300 44.30100 22.30900
N  8.36200 47.77000 26.02900
C  7.45000 47.49000 25.09700
C  6.13000 47.27600 25.66900
C  6.33700 47.59900 27.05700
C  7.72000 47.92900 27.16200
C  4.86700 46.88700 24.87200
C  5.73500 47.75800 28.30600
O  4.56600 47.73400 28.61900
C  6.80100 48.23100 29.30800
C  7.00700 47.19200 30.36900
O  7.85700 46.33000 30.22700
O  6.06600 47.23400 31.42400
C  6.34000 46.41800 32.60400
H  13.21500 50.59500 28.15900
H  13.12200 47.63400 22.39900
H  6.93400 47.03000 23.05400
H  8.94200 50.17400 30.50700
H  11.89500 50.43500 30.12300
H  9.69000 52.16900 29.78700
H  10.75800 52.20200 28.36300
H  11.41700 52.55600 29.89900
H  11.24800 48.59000 31.42600
H  9.87900 47.54700 30.80600
H  8.50400 48.58400 32.33400
H  9.81300 49.70600 32.99800
H  15.83500 51.14400 26.29400
H  16.23500 49.47800 26.72000
H  15.24400 50.52200 27.80100
H  17.39000 49.90300 23.00400
H  17.19600 49.39100 24.74700
H  16.62600 50.90500 24.17900
H  11.23400 46.20100 21.29300
H  8.64400 47.51600 21.07300
H  11.94600 47.99800 19.68600
H  11.55300 49.16600 20.93000
H  10.25500 48.62900 19.82800
H  9.01400 45.10100 20.48300
H  7.80700 45.31900 21.80500
H  8.86400 43.73300 22.93500
H  10.30400 44.60400 23.03800
H  10.05600 43.69900 21.55300
H  5.02500 46.31700 23.95600
H  4.20700 47.70200 24.57700
H  4.11600 46.39100 25.48700
H  6.43600 49.15700 29.75300
H  6.86900 45.47600 32.46000
H  5.33800 46.07300 32.85800
H  6.74200 47.11900 33.33700

