79

Mg 1.96800 41.63000 25.22500
C  2.72200 41.77500 28.71600
C  -1.04800 40.36800 26.10000
C  1.49900 40.84600 21.97200
C  5.16300 42.95600 24.57200
N  1.02300 41.01200 27.18100
C  1.43800 41.24400 28.49100
C  0.33900 41.01600 29.52800
C  -0.81500 40.49500 28.66700
C  -0.28000 40.64700 27.20800
C  -1.30400 39.01600 28.91900
C  -0.01300 42.26200 30.42600
C  0.09500 41.86800 31.88800
H  -0.77100 40.76900 32.50500
N  0.44100 40.79200 24.16800
C  -0.74000 40.37700 24.69500
C  -1.62600 39.88500 23.57800
C  -0.88000 40.10600 22.38600
C  0.43800 40.55800 22.82800
C  -3.02100 39.23300 23.72300
C  -1.29500 39.82600 20.93400
O  -0.65300 40.24600 19.97300
C  -2.54300 39.14900 20.61300
N  3.25900 41.85000 23.47800
C  2.83600 41.36100 22.23600
C  3.81900 41.85300 21.17600
C  4.90400 42.72000 21.96900
C  4.42400 42.48800 23.41900
C  4.47900 40.67500 20.36800
C  4.88700 44.29100 21.47300
C  3.87500 45.26200 22.12300
N  3.64300 42.32700 26.39500
C  4.83400 42.90200 25.94100
C  5.66000 43.19200 27.09000
C  4.81000 42.70600 28.15800
C  3.61500 42.21500 27.72000
C  7.03600 43.72900 27.10900
C  4.89600 42.55100 29.59400
O  5.75700 42.84800 30.40300
C  3.54800 41.82200 29.94600
C  3.78700 40.53200 30.51600
O  4.43600 39.60300 29.94500
O  3.27900 40.43900 31.77500
C  3.47700 39.24100 32.60100
H  -2.00800 39.90100 26.33000
H  1.38600 40.75200 20.89000
H  6.08000 43.50000 24.33700
H  0.70200 40.16100 30.09900
H  -1.67000 41.14200 28.86800
H  -0.83400 38.54500 29.78200
H  -1.06400 38.39700 28.05500
H  -2.38300 39.05900 29.06600
H  -0.96100 42.75600 30.21000
H  0.61000 43.15300 30.33500
H  0.20200 42.79500 32.45200
H  1.07500 41.41200 32.02700
H  -3.73000 39.66800 23.01900
H  -3.32700 39.35500 24.76200
H  -2.99000 38.16000 23.53400
H  -3.41100 39.79400 20.75100
H  -2.61400 38.24400 21.21600
H  -2.43200 38.95900 19.54600
H  3.15600 42.48000 20.58000
H  5.90600 42.31600 21.82100
H  5.48900 40.49300 20.73700
H  4.46500 41.09000 19.36000
H  3.76700 39.86000 20.49800
H  4.73900 44.28600 20.39300
H  5.86000 44.73400 21.68500
H  3.33600 45.58700 21.23300
H  4.35600 46.08000 22.65800
H  3.20300 44.88500 22.89400
H  7.19700 44.15300 26.11800
H  7.74700 42.91100 27.22700
H  7.10300 44.46900 27.90800
H  3.07800 42.51000 30.64900
H  4.29900 39.64500 33.19300
H  3.67500 38.26500 32.15900
H  2.46600 39.14200 32.99700

