79

Mg 1.14000 7.45000 25.11900
C  1.62700 9.27200 28.28000
C  1.03000 4.62100 26.94800
C  1.05600 5.89900 22.19000
C  1.89200 10.57100 23.44800
N  1.50200 6.99600 27.37600
C  1.53800 7.89500 28.46600
C  1.42500 7.11400 29.73600
C  1.48400 5.58100 29.29100
C  1.31400 5.71000 27.77800
C  2.79500 4.79300 29.60600
C  0.14900 7.52300 30.66700
C  0.17800 7.57700 32.20000
H  1.42000 7.00400 33.00700
N  0.99800 5.49700 24.57300
C  0.86600 4.49600 25.49000
C  0.66400 3.25200 24.72600
C  0.66700 3.57300 23.34000
C  0.89900 5.03600 23.29800
C  0.55900 1.79500 25.33900
C  0.57400 2.69100 22.13700
O  0.64400 3.11200 21.01200
C  0.31200 1.26100 22.29600
N  1.32400 8.15800 23.12700
C  1.25600 7.31400 22.10800
C  1.41100 8.04700 20.81600
C  1.60000 9.50400 21.30200
C  1.57800 9.41300 22.74000
C  2.60800 7.51000 19.93200
C  0.47200 10.52300 20.85700
C  -0.89700 10.68800 21.60500
N  1.58800 9.46800 25.69600
C  1.78800 10.66100 24.86000
C  1.92900 11.86900 25.76200
C  1.81800 11.33000 27.07000
C  1.61900 9.91500 27.01200
C  2.10900 13.34700 25.43600
C  1.92100 11.70400 28.58700
O  2.01900 12.81900 29.08400
C  1.72100 10.30900 29.31200
C  2.84800 10.15400 30.28900
O  4.00600 9.87200 30.06200
O  2.29200 10.46800 31.50100
C  3.15800 10.37700 32.67300
H  0.88200 3.70700 27.52700
H  0.87100 5.42100 21.22600
H  2.16500 11.46200 22.87900
H  2.31000 7.37900 30.31400
H  0.63600 5.02400 29.69000
H  3.32300 5.43300 30.31300
H  3.31600 4.43900 28.71700
H  2.60300 3.96000 30.28300
H  -0.57500 6.77000 30.35300
H  -0.20000 8.52800 30.43100
H  -0.76700 7.16600 32.55600
H  0.16400 8.60100 32.57300
H  1.41200 1.15900 25.10000
H  -0.29100 1.23900 24.94400
H  0.45600 1.92300 26.41700
H  -0.56500 1.10500 22.92300
H  1.12500 0.74600 22.80800
H  0.19700 0.72800 21.35200
H  0.50400 8.01400 20.21100
H  2.56900 9.93700 21.05200
H  3.00600 8.30000 19.29600
H  2.32300 6.66700 19.30100
H  3.43800 7.22700 20.58000
H  0.30800 10.17100 19.83900
H  0.89700 11.52600 20.88900
H  -1.72800 10.85000 20.91900
H  -0.70700 11.48900 22.31800
H  -1.06700 9.79100 22.20100
H  2.90700 13.62600 24.74800
H  2.24500 13.88000 26.37700
H  1.17000 13.63200 24.96200
H  0.77100 10.43000 29.83200
H  3.57200 11.38400 32.72900
H  4.04400 9.78500 32.44500
H  2.65400 10.10600 33.60100

