79

Mg 8.96700 5.01600 27.40900
C  10.22300 3.34400 30.22100
C  7.21100 7.13900 29.51800
C  7.75000 6.55800 24.70800
C  10.12600 2.43900 25.41800
N  8.60800 5.05800 29.64100
C  9.38500 4.44600 30.60300
C  9.13300 5.04900 32.04700
C  8.08900 6.12600 31.80400
C  7.94000 6.11600 30.23500
C  6.79400 6.01500 32.63000
C  10.38700 5.53600 32.74200
C  10.38100 5.81900 34.26800
H  11.58500 5.51600 35.20300
N  7.76600 6.71400 27.15300
C  7.06900 7.31700 28.13100
C  6.31600 8.40300 27.49500
C  6.47300 8.36000 26.08800
C  7.31800 7.18800 25.93900
C  5.29200 9.22500 28.29100
C  5.79600 9.01600 24.92300
O  5.92200 8.67700 23.76200
C  4.92700 10.27600 25.19300
N  8.98700 4.59800 25.40400
C  8.45200 5.43100 24.39600
C  8.76300 4.92000 23.00200
C  9.54800 3.57400 23.25200
C  9.60200 3.54600 24.79200
C  7.45500 4.64900 22.17000
C  10.90000 3.37200 22.62200
C  11.06000 1.97800 22.05100
N  9.86200 3.20200 27.70600
C  10.41300 2.33700 26.77800
C  11.29800 1.34600 27.45100
C  11.21400 1.72200 28.83700
C  10.33200 2.81200 28.97200
C  12.12600 0.29000 26.75400
C  11.78900 1.32200 30.12500
O  12.52600 0.42000 30.48800
C  11.04900 2.43100 31.20300
C  10.27700 1.67100 32.27500
O  9.43800 0.89200 31.98200
O  10.79900 1.80900 33.53300
C  10.19900 1.13100 34.69100
H  6.84100 7.84300 30.26700
H  7.43700 6.90200 23.72000
H  10.64900 1.74100 24.76000
H  8.70400 4.34900 32.76300
H  8.44400 7.12600 32.05200
H  6.02400 5.42600 32.13300
H  6.49900 7.03300 32.88500
H  7.02000 5.46700 33.54500
H  10.70700 6.49000 32.32400
H  11.19400 4.83200 32.53900
H  9.57100 5.21000 34.67100
H  10.12600 6.87500 34.35400
H  5.16900 9.07800 29.36400
H  4.30900 9.09400 27.83700
H  5.50500 10.29100 28.20500
H  5.59500 11.13800 25.21200
H  4.39700 10.30400 26.14500
H  4.19400 10.44900 24.40500
H  9.37800 5.68200 22.52400
H  8.92200 2.72300 22.98200
H  7.44000 3.66100 21.70900
H  7.50100 5.43800 21.42000
H  6.62900 4.77300 22.87000
H  11.54300 3.47900 23.49600
H  11.14600 4.14300 21.89200
H  11.61800 2.17000 21.13400
H  10.16200 1.41700 21.79400
H  11.63300 1.36700 22.74900
H  12.22100 -0.45800 27.54100
H  13.09800 0.72200 26.51300
H  11.63600 0.07400 25.80500
H  11.73600 3.10300 31.71700
H  9.26600 0.60600 34.48700
H  9.95100 1.86000 35.46200
H  10.94100 0.44600 35.10200

