79

Mg -2.34900 17.14800 26.00600
C  -2.34800 15.04300 29.03700
C  -2.75800 19.87400 28.18500
C  -2.33800 19.01600 23.43700
C  -2.54600 14.16400 24.20700
N  -2.66600 17.35500 28.42700
C  -2.57800 16.40400 29.43400
C  -2.61400 17.09700 30.83500
C  -2.93200 18.56800 30.48500
C  -2.66100 18.65500 28.91200
C  -4.32800 19.09400 30.91200
C  -1.55300 16.80300 31.88700
C  -1.56500 17.49400 33.23500
H  -2.12700 16.69000 34.43400
N  -2.53300 19.20400 25.77500
C  -2.63700 20.16800 26.78200
C  -2.44500 21.44400 26.15100
C  -2.18900 21.15400 24.69300
C  -2.34200 19.75700 24.59600
C  -2.61600 22.76600 26.82300
C  -1.90900 22.13000 23.49000
O  -1.82700 21.75900 22.36400
C  -1.79200 23.61100 23.76800
N  -2.55600 16.64000 24.03000
C  -2.49200 17.62700 23.13400
C  -2.59200 17.03100 21.72800
C  -2.27400 15.51000 21.99800
C  -2.50200 15.40900 23.48100
C  -3.87500 17.32800 20.94600
C  -0.81700 14.97100 21.71800
C  0.34800 15.90400 22.10100
N  -2.43400 15.07800 26.45400
C  -2.44900 13.92300 25.59700
C  -2.33200 12.75900 26.35700
C  -2.27300 13.14000 27.63300
C  -2.34300 14.54100 27.69800
C  -2.44600 11.33900 25.83600
C  -2.10700 12.61900 28.93800
O  -2.09700 11.44400 29.28400
C  -2.13900 13.85500 29.92600
C  -0.83100 13.97800 30.68400
O  0.17500 14.65700 30.28900
O  -0.93500 13.29700 31.87000
C  0.17600 13.50100 32.78800
H  -2.98200 20.72200 28.83500
H  -2.36000 19.57500 22.49900
H  -2.32900 13.25400 23.64400
H  -3.53200 16.64700 31.21400
H  -2.16400 19.17000 30.97000
H  -4.86800 19.30900 29.98900
H  -4.29300 20.09300 31.34600
H  -4.87300 18.39800 31.54900
H  -0.60400 16.87700 31.35700
H  -1.72200 15.74000 32.05800
H  -1.99900 18.49300 33.20000
H  -0.49600 17.61600 33.41200
H  -2.48900 22.77600 27.90600
H  -3.55800 23.18400 26.46800
H  -1.77800 23.43000 26.61300
H  -1.76700 24.17100 22.83300
H  -0.95100 23.75000 24.44700
H  -2.70100 23.86500 24.31300
H  -1.75600 17.47900 21.19200
H  -2.92500 14.84400 21.43200
H  -4.52600 16.45800 21.03400
H  -3.80600 17.67000 19.91300
H  -4.34800 18.18100 21.43300
H  -0.59000 14.84400 20.65900
H  -0.65400 14.02600 22.23600
H  1.04800 15.90700 21.26600
H  0.93900 15.52700 22.93500
H  0.12200 16.96700 22.18700
H  -1.96700 10.66800 26.54900
H  -1.94800 11.26700 24.86900
H  -3.48000 11.02300 25.69700
H  -2.97200 13.67000 30.60500
H  -0.11100 14.34000 33.42100
H  1.09600 13.69800 32.23800
H  0.35200 12.54900 33.29100

