79

Mg 17.21100 -1.47900 28.03100
C  16.15600 0.68400 30.71800
C  19.25300 -3.09800 30.34900
C  18.74700 -3.07200 25.56700
C  15.76000 0.67600 25.85400
N  17.63100 -1.17600 30.23900
C  16.98100 -0.31200 31.11700
C  17.32500 -0.57300 32.53500
C  18.49100 -1.55500 32.32800
C  18.47300 -2.04600 30.87700
C  19.84100 -1.10800 32.78300
C  16.17100 -1.17900 33.41100
C  15.93900 -0.49000 34.78800
H  17.12300 0.28600 35.43400
N  18.77900 -2.88200 27.94900
C  19.41000 -3.52400 29.03300
C  20.27000 -4.59200 28.58600
C  20.07800 -4.62900 27.16100
C  19.14000 -3.53600 26.80300
C  21.27200 -5.33300 29.44700
C  20.71800 -5.51100 26.13400
O  20.40700 -5.46700 24.95300
C  21.58700 -6.63300 26.54900
N  17.20600 -1.23900 26.03600
C  17.87900 -2.06600 25.21700
C  17.73500 -1.55100 23.79800
C  16.60500 -0.51600 23.92100
C  16.51800 -0.36100 25.35300
C  19.08700 -1.00300 23.28300
C  15.22000 -0.87500 23.27100
C  14.89600 -0.10500 21.97800
N  16.18000 0.35200 28.23500
C  15.63800 1.07600 27.17900
C  14.88200 2.15500 27.79900
C  15.04300 2.07300 29.14500
C  15.83300 0.92600 29.39600
C  14.10300 3.11300 26.96000
C  14.77300 2.63400 30.45100
O  14.08800 3.67900 30.64300
C  15.47300 1.74700 31.56200
C  16.44200 2.70000 32.26100
O  17.63300 2.75100 32.09000
O  15.74200 3.53800 33.11400
C  16.50700 4.67600 33.60900
H  19.85300 -3.57400 31.12700
H  19.13900 -3.55300 24.66900
H  15.28200 1.29900 25.09500
H  17.67900 0.35500 32.98300
H  18.30900 -2.47700 32.88100
H  20.10000 -1.61200 33.71400
H  19.87100 -0.02000 32.72600
H  20.56700 -1.24200 31.98200
H  16.37000 -2.22500 33.64500
H  15.17700 -1.17700 32.96400
H  15.86100 -1.31700 35.49500
H  14.98400 0.02600 34.69200
H  20.88600 -6.33500 29.63400
H  21.53400 -4.76400 30.33900
H  22.23400 -5.30000 28.93600
H  21.68600 -7.36500 25.74800
H  21.16100 -7.16600 27.40000
H  22.50700 -6.07000 26.70400
H  17.42100 -2.40600 23.19900
H  17.02400 0.43000 23.57800
H  19.79400 -0.68500 24.04900
H  18.89600 -0.09500 22.71000
H  19.56400 -1.77700 22.68200
H  14.35300 -0.75600 23.92100
H  15.22300 -1.87800 22.84400
H  13.90000 0.31000 22.12800
H  14.83600 -0.71000 21.07300
H  15.62600 0.66300 21.72500
H  14.59300 3.98900 26.53600
H  13.24900 3.47000 27.53500
H  13.56000 2.54100 26.20700
H  14.74100 1.44700 32.31200
H  16.73100 5.37900 32.80700
H  17.45300 4.29000 33.98900
H  16.03900 5.18300 34.45200

