79

Mg 52.97700 24.07200 44.56200
C  50.16200 25.97200 43.73500
C  51.50000 21.34800 43.09100
C  55.90600 22.53700 44.89200
C  54.52500 27.07700 45.76900
N  51.20100 23.80400 43.26200
C  50.24200 24.71300 43.06800
C  49.03500 24.10900 42.35300
C  49.36900 22.56000 42.53100
C  50.80500 22.53300 42.95700
C  48.41000 21.84900 43.51100
C  49.22500 24.53900 40.88100
C  47.91200 24.89800 40.12000
H  47.37000 23.74300 39.29400
N  53.56700 22.09300 44.10500
C  52.83600 21.13400 43.56000
C  53.63700 19.94800 43.49000
C  54.95500 20.29400 43.95400
C  54.89100 21.68700 44.42700
C  53.12700 18.64800 42.94100
C  56.11300 19.34400 44.00900
O  56.08000 18.22900 43.61200
C  57.39900 19.68400 44.79200
N  55.00100 24.86400 44.87100
C  55.93900 23.92400 45.11300
C  57.18500 24.56800 45.77700
C  56.86900 26.09600 45.74300
C  55.37900 26.02000 45.45100
C  57.59400 24.04600 47.17300
C  57.56100 26.91300 44.61800
C  58.51700 27.99000 45.00100
N  52.48600 26.13600 44.75300
C  53.12300 27.13400 45.52000
C  52.07000 28.23600 45.75400
C  50.95800 27.85600 45.01500
C  51.24200 26.50500 44.49600
C  52.31300 29.54100 46.51800
C  49.55100 28.25600 44.61600
O  48.92800 29.25100 44.77900
C  48.96100 26.96000 43.85700
C  48.40000 27.51700 42.57400
O  49.08000 28.06300 41.75500
O  46.98300 27.37200 42.61300
C  46.28300 27.86400 41.44700
H  51.09100 20.40900 42.71000
H  56.87300 22.08800 45.12800
H  55.04500 27.92700 46.21500
H  48.05700 24.36300 42.76100
H  49.34400 22.06100 41.56300
H  47.80500 20.98900 43.22600
H  47.70900 22.54000 43.97900
H  49.09900 21.43900 44.24900
H  49.58300 23.63900 40.38100
H  50.06000 25.23200 40.77800
H  48.15000 25.71500 39.44000
H  47.12000 25.02300 40.85900
H  53.88000 18.26400 42.25400
H  52.30700 18.82000 42.24400
H  52.74200 17.92700 43.66200
H  57.99000 18.77500 44.90400
H  57.07800 19.97800 45.79100
H  57.95400 20.48700 44.30600
H  58.05700 24.37900 45.15000
H  57.11400 26.57600 46.69000
H  58.66900 24.13400 47.33300
H  57.29500 23.04600 47.48700
H  57.04900 24.70700 47.84800
H  56.87700 27.46200 43.97100
H  58.04300 26.16100 43.99200
H  59.45400 27.84700 44.46300
H  58.56300 28.14800 46.07800
H  58.21700 28.98700 44.67800
H  52.96400 30.20000 45.94200
H  52.83100 29.26200 47.43600
H  51.40300 30.02800 46.86800
H  48.14300 26.57200 44.46300
H  46.35800 26.98300 40.80900
H  46.85100 28.64300 40.93800
H  45.28500 28.26900 41.61400

