79

Mg 47.26400 25.01400 27.63100
C  48.12000 27.26200 30.13700
C  46.55600 22.72400 30.06500
C  46.24300 23.02500 25.21700
C  48.57000 27.28800 25.25200
N  47.46900 25.00900 29.84800
C  47.61500 26.09500 30.62400
C  47.41500 25.70700 32.10200
C  47.29600 24.17200 32.05700
C  47.12600 23.88800 30.52600
C  48.35300 23.30300 32.72400
C  46.22100 26.43900 32.73300
C  45.60900 25.93400 34.12100
H  45.38400 26.97800 35.20300
N  46.55400 23.01600 27.64800
C  46.30200 22.25200 28.74400
C  45.76000 21.00100 28.27400
C  45.56100 21.16900 26.85900
C  46.19800 22.43500 26.49400
C  45.35200 19.84300 29.20600
C  44.79900 20.22900 25.94200
O  44.58400 20.51700 24.76000
C  44.18900 18.97600 26.37700
N  47.49400 25.08000 25.55100
C  46.88700 24.16700 24.80300
C  46.91100 24.56800 23.33200
C  47.67900 25.94400 23.28600
C  47.97600 26.11300 24.77800
C  47.47700 23.44800 22.41600
C  46.81700 27.06900 22.76300
C  47.54400 28.12600 21.96200
N  48.23700 26.85200 27.63300
C  48.73100 27.64900 26.60300
C  49.36400 28.86800 27.22800
C  49.11200 28.71600 28.57000
C  48.50100 27.47500 28.82700
C  50.10300 29.96800 26.54500
C  49.18000 29.42700 29.87000
O  49.61900 30.53000 30.13900
C  48.41800 28.53900 30.93800
C  49.24300 28.37300 32.21400
O  50.31300 27.87000 32.40000
O  48.54000 29.05900 33.19500
C  49.10300 29.26400 34.49400
H  46.33500 21.95500 30.80700
H  45.84500 22.45600 24.37400
H  48.88800 27.87900 24.39000
H  48.31200 26.03100 32.63000
H  46.34900 23.91200 32.52900
H  49.07000 23.96500 33.21000
H  48.73100 22.59300 31.98800
H  47.83700 22.72500 33.49000
H  45.49000 26.47100 31.92400
H  46.37200 27.50400 32.90600
H  46.25600 25.20000 34.60200
H  44.60000 25.53400 34.01600
H  44.32100 19.52900 29.04300
H  45.32200 20.06200 30.27300
H  46.06200 19.05600 28.95300
H  43.97800 18.25800 25.58400
H  43.24700 19.00000 26.92400
H  44.93400 18.48300 27.00200
H  45.85000 24.64100 23.09300
H  48.57500 25.84000 22.67500
H  48.29000 22.97400 22.96600
H  47.95300 24.02800 21.62500
H  46.72300 22.72100 22.11300
H  46.35800 27.50900 23.64900
H  46.06800 26.64400 22.09500
H  48.54600 27.81100 21.66900
H  47.68200 28.97100 22.63700
H  47.10600 28.38600 20.99800
H  49.55100 30.29200 25.66200
H  51.10400 29.71500 26.19700
H  50.06100 30.83200 27.20900
H  47.53500 29.04900 31.32300
H  49.17000 30.32800 34.72000
H  50.13500 28.91600 34.47300
H  48.65000 28.79000 35.36500

