79

Mg 5.57000 56.72500 42.98700
C  5.03100 53.16300 42.83200
C  8.50600 56.17500 41.38400
C  5.77300 60.05100 42.46400
C  2.30000 57.02100 44.10500
N  6.45400 54.86200 42.00800
C  6.15400 53.52600 42.15300
C  7.10800 52.62300 41.38400
C  8.42600 53.57500 41.47200
C  7.77300 54.96600 41.55300
C  9.33500 53.35900 42.81000
C  6.66100 52.33800 39.81700
C  7.08600 51.04100 39.24800
H  6.12000 50.33400 38.29800
N  7.02800 57.93100 42.13400
C  8.19100 57.53000 41.55900
C  8.91400 58.62300 40.94100
C  8.08900 59.79200 41.16100
C  6.86900 59.28800 41.90900
C  10.36000 58.49200 40.31900
C  8.40800 61.21700 40.69600
O  9.52000 61.41200 40.17000
C  7.45700 62.33600 40.81300
N  4.20500 58.23000 43.08200
C  4.57600 59.57200 42.99700
C  3.57600 60.45000 43.73200
C  2.37600 59.49600 44.16900
C  3.03500 58.14500 43.75100
C  4.22900 61.35300 44.77300
C  0.98100 59.84300 43.56800
C  -0.14500 60.21300 44.65300
N  3.94000 55.42900 43.41400
C  2.68700 55.70900 43.92800
C  1.97200 54.49700 44.16500
C  2.87000 53.50500 43.84000
C  4.06000 54.06700 43.35700
C  0.64300 54.33800 44.69800
C  3.13500 52.06000 43.93300
O  2.45100 51.18100 44.41000
C  4.57300 51.77000 43.32800
C  4.52200 50.70600 42.30300
O  3.77900 50.62300 41.32700
O  5.31900 49.59300 42.67900
C  5.23100 48.36200 41.92200
H  9.55400 55.99900 41.13000
H  5.96300 61.12300 42.54400
H  1.31700 57.23300 44.53000
H  7.24300 51.71000 41.96400
H  9.01700 53.44800 40.56600
H  10.38900 53.40700 42.53700
H  9.10400 52.31200 43.00800
H  9.10400 54.03300 43.63500
H  7.17200 53.08000 39.20400
H  5.58100 52.46700 39.74300
H  7.44400 50.23500 39.88800
H  8.04500 51.31400 38.80600
H  10.21200 58.85900 39.30400
H  10.60800 57.44000 40.17800
H  11.12200 58.91600 40.97300
H  6.58500 61.82200 40.41000
H  7.81000 63.16300 40.19600
H  7.24200 62.80200 41.77400
H  3.18100 61.09200 42.94500
H  2.30200 59.44100 45.25500
H  5.31800 61.36000 44.73500
H  3.82300 61.12100 45.75700
H  3.98100 62.34100 44.38500
H  0.68000 58.94500 43.02900
H  0.88700 60.73500 42.94800
H  0.21300 60.21200 45.68200
H  -0.75800 59.31400 44.71900
H  -0.78100 61.09300 44.55400
H  -0.06200 54.40000 43.86900
H  0.53900 55.09800 45.47200
H  0.68500 53.35100 45.15900
H  5.19200 51.44800 44.16500
H  4.31800 48.13600 41.37100
H  5.37400 47.53600 42.61900
H  6.03900 48.34700 41.19100

