79

Mg 30.03500 57.72400 40.20500
C  27.22000 55.67800 39.23000
C  32.01000 55.25000 38.91800
C  32.54900 59.86800 40.50200
C  27.69600 60.32200 40.96400
N  29.56800 55.70600 38.93400
C  28.41900 54.98900 38.89000
C  28.64100 53.56700 38.38100
C  30.16700 53.56900 38.09900
C  30.64400 54.86700 38.69500
C  31.01100 52.34500 38.63500
C  27.80900 53.06600 37.10600
C  27.58200 54.10000 35.99300
H  28.19900 53.85600 34.63200
N  32.08000 57.47600 39.96800
C  32.71900 56.38500 39.37400
C  34.15400 56.69400 39.31500
C  34.30800 58.08000 39.71900
C  32.93700 58.57100 40.07800
C  35.14100 55.61300 38.82800
C  35.63900 58.88200 39.79200
O  36.66800 58.41000 39.38600
C  35.70700 60.26900 40.31700
N  30.07400 59.81900 40.66200
C  31.28200 60.44500 40.91200
C  31.13100 61.97900 41.19900
C  29.55500 62.00600 41.54700
C  29.03600 60.64900 40.94700
C  32.04100 62.39300 42.36000
C  28.83900 63.22100 40.95000
C  28.00400 63.91500 42.08700
N  27.89600 57.99300 40.20900
C  27.13900 59.09200 40.54600
C  25.78800 58.79500 40.44700
C  25.77600 57.41600 39.94100
C  27.08800 57.02600 39.74200
C  24.51300 59.72100 40.77400
C  24.83800 56.31000 39.68700
O  23.64100 56.17800 39.81200
C  25.76800 55.13900 39.17900
C  25.50400 53.94500 40.00200
O  25.96500 53.61900 41.13000
O  24.62700 53.13400 39.37500
C  24.54700 51.73500 39.84700
H  32.61600 54.53500 38.35800
H  33.35800 60.58600 40.34700
H  26.96500 61.09700 41.20400
H  28.48100 52.93900 39.25700
H  30.23400 53.82300 37.04200
H  30.30100 51.55100 38.86800
H  31.53200 52.52400 39.57600
H  31.63700 52.05200 37.79200
H  26.81400 52.72500 37.39300
H  28.23200 52.14200 36.71200
H  27.96600 55.04500 36.37600
H  26.50800 54.26300 35.89900
H  35.54600 55.82800 37.83900
H  34.59000 54.67700 38.74100
H  35.91400 55.39200 39.56400
H  36.72200 60.65500 40.41200
H  35.42100 60.19200 41.36600
H  35.26800 61.06800 39.72000
H  31.39700 62.48200 40.26900
H  29.46300 61.95000 42.63200
H  32.36900 61.45100 42.79900
H  31.54300 62.92900 43.16800
H  32.89000 62.99200 42.02900
H  28.19900 62.83200 40.15900
H  29.52000 63.91000 40.45000
H  28.08100 63.61900 43.13300
H  26.97100 63.82800 41.75100
H  28.09800 65.00100 42.08500
H  23.68800 59.29500 40.20300
H  24.78200 60.72100 40.43400
H  24.23800 59.59900 41.82200
H  25.55000 54.89200 38.14000
H  25.43600 51.16000 39.58900
H  23.78700 51.27600 39.21500
H  24.34700 51.68800 40.91800

