79

Mg 1.56800 41.59600 25.09800
C  2.22400 42.00100 28.40000
C  -1.48700 40.11100 25.95700
C  0.90300 41.01900 21.83500
C  4.55200 43.13700 24.21700
N  0.50400 41.04800 26.95000
C  0.97700 41.38000 28.20400
C  -0.14900 41.11200 29.28800
C  -1.22600 40.28300 28.45100
C  -0.64600 40.35000 27.02600
C  -1.46400 38.82700 28.88900
C  -0.73700 42.42300 29.83900
C  -1.13400 42.50400 31.28500
H  -1.84400 41.28700 31.88900
N  0.08800 40.72300 24.09100
C  -1.20200 40.29200 24.59300
C  -2.12600 39.95400 23.51400
C  -1.38100 40.05300 22.32500
C  -0.00700 40.56900 22.72200
C  -3.54800 39.50400 23.79800
C  -1.71400 39.65300 20.96600
O  -1.00300 39.90600 19.94300
C  -3.12500 39.17400 20.63300
N  2.54000 42.13300 23.31700
C  2.12300 41.61800 22.08800
C  3.18900 41.84700 20.98200
C  4.28100 42.67700 21.75500
C  3.76800 42.72300 23.20600
C  3.74500 40.59000 20.24500
C  4.37400 44.10700 21.06500
C  5.10300 44.22000 19.73400
N  2.99700 42.60400 26.11100
C  4.27600 43.02200 25.63300
C  5.04400 43.49600 26.82800
C  4.26200 43.16600 27.93800
C  3.12200 42.53600 27.43200
C  6.49500 44.09500 26.86300
C  4.21500 43.12900 29.38900
O  5.04000 43.46100 30.20400
C  2.84600 42.41900 29.72000
C  3.21200 41.24000 30.47300
O  4.08800 40.46400 30.23700
O  2.32800 41.14100 31.59500
C  2.72500 40.13300 32.59800
H  -2.40100 39.54500 26.14800
H  0.80400 40.87800 20.75700
H  5.50200 43.51100 23.83000
H  0.27900 40.45800 30.04800
H  -2.21800 40.73100 28.50200
H  -2.47300 38.61400 29.24200
H  -0.85400 38.72700 29.78600
H  -1.21100 38.06800 28.14900
H  -1.66200 42.72500 29.34700
H  0.04800 43.16600 29.69500
H  -1.62600 43.43600 31.56300
H  -0.18500 42.43500 31.81600
H  -3.88500 39.88900 24.76000
H  -3.56200 38.41500 23.85700
H  -4.24300 39.72000 22.98700
H  -3.80900 40.02300 20.60700
H  -3.48000 38.44800 21.36500
H  -3.27700 38.80000 19.62100
H  2.79500 42.46600 20.17600
H  5.22200 42.12800 21.72400
H  4.78000 40.47000 20.56500
H  3.56900 40.63800 19.17000
H  3.25200 39.68300 20.59600
H  4.86200 44.79300 21.75700
H  3.36200 44.47900 20.90500
H  4.31200 44.31200 18.99000
H  5.56400 43.25000 19.55000
H  5.83800 45.01600 19.61700
H  6.41600 44.75900 27.72300
H  6.75700 44.80800 26.08200
H  7.30600 43.38100 27.00700
H  2.16400 43.04000 30.29900
H  3.50400 40.57400 33.21900
H  3.04500 39.22500 32.08600
H  1.83200 39.92800 33.18900

