79

Mg 48.47500 35.30800 27.53600
C  46.71400 33.48800 29.93400
C  48.22200 38.07400 29.54100
C  50.02800 36.97200 25.16000
C  48.06000 32.55100 25.33600
N  47.68600 35.60600 29.62400
C  47.17200 34.68700 30.50100
C  47.14800 35.25100 31.91000
C  47.28400 36.82300 31.61800
C  47.76800 36.89600 30.19000
C  46.07700 37.60500 31.95400
C  48.38900 34.75300 32.70900
C  48.32800 34.75400 34.24200
H  47.17300 35.50400 34.97000
N  48.92200 37.25800 27.31600
C  48.73900 38.25000 28.24500
C  49.32700 39.49500 27.76200
C  49.98800 39.23600 26.51000
C  49.68500 37.80700 26.25800
C  49.28200 40.68200 28.62600
C  50.76500 40.24100 25.51000
O  51.12600 39.91500 24.38100
C  51.06000 41.63600 26.00600
N  48.80400 34.86000 25.40900
C  49.61800 35.68500 24.74800
C  50.22500 34.99800 23.46700
C  49.82100 33.54400 23.69100
C  48.76800 33.62700 24.86400
C  49.90300 35.72400 22.16400
C  51.01000 32.46700 24.08200
C  50.92000 31.21700 23.31800
N  47.52800 33.48200 27.51700
C  47.44900 32.45100 26.58500
C  46.73700 31.29900 27.08800
C  46.33000 31.71300 28.34800
C  46.83300 33.06900 28.56800
C  46.55600 30.08000 26.39700
C  45.60400 31.35100 29.50300
O  45.04000 30.33700 29.79800
C  45.68900 32.57700 30.55700
C  46.12500 32.15200 31.87600
O  47.22700 31.86900 32.26400
O  45.03100 32.16200 32.71000
C  45.22000 32.01100 34.19300
H  48.09800 38.96000 30.16700
H  50.63800 37.40600 24.36500
H  48.21100 31.69400 24.67600
H  46.22400 35.02600 32.44200
H  48.04800 37.23900 32.27400
H  46.09200 37.97900 32.97800
H  45.15400 37.04700 31.79600
H  46.15200 38.48800 31.31900
H  49.27300 35.35200 32.49000
H  48.75400 33.75700 32.45800
H  49.25600 35.24800 34.52900
H  48.32700 33.70000 34.52000
H  50.17600 40.64400 29.24800
H  48.31900 40.77400 29.12900
H  49.23900 41.54300 27.96000
H  51.96100 42.09600 25.60100
H  51.24900 41.41500 27.05700
H  50.28000 42.37900 25.84000
H  51.30000 35.07300 23.63100
H  49.26900 33.20200 22.81500
H  49.69500 34.95800 21.41800
H  50.76700 36.30100 21.83400
H  49.01000 36.34400 22.24000
H  51.06000 32.34300 25.16400
H  51.94700 32.95900 23.81900
H  51.86200 31.04000 22.79700
H  50.04500 31.12200 22.67600
H  50.77300 30.45700 24.08500
H  46.04100 30.15700 25.43900
H  45.84300 29.65300 27.10200
H  47.49100 29.52000 26.38600
H  44.72200 33.03200 30.77500
H  45.14600 30.94600 34.41300
H  44.35100 32.52100 34.60900
H  46.17200 32.38000 34.57400

