79

Mg 1.40200 8.46000 25.09400
C  2.47300 10.42900 27.95100
C  1.69100 5.74200 27.03600
C  0.42200 6.72000 22.39600
C  1.67900 11.33700 23.08800
N  1.90500 8.11100 27.34100
C  2.32600 9.07200 28.27800
C  2.24200 8.39500 29.68400
C  2.32800 6.86400 29.30800
C  2.03400 6.89900 27.78500
C  3.58900 6.03400 29.67900
C  0.97600 8.76200 30.43200
C  1.02300 8.84400 31.97000
H  2.08600 7.99300 32.78100
N  0.95400 6.43100 24.78100
C  1.14000 5.44100 25.74300
C  0.65000 4.26700 25.16400
C  0.31500 4.51600 23.86300
C  0.52600 5.94000 23.60900
C  0.75600 2.95700 25.81100
C  -0.14300 3.59900 22.69300
O  -0.33900 3.99100 21.59100
C  -0.31900 2.13100 22.94400
N  1.28000 8.98900 23.07400
C  0.82100 8.05500 22.15200
C  0.95500 8.56600 20.73000
C  1.05800 10.16600 21.03100
C  1.47400 10.12700 22.49500
C  2.13800 8.06700 19.83400
C  -0.33700 10.82200 20.68500
C  -0.18900 12.21600 19.98500
N  1.96500 10.50000 25.42100
C  1.97900 11.53000 24.48000
C  2.36700 12.74500 25.15100
C  2.41400 12.40600 26.56900
C  2.20300 11.00300 26.66600
C  2.66600 14.05800 24.53700
C  2.72400 12.89700 27.88700
O  3.01700 13.99500 28.33900
C  2.75800 11.59000 28.82400
C  4.00900 11.37800 29.56000
O  4.97100 10.73500 29.26700
O  3.83000 11.92100 30.76200
C  4.94500 11.57800 31.69400
H  1.69700 4.89000 27.71900
H  0.10800 6.23000 21.47200
H  1.77400 12.27000 22.52900
H  3.03900 8.83300 30.28600
H  1.53700 6.25000 29.74100
H  4.03600 6.64800 30.46100
H  4.23300 5.77900 28.83700
H  3.17800 5.12600 30.11900
H  0.22000 8.06400 30.07200
H  0.72100 9.70700 29.95200
H  0.04300 8.74400 32.43700
H  1.26400 9.86800 32.25600
H  -0.23600 2.58300 26.06200
H  1.31900 2.93000 26.74400
H  1.37900 2.20900 25.32100
H  -0.89300 2.01400 23.86300
H  0.67700 1.69900 23.03900
H  -0.74400 1.64700 22.06500
H  0.07300 8.29300 20.15100
H  1.85600 10.63700 20.45700
H  2.78200 7.31700 20.29300
H  2.76500 8.84100 19.39100
H  1.59700 7.55100 19.04100
H  -0.81500 10.94500 21.65700
H  -0.98700 10.14400 20.13200
H  -0.91700 12.29600 19.17800
H  0.73400 12.51800 19.48800
H  -0.46000 12.99400 20.69800
H  2.04100 14.10700 23.64500
H  3.74600 14.13500 24.40700
H  2.40500 14.85600 25.23200
H  1.94600 11.68200 29.54600
H  5.00700 10.51500 31.92400
H  4.70000 12.10300 32.61800
H  5.89200 11.88900 31.25300

