79

Mg 17.12900 -1.59200 27.79700
C  15.98700 0.21300 30.53500
C  18.61900 -3.82600 30.11100
C  18.43200 -3.40700 25.25600
C  15.48800 0.50100 25.60900
N  17.35100 -1.76400 30.09500
C  16.76400 -0.88900 30.93200
C  17.06600 -1.26900 32.43100
C  18.02400 -2.48400 32.28400
C  18.03700 -2.73600 30.74300
C  19.52000 -2.43400 32.73600
C  15.88300 -1.51000 33.37000
C  16.09600 -1.59100 34.96400
H  17.25700 -0.71600 35.48300
N  18.45700 -3.24800 27.73300
C  18.91300 -4.06600 28.74700
C  19.60200 -5.23300 28.26100
C  19.58300 -5.12600 26.84200
C  18.78700 -3.89700 26.52300
C  20.31300 -6.25400 29.19100
C  20.11500 -6.02900 25.75100
O  20.18300 -5.68900 24.58200
C  20.77700 -7.34300 26.15700
N  16.96800 -1.56400 25.76600
C  17.66800 -2.27400 24.92900
C  17.32100 -1.92700 23.44500
C  16.46100 -0.63600 23.64300
C  16.26400 -0.55600 25.11300
C  18.58500 -1.63700 22.66000
C  15.15600 -0.52500 22.68300
C  13.97200 -1.44000 23.00000
N  15.87200 -0.04700 28.03500
C  15.21300 0.69600 27.03000
C  14.58800 1.83300 27.59500
C  14.82400 1.60100 29.01400
C  15.61700 0.51300 29.21100
C  13.74000 2.85000 26.89700
C  14.35800 2.14900 30.30700
O  13.54700 3.00400 30.58100
C  15.32100 1.34300 31.32400
C  16.40400 2.29700 31.78500
O  17.54500 2.33800 31.35600
O  16.03800 2.96900 32.93300
C  17.08800 3.64500 33.66200
H  18.95900 -4.50200 30.89700
H  18.68800 -3.97900 24.36200
H  15.03800 1.12200 24.83200
H  17.59900 -0.46400 32.93700
H  17.67900 -3.39100 32.77900
H  20.16900 -2.87600 31.98100
H  19.55600 -2.97000 33.68400
H  19.84200 -1.39700 32.83200
H  15.44700 -2.41000 32.93800
H  15.09900 -0.79200 33.13000
H  16.16700 -2.66900 35.11000
H  15.14200 -1.28100 35.39000
H  19.85600 -7.23700 29.06600
H  20.19400 -6.08100 30.26100
H  21.38400 -6.22700 28.99100
H  21.14100 -7.80000 25.23600
H  20.08500 -7.97500 26.71200
H  21.64500 -7.21800 26.80400
H  16.76900 -2.68100 22.88400
H  17.03100 0.27400 23.45500
H  18.34000 -1.43300 21.61700
H  19.19700 -2.53800 22.70800
H  19.22700 -0.88400 23.11700
H  15.58900 -0.68600 21.69500
H  14.76700 0.48200 22.83000
H  14.26600 -2.13900 23.78400
H  13.59900 -1.97900 22.12900
H  13.14000 -0.86200 23.40000
H  13.97200 3.82700 27.32100
H  12.70600 2.50500 26.91100
H  13.97900 2.84000 25.83400
H  14.80400 1.07200 32.24500
H  18.12300 3.59900 33.32500
H  17.12100 3.22400 34.66700
H  16.71100 4.66300 33.77000

