79

Mg -12.38900 37.92400 41.27900
C  -10.54500 35.04000 40.27800
C  -9.81800 39.80000 39.91700
C  -14.32600 40.59300 41.47100
C  -14.87200 35.91900 42.26600
N  -10.35000 37.41300 40.32600
C  -9.84700 36.24100 39.97700
C  -8.41900 36.37000 39.45600
C  -8.18400 37.91900 39.44700
C  -9.55000 38.45000 39.89500
C  -7.01700 38.45500 40.33000
C  -8.30200 35.74500 38.07900
C  -6.99100 35.00900 37.80900
H  -6.11500 35.65700 36.78000
N  -12.14100 39.89500 40.75500
C  -11.01100 40.49800 40.28300
C  -11.24800 41.92400 40.13800
C  -12.57000 42.17600 40.53600
C  -13.11900 40.86600 40.88400
C  -10.17900 42.93100 39.63100
C  -13.19500 43.54200 40.45500
O  -12.61000 44.61500 40.36800
C  -14.73200 43.57900 40.36800
N  -14.36500 38.15300 41.56500
C  -14.92400 39.37800 41.76000
C  -16.37000 39.32700 42.16700
C  -16.59300 37.84500 42.37500
C  -15.19700 37.21300 42.02000
C  -16.72300 40.16100 43.39200
C  -17.64800 37.11800 41.54000
C  -18.56100 36.10000 42.28700
N  -12.71200 35.90700 41.25800
C  -13.67800 35.27000 41.94000
C  -13.37300 33.84100 41.97600
C  -12.20100 33.65700 41.20900
C  -11.78000 34.97700 40.86700
C  -14.15400 32.76000 42.73800
C  -11.26200 32.68100 40.70400
O  -11.28900 31.45100 40.68400
C  -10.11700 33.53900 40.01900
C  -8.81700 33.15600 40.65100
O  -8.07300 32.40600 40.08300
O  -8.61500 33.75800 41.88300
C  -7.42700 33.22800 42.64200
H  -9.01300 40.42100 39.52000
H  -14.91600 41.49300 41.65700
H  -15.59800 35.20200 42.65300
H  -7.70300 35.86900 40.10800
H  -7.93800 38.26200 38.44200
H  -6.17900 38.88800 39.78300
H  -6.54300 37.67600 40.92700
H  -7.41000 39.25800 40.95300
H  -8.53000 36.41800 37.25200
H  -9.09700 35.02700 37.88100
H  -7.20400 33.98800 37.49400
H  -6.33900 34.93500 38.68000
H  -10.13600 43.67500 40.42600
H  -10.75700 43.34900 38.80600
H  -9.24600 42.43000 39.37400
H  -15.27300 43.64800 41.31100
H  -15.03000 42.67200 39.84200
H  -14.92400 44.42000 39.70000
H  -17.01300 39.68500 41.36300
H  -16.74900 37.67000 43.44000
H  -17.32400 39.62500 44.12600
H  -17.36100 40.95800 43.01000
H  -15.83700 40.51000 43.92200
H  -17.24300 36.49000 40.74700
H  -18.24800 37.92700 41.12500
H  -19.54700 36.56500 42.28500
H  -18.28400 35.83200 43.30700
H  -18.60500 35.25300 41.60300
H  -14.03800 31.82400 42.19100
H  -15.21400 32.92800 42.92800
H  -13.64900 32.48700 43.66400
H  -9.92000 33.24800 38.98800
H  -7.18400 33.88500 43.47600
H  -6.54500 33.21400 42.00100
H  -7.72500 32.23900 42.99100

