79

Mg 8.67100 46.90100 25.53600
C  6.75300 46.69900 28.42500
C  11.26300 48.06100 27.42200
C  10.42200 47.29000 22.73700
C  5.72000 46.42600 23.70000
N  8.97900 47.32200 27.76000
C  8.05400 47.21800 28.78100
C  8.64400 47.84700 30.08700
C  9.95900 48.52700 29.58800
C  10.09500 47.92400 28.20600
C  10.10100 50.12000 29.69500
C  8.91600 46.86700 31.27600
C  8.20400 47.25100 32.60400
H  8.19200 46.06600 33.64400
N  10.60900 47.47000 25.15100
C  11.55900 47.73300 26.11400
C  12.87500 47.73800 25.46200
C  12.70500 47.50500 24.04400
C  11.20500 47.43000 23.92000
C  14.17600 48.10600 26.16400
C  13.66000 47.40200 22.87300
O  13.23000 47.39800 21.69700
C  15.12100 47.14500 23.17300
N  8.17100 46.71300 23.52700
C  9.03500 47.07700 22.53800
C  8.41700 47.28300 21.15300
C  6.95400 46.88300 21.51800
C  6.92300 46.66000 22.97400
C  8.54800 48.69000 20.52000
C  6.57500 45.51900 20.77600
C  5.13400 45.44500 20.23300
N  6.65400 46.59500 25.88500
C  5.60200 46.29800 25.09700
C  4.40700 46.05500 25.82100
C  4.83800 46.21100 27.13800
C  6.17600 46.49600 27.14800
C  3.02600 45.91300 25.24200
C  4.41400 46.21500 28.51800
O  3.31800 46.07200 29.00000
C  5.67900 46.60300 29.39000
C  5.81900 45.56500 30.40400
O  6.23900 44.45000 30.21400
O  5.25100 45.95100 31.57200
C  4.86300 44.98100 32.56700
H  12.09200 48.40300 28.04500
H  10.98200 47.35700 21.80200
H  4.81000 46.27500 23.11500
H  7.97300 48.60000 30.49900
H  10.76400 48.06800 30.16200
H  9.14000 50.63400 29.69300
H  10.70200 50.47200 28.85600
H  10.64800 50.36900 30.60500
H  9.96400 46.71900 31.53400
H  8.44900 45.93400 30.95900
H  7.18100 47.60600 32.48000
H  8.73900 48.03800 33.13500
H  14.76500 48.75100 25.51300
H  14.73500 47.21900 26.46200
H  14.02500 48.73200 27.04400
H  15.42600 48.18800 23.25900
H  15.72500 46.71700 22.37300
H  15.30800 46.67300 24.13800
H  8.92300 46.60100 20.46800
H  6.22900 47.62500 21.18400
H  7.60000 49.18800 20.72100
H  8.70800 48.72000 19.44200
H  9.31200 49.38400 20.87100
H  6.63600 44.62300 21.39400
H  7.19700 45.46700 19.88200
H  4.60300 46.29500 20.66000
H  4.73200 44.47700 20.53300
H  5.05700 45.48700 19.14600
H  3.03500 45.46400 24.24900
H  2.54600 46.88900 25.32600
H  2.52700 45.13900 25.82500
H  5.53500 47.52900 29.94700
H  3.77500 45.04500 32.55200
H  5.24900 45.26400 33.54600
H  5.25100 43.96900 32.44800

