79

Mg 9.23700 3.96200 27.86100
C  10.71000 2.24100 30.66100
C  7.26000 5.58800 30.00200
C  8.08100 5.25800 25.17700
C  10.93200 1.39100 25.83400
N  8.94400 3.65000 30.06500
C  9.78000 3.15300 31.05800
C  9.46400 3.67900 32.42700
C  8.23500 4.65300 32.19000
C  8.08000 4.62200 30.60500
C  6.91200 4.37600 32.96600
C  10.68800 4.31400 33.18600
C  10.31600 5.16600 34.45400
H  11.27600 5.03600 35.58900
N  7.86200 5.39900 27.58200
C  7.09400 5.91100 28.56800
C  6.29900 6.92600 27.99600
C  6.57000 6.99600 26.58600
C  7.52200 5.90900 26.37200
C  5.33800 7.83100 28.78400
C  6.13400 8.04200 25.55500
O  6.50900 8.10400 24.36100
C  5.26600 9.09400 25.96000
N  9.44900 3.42400 25.83400
C  8.93800 4.24800 24.84500
C  9.35800 3.78900 23.41700
C  9.90100 2.38900 23.67700
C  10.16200 2.40600 25.19100
C  8.28800 3.74400 22.26100
C  10.91300 1.81300 22.73200
C  10.31900 0.77600 21.83500
N  10.42400 2.12200 28.14300
C  11.07200 1.27600 27.22400
C  11.96800 0.34000 27.93500
C  11.86000 0.71700 29.25600
C  10.99300 1.78300 29.32200
C  12.79800 -0.76300 27.31800
C  12.24600 0.37500 30.64100
O  12.97300 -0.51100 31.03200
C  11.56700 1.44200 31.59000
C  10.75800 0.62000 32.54900
O  9.81300 -0.13000 32.29400
O  11.15900 0.88100 33.86400
C  10.37500 0.41700 35.00500
H  6.75000 6.31200 30.64000
H  7.63100 5.88700 24.40600
H  11.53400 0.73200 25.20600
H  9.19300 2.78900 32.99400
H  8.63600 5.65400 32.34700
H  6.00900 4.44400 32.35900
H  6.74400 5.25900 33.58200
H  6.94700 3.42700 33.50200
H  11.24100 4.96200 32.50600
H  11.34200 3.49100 33.47300
H  9.25200 5.11900 34.68400
H  10.51200 6.21300 34.22100
H  5.65200 8.86300 28.62600
H  5.39300 7.71400 29.86600
H  4.32800 7.57500 28.46300
H  4.26900 8.70300 26.16300
H  5.08900 9.75600 25.11200
H  5.57400 9.65100 26.84400
H  10.17600 4.44100 23.11200
H  9.03900 1.72200 23.66600
H  8.60300 4.51500 21.55800
H  7.33700 3.93500 22.76000
H  8.14100 2.79300 21.74800
H  11.71200 1.25800 23.22300
H  11.39000 2.58300 22.12700
H  10.63700 1.16300 20.86700
H  9.24300 0.61800 21.91500
H  10.84000 -0.16300 22.01700
H  12.88300 -1.62300 27.98200
H  13.80300 -0.46300 27.02100
H  12.23900 -1.16200 26.47100
H  12.28400 2.04900 32.14100
H  9.32300 0.64000 34.82700
H  10.49700 1.11300 35.83500
H  10.65700 -0.56900 35.37400

