79

Mg 47.29900 24.67600 27.67000
C  48.01000 26.97900 30.26800
C  46.58000 22.34300 30.14500
C  46.96800 22.20700 25.31300
C  48.42900 26.89300 25.45600
N  47.32600 24.69900 29.95600
C  47.48000 25.76200 30.78600
C  47.10400 25.50300 32.27000
C  46.99000 23.91900 32.21800
C  46.97000 23.62200 30.69900
C  47.90000 23.12100 33.08300
C  45.79300 26.21100 32.78800
C  45.97700 27.39300 33.78600
H  46.80400 26.97500 34.99900
N  46.71900 22.60300 27.76600
C  46.52500 21.85300 28.88800
C  46.19500 20.55000 28.53200
C  46.20500 20.42800 27.15800
C  46.58300 21.81500 26.66600
C  45.91000 19.45600 29.59400
C  45.86100 19.21100 26.28000
O  45.99200 19.22900 25.07000
C  45.23800 17.94000 26.88500
N  47.70000 24.48400 25.62200
C  47.41100 23.41300 24.87700
C  47.67800 23.80100 23.40100
C  47.97900 25.36400 23.47900
C  48.07100 25.57400 24.91000
C  48.77200 23.00800 22.59700
C  46.92100 26.35000 22.73500
C  45.62000 26.69500 23.55300
N  48.18700 26.49200 27.78400
C  48.55800 27.28900 26.77300
C  49.07700 28.54500 27.21500
C  48.87200 28.46100 28.55800
C  48.30500 27.21500 28.90700
C  49.70400 29.55700 26.29000
C  49.08500 29.19000 29.79600
O  49.62300 30.29200 29.96000
C  48.40100 28.31800 30.95000
C  49.46400 28.24600 32.02300
O  50.29400 27.35800 32.08300
O  49.25500 29.22400 32.86000
C  50.13000 29.25000 34.04100
H  46.35400 21.70800 31.00500
H  46.93000 21.39700 24.58100
H  48.78200 27.67100 24.77500
H  47.99500 25.88300 32.76900
H  45.93200 23.71100 32.37700
H  48.60700 22.47800 32.55900
H  47.33000 22.50300 33.77700
H  48.46200 23.87100 33.64000
H  45.13200 25.51300 33.30300
H  45.19100 26.56900 31.95300
H  45.01800 27.72100 34.18700
H  46.39000 28.24600 33.24700
H  46.36700 18.51100 29.30200
H  44.89400 19.32500 29.96600
H  46.38800 19.73400 30.53300
H  45.96700 17.44700 27.52800
H  45.00300 17.20600 26.11400
H  44.36000 18.27200 27.44000
H  46.78100 23.73200 22.78500
H  48.95500 25.72300 23.15100
H  49.64000 23.64900 22.43900
H  48.45300 22.77100 21.58200
H  49.06200 22.12100 23.16100
H  46.63700 25.85200 21.80700
H  47.36700 27.32800 22.55500
H  45.70300 27.76100 23.76100
H  45.55200 25.98000 24.37300
H  44.77500 26.57600 22.87400
H  50.39900 30.15100 26.88400
H  49.03400 30.17700 25.69400
H  50.39000 29.15100 25.54600
H  47.52100 28.84900 31.31300
H  51.04900 29.65400 33.61600
H  50.46500 28.31300 34.48600
H  49.61400 29.83600 34.80200

