79

Mg 46.59900 24.54100 28.30700
C  47.45800 26.82600 30.78500
C  45.64800 22.38000 30.79200
C  45.74700 22.38200 25.96300
C  47.32500 26.85900 25.88800
N  46.46600 24.66700 30.54300
C  46.83400 25.70200 31.33700
C  46.61600 25.45200 32.89000
C  46.17000 23.90300 32.81800
C  46.06900 23.60400 31.26700
C  47.22300 22.97700 33.47500
C  45.47700 26.43600 33.50200
C  45.90900 27.13600 34.77300
H  44.87200 27.40200 35.85100
N  45.78300 22.60400 28.34400
C  45.43400 21.91600 29.43000
C  44.92900 20.69900 29.04400
C  45.17400 20.56100 27.68100
C  45.53900 21.89800 27.22300
C  44.51400 19.61700 30.04100
C  45.05600 19.32300 26.82000
O  45.02100 19.40100 25.57300
C  44.81100 17.98900 27.42900
N  46.70500 24.49800 26.21100
C  46.24700 23.54300 25.42200
C  46.30900 23.81500 23.95700
C  46.55700 25.35800 23.98400
C  46.93700 25.60800 25.45900
C  47.49700 23.15900 23.28100
C  45.35000 26.24500 23.51300
C  44.09300 26.01600 24.24900
N  47.46500 26.43900 28.30100
C  47.61800 27.30400 27.23900
C  48.26800 28.52100 27.74300
C  48.22300 28.40400 29.15700
C  47.65300 27.13500 29.46100
C  48.75500 29.63100 26.85100
C  48.57000 29.05600 30.45600
O  49.05800 30.17400 30.70000
C  47.92000 28.12000 31.53300
C  48.94100 27.87000 32.57600
O  49.91000 27.20500 32.41200
O  48.55900 28.47200 33.70900
C  49.51500 28.54800 34.81500
H  45.47600 21.71000 31.63700
H  45.43000 21.77400 25.11300
H  47.40400 27.63300 25.12100
H  47.52900 25.44800 33.48600
H  45.20700 23.72500 33.29600
H  47.04600 21.93900 33.19300
H  47.11800 23.06400 34.55600
H  48.20500 23.23100 33.07600
H  44.55100 25.89000 33.68000
H  45.18900 27.24900 32.83500
H  46.24500 28.14000 34.51700
H  46.69200 26.56700 35.27600
H  45.32100 18.88400 30.05400
H  43.53500 19.24300 29.74300
H  44.51400 20.04900 31.04100
H  43.93000 17.72000 28.01200
H  45.64400 17.93900 28.13100
H  44.97500 17.21700 26.67800
H  45.38500 23.60800 23.41700
H  47.44900 25.72500 23.47600
H  48.34200 23.84300 23.19500
H  47.08500 22.86200 22.31700
H  47.83500 22.28500 23.83800
H  45.20000 26.12200 22.44000
H  45.60500 27.30200 23.57800
H  43.28100 25.92000 23.52900
H  43.82000 26.82800 24.92300
H  44.16300 25.12500 24.87400
H  48.81800 30.58300 27.37900
H  48.04000 29.74300 26.03600
H  49.68100 29.32600 26.36400
H  47.09900 28.62500 32.04100
H  50.21900 27.72000 34.73200
H  48.93800 28.33500 35.71500
H  49.93800 29.55300 34.82500

