79

Mg 4.94100 53.76500 40.75700
C  4.67500 50.30200 40.68400
C  7.87800 53.39700 39.06200
C  4.85200 57.09600 40.34800
C  1.75100 53.87600 42.19800
N  6.00700 52.02300 39.76400
C  5.76000 50.75100 39.95900
C  6.80800 49.87500 39.23200
C  8.00800 50.89000 39.19600
C  7.24400 52.19800 39.30000
C  8.93200 50.67100 40.41200
C  6.43200 49.22300 37.79400
C  5.20200 49.77300 37.05500
H  5.39800 50.36800 35.62800
N  6.20800 55.04000 39.80500
C  7.41000 54.74800 39.28200
C  8.13300 55.94000 38.87100
C  7.29000 57.03700 39.22800
C  6.05700 56.41100 39.82600
C  9.51500 55.84400 38.23900
C  7.67300 58.41900 39.05000
O  8.81000 58.67600 38.62000
C  6.78200 59.60600 39.31400
N  3.37100 55.31700 40.96000
C  3.68400 56.60700 40.89200
C  2.55000 57.50100 41.47200
C  1.52200 56.46500 42.01800
C  2.25100 55.15200 41.72400
C  3.02300 58.43700 42.59100
C  0.07600 56.58600 41.48100
C  -0.99000 56.90900 42.53600
N  3.56200 52.42700 41.48200
C  2.25500 52.59300 42.00100
C  1.66200 51.33500 42.31200
C  2.65700 50.40200 41.85300
C  3.69700 51.12500 41.26100
C  0.36400 51.05500 43.03000
C  2.86100 48.93900 41.73100
O  2.24600 47.92700 42.05300
C  4.19000 48.84600 40.97300
C  3.96400 48.00700 39.81000
O  3.16900 48.29500 38.94400
O  4.62900 46.73800 39.85700
C  4.24600 45.59900 38.99400
H  8.94300 53.35400 38.82400
H  4.82900 58.18800 40.35200
H  0.75100 53.93300 42.63300
H  7.13600 49.00400 39.79800
H  8.56200 50.65800 38.28700
H  8.65200 51.34000 41.22500
H  9.87200 50.82100 39.88000
H  8.94500 49.63300 40.74400
H  6.36400 48.14200 37.91800
H  7.32700 49.38000 37.19200
H  4.77300 50.58000 37.64900
H  4.50000 48.95400 36.90300
H  9.84900 56.73700 37.71000
H  9.42900 55.15500 37.39900
H  10.24000 55.65000 39.03000
H  7.12000 60.58700 38.97900
H  6.64100 59.63800 40.39500
H  5.84400 59.26500 38.87500
H  2.18800 58.14000 40.66700
H  1.41500 56.56200 43.09800
H  2.20600 58.59200 43.29600
H  3.34600 59.40700 42.21400
H  3.79700 57.95800 43.19200
H  -0.29100 55.75400 40.87900
H  0.04400 57.39900 40.75600
H  -0.76600 56.89100 43.60200
H  -1.79300 56.20900 42.30400
H  -1.39400 57.90600 42.35800
H  -0.18400 51.97800 43.22000
H  0.58800 50.45500 43.91200
H  -0.18300 50.38000 42.37200
H  4.92900 48.35000 41.60200
H  4.54500 44.70100 39.53600
H  4.93500 45.68900 38.15500
H  3.16500 45.49100 38.90600

