79

Mg 16.58600 51.81600 24.58000
C  18.42600 50.99300 27.50500
C  13.85100 52.60400 26.65000
C  14.85200 52.47800 21.87900
C  19.36800 50.79100 22.69500
N  16.25000 51.97600 26.84700
C  17.11900 51.49400 27.75900
C  16.57600 51.92100 29.14600
C  15.15200 52.27400 28.92000
C  15.06400 52.27000 27.36900
C  14.08300 51.52100 29.64500
C  17.45500 52.98000 29.90200
C  17.86300 52.83600 31.39900
H  17.31100 51.80500 32.37200
N  14.74200 52.47300 24.31100
C  13.75500 52.66900 25.26900
C  12.53600 53.06200 24.61400
C  12.74600 53.10100 23.21500
C  14.18900 52.69700 23.07700
C  11.32300 53.61100 25.29700
C  11.82900 53.47800 22.04800
O  12.17200 53.46200 20.90100
C  10.46600 53.95500 22.38200
N  16.99300 51.52200 22.55000
C  16.10100 51.95600 21.67500
C  16.67700 52.08200 20.28600
C  18.15700 51.47900 20.43100
C  18.20000 51.30600 21.99500
C  15.76500 51.31700 19.23700
C  19.29400 52.28700 19.90100
C  19.37200 52.41200 18.33400
N  18.42700 50.85600 24.97000
C  19.47800 50.55200 24.12400
C  20.63500 50.11400 24.81300
C  20.23200 50.28900 26.17800
C  18.92700 50.68900 26.19000
C  21.86500 49.67700 24.20500
C  20.69200 50.10000 27.56600
O  21.74800 49.71000 28.00800
C  19.52300 50.57900 28.44400
C  19.03300 49.49700 29.30800
O  18.26100 48.60700 29.00300
O  19.74900 49.49500 30.49700
C  19.35500 48.54400 31.52500
H  12.94500 52.89300 27.18800
H  14.34700 52.82200 20.97400
H  20.18400 50.59600 21.99600
H  16.56800 51.01400 29.75200
H  15.08700 53.33200 29.17700
H  14.43900 50.57800 30.06100
H  13.23600 51.34000 28.98400
H  13.59100 52.13000 30.40300
H  16.86600 53.89700 29.87100
H  18.35800 53.14600 29.31400
H  17.80700 53.79800 31.91000
H  18.93900 52.66300 31.42600
H  11.34200 53.67500 26.38500
H  10.48500 52.95400 25.06400
H  11.12100 54.61200 24.91700
H  9.91300 54.24500 21.48900
H  10.63500 54.82900 23.01200
H  9.90200 53.15600 22.86200
H  16.70200 53.10700 19.91500
H  18.09000 50.49600 19.96500
H  15.25600 51.99300 18.55000
H  15.11500 50.68800 19.84600
H  16.30600 50.59700 18.62300
H  20.22300 51.89800 20.31900
H  19.08600 53.31800 20.18800
H  19.32500 53.49200 18.19000
H  18.62500 51.88800 17.73800
H  20.34700 52.00800 18.06200
H  21.93100 50.34000 23.34200
H  22.14400 48.65000 23.97000
H  22.72500 49.97400 24.80600
H  19.82800 51.51300 28.91500
H  19.49000 47.54300 31.11500
H  18.31000 48.75500 31.75100
H  19.91800 48.59500 32.45700

