79

Mg 25.95400 0.31100 29.22500
C  27.84400 0.06500 32.22300
C  23.13800 0.55200 31.11000
C  24.25700 0.46300 26.37000
C  28.92800 -0.34800 27.38500
N  25.67500 0.53200 31.40300
C  26.49800 0.30000 32.42300
C  25.79400 0.61500 33.82400
C  24.25300 0.40800 33.39700
C  24.34000 0.47500 31.82600
C  23.45100 -0.81400 33.90900
C  26.24900 2.09300 34.45000
C  27.17100 2.04900 35.67500
H  26.68900 2.81100 36.97200
N  23.88100 0.44200 28.78600
C  22.88400 0.57600 29.70100
C  21.64600 0.58900 28.94900
C  22.00200 0.58000 27.58600
C  23.43700 0.52600 27.48600
C  20.38100 0.67500 29.61000
C  21.04600 0.57600 26.39200
O  21.43500 0.70800 25.19700
C  19.55900 0.29900 26.56500
N  26.53200 0.09500 27.13500
C  25.62600 0.23000 26.19300
C  26.27200 0.23900 24.74200
C  27.77600 0.09700 25.15000
C  27.78600 -0.05200 26.64700
C  25.67200 -0.72000 23.70000
C  28.66600 1.28500 24.62100
C  29.93000 0.99000 23.79300
N  27.95300 -0.11900 29.64400
C  29.04100 -0.34900 28.80100
C  30.10400 -0.77600 29.60200
C  29.72500 -0.60200 30.92000
C  28.36500 -0.15100 30.89800
C  31.38600 -1.42400 29.07400
C  30.14300 -0.61300 32.32800
O  31.16400 -1.00900 32.77600
C  28.95900 -0.26500 33.22500
C  28.61500 -1.42700 34.07000
O  28.01100 -2.40200 33.78800
O  29.21100 -1.18900 35.27900
C  29.08000 -2.36500 36.14100
H  22.25700 0.58200 31.75400
H  23.74000 0.66200 25.43000
H  29.80200 -0.56300 26.76500
H  26.13900 -0.20200 34.45700
H  23.69200 1.23500 33.83300
H  22.89400 -1.29800 33.10600
H  22.79400 -0.45200 34.69900
H  24.20000 -1.44100 34.39200
H  25.39100 2.68300 34.77200
H  26.80300 2.56600 33.63900
H  28.11100 2.42000 35.26800
H  27.24900 0.98400 35.89300
H  19.97000 1.60400 29.21500
H  20.38300 0.67500 30.70000
H  19.82200 -0.21300 29.31700
H  19.54400 -0.78200 26.70000
H  18.98700 0.40700 25.64400
H  19.11400 0.89300 27.36300
H  26.08300 1.26700 24.43400
H  28.14700 -0.85100 24.76100
H  24.82500 -1.20500 24.18600
H  26.50400 -1.40700 23.54500
H  25.29900 -0.19600 22.82000
H  28.99700 1.74900 25.55000
H  28.00200 2.02900 24.18200
H  30.08700 -0.08700 23.84100
H  30.76800 1.47200 24.29700
H  29.67600 1.28000 22.77400
H  32.12300 -0.69800 28.73200
H  31.21700 -2.11800 28.25100
H  31.76600 -2.03200 29.89500
H  29.19400 0.69200 33.69100
H  29.53900 -3.25000 35.70000
H  28.11100 -2.59800 36.58200
H  29.80800 -2.25500 36.94500

