79

Mg 34.90900 49.67200 25.78900
C  35.03500 47.86700 28.87900
C  33.94300 52.31900 27.38700
C  34.59100 50.95000 22.75200
C  35.39400 46.47700 24.22000
N  34.51000 50.01400 27.92800
C  34.69000 49.22700 28.98700
C  34.18000 49.92600 30.28400
C  33.77000 51.26600 29.72000
C  34.08600 51.26700 28.26200
C  32.28100 51.60800 29.88900
C  35.31200 50.05500 31.34200
C  35.04300 49.71200 32.86300
H  33.53000 49.69900 33.19900
N  34.49100 51.44900 25.13700
C  34.08900 52.41500 25.94000
C  33.86400 53.56300 25.13300
C  34.05500 53.14100 23.77100
C  34.42300 51.77900 23.83000
C  33.45000 54.83700 25.75700
C  33.83800 53.98100 22.48600
O  33.99300 53.59000 21.34700
C  33.39700 55.43900 22.55200
N  35.05600 48.81500 23.67900
C  34.88700 49.58900 22.64000
C  35.03200 48.81400 21.28300
C  35.26400 47.34200 21.75700
C  35.27300 47.52300 23.31800
C  33.69500 48.91200 20.46600
C  36.57700 46.75900 21.17300
C  37.88500 46.95200 21.88300
N  35.26900 47.65300 26.33900
C  35.43700 46.53600 25.60500
C  35.71300 45.38400 26.40700
C  35.52700 45.86700 27.69500
C  35.21200 47.22900 27.63600
C  36.01200 43.96000 26.01000
C  35.44300 45.47900 29.06000
O  35.64500 44.39700 29.56300
C  35.13700 46.73700 29.94200
C  33.90600 46.42200 30.74800
O  32.77000 46.55400 30.44800
O  34.27500 45.72100 31.90700
C  33.14200 45.14100 32.66700
H  33.55000 53.21600 27.87100
H  34.41800 51.33600 21.74500
H  35.65000 45.57600 23.65900
H  33.31800 49.30100 30.51500
H  34.35300 52.03500 30.22700
H  31.76100 51.41000 28.95200
H  32.19100 52.65700 30.17100
H  31.84800 51.08400 30.74100
H  35.79400 51.02500 31.22600
H  36.13700 49.37200 31.13900
H  35.59200 50.41600 33.48800
H  35.42600 48.70400 33.02500
H  33.60200 54.95500 26.83000
H  32.41600 54.93700 25.42900
H  34.02700 55.64200 25.30200
H  34.26600 56.04700 22.80600
H  32.68500 55.57500 23.36500
H  32.84000 55.81700 21.69500
H  35.91800 49.25100 20.82400
H  34.43900 46.65200 21.57600
H  32.96400 49.57000 20.93600
H  33.20400 47.97200 20.21100
H  33.93700 49.51900 19.59400
H  36.58200 47.30200 20.22800
H  36.37700 45.72600 20.89100
H  38.02200 45.96300 22.32100
H  37.88000 47.57300 22.77900
H  38.60500 47.36000 21.17400
H  35.13500 43.41300 25.66400
H  36.37800 43.35300 26.83800
H  36.76300 43.94800 25.22000
H  36.01600 46.95600 30.54900
H  32.66800 44.35500 32.07800
H  32.38600 45.87400 32.94800
H  33.63600 44.71100 33.53900

