79

Mg -11.67200 15.64400 42.11500
C  -8.79500 13.78100 41.68700
C  -10.35500 18.19700 40.51800
C  -14.79100 17.11100 41.95400
C  -13.29900 12.61100 43.26400
N  -9.69500 15.87800 41.10400
C  -8.70500 15.09200 41.18000
C  -7.47600 15.80100 40.48000
C  -7.96300 17.29100 40.35600
C  -9.46100 17.12600 40.66000
C  -7.24800 18.33700 41.28600
C  -6.97400 15.15100 39.15100
C  -5.46400 14.96500 38.91600
H  -4.97500 15.62200 37.65500
N  -12.42200 17.46200 41.44700
C  -11.70600 18.34800 40.70800
C  -12.51900 19.44600 40.29600
C  -13.82600 19.19600 40.74900
C  -13.74600 17.88600 41.45900
C  -11.96700 20.63600 39.54700
C  -14.98300 20.12800 40.57400
O  -14.86800 21.18500 39.91500
C  -16.30400 19.88700 41.19700
N  -13.76700 15.02400 42.58800
C  -14.80900 15.79600 42.35100
C  -16.17800 15.07500 42.65600
C  -15.67500 13.66400 43.13200
C  -14.18200 13.69400 42.97800
C  -17.21700 15.66700 43.61500
C  -16.31900 12.47600 42.27900
C  -16.41700 11.10000 42.93400
N  -11.18300 13.54900 42.53400
C  -11.90900 12.48500 42.96200
C  -10.93400 11.39600 43.16600
C  -9.71700 11.80000 42.61700
C  -9.91500 13.15000 42.27400
C  -11.22600 10.02300 43.69000
C  -8.34100 11.45200 42.25800
O  -7.72300 10.40600 42.32700
C  -7.64700 12.70500 41.72900
C  -6.62300 13.10100 42.72100
O  -6.71500 13.42900 43.90000
O  -5.41600 12.86500 42.11700
C  -4.23300 13.43200 42.73900
H  -9.83500 19.03300 40.04500
H  -15.83500 17.33400 41.72600
H  -13.79200 11.69100 43.58500
H  -6.72500 15.69200 41.26200
H  -7.85900 17.68200 39.34400
H  -6.18700 18.08900 41.25900
H  -7.64700 18.24500 42.29600
H  -7.41600 19.34500 40.90700
H  -7.45500 15.57600 38.27000
H  -7.49200 14.19200 39.14000
H  -5.27500 13.89200 38.90000
H  -4.92900 15.38300 39.76900
H  -12.56600 20.83900 38.65900
H  -11.03000 20.31900 39.09000
H  -11.72500 21.51500 40.14400
H  -17.00600 20.70200 41.02400
H  -16.07500 19.74600 42.25300
H  -16.75700 18.99700 40.76000
H  -16.59000 14.97500 41.65200
H  -15.92200 13.47600 44.17700
H  -17.57000 15.00900 44.40900
H  -18.07900 15.94800 43.00900
H  -16.80200 16.57500 44.05100
H  -15.75900 12.29700 41.36100
H  -17.37300 12.66700 42.07700
H  -17.23100 10.57400 42.43600
H  -16.60500 11.29400 43.99000
H  -15.51200 10.52300 42.74400
H  -11.89500 10.01100 44.55000
H  -10.37100 9.49200 44.10900
H  -11.73200 9.47700 42.89400
H  -7.17200 12.51500 40.76700
H  -3.46300 13.43700 41.96800
H  -3.86500 12.81200 43.55700
H  -4.41700 14.43300 43.13000

