79

Mg 48.27600 25.21700 28.30300
C  49.21300 27.45100 30.86800
C  47.55600 22.93700 30.66500
C  47.62600 23.13100 25.76800
C  49.18900 27.79300 25.90900
N  48.50800 25.22900 30.57900
C  48.69500 26.27600 31.39500
C  48.40200 25.92700 32.85800
C  47.97700 24.45100 32.75600
C  48.02400 24.14100 31.24000
C  48.99200 23.49000 33.56900
C  47.42500 26.96100 33.43000
C  47.86200 27.60100 34.76900
H  47.04100 27.54500 35.99900
N  47.65400 23.30500 28.22500
C  47.34400 22.55000 29.32100
C  46.75900 21.28100 28.88800
C  46.88200 21.23600 27.45900
C  47.45400 22.61500 27.13900
C  46.28600 20.24300 29.75400
C  46.56400 20.10200 26.45300
O  46.68700 20.23200 25.29400
C  45.92400 18.86400 26.98000
N  48.43800 25.42400 26.17500
C  48.00400 24.37900 25.30500
C  48.13700 24.81900 23.84400
C  48.41100 26.38500 23.93600
C  48.68000 26.58800 25.43800
C  49.22800 23.97900 23.07000
C  47.30700 27.18300 23.42200
C  46.00600 27.25000 24.28200
N  49.22600 27.07300 28.34000
C  49.50700 28.01600 27.30600
C  50.05900 29.21700 27.86900
C  49.91900 29.05800 29.23900
C  49.42500 27.73800 29.49600
C  50.57600 30.43600 27.16100
C  50.06500 29.72000 30.51300
O  50.50800 30.84000 30.76600
C  49.68400 28.73000 31.57900
C  50.87300 28.36600 32.49600
O  51.54200 27.37400 32.36300
O  50.85800 29.16600 33.58400
C  51.91300 29.01200 34.61200
H  47.36400 22.33200 31.55300
H  47.33400 22.49400 24.93000
H  49.34200 28.51100 25.10000
H  49.36200 26.06100 33.35700
H  46.93200 24.36400 33.05300
H  49.81300 23.03700 33.01300
H  48.53500 22.59500 33.99200
H  49.26700 24.04700 34.46400
H  46.47700 26.42400 33.46200
H  47.19800 27.82000 32.79900
H  47.91700 28.64200 34.44900
H  48.84400 27.21800 35.04700
H  46.87900 19.33000 29.80300
H  45.24500 20.07600 29.47500
H  46.32100 20.66500 30.75800
H  46.64000 18.09600 27.27300
H  45.39400 18.42800 26.13300
H  45.12400 18.98200 27.71100
H  47.10400 24.60500 23.56900
H  49.37100 26.64300 23.48900
H  50.07100 24.59800 22.76200
H  48.79400 23.63000 22.13300
H  49.63000 23.17500 23.68700
H  47.01200 26.71500 22.48200
H  47.63900 28.21900 23.35600
H  46.19800 27.16300 25.35100
H  45.32000 26.47700 23.93600
H  45.55000 28.21300 24.05300
H  50.06300 30.56400 26.20800
H  51.63700 30.29000 26.95700
H  50.35800 31.34900 27.71500
H  48.79400 29.04100 32.12600
H  52.63700 28.26900 34.27700
H  51.49600 28.70000 35.57000
H  52.22300 30.03000 34.84700

