79

Mg 6.40300 55.59200 39.95200
C  5.58600 52.11500 39.62300
C  9.65400 54.80900 39.15300
C  6.95100 58.85500 39.84300
C  2.92600 56.15900 40.73600
N  7.43000 53.63900 39.18900
C  6.97400 52.35900 39.32300
C  8.14400 51.37300 39.19400
C  9.48200 52.24200 39.26600
C  8.79800 53.64300 39.24000
C  10.50900 52.05400 40.41400
C  8.05000 50.46800 37.90000
C  7.41100 51.29800 36.70600
H  7.12000 50.56000 35.35700
N  8.11900 56.65600 39.45100
C  9.35300 56.19800 39.24900
C  10.26100 57.29000 39.07800
C  9.54900 58.52700 39.25100
C  8.12700 58.04200 39.45800
C  11.76600 57.13800 38.99100
C  10.13900 59.91600 39.23900
O  11.38400 59.93300 39.39800
C  9.34500 61.15700 39.04900
N  4.99500 57.33800 39.92200
C  5.65100 58.50400 40.17400
C  4.60800 59.56800 40.67300
C  3.31000 58.67100 40.95800
C  3.77100 57.28300 40.52500
C  4.98000 60.42000 41.82100
C  2.04000 59.03300 40.22100
C  0.76200 59.11400 41.02200
N  4.59700 54.44700 40.15100
C  3.28600 54.79200 40.55500
C  2.54100 53.60100 40.71200
C  3.40100 52.57300 40.39300
C  4.60500 53.10600 39.99500
C  1.06900 53.43700 41.06000
C  3.47500 51.08600 40.28300
O  2.65700 50.22700 40.55600
C  4.91100 50.81200 39.89500
C  4.93500 49.84000 38.72900
O  4.71400 50.04100 37.51100
O  5.34400 48.63200 39.22900
C  5.49600 47.41600 38.38800
H  10.71100 54.60200 38.97100
H  7.16100 59.92700 39.86400
H  1.96000 56.29800 41.22600
H  8.02100 50.75400 40.08200
H  10.12300 52.23700 38.38500
H  10.11500 51.26900 41.06000
H  10.62400 52.88000 41.11600
H  11.48200 51.75100 40.02900
H  7.60100 49.50800 38.15500
H  9.07700 50.20700 37.64500
H  8.15700 52.05500 36.46600
H  6.46200 51.75600 36.98700
H  12.07900 56.10800 38.81800
H  12.23500 57.37300 39.94600
H  12.25500 57.69700 38.19300
H  10.02000 62.00000 38.90400
H  8.78800 61.40300 39.95300
H  8.79300 61.15500 38.10900
H  4.47900 60.24800 39.83000
H  3.24600 58.55100 42.03900
H  4.03900 60.73500 42.27200
H  5.41400 61.35800 41.47600
H  5.61200 59.95400 42.57800
H  1.92000 58.45000 39.30800
H  2.23900 60.05200 39.89000
H  0.11900 59.92800 40.68500
H  1.00900 59.18400 42.08200
H  0.06900 58.29600 40.82700
H  0.78300 52.45500 41.43900
H  0.62300 53.65900 40.09100
H  0.76000 54.22100 41.75200
H  5.41400 50.31200 40.72300
H  4.99100 47.58100 37.43600
H  4.96600 46.59800 38.87700
H  6.54200 47.13500 38.26900

