79

Mg 43.67800 5.36900 46.95800
C  41.81500 8.15200 45.90100
C  40.93800 3.34100 46.55000
C  45.73300 2.70800 47.28100
C  46.55800 7.46000 46.74900
N  41.61800 5.66300 46.14000
C  41.06900 6.96500 45.98400
C  39.58000 6.75500 45.65900
C  39.22900 5.32800 46.15300
C  40.65100 4.70900 46.27500
C  38.26400 5.21500 47.38800
C  39.15500 7.00600 44.21200
C  38.26900 8.15200 43.89200
H  38.72400 9.11100 42.66900
N  43.38300 3.22500 46.97700
C  42.12500 2.63000 46.82900
C  42.41900 1.23500 46.81300
C  43.77400 1.01400 47.07200
C  44.38900 2.32100 47.10600
C  41.40700 0.15300 46.64800
C  44.46900 -0.39300 47.09300
O  43.78400 -1.45100 47.00800
C  45.89000 -0.41600 47.22400
N  45.87300 5.11400 46.77100
C  46.43700 3.90400 47.10300
C  47.98100 3.92300 47.17700
C  48.24100 5.47400 47.19600
C  46.85700 6.16100 46.86500
C  48.65400 3.22400 48.38100
C  49.31200 6.00300 46.15600
C  50.07700 7.18900 46.77300
N  44.13200 7.32600 46.55700
C  45.30800 8.04700 46.56200
C  45.04200 9.42100 46.24100
C  43.65900 9.48700 46.04200
C  43.17200 8.20800 46.15900
C  45.96200 10.56500 46.30800
C  42.52200 10.32100 45.67300
O  42.55500 11.52600 45.48000
C  41.18200 9.51700 45.77900
C  40.40000 10.02100 46.89400
O  40.11400 9.39700 47.90300
O  39.80700 11.16700 46.61800
C  38.88100 11.61400 47.55100
H  40.04400 2.71400 46.51700
H  46.48000 1.92900 47.44400
H  47.46100 8.06900 46.66400
H  39.06700 7.45300 46.32100
H  38.89000 4.63300 45.38500
H  38.06500 6.19000 47.83400
H  38.85300 4.75800 48.18400
H  37.40600 4.57600 47.18000
H  38.60200 6.09900 43.96800
H  40.05200 7.13600 43.60800
H  38.14800 8.80600 44.75500
H  37.24600 7.83700 43.68300
H  41.51400 -0.53500 47.48600
H  41.54500 -0.34500 45.68800
H  40.43400 0.64500 46.64100
H  46.36800 0.13800 46.41600
H  46.25900 -1.43800 47.14400
H  46.08600 0.07400 48.17800
H  48.40600 3.46700 46.28300
H  48.37900 5.93100 48.17600
H  48.86100 2.18200 48.13800
H  47.92000 3.21500 49.18700
H  49.60800 3.65900 48.67700
H  48.75900 6.33500 45.27800
H  49.97200 5.16200 45.94300
H  50.20800 8.04500 46.11100
H  51.07400 6.85000 47.05200
H  49.71000 7.62100 47.70400
H  46.93800 10.22000 46.65000
H  45.66800 11.23700 47.11500
H  46.25300 11.00800 45.35600
H  40.68600 9.66300 44.81900
H  38.71200 12.67600 47.37500
H  39.11700 11.64700 48.61400
H  38.00600 10.96500 47.49800

