79

Mg -1.81900 17.55500 26.39300
C  -2.08000 15.00300 28.87100
C  -2.23800 19.84800 28.92400
C  -2.20400 19.90500 24.09000
C  -2.16900 15.07900 24.05600
N  -1.97500 17.42200 28.67700
C  -1.96900 16.27800 29.42500
C  -2.00800 16.55500 30.95200
C  -2.48700 18.03600 30.95300
C  -2.14400 18.50400 29.48000
C  -3.97700 18.46600 31.41200
C  -0.67600 16.17300 31.75200
C  -0.29000 17.00900 33.04800
H  -0.34800 16.32600 34.41300
N  -2.10600 19.59900 26.52300
C  -2.24100 20.38100 27.62400
C  -2.56300 21.68600 27.24900
C  -2.40600 21.77700 25.82200
C  -2.19400 20.37500 25.40900
C  -2.82600 22.89000 28.19700
C  -2.55400 22.98600 24.87300
O  -2.31600 22.94300 23.67000
C  -2.85000 24.43800 25.39500
N  -2.37500 17.45600 24.44900
C  -2.27900 18.55800 23.59300
C  -2.31900 18.19500 22.11600
C  -2.09200 16.68400 22.15700
C  -2.13800 16.38000 23.65500
C  -3.54000 18.71300 21.31800
C  -0.71700 16.23400 21.58600
C  0.64600 16.68700 22.23100
N  -1.99300 15.42100 26.40200
C  -2.18400 14.53100 25.32400
C  -2.32500 13.17100 25.84000
C  -2.30000 13.32700 27.23300
C  -2.08400 14.69300 27.51400
C  -2.48200 11.86800 25.13100
C  -2.29300 12.64500 28.48900
O  -2.26500 11.44500 28.77900
C  -2.40900 13.75700 29.52500
C  -1.57600 13.36700 30.67500
O  -0.37200 13.29800 30.71100
O  -2.37000 12.96500 31.68300
C  -1.73100 12.24100 32.78500
H  -2.51000 20.62000 29.64600
H  -2.21400 20.60700 23.25300
H  -2.14100 14.38500 23.21300
H  -2.77400 15.96900 31.46000
H  -1.76500 18.68400 31.45000
H  -4.55600 18.83900 30.56700
H  -3.76900 19.30200 32.08100
H  -4.40400 17.64000 31.98000
H  0.18100 16.08100 31.08500
H  -0.77500 15.16900 32.16300
H  -0.74000 18.00200 33.04500
H  0.75700 17.29300 32.93900
H  -1.93100 23.49600 28.05400
H  -2.91800 22.46500 29.19700
H  -3.76200 23.37300 27.91500
H  -3.79900 24.45900 25.93100
H  -2.96500 25.12000 24.55300
H  -2.02000 24.79600 26.00400
H  -1.46800 18.66100 21.61800
H  -2.90300 16.13600 21.67800
H  -4.15900 19.21200 22.06300
H  -4.03600 17.91300 20.76800
H  -3.31500 19.47000 20.56700
H  -0.69800 16.51100 20.53200
H  -0.66800 15.14500 21.56000
H  1.16600 17.33900 21.52800
H  1.31200 15.87400 22.51900
H  0.46000 17.35500 23.07200
H  -1.51000 11.38700 25.02100
H  -2.87700 12.13100 24.15000
H  -3.23600 11.29900 25.67600
H  -3.45300 13.87800 29.81700
H  -1.19900 13.02900 33.31700
H  -0.99100 11.50200 32.47800
H  -2.50800 11.85500 33.44600

