79

Mg 23.73700 -5.73000 45.89600
C  26.11800 -3.54700 44.20800
C  21.39100 -4.58000 43.75500
C  22.08600 -8.42100 46.68300
C  26.65700 -6.85800 47.70200
N  23.83700 -4.15700 44.21900
C  24.83900 -3.41700 43.68700
C  24.36600 -2.55600 42.50900
C  22.83600 -2.81700 42.51500
C  22.64100 -3.89900 43.60200
C  21.96100 -1.55400 42.87100
C  25.13400 -2.96800 41.20500
C  25.82400 -1.88600 40.35700
H  25.33700 -1.65800 38.93800
N  21.81500 -6.38000 45.41600
C  21.01700 -5.82500 44.46400
C  19.73600 -6.53200 44.55600
C  19.88300 -7.57400 45.55400
C  21.29700 -7.52200 45.96700
C  18.63900 -6.17700 43.71900
C  18.79600 -8.54800 45.74300
O  17.67300 -8.41400 45.29300
C  19.04700 -9.75700 46.66500
N  24.45400 -7.55800 46.75300
C  23.46400 -8.40600 47.13800
C  24.02500 -9.55300 47.96400
C  25.46400 -9.04000 48.31000
C  25.55100 -7.72000 47.55100
C  23.24700 -9.88600 49.28600
C  26.61900 -9.96900 47.92500
C  27.21600 -10.81600 49.08300
N  25.92600 -5.18800 46.05800
C  26.84200 -5.59700 46.95600
C  28.03300 -4.81100 46.93000
C  27.79400 -4.05700 45.74800
C  26.45300 -4.28500 45.35200
C  29.32500 -4.96700 47.75200
C  28.45400 -3.13700 44.86700
O  29.53500 -2.61800 44.86700
C  27.32200 -2.73000 43.87500
C  27.17500 -1.26400 44.03900
O  26.76800 -0.67000 44.97300
O  27.66200 -0.73900 42.90200
C  27.36900 0.67400 42.67500
H  20.56700 -4.16400 43.17100
H  21.39600 -9.22100 46.95700
H  27.42100 -7.08000 48.44900
H  24.60500 -1.53300 42.79800
H  22.48700 -3.32100 41.61400
H  22.27100 -1.31900 43.88900
H  20.89000 -1.75600 42.83900
H  22.26100 -0.77500 42.17100
H  24.39000 -3.36800 40.51700
H  25.87600 -3.71300 41.49300
H  26.89000 -2.09600 40.26900
H  25.68800 -0.92200 40.84800
H  17.81700 -6.06700 44.42500
H  18.32600 -6.94500 43.01100
H  18.69600 -5.17400 43.29600
H  18.14600 -10.36200 46.77400
H  19.26300 -9.29500 47.62800
H  19.81100 -10.39500 46.22200
H  23.84700 -10.44900 47.36800
H  25.56300 -8.89000 49.38500
H  22.44200 -9.17700 49.47600
H  23.80900 -9.98000 50.21500
H  22.67100 -10.78500 49.06600
H  27.42800 -9.40100 47.46500
H  26.14200 -10.60500 47.17900
H  26.78500 -10.56700 50.05200
H  28.29400 -10.67900 48.99900
H  27.10300 -11.90000 49.04200
H  29.97900 -5.58400 47.13500
H  29.05900 -5.41100 48.71100
H  29.67600 -3.95100 47.92800
H  27.58800 -2.96000 42.84300
H  26.38000 0.90800 43.07000
H  27.26300 0.77400 41.59500
H  28.16700 1.34000 43.00400

