79

Mg 45.30100 3.88100 47.82600
C  43.37100 6.77700 47.33100
C  42.60500 2.00400 46.92200
C  47.27500 1.15200 47.77000
C  48.21600 5.92300 47.72600
N  43.21600 4.36900 47.22800
C  42.60700 5.57900 46.95300
C  41.23200 5.45000 46.29600
C  41.01700 3.84600 46.53100
C  42.37400 3.35100 46.97100
C  39.83400 3.38200 47.42100
C  41.27800 5.97700 44.89100
C  40.09000 6.83000 44.37900
H  39.55600 6.49800 42.99600
N  44.95600 1.80400 47.55900
C  43.74100 1.21100 47.20100
C  43.95100 -0.21000 46.93200
C  45.36800 -0.47200 47.14800
C  45.97800 0.85300 47.56200
C  42.86200 -0.97700 46.26600
C  45.97900 -1.84900 46.86600
O  45.22600 -2.76400 46.58200
C  47.40300 -1.98100 46.94100
N  47.49900 3.62300 47.75700
C  48.00000 2.33300 47.81000
C  49.53500 2.41000 47.61300
C  49.81200 3.93400 47.43300
C  48.43100 4.56900 47.67900
C  50.41100 1.58800 48.64900
C  50.47800 4.31200 46.03300
C  51.86400 4.98200 45.87900
N  45.76700 5.92500 47.83000
C  46.94700 6.59200 47.79800
C  46.62000 8.08000 47.66100
C  45.23300 8.15400 47.66500
C  44.76500 6.84900 47.67300
C  47.63000 9.19500 47.59600
C  44.16900 9.09300 47.62100
O  44.18100 10.35100 47.64200
C  42.82600 8.17700 47.31500
C  41.79400 8.37500 48.38600
O  41.59300 7.64800 49.29700
O  41.05100 9.52300 48.10300
C  39.86900 9.84400 48.87800
H  41.73900 1.41000 46.62500
H  48.00200 0.33700 47.74400
H  49.11200 6.54400 47.66500
H  40.44500 5.90700 46.89500
H  40.94600 3.45800 45.51500
H  38.95500 3.35000 46.77900
H  39.71400 4.07400 48.25400
H  40.10500 2.39900 47.80900
H  41.62200 5.13300 44.29400
H  42.21700 6.51300 44.75100
H  40.42100 7.86300 44.27700
H  39.15800 6.72600 44.93600
H  41.83900 -0.60900 46.34700
H  42.88000 -2.00500 46.62900
H  43.12500 -0.93400 45.20900
H  47.81000 -1.79800 47.93500
H  47.74200 -1.22000 46.23800
H  47.75100 -2.94600 46.57400
H  49.73800 1.92600 46.65800
H  50.49000 4.28400 48.21200
H  49.76400 1.08200 49.36500
H  51.09900 2.30700 49.09400
H  50.87400 0.79200 48.06600
H  49.82100 5.08500 45.63400
H  50.45000 3.44900 45.36800
H  52.54900 4.31400 45.35800
H  52.15000 5.07000 46.92700
H  51.68600 5.91100 45.33800
H  47.09300 10.14200 47.54600
H  48.15500 9.17200 46.64000
H  48.40600 9.11800 48.35800
H  42.29300 8.48600 46.41500
H  39.01500 9.63500 48.23400
H  39.90800 10.91800 49.06000
H  39.59400 9.41000 49.83900

