79

Mg -1.13000 17.41800 26.16800
C  -1.78900 14.86600 28.61800
C  -2.03800 19.70300 28.60500
C  -1.32900 19.81600 23.69400
C  -1.41900 14.97400 23.64200
N  -1.84200 17.19700 28.32600
C  -1.80100 16.09700 29.20100
C  -1.70700 16.44500 30.62300
C  -2.03200 17.95700 30.56100
C  -1.95000 18.32900 29.06400
C  -3.39400 18.28700 31.24500
C  -0.49400 16.04400 31.44800
C  -0.00600 16.89200 32.61400
H  0.25200 16.22900 33.95300
N  -1.37500 19.42600 26.20200
C  -1.71100 20.18100 27.26400
C  -1.93600 21.56400 26.91700
C  -1.83200 21.63000 25.50900
C  -1.41000 20.25800 25.05900
C  -2.31800 22.74800 27.86100
C  -2.16500 22.72500 24.58400
O  -2.15300 22.58300 23.38100
C  -2.28400 24.14500 25.15700
N  -1.21200 17.40300 23.96400
C  -1.23000 18.49100 23.18800
C  -1.17200 18.09900 21.70200
C  -1.57700 16.67900 21.76100
C  -1.36600 16.27300 23.20800
C  -2.07600 18.94100 20.73800
C  -0.71600 15.91500 20.78600
C  -1.43900 15.12800 19.65200
N  -1.45600 15.36600 26.07400
C  -1.47100 14.53000 25.00500
C  -1.61900 13.13500 25.46600
C  -1.64800 13.22700 26.87800
C  -1.63800 14.63000 27.20200
C  -1.80600 11.99900 24.67100
C  -1.80300 12.42400 28.06400
O  -1.85200 11.24700 28.25900
C  -1.97300 13.42200 29.22500
C  -0.76000 13.16600 30.08300
O  0.32000 13.61500 29.87200
O  -0.98900 12.28000 31.11700
C  -0.07000 12.20300 32.24600
H  -2.13400 20.43800 29.40700
H  -1.20200 20.56800 22.91200
H  -1.48400 14.23200 22.84300
H  -2.54400 15.97700 31.14100
H  -1.25800 18.63800 30.91500
H  -3.99400 19.02400 30.70900
H  -3.34000 18.57400 32.29500
H  -4.14600 17.50000 31.29800
H  0.33100 15.94300 30.74300
H  -0.72900 15.04100 31.80500
H  -0.76200 17.66600 32.74700
H  0.95400 17.36500 32.40500
H  -1.54900 23.48400 28.09900
H  -2.61200 22.32700 28.82300
H  -3.19500 23.29600 27.51700
H  -3.23500 24.26000 25.67700
H  -2.24900 24.89800 24.36900
H  -1.46000 24.37700 25.83200
H  -0.10300 18.18500 21.50900
H  -2.60400 16.44800 21.47700
H  -2.74300 19.56700 21.33100
H  -2.61700 18.21900 20.12600
H  -1.44800 19.61400 20.15300
H  -0.21000 15.07600 21.26400
H  0.01800 16.58400 20.33600
H  -1.21300 14.06300 19.67900
H  -1.08700 15.52000 18.69800
H  -2.51400 15.31100 19.63700
H  -2.15000 11.29500 25.42900
H  -0.92100 11.45400 24.34000
H  -2.50400 12.24000 23.86900
H  -2.92400 13.31900 29.74900
H  0.08900 11.12700 32.31300
H  -0.68900 12.57700 33.06200
H  0.85200 12.76700 32.10400

