79

Mg 40.24400 10.14800 29.32700
C  42.20800 11.35500 31.96400
C  37.85500 9.18000 31.71300
C  38.32400 8.83900 26.83500
C  42.69500 10.74000 27.02300
N  40.10900 10.12800 31.59400
C  41.01600 10.77500 32.47200
C  40.52600 10.71700 33.90100
C  39.26300 9.74300 33.77900
C  39.03200 9.67800 32.27200
C  39.55300 8.28400 34.34700
C  40.31500 12.15400 34.50000
C  39.65000 12.14300 35.91900
H  40.57700 12.41900 37.13500
N  38.43800 9.05800 29.32900
C  37.61400 8.75400 30.43200
C  36.43100 7.99200 30.02200
C  36.55000 7.96000 28.57800
C  37.80500 8.63600 28.17700
C  35.35100 7.49200 30.96000
C  35.52800 7.41300 27.58100
O  35.69800 7.31200 26.41500
C  34.15200 7.03700 28.12700
N  40.54500 9.72900 27.28800
C  39.50400 9.34500 26.45600
C  39.92900 9.26400 24.95800
C  41.37000 9.79300 25.03800
C  41.59300 10.10800 26.49700
C  39.83000 7.83100 24.43500
C  41.64000 10.95400 24.00400
C  41.48900 12.36200 24.45800
N  42.03100 11.04700 29.44900
C  42.93100 11.16700 28.40300
C  44.24000 11.65800 28.94100
C  43.98800 11.85100 30.37400
C  42.61900 11.39100 30.58100
C  45.46100 11.97100 28.12100
C  44.46100 12.31200 31.65900
O  45.51700 12.82400 32.01600
C  43.36000 11.99800 32.71200
C  43.84500 11.00000 33.70100
O  44.11500 9.82200 33.46800
O  44.04900 11.64800 34.95900
C  44.53000 10.73900 36.03400
H  37.15000 8.94700 32.51400
H  37.67000 8.59400 25.99600
H  43.51500 10.82000 26.30700
H  41.34400 10.19500 34.39900
H  38.38800 10.13600 34.29700
H  38.79900 8.16400 35.12500
H  40.50400 8.25900 34.87800
H  39.62500 7.49900 33.59400
H  39.68100 12.78600 33.87800
H  41.27500 12.66300 34.59600
H  39.23700 11.14800 36.08600
H  38.94600 12.97400 35.87400
H  34.42600 8.06800 30.95100
H  35.82800 7.49800 31.94000
H  34.95100 6.50100 30.74600
H  34.10800 6.16500 28.78000
H  33.58400 6.60400 27.30400
H  33.78200 7.99500 28.49300
H  39.24600 9.99600 24.52700
H  42.17000 9.08400 24.82700
H  39.32100 7.12600 25.09300
H  40.82600 7.39200 24.37000
H  39.40700 7.81400 23.43100
H  41.00800 10.72600 23.14600
H  42.63900 10.88900 23.57300
H  41.26000 12.54200 25.50900
H  40.66000 12.88700 23.98300
H  42.44200 12.85100 24.25700
H  45.35500 11.24000 27.32000
H  46.34700 12.00900 28.75500
H  45.47600 12.98300 27.71600
H  43.11400 12.93100 33.21900
H  45.40400 10.18600 35.69000
H  43.73700 10.06000 36.34600
H  44.89000 11.33200 36.87500

