79

Mg 0.62700 8.84000 26.23700
C  1.65700 10.40700 29.08600
C  0.09100 5.91200 28.11400
C  0.02200 7.09000 23.39900
C  1.75200 11.45100 24.27900
N  1.06500 8.10600 28.33500
C  1.20200 9.13000 29.33900
C  1.04800 8.53500 30.70900
C  0.85000 6.98100 30.42100
C  0.55700 6.98200 28.84700
C  2.02300 6.03600 30.82200
C  -0.15600 9.08200 31.45900
C  -0.05500 9.26700 32.98700
H  1.24400 8.97100 33.73000
N  0.05400 6.77200 25.79000
C  -0.12200 5.78900 26.73900
C  -0.72000 4.66900 26.07900
C  -0.84700 4.91300 24.68500
C  -0.22000 6.32100 24.57100
C  -1.06700 3.42200 26.85200
C  -1.52300 4.07400 23.61200
O  -1.61500 4.53500 22.46500
C  -1.91100 2.69800 23.86600
N  0.98500 9.13500 24.18400
C  0.62700 8.28500 23.14700
C  1.01100 8.76200 21.72600
C  1.35700 10.26200 22.04300
C  1.39100 10.28900 23.56700
C  2.26900 8.06600 21.21200
C  0.35900 11.34100 21.37800
C  -0.78300 11.77600 22.33700
N  1.50600 10.65400 26.53300
C  1.86900 11.67600 25.69000
C  2.30700 12.81800 26.43600
C  2.31700 12.35500 27.77200
C  1.81500 11.01300 27.78400
C  2.63800 14.15400 25.92500
C  2.57900 12.71700 29.13600
O  3.02700 13.77800 29.61400
C  2.23000 11.47200 30.06100
C  3.50800 11.05900 30.68500
O  4.34600 10.36900 30.17600
O  3.49100 11.49000 32.00300
C  4.53100 10.97300 32.95400
H  -0.21800 5.11800 28.79700
H  -0.32200 6.43800 22.59400
H  2.15800 12.22200 23.62000
H  1.94300 8.63000 31.32300
H  -0.04200 6.60900 30.92500
H  1.65800 5.35900 31.59500
H  2.87900 6.58100 31.21900
H  2.39400 5.58700 29.90100
H  -1.03600 8.46300 31.28400
H  -0.39500 10.03400 30.98400
H  -0.87900 8.73400 33.46000
H  -0.26600 10.28100 33.32600
H  -0.57600 2.57800 26.36800
H  -2.14500 3.26500 26.82300
H  -0.77800 3.57500 27.89200
H  -2.72500 2.33900 23.23600
H  -2.24600 2.45200 24.87400
H  -1.00300 2.10100 23.78300
H  0.08900 8.57900 21.17400
H  2.37900 10.46800 21.72700
H  2.29400 8.24800 20.13800
H  2.05600 7.01000 21.38100
H  3.20900 8.29500 21.71500
H  -0.03200 10.93400 20.44600
H  1.04600 12.12100 21.04900
H  -0.82400 11.17700 23.24700
H  -1.72000 11.71400 21.78200
H  -0.61800 12.77900 22.73100
H  1.73500 14.69900 25.65000
H  3.28500 14.06300 25.05300
H  3.10400 14.84200 26.63000
H  1.50600 11.77000 30.81900
H  5.47700 11.24700 32.48600
H  4.47500 9.89800 33.12600
H  4.59500 11.42000 33.94600

