79

Mg 47.31900 25.48900 28.78200
C  48.10000 27.80500 31.30600
C  46.05200 23.47900 31.19700
C  46.77700 23.38500 26.41500
C  49.12900 27.51500 26.45400
N  47.04900 25.69200 31.05800
C  47.48100 26.70400 31.86900
C  47.05100 26.47200 33.37200
C  46.60900 24.88000 33.31900
C  46.53700 24.66800 31.76700
C  47.65700 23.92600 34.05100
C  45.90900 27.48000 33.73800
C  45.74400 27.86400 35.19500
H  46.24600 26.94700 36.24500
N  46.53200 23.67700 28.81000
C  46.05100 23.00200 29.89700
C  45.45300 21.74200 29.45200
C  45.66900 21.69200 28.06100
C  46.35800 22.95400 27.71100
C  44.82500 20.67200 30.28900
C  45.17100 20.65000 27.08600
O  45.28100 20.83300 25.92700
C  44.44700 19.40100 27.49000
N  47.71400 25.49600 26.71900
C  47.46400 24.44900 26.00900
C  48.17900 24.54700 24.61700
C  48.50800 26.06300 24.48400
C  48.47700 26.38100 26.00700
C  49.38500 23.55200 24.53000
C  47.56000 26.91200 23.66100
C  47.83300 28.47000 23.62400
N  48.37400 27.22900 28.79000
C  49.04900 27.99000 27.76800
C  49.49000 29.28200 28.29400
C  49.10300 29.25500 29.68000
C  48.50700 27.99800 29.95100
C  50.23000 30.35900 27.51200
C  49.17100 30.03400 30.93700
O  49.62900 31.09100 31.28000
C  48.57200 29.02700 31.97900
C  49.56400 28.81400 33.06600
O  50.70800 28.32400 32.93000
O  48.97800 29.23900 34.23900
C  49.88400 29.30400 35.42300
H  45.70600 22.74500 31.92800
H  46.54000 22.75700 25.55400
H  49.75800 28.03200 25.72700
H  47.95400 26.66400 33.95000
H  45.58800 24.76600 33.68400
H  47.97400 23.22100 33.28200
H  47.14500 23.33800 34.81300
H  48.40800 24.61500 34.43600
H  45.00000 27.06100 33.30700
H  46.09800 28.39100 33.17000
H  44.73100 28.26400 35.24200
H  46.38300 28.74100 35.29400
H  43.77000 20.46100 30.11400
H  44.77400 21.05400 31.30900
H  45.39500 19.75900 30.11400
H  45.16300 18.98100 28.19700
H  44.27800 18.77600 26.61200
H  43.48600 19.68300 27.91900
H  47.39800 24.28100 23.90500
H  49.52200 26.24500 24.12800
H  49.18500 22.87700 23.69800
H  49.41800 22.93300 25.42700
H  50.32500 24.10200 24.47200
H  46.58900 26.70900 24.11200
H  47.71300 26.59100 22.63000
H  48.91400 28.56600 23.72300
H  47.24500 28.86900 24.45100
H  47.41200 28.93200 22.73100
H  50.94100 29.72700 26.98100
H  50.74300 31.05800 28.17400
H  49.51100 30.86500 26.86800
H  47.74100 29.50500 32.49700
H  49.29500 29.02800 36.29700
H  50.21100 30.33800 35.53500
H  50.78500 28.69000 35.40100

