79

Mg 42.84600 41.37800 25.68700
C  42.22400 43.42200 28.51400
C  44.42300 39.15300 27.91300
C  43.74600 39.61300 23.05600
C  41.64900 43.90700 23.63700
N  43.46800 41.37700 27.89300
C  42.91700 42.24000 28.80100
C  43.25500 41.69700 30.21100
C  44.34400 40.60800 29.97300
C  44.00100 40.30300 28.52300
C  45.76800 41.17200 30.10300
C  41.98100 41.35300 31.05300
C  42.16000 41.52000 32.53300
H  41.17700 42.42000 33.28300
N  43.91000 39.56900 25.46800
C  44.41700 38.79800 26.53100
C  44.96600 37.57300 25.95400
C  44.77600 37.66900 24.50100
C  44.10300 38.93100 24.26300
C  45.52200 36.43800 26.82700
C  45.14800 36.65600 23.42100
O  44.88900 36.77700 22.21600
C  45.90800 35.38500 23.76800
N  42.82100 41.77200 23.59400
C  43.16100 40.83600 22.75600
C  43.04100 41.37200 21.29900
C  42.15900 42.61600 21.43800
C  42.18300 42.79900 22.94900
C  44.46900 41.63800 20.64600
C  40.69800 42.44500 20.93300
C  39.88400 41.37000 21.67100
N  42.03400 43.27200 25.94700
C  41.69700 44.23000 25.01400
C  41.29500 45.39000 25.73100
C  41.39200 45.09300 27.09500
C  41.89600 43.79100 27.17000
C  40.85800 46.68400 25.11800
C  41.30500 45.61200 28.46000
O  40.92100 46.71800 28.84400
C  41.74600 44.52800 29.51900
C  42.85000 45.12000 30.30000
O  43.98700 45.22800 29.88700
O  42.31200 45.67900 31.43200
C  43.34900 46.22300 32.35900
H  44.93800 38.44500 28.56500
H  43.88800 39.01200 22.15600
H  41.24500 44.58600 22.88300
H  43.63400 42.60900 30.67200
H  44.29700 39.73800 30.62900
H  46.17900 41.31300 29.10400
H  46.37200 40.57800 30.78900
H  45.73900 42.14600 30.59000
H  41.65500 40.32500 30.89600
H  41.15700 41.99800 30.74800
H  43.14600 41.97500 32.62800
H  42.33100 40.61000 33.10900
H  45.17500 35.45800 26.50000
H  45.44900 36.52500 27.91100
H  46.57400 36.25400 26.60600
H  46.49000 35.00900 22.92700
H  45.15200 34.64000 24.01400
H  46.57800 35.52500 24.61600
H  42.47500 40.61100 20.76100
H  42.66700 43.41000 20.89200
H  44.81700 42.65100 20.44800
H  44.51000 41.13800 19.67800
H  45.11300 41.09200 21.33500
H  40.76900 42.10900 19.89900
H  40.28200 43.45000 21.01200
H  40.34900 40.94100 22.55800
H  39.48800 40.59100 21.02100
H  39.14000 42.02000 22.13100
H  40.74700 46.57200 24.04000
H  41.60400 47.43900 25.36900
H  39.91900 47.02800 25.55100
H  40.91400 44.11100 30.08800
H  43.65500 47.22400 32.05800
H  44.23700 45.60500 32.22900
H  42.97800 46.24700 33.38400

