79

Mg 9.40800 48.71800 26.02400
C  7.28500 48.61500 28.73900
C  11.93500 49.68100 27.98900
C  11.27300 48.68800 23.22500
C  6.60000 47.57100 24.09500
N  9.58700 49.14100 28.14700
C  8.59100 49.03100 29.12700
C  9.08900 49.40300 30.54100
C  10.64500 49.76900 30.21800
C  10.79900 49.41700 28.71900
C  10.93000 51.23700 30.53900
C  8.97400 48.21600 31.55900
C  9.61100 48.41000 32.94100
H  8.65400 48.56300 34.14300
N  11.33300 49.22600 25.62000
C  12.23400 49.45300 26.59800
C  13.53700 49.49100 25.99400
C  13.42100 49.19800 24.57700
C  11.96600 49.06600 24.38900
C  14.78400 49.82300 26.79500
C  14.50000 49.09700 23.53700
O  14.16100 48.92400 22.36800
C  15.94200 49.02200 23.82800
N  8.93700 48.33800 24.02500
C  9.93000 48.36400 22.98200
C  9.39900 47.97400 21.60900
C  8.02000 47.34900 22.02300
C  7.86800 47.67300 23.49500
C  9.42900 49.06100 20.56800
C  8.10500 45.83000 21.79900
C  8.71700 44.90400 22.83200
N  7.32700 48.18400 26.26700
C  6.36400 47.81800 25.41000
C  5.04700 47.74300 26.11000
C  5.35400 48.06200 27.45300
C  6.72400 48.35900 27.48100
C  3.80600 47.15700 25.60500
C  4.83200 48.23800 28.85700
O  3.74800 48.00500 29.39000
C  6.08100 48.40800 29.68100
C  6.15800 47.19900 30.46700
O  6.95800 46.35400 30.24200
O  5.40100 47.24200 31.66000
C  5.85200 46.28600 32.68600
H  12.79700 49.87100 28.63200
H  11.94900 48.48400 22.39200
H  5.72500 47.17400 23.57500
H  8.52900 50.22300 30.99000
H  11.18300 49.01000 30.78600
H  11.71600 51.47300 29.82300
H  11.27900 51.30900 31.56900
H  10.06400 51.89200 30.44500
H  9.29600 47.25800 31.14900
H  7.89800 48.18000 31.72900
H  10.07100 49.39300 32.83500
H  10.33900 47.60900 33.06600
H  14.51000 50.33400 27.71800
H  15.51200 50.46300 26.29600
H  15.29000 48.87200 26.95900
H  16.16800 48.25800 24.57200
H  16.32000 50.01900 24.05300
H  16.35100 48.55100 22.93400
H  10.17400 47.30700 21.23300
H  7.24600 47.81800 21.41500
H  9.88500 49.95400 20.99500
H  8.42000 49.31900 20.24800
H  10.07300 48.85200 19.71400
H  8.68900 45.55900 20.91900
H  7.09800 45.53700 21.50100
H  7.90200 44.26800 23.17700
H  9.09800 45.36800 23.74100
H  9.34500 44.16600 22.33200
H  3.70700 46.11500 25.91100
H  3.81100 47.23600 24.51800
H  2.97300 47.72600 26.01700
H  5.93500 49.27700 30.32200
H  6.92100 46.47900 32.76900
H  5.55700 45.25900 32.47200
H  5.42600 46.62100 33.63200

