79

Mg 16.88800 -2.84200 27.55500
C  16.23900 -0.46100 30.02000
C  19.19200 -4.31400 29.58200
C  18.51200 -4.03000 24.87400
C  15.38400 -0.47200 25.34700
N  17.59300 -2.45000 29.57100
C  17.09200 -1.52400 30.50600
C  17.74700 -1.76800 31.90900
C  18.68900 -2.97700 31.66800
C  18.55900 -3.20400 30.18500
C  20.18500 -2.86700 32.00100
C  16.54900 -2.11700 32.88200
C  16.57500 -1.25100 34.14500
H  17.93600 -0.78500 34.74200
N  18.28500 -4.27500 27.23200
C  19.15300 -4.74200 28.26700
C  19.88900 -5.88300 27.69400
C  19.61600 -5.87300 26.32900
C  18.73600 -4.71900 26.03400
C  20.63700 -6.87800 28.61500
C  20.21200 -6.79500 25.26100
O  19.80700 -6.77000 24.10500
C  21.25900 -7.70600 25.72800
N  16.75100 -2.50000 25.37800
C  17.56100 -3.06900 24.50900
C  17.43500 -2.53200 23.04500
C  16.16700 -1.66100 23.21600
C  16.09700 -1.49600 24.72700
C  18.63800 -1.84000 22.39900
C  14.85600 -2.30400 22.73600
C  13.84900 -1.22000 22.28300
N  15.76600 -1.05800 27.68300
C  15.18700 -0.28700 26.74800
C  14.53300 0.84300 27.27200
C  14.84400 0.79700 28.59500
C  15.68200 -0.35500 28.76600
C  13.84000 1.94200 26.56000
C  14.73800 1.57500 29.83300
O  14.27200 2.63400 30.09800
C  15.53900 0.62200 30.89600
C  16.46600 1.49100 31.65500
O  17.61900 1.67100 31.41200
O  15.72600 2.04400 32.69300
C  16.49500 3.06800 33.43700
H  19.99000 -4.73100 30.19900
H  19.01200 -4.49300 24.02000
H  14.88500 0.24900 24.69600
H  18.35300 -0.96200 32.32400
H  18.27700 -3.85400 32.16700
H  20.77000 -2.64600 31.10900
H  20.48100 -3.80100 32.48000
H  20.16800 -2.05500 32.72900
H  16.53700 -3.13600 33.26800
H  15.64200 -1.84400 32.34200
H  16.04900 -1.76900 34.94700
H  16.04800 -0.31000 33.98300
H  20.33000 -6.75700 29.65400
H  21.70000 -6.65900 28.51200
H  20.50600 -7.91000 28.29200
H  21.89400 -7.09400 26.36900
H  21.90900 -8.11700 24.95600
H  20.86100 -8.53000 26.32000
H  17.14200 -3.37200 22.41400
H  16.23100 -0.69200 22.72300
H  19.45500 -1.86200 23.12000
H  18.44800 -0.79100 22.16800
H  18.92500 -2.50200 21.58300
H  14.39500 -2.85100 23.55800
H  15.02100 -2.97300 21.89100
H  13.27500 -1.65700 21.46600
H  14.26600 -0.33700 21.80000
H  13.04800 -1.03000 22.99700
H  13.08500 2.33500 27.24200
H  13.40300 1.71200 25.58900
H  14.67300 2.64100 26.48400
H  14.81900 0.14200 31.55800
H  17.42100 2.61300 33.79000
H  15.83900 3.22100 34.29400
H  16.62200 3.93200 32.78600

