79

Mg 9.06500 2.16200 27.59000
C  10.44500 0.96600 30.63700
C  6.90400 4.13500 29.58000
C  7.50000 2.96500 24.82300
C  10.70600 -0.46500 25.94900
N  8.82600 2.62400 29.91400
C  9.50600 2.02400 30.91200
C  9.13500 2.72600 32.26900
C  8.00900 3.77800 31.92100
C  7.91100 3.53800 30.38100
C  6.74500 3.72200 32.77200
C  10.46700 3.37500 32.81000
C  10.28500 4.46700 33.91600
H  10.96300 4.22600 35.25300
N  7.49300 3.36100 27.26700
C  6.69200 4.06400 28.18100
C  5.79000 4.95200 27.42200
C  6.08300 4.71400 26.04500
C  7.11900 3.67000 26.01600
C  4.76200 5.86900 28.15700
C  5.55100 5.47700 24.86700
O  5.99500 5.47400 23.74500
C  4.38300 6.41900 25.12100
N  9.12600 1.35300 25.66100
C  8.41600 1.91300 24.64700
C  8.84600 1.35800 23.23000
C  9.78500 0.25000 23.62800
C  9.93800 0.37700 25.16400
C  7.70700 1.10000 22.11600
C  11.08100 0.19400 22.96100
C  11.11500 -0.71000 21.67500
N  10.26100 0.54600 28.18800
C  10.91400 -0.34200 27.38800
C  11.86900 -1.13000 28.21600
C  11.64800 -0.71900 29.50900
C  10.73600 0.39300 29.42000
C  12.86700 -2.18600 27.85100
C  12.08400 -0.86200 30.92100
O  12.92600 -1.52800 31.42000
C  11.30800 0.25300 31.69400
C  10.51400 -0.42200 32.70800
O  9.52600 -1.00800 32.47800
O  11.17300 -0.24000 33.93800
C  10.31900 -0.42600 35.10900
H  6.01000 4.49700 30.09200
H  7.04200 3.26400 23.87700
H  11.30200 -1.23300 25.45200
H  8.93800 2.01300 33.07000
H  8.45500 4.77000 31.99100
H  5.85800 3.42300 32.21300
H  6.61500 4.65400 33.32200
H  6.75200 2.96100 33.55300
H  10.99100 3.82900 31.96900
H  11.04300 2.57700 33.27800
H  9.22600 4.61000 34.13200
H  10.70800 5.37900 33.49600
H  4.92600 6.89000 27.81300
H  4.89800 5.97100 29.23400
H  3.69300 5.68600 28.04800
H  4.67800 7.24500 25.76800
H  3.59700 5.83700 25.60100
H  4.14000 6.90400 24.17600
H  9.55100 2.16700 23.03900
H  9.04300 -0.51600 23.40400
H  7.62100 2.02700 21.54900
H  6.72500 0.82600 22.50200
H  7.98300 0.36300 21.36100
H  11.90200 -0.18100 23.57200
H  11.37600 1.18300 22.60800
H  11.17700 -0.11600 20.76400
H  10.29100 -1.40900 21.53200
H  11.98700 -1.34200 21.84700
H  13.61100 -2.32700 28.63500
H  13.40600 -1.82700 26.97400
H  12.35700 -3.11300 27.59000
H  12.02500 1.01200 32.00600
H  10.02000 -1.47200 35.05600
H  9.47400 0.26200 35.13600
H  10.88000 -0.26400 36.03000

