79

Mg -12.65700 39.02900 41.64800
C  -11.02900 36.09700 40.77500
C  -10.13700 40.80500 40.02000
C  -14.54300 41.73600 42.02300
C  -15.25800 37.06200 43.06200
N  -10.87700 38.52200 40.48500
C  -10.40700 37.22900 40.25500
C  -9.11800 37.22800 39.46000
C  -8.74200 38.77000 39.33600
C  -9.96200 39.43600 39.99200
C  -7.44000 39.19800 39.93900
C  -9.30600 36.59400 38.05700
C  -8.37400 35.45900 37.58400
H  -7.12400 35.76700 36.57500
N  -12.32200 41.05200 41.24300
C  -11.27700 41.55600 40.48100
C  -11.45400 43.00600 40.45400
C  -12.70100 43.34400 41.14700
C  -13.28200 42.04800 41.48100
C  -10.38400 43.87600 39.74900
C  -13.16800 44.70800 41.44000
O  -12.42600 45.67000 41.38500
C  -14.55300 44.96400 42.08000
N  -14.67700 39.36500 42.42600
C  -15.11200 40.58500 42.51200
C  -16.53400 40.59100 43.32600
C  -16.61700 39.11000 43.82300
C  -15.45000 38.46300 43.10900
C  -16.62400 41.63200 44.50300
C  -17.99800 38.48300 43.52000
C  -18.61000 37.85300 44.81600
N  -13.07800 37.09500 41.90300
C  -14.08400 36.37900 42.48300
C  -13.91600 34.91400 42.50400
C  -12.69600 34.81400 41.82500
C  -12.18000 36.12100 41.52300
C  -14.87100 33.94800 43.08200
C  -11.72100 33.84200 41.43700
O  -11.67400 32.63100 41.62000
C  -10.60500 34.59400 40.70400
C  -9.26500 34.31200 41.35300
O  -8.79600 34.53000 42.48900
O  -8.61000 33.61200 40.36100
C  -7.28500 33.15900 40.77500
H  -9.33300 41.36400 39.53700
H  -15.27800 42.53900 42.10800
H  -15.97700 36.55500 43.70900
H  -8.25000 36.70200 39.85900
H  -8.73500 39.03900 38.28000
H  -6.82200 38.40300 40.35700
H  -7.58400 39.96000 40.70600
H  -6.80900 39.53700 39.11800
H  -9.25500 37.33600 37.26000
H  -10.32800 36.21500 38.05000
H  -9.02800 34.78200 37.03600
H  -8.03500 35.04200 38.53200
H  -10.43300 44.91000 40.09300
H  -10.72200 43.88800 38.71200
H  -9.37000 43.47800 39.75900
H  -15.26700 44.53900 41.37500
H  -14.75200 46.02900 42.19300
H  -14.57500 44.46400 43.04900
H  -17.28700 40.84900 42.58100
H  -16.31500 38.98900 44.86400
H  -17.62900 42.04500 44.42200
H  -15.83000 42.37600 44.45300
H  -16.51200 41.14400 45.47100
H  -17.77300 37.64100 42.86600
H  -18.72500 39.09600 42.98700
H  -18.29100 36.81100 44.83600
H  -19.68000 38.01400 44.94500
H  -18.17100 38.26300 45.72600
H  -15.50400 34.23700 43.92200
H  -14.36700 33.08500 43.51700
H  -15.51500 33.69600 42.24000
H  -10.61000 34.26000 39.66600
H  -7.48400 32.58300 41.67900
H  -6.58100 33.97000 40.96500
H  -6.98800 32.53400 39.93300

