79

Mg 48.32800 24.38300 29.00600
C  49.33800 26.77100 31.39500
C  47.60900 22.23600 31.58200
C  47.49300 22.09500 26.62900
C  49.32900 26.63200 26.51000
N  48.58700 24.47900 31.19600
C  48.74000 25.62500 31.95600
C  48.40200 25.34700 33.41600
C  47.99500 23.83900 33.41100
C  48.02500 23.49000 31.92000
C  48.91300 22.88300 34.19500
C  47.31800 26.41900 33.85600
C  46.70400 26.20000 35.26400
H  47.03600 27.16600 36.47300
N  47.66000 22.45700 29.06100
C  47.40300 21.78600 30.21700
C  46.85200 20.48300 29.88100
C  46.77600 20.42100 28.40500
C  47.34300 21.67200 27.92200
C  46.44300 19.41600 30.87600
C  46.24000 19.33800 27.42800
O  46.30500 19.40800 26.18200
C  45.56200 18.20500 27.93700
N  48.45400 24.28300 26.86600
C  48.02800 23.27800 26.13300
C  48.23100 23.52200 24.65000
C  48.65100 25.05700 24.63600
C  48.82600 25.37100 26.07100
C  49.28100 22.59200 23.97500
C  47.66500 26.05700 23.85900
C  48.43000 27.17300 23.07400
N  49.16900 26.26800 28.89100
C  49.45300 27.09300 27.81600
C  50.12100 28.35700 28.25100
C  50.09600 28.28000 29.66800
C  49.51100 26.99600 30.00800
C  50.75300 29.47200 27.46900
C  50.31600 28.98000 30.93700
O  50.84400 30.11300 31.06500
C  49.78100 28.08700 32.02500
C  50.80000 27.85300 33.09100
O  51.73500 27.05400 33.06900
O  50.69700 28.73600 34.10200
C  51.50000 28.56300 35.23000
H  47.32500 21.48800 32.32500
H  47.19600 21.38300 25.85600
H  49.60100 27.25500 25.65600
H  49.27100 25.65100 34.00000
H  46.93300 23.70200 33.61400
H  49.75500 23.36000 34.69600
H  49.47700 22.16100 33.60400
H  48.35800 22.29500 34.92500
H  46.57600 26.55900 33.07000
H  47.79300 27.40000 33.87700
H  46.92700 25.18200 35.58500
H  45.63300 26.30000 35.08900
H  45.42800 19.10400 30.63100
H  46.36200 19.82100 31.88500
H  46.89400 18.42400 30.90000
H  46.18600 17.60900 28.60300
H  45.23700 17.61000 27.08300
H  44.66100 18.53800 28.45200
H  47.33500 23.47900 24.03200
H  49.57400 25.11600 24.06000
H  50.23800 22.99000 23.63400
H  48.87200 22.08000 23.10400
H  49.36900 21.77600 24.69200
H  47.11200 26.65800 24.58100
H  46.99800 25.47900 23.22000
H  48.24300 28.16900 23.47400
H  48.15900 27.23700 22.02000
H  49.50400 26.99200 23.02500
H  50.81000 29.24200 26.40500
H  51.76200 29.75300 27.77300
H  50.05900 30.26200 27.75700
H  48.97900 28.70900 32.42200
H  52.19100 29.39800 35.34600
H  52.23100 27.75500 35.25000
H  50.78500 28.53500 36.05200

