79

Mg 1.43500 -1.55400 44.17400
C  4.87700 -0.97600 43.51000
C  0.68500 1.23900 42.41100
C  -1.72300 -2.56800 44.40000
C  2.40400 -4.68400 45.70400
N  2.61500 -0.10100 43.05900
C  3.96300 -0.07000 42.86100
C  4.39000 1.15600 42.03600
C  3.06200 1.91900 41.85200
C  2.04600 0.98200 42.43800
C  3.13000 3.24700 42.60200
C  5.00500 0.63200 40.73900
C  6.46000 1.10000 40.55200
H  6.63700 2.22800 39.53400
N  -0.30300 -0.75400 43.53500
C  -0.40800 0.46200 42.89400
C  -1.81200 0.79300 42.69800
C  -2.61000 -0.28300 43.37500
C  -1.54100 -1.24100 43.79300
C  -2.21600 2.09300 42.08300
C  -4.10200 -0.24900 43.42600
O  -4.69000 0.67000 42.86200
C  -5.06600 -1.34000 44.02900
N  0.45900 -3.47200 44.91200
C  -0.85200 -3.58700 44.83100
C  -1.35300 -4.95300 45.38400
C  -0.03900 -5.60300 45.89400
C  1.02100 -4.53200 45.43500
C  -2.40700 -4.81800 46.48100
C  0.28700 -7.03800 45.37000
C  0.25200 -8.25600 46.25800
N  3.24300 -2.62800 44.60800
C  3.45200 -3.82800 45.22000
C  4.90000 -4.08500 45.26100
C  5.48800 -2.94700 44.69900
C  4.47700 -2.11500 44.20900
C  5.59800 -5.24900 45.98400
C  6.86400 -2.34900 44.43500
O  7.97600 -2.63300 44.70400
C  6.42000 -1.03400 43.56800
C  6.94300 0.09500 44.36800
O  6.49200 0.52700 45.37600
O  7.99500 0.73800 43.71200
C  8.59300 1.95900 44.30000
H  0.33000 2.13100 41.89100
H  -2.78600 -2.79700 44.49100
H  2.81200 -5.59700 46.14100
H  5.14200 1.72700 42.58100
H  2.77700 2.18400 40.83400
H  4.12600 3.58200 42.89100
H  2.54700 3.19100 43.52100
H  2.59500 3.93800 41.95100
H  4.30600 0.80200 39.92000
H  4.98900 -0.45500 40.66200
H  7.13600 0.30400 40.23900
H  6.99500 1.47800 41.42300
H  -3.19800 1.92400 41.64200
H  -1.58200 2.41500 41.25700
H  -2.37400 2.87400 42.82600
H  -4.64600 -1.85000 44.89600
H  -5.30900 -2.10300 43.28900
H  -5.86900 -0.71700 44.42100
H  -1.69100 -5.64100 44.61000
H  -0.10800 -5.63200 46.98200
H  -2.81500 -3.81200 46.56600
H  -2.04600 -5.06500 47.47900
H  -3.24800 -5.50400 46.38000
H  1.17400 -7.08800 44.73900
H  -0.51500 -7.18900 44.64800
H  -0.39800 -8.95100 45.72600
H  -0.16800 -7.98400 47.22700
H  1.27300 -8.63500 46.29700
H  6.59600 -5.24300 45.54600
H  5.10900 -6.19300 45.74100
H  5.63300 -5.18200 47.07100
H  6.86700 -1.04800 42.57400
H  8.86200 1.88200 45.35400
H  7.92300 2.80500 44.14400
H  9.50900 2.06800 43.72000

