79

Mg 48.14100 35.29900 26.86100
C  46.20800 33.99300 29.48100
C  48.54200 38.12700 28.70200
C  49.36400 36.60500 24.05600
C  47.16700 32.40100 24.95800
N  47.64900 35.87100 28.97500
C  46.96300 35.10800 29.88200
C  47.13800 35.65500 31.25900
C  47.61200 37.22400 30.98600
C  47.93300 37.08400 29.40600
C  46.63400 38.33100 31.44300
C  48.26800 34.77700 31.86600
C  48.21200 34.50600 33.30200
H  47.26300 35.36900 34.11800
N  48.86800 37.12100 26.39700
C  49.10800 38.14500 27.36100
C  49.89800 39.16900 26.70800
C  50.01700 38.81000 25.32100
C  49.36300 37.49400 25.16100
C  50.35400 40.40400 27.37900
C  50.71000 39.55400 24.20900
O  50.87400 39.13400 23.07800
C  51.22200 40.94500 24.46600
N  48.23400 34.61000 24.76700
C  48.86000 35.40600 23.79500
C  48.98200 34.64100 22.41700
C  48.50000 33.16400 22.83300
C  47.91200 33.38000 24.27100
C  48.35800 35.32900 21.20300
C  49.52400 31.96300 22.76600
C  49.56400 31.10600 21.46800
N  47.03700 33.54200 27.11700
C  46.61100 32.53400 26.24600
C  45.68500 31.65500 26.93500
C  45.44400 32.23000 28.16800
C  46.32100 33.32900 28.23100
C  45.13800 30.37800 26.35100
C  44.69300 32.14200 29.40400
O  43.78800 31.42500 29.74400
C  45.13300 33.34100 30.25200
C  45.49400 32.78100 31.57800
O  46.45300 32.17700 31.84800
O  44.41300 33.00400 32.40800
C  44.37800 32.33400 33.68700
H  48.86300 39.02700 29.23100
H  49.83600 37.10500 23.20800
H  47.02000 31.47300 24.40100
H  46.21200 35.57600 31.82900
H  48.57400 37.41300 31.46200
H  45.67500 37.95100 31.79600
H  46.44800 39.02300 30.62200
H  47.09300 38.78400 32.32200
H  49.19700 35.33300 31.73500
H  48.38300 33.78600 31.42700
H  49.23800 34.66400 33.63500
H  48.00400 33.44200 33.41400
H  50.25400 40.23300 28.45000
H  49.69400 41.23800 27.13800
H  51.41100 40.66000 27.30000
H  50.58700 41.59700 25.06500
H  51.19200 41.44600 23.49800
H  52.21900 40.85800 24.89700
H  50.04500 34.66100 22.17600
H  47.65500 32.82400 22.23400
H  47.59100 34.75000 20.68900
H  49.22100 35.55500 20.57800
H  47.94000 36.28400 21.52200
H  49.19800 31.24700 23.52000
H  50.46000 32.48900 22.95100
H  49.15000 30.11800 21.67000
H  50.62000 31.06300 21.20300
H  49.00700 31.50700 20.62200
H  44.37200 29.97700 27.01500
H  45.96700 29.67000 26.33500
H  44.72900 30.48200 25.34600
H  44.28600 34.00900 30.40400
H  45.29900 32.29800 34.26900
H  44.00100 31.32900 33.49800
H  43.62800 32.91900 34.21900

