79

Mg 1.32500 41.41800 26.14400
C  3.52300 41.73500 29.10400
C  -1.19500 40.81800 28.23000
C  -0.27600 41.01400 23.37400
C  4.25500 42.22500 24.21900
N  1.27100 41.29900 28.40100
C  2.17000 41.55700 29.44400
C  1.46500 41.62800 30.80700
C  0.12800 40.80000 30.47600
C  -0.00400 41.00800 28.95000
C  0.18100 39.36700 31.09400
C  1.29500 43.09300 31.34100
C  1.32900 43.17300 32.88400
H  1.22000 41.84800 33.66600
N  -0.51100 40.96000 25.82500
C  -1.46700 40.75000 26.81700
C  -2.68500 40.30400 26.12900
C  -2.44600 40.36300 24.74200
C  -1.04900 40.80200 24.55900
C  -4.02300 40.21900 26.89400
C  -3.22600 39.81300 23.54500
O  -2.84400 39.76000 22.39100
C  -4.60000 39.31300 23.70400
N  1.83900 41.87700 24.15000
C  1.01000 41.58800 23.16200
C  1.63400 41.70500 21.79200
C  2.95600 42.37500 22.09800
C  3.07800 42.08300 23.51200
C  1.72100 40.43500 20.86300
C  3.01500 43.91400 21.85600
C  2.31700 44.86300 22.79800
N  3.45900 41.83800 26.48900
C  4.47100 42.13700 25.60700
C  5.72000 42.37800 26.33300
C  5.37400 42.19800 27.66100
C  4.01100 41.90100 27.79000
C  7.06000 42.73100 25.78600
C  5.94300 42.13200 28.94500
O  7.14300 42.22300 29.11600
C  4.77500 42.06500 29.94500
C  5.09600 41.06600 30.96700
O  5.20900 39.83500 30.75400
O  5.00900 41.62400 32.17300
C  5.31100 40.74100 33.26800
H  -2.02200 40.58300 28.90300
H  -0.81700 40.73600 22.46800
H  5.13400 42.24800 23.57200
H  2.03500 40.96900 31.46200
H  -0.65800 41.27700 31.06200
H  0.76300 39.40900 32.01500
H  0.70300 38.74100 30.37000
H  -0.82000 39.01900 31.34700
H  0.27100 43.25500 31.00500
H  1.96300 43.86300 30.95300
H  0.64600 43.96800 33.18400
H  2.31300 43.54900 33.16400
H  -4.35100 39.18500 26.99700
H  -4.80300 40.77000 26.36900
H  -3.84100 40.57800 27.90800
H  -4.76700 38.60400 24.51500
H  -4.87500 38.75900 22.80600
H  -5.22000 40.18000 23.93300
H  0.94900 42.39800 21.30400
H  3.71200 41.81900 21.54300
H  2.66600 40.53100 20.32900
H  0.89200 40.53700 20.16200
H  1.60500 39.43000 21.26900
H  2.52000 44.08800 20.90000
H  4.05900 44.20500 21.74000
H  2.59400 45.87500 22.50100
H  2.61800 44.75800 23.84000
H  1.27200 44.55500 22.79000
H  6.90600 43.40500 24.94400
H  7.60100 41.87600 25.37900
H  7.75400 43.25500 26.44200
H  4.55400 42.99300 30.47300
H  5.45100 41.37500 34.14400
H  6.26300 40.38800 32.87200
H  4.59300 39.93600 33.42300

