79

Mg 8.59800 3.82700 26.80500
C  9.58400 2.41300 29.67600
C  6.18300 5.63600 28.67100
C  7.40000 5.47800 23.98200
C  10.19500 1.52000 24.88200
N  8.01500 4.05700 28.86400
C  8.60800 3.32600 29.81100
C  7.96200 3.72800 31.18700
C  6.55100 4.19600 30.73000
C  6.90500 4.58200 29.35500
C  5.36400 3.16200 30.87700
C  8.79800 4.87800 31.96600
C  8.87900 4.75200 33.51400
H  10.21700 4.66200 34.28200
N  7.17900 5.40700 26.39200
C  6.32800 6.05000 27.27300
C  5.51700 7.03800 26.64300
C  5.96600 7.10200 25.29400
C  6.95600 5.99300 25.17700
C  4.49700 7.91300 27.38500
C  5.57300 8.08800 24.19700
O  5.79700 7.94100 23.01500
C  4.84300 9.29000 24.57700
N  8.82900 3.53600 24.66500
C  8.27100 4.30000 23.73900
C  8.36600 3.49800 22.36700
C  9.34300 2.35700 22.74600
C  9.45100 2.43000 24.18300
C  6.98300 3.00400 21.87400
C  10.68400 2.35900 21.95500
C  10.92600 1.09700 21.18100
N  9.77700 2.34800 27.14500
C  10.43100 1.50000 26.32300
C  11.16900 0.58800 27.03900
C  10.93500 0.91000 28.42400
C  10.05600 1.99700 28.43400
C  12.00200 -0.45700 26.39300
C  11.18300 0.51700 29.84200
O  11.81600 -0.41500 30.34100
C  10.32000 1.52200 30.71800
C  9.50300 0.86300 31.73400
O  8.56800 0.11800 31.44200
O  9.79600 1.29900 32.97000
C  9.25200 0.53000 34.08500
H  5.50600 6.20600 29.31100
H  6.89300 5.64700 23.02900
H  10.59200 0.70200 24.27700
H  7.89400 2.87500 31.86200
H  6.30800 5.06500 31.34200
H  5.61600 2.20400 31.33200
H  4.88700 3.18300 29.89700
H  4.71300 3.65000 31.60200
H  8.34800 5.86000 31.82500
H  9.81200 4.98300 31.57800
H  8.45700 3.75400 33.63500
H  8.15700 5.40800 34.00100
H  4.40200 7.53600 28.40300
H  3.52500 7.80200 26.90300
H  4.82400 8.94800 27.48200
H  4.92800 10.12100 23.87700
H  5.48900 9.45100 25.44000
H  3.82300 9.06300 24.88400
H  8.80900 4.21000 21.67000
H  8.77700 1.46800 22.46900
H  6.16700 3.10600 22.58800
H  7.01700 1.98900 21.48000
H  6.59300 3.58100 21.03500
H  11.55500 2.47200 22.60000
H  10.65100 3.08400 21.14200
H  10.55900 1.12600 20.15500
H  10.47200 0.20600 21.61500
H  12.01200 1.03200 21.11100
H  12.28500 -1.24500 27.09100
H  12.95300 -0.10700 25.99200
H  11.46800 -0.94400 25.57700
H  11.08300 2.09400 31.24700
H  10.06400 -0.01500 34.56700
H  8.50400 -0.20400 33.78700
H  8.93800 1.23700 34.85300

