79

Mg -1.73900 17.50100 27.94200
C  -1.77300 14.94200 30.36700
C  -2.21100 19.85200 30.34500
C  -2.06800 19.65200 25.49100
C  -1.75200 14.79700 25.57100
N  -2.08500 17.33600 30.11400
C  -1.85900 16.22900 30.92300
C  -1.92600 16.60700 32.38000
C  -2.54300 18.11700 32.22500
C  -2.30600 18.48900 30.82000
C  -4.00700 18.13300 32.80800
C  -0.51700 16.68300 33.00100
C  -0.34700 17.33700 34.40500
H  0.44000 16.57100 35.44200
N  -1.91800 19.50800 27.95100
C  -2.12000 20.30600 29.01700
C  -2.27400 21.68400 28.55700
C  -2.24600 21.60200 27.13000
C  -2.07100 20.23100 26.78200
C  -2.40400 22.91500 29.49700
C  -2.32400 22.78500 26.19500
O  -2.25600 22.64400 25.00200
C  -2.51400 24.19500 26.62200
N  -1.67900 17.21500 25.95400
C  -1.86900 18.31400 25.09900
C  -1.92500 17.91200 23.59400
C  -1.41800 16.41200 23.67200
C  -1.64900 16.09800 25.14100
C  -3.32500 18.10400 22.99900
C  0.05700 16.15000 23.15100
C  1.28600 16.45900 24.12400
N  -1.80900 15.30000 27.89700
C  -1.70600 14.41700 26.87600
C  -1.70300 13.01700 27.37900
C  -1.67800 13.14700 28.78400
C  -1.79700 14.58400 29.00600
C  -1.79200 11.74400 26.51000
C  -1.71500 12.52700 30.04100
O  -1.89900 11.34900 30.38500
C  -1.72800 13.66800 31.10800
C  -0.41100 13.54400 31.80600
O  0.72100 13.65600 31.22500
O  -0.62300 13.16100 33.10200
C  0.58800 12.97000 33.82500
H  -2.40500 20.61000 31.10700
H  -2.27600 20.26600 24.61200
H  -1.73000 14.00700 24.81800
H  -2.49400 15.83700 32.90200
H  -2.05100 18.77900 32.93600
H  -4.04200 18.84100 33.63600
H  -4.33200 17.10600 32.97700
H  -4.59600 18.52200 31.97700
H  0.16600 17.19500 32.32300
H  -0.09100 15.68500 33.10300
H  -1.35900 17.55500 34.74600
H  0.11400 18.31900 34.29800
H  -3.37200 23.38300 29.31900
H  -1.54900 23.58500 29.40800
H  -2.58000 22.55400 30.51100
H  -3.53500 24.39300 26.94700
H  -2.13300 24.78000 25.78400
H  -1.96000 24.48900 27.51300
H  -1.23000 18.59300 23.10200
H  -2.10300 15.81800 23.06600
H  -3.83700 18.92100 23.50800
H  -3.94700 17.22100 23.15100
H  -3.21300 18.30400 21.93400
H  0.19200 16.71100 22.22600
H  0.17200 15.10700 22.85700
H  1.90400 15.57300 24.26900
H  0.83900 16.99600 24.96100
H  1.84800 17.15800 23.50400
H  -1.45700 11.97200 25.49800
H  -2.84600 11.46500 26.52400
H  -1.11800 10.95400 26.84200
H  -2.61400 13.57900 31.73700
H  0.81800 11.90400 33.85000
H  0.47900 13.29400 34.86000
H  1.48500 13.47500 33.46800

