79

Mg 44.39800 2.61000 46.94600
C  42.48500 5.43700 47.08900
C  41.55600 0.64800 46.62200
C  46.38200 -0.12800 46.62800
C  47.23100 4.63900 46.84700
N  42.31200 2.98400 46.65900
C  41.74600 4.23700 46.81300
C  40.25900 4.11800 46.59900
C  39.85400 2.66900 46.58500
C  41.33400 2.03200 46.61700
C  39.06700 2.21800 47.84800
C  39.86300 4.71500 45.20500
C  38.59100 5.56900 45.15200
H  37.80400 5.43400 43.80800
N  43.97100 0.51800 46.81000
C  42.75500 -0.06400 46.74000
C  42.94800 -1.53000 46.61200
C  44.38100 -1.75300 46.45800
C  44.95700 -0.40300 46.65500
C  41.79800 -2.49700 46.38000
C  45.00800 -3.24900 46.24400
O  44.35600 -4.31200 46.27900
C  46.53300 -3.40700 46.09500
N  46.47100 2.29400 46.72400
C  47.06000 1.09300 46.58800
C  48.59700 1.11700 46.39500
C  48.86700 2.68600 46.43100
C  47.44300 3.28300 46.76300
C  49.31700 0.32500 47.50700
C  49.52000 3.44400 45.21200
C  50.98900 3.75300 45.41500
N  44.82400 4.62900 46.83400
C  46.02800 5.36300 46.90600
C  45.75400 6.74500 47.07200
C  44.36300 6.79600 47.13600
C  43.83900 5.51100 47.07800
C  46.74800 7.88700 46.99100
C  43.26600 7.74900 47.23300
O  43.23300 8.93700 47.35100
C  41.92800 6.80700 47.32500
C  41.15900 6.96800 48.60100
O  41.54800 6.95200 49.75400
O  39.85700 7.10200 48.27000
C  38.96700 7.40200 49.38100
H  40.65300 0.07000 46.41200
H  47.08500 -0.96100 46.56400
H  48.08700 5.31100 46.94700
H  39.69600 4.60800 47.39400
H  39.33000 2.36200 45.68000
H  38.25300 2.92600 48.00000
H  39.71500 2.23800 48.72400
H  38.62800 1.22700 47.73200
H  39.78800 3.87200 44.51800
H  40.64700 5.35100 44.79600
H  38.86800 6.60900 45.32600
H  38.01900 5.15000 45.97900
H  41.58700 -2.61500 45.31700
H  40.88600 -1.97700 46.67500
H  41.81000 -3.42200 46.95700
H  46.97400 -2.99700 47.00400
H  46.99300 -2.75000 45.35600
H  46.87900 -4.40800 45.83900
H  48.87800 0.76000 45.40400
H  49.40600 2.96700 47.33600
H  48.77900 0.41800 48.45000
H  50.33500 0.69600 47.63100
H  49.33800 -0.68200 47.08800
H  49.04500 4.39200 44.95900
H  49.33200 2.76900 44.37700
H  51.28300 3.81700 46.46300
H  51.07000 4.74100 44.96100
H  51.39100 2.87900 44.90300
H  47.71500 7.59900 46.57900
H  46.87800 8.22600 48.01900
H  46.32300 8.63900 46.32700
H  41.22800 7.07300 46.53300
H  39.37100 8.20000 50.00200
H  38.76300 6.46700 49.90300
H  38.04700 7.78700 48.94000

