79

Mg 16.75100 51.54200 26.40400
C  18.67500 49.99900 29.02000
C  14.36000 52.30400 28.60100
C  15.03000 52.45100 23.72700
C  19.38500 50.30900 24.13600
N  16.59600 51.16600 28.52600
C  17.48800 50.63300 29.41500
C  17.02500 50.84000 30.89600
C  15.51100 51.32300 30.68700
C  15.47200 51.64100 29.16000
C  14.41500 50.34800 31.17400
C  17.99500 51.88500 31.61600
C  18.45700 51.52700 32.97300
H  17.36000 50.76900 33.89800
N  14.98700 52.31600 26.17300
C  14.12600 52.64200 27.24000
C  12.99000 53.33000 26.69800
C  13.20000 53.43700 25.28700
C  14.49900 52.79100 24.98100
C  11.88500 53.78900 27.58300
C  12.45500 54.21400 24.26300
O  12.82800 54.39400 23.10000
C  11.10400 54.87800 24.67000
N  17.21900 51.32800 24.25300
C  16.25300 51.81200 23.39000
C  16.57200 51.26100 21.97600
C  18.10200 50.99600 22.04500
C  18.33300 50.93400 23.58200
C  15.62800 50.11300 21.58400
C  19.09900 51.99500 21.35500
C  18.76200 53.50100 21.54000
N  18.64700 50.48900 26.53100
C  19.60600 50.07900 25.57000
C  20.69200 49.34500 26.15800
C  20.35400 49.31900 27.51900
C  19.10600 49.94100 27.68200
C  22.01600 48.77100 25.46200
C  20.83200 48.83500 28.74300
O  21.86300 48.21800 28.90400
C  19.86700 49.36000 29.82400
C  19.38300 48.27100 30.51800
O  18.99100 47.27300 29.98900
O  19.45600 48.45500 31.88200
C  18.93400 47.31600 32.62000
H  13.61700 52.58500 29.35100
H  14.35100 52.69600 22.90700
H  20.11400 49.95400 23.40500
H  17.06400 49.92000 31.47800
H  15.28400 52.18000 31.32000
H  13.90900 50.59400 32.10800
H  14.86100 49.36500 31.32400
H  13.76000 50.28200 30.30500
H  17.48300 52.84200 31.71200
H  18.91900 52.06400 31.06600
H  18.78100 52.38800 33.55800
H  19.24200 50.79500 32.78400
H  11.18000 52.98900 27.81000
H  11.38500 54.69200 27.23200
H  12.28600 54.03500 28.56600
H  10.37200 54.17800 25.07300
H  10.77700 55.34100 23.73900
H  11.34200 55.66400 25.38800
H  16.50600 52.12700 21.31700
H  18.32600 50.08900 21.48300
H  15.17200 50.46100 20.65700
H  14.85000 49.92200 22.32300
H  16.23900 49.34800 21.10400
H  18.93900 51.76400 20.30200
H  20.10000 51.66100 21.62700
H  19.64400 54.14000 21.51300
H  18.50600 53.60600 22.59400
H  18.02400 53.90600 20.84700
H  22.21500 49.06200 24.43000
H  21.86000 47.70300 25.31200
H  22.91500 48.90900 26.06200
H  20.34000 50.01200 30.55800
H  17.94300 46.96600 32.33100
H  18.83100 47.64700 33.65400
H  19.70400 46.54500 32.58100

