79

Mg 53.61200 23.70000 44.74200
C  51.10500 25.81700 43.75700
C  52.01700 21.10800 43.05800
C  56.48600 21.69000 45.14300
C  55.45700 26.38500 45.79100
N  51.98000 23.56200 43.34600
C  51.02600 24.56200 43.13800
C  50.14100 24.17000 41.98900
C  50.07600 22.61900 42.08500
C  51.39700 22.35900 42.91800
C  48.85500 21.98900 42.81500
C  50.71500 24.60800 40.57400
C  49.71100 24.51500 39.43800
H  50.15600 25.02900 38.04600
N  54.15000 21.65300 44.39400
C  53.31600 20.77100 43.60600
C  54.00800 19.52500 43.52900
C  55.26900 19.63300 44.26400
C  55.32900 21.03100 44.65600
C  53.36700 18.21100 42.84400
C  56.30000 18.46400 44.36000
O  56.07600 17.41300 43.88100
C  57.49400 18.54600 45.25600
N  55.71200 23.98600 45.47100
C  56.69000 23.05700 45.48000
C  58.04700 23.68800 45.88800
C  57.67400 25.23300 46.06400
C  56.19100 25.21500 45.71200
C  58.63800 22.98100 47.09200
C  58.47200 26.14600 45.02700
C  60.02800 25.97700 44.71100
N  53.29200 25.59000 45.02300
C  54.11100 26.57800 45.48600
C  53.30500 27.84400 45.60100
C  52.12500 27.57600 45.03300
C  52.20000 26.21400 44.59600
C  53.78300 29.02800 46.35200
C  50.88800 28.10700 44.58900
O  50.42300 29.21400 44.76300
C  50.15400 26.94500 43.75800
C  49.69300 27.38100 42.39500
O  50.38200 27.89100 41.53900
O  48.34500 27.19600 42.40000
C  47.73800 27.73700 41.18400
H  51.47800 20.28300 42.59000
H  57.40300 21.09800 45.17300
H  56.05500 27.25400 46.07400
H  49.12000 24.53600 42.09200
H  50.15900 22.19200 41.08500
H  48.04400 22.69000 43.01000
H  49.32500 21.61100 43.72300
H  48.42400 21.15900 42.25700
H  51.55800 23.95400 40.35000
H  51.06600 25.64000 40.57600
H  49.02100 25.32700 39.66400
H  49.07000 23.63700 39.51800
H  52.75200 17.65800 43.55400
H  54.07700 17.63800 42.24800
H  52.62900 18.52700 42.10600
H  57.55600 19.20000 46.12600
H  58.28200 18.60300 44.50600
H  57.73900 17.56300 45.65900
H  58.65500 23.66000 44.98400
H  57.85200 25.66200 47.05100
H  58.43100 21.91200 47.13700
H  58.33600 23.41800 48.04400
H  59.71600 23.14200 47.11100
H  58.31500 27.16400 45.38300
H  57.92900 26.11200 44.08300
H  60.72400 26.80800 44.83000
H  60.13300 25.71200 43.65900
H  60.41700 25.08500 45.20200
H  54.83900 29.25400 46.20700
H  53.60100 28.85100 47.41200
H  53.23000 29.90200 46.00700
H  49.32700 26.62600 44.39100
H  47.84800 28.82100 41.17300
H  46.76300 27.30800 41.41500
H  48.13400 27.27800 40.27700

