79

Mg 0.39800 43.01100 26.53700
C  2.49600 42.24600 29.21000
C  -2.24600 41.89300 28.43900
C  -1.59400 43.39600 23.89100
C  3.12300 44.02000 24.60700
N  0.18600 41.94200 28.57100
C  1.17500 41.88400 29.52300
C  0.55000 41.78000 30.88400
C  -0.96500 41.52300 30.62400
C  -1.03900 41.84500 29.09900
C  -1.54900 40.17800 30.85000
C  0.80700 43.06400 31.75200
C  1.08700 42.83600 33.27800
H  0.53000 41.59800 33.94600
N  -1.63900 42.65100 26.19600
C  -2.60000 42.25600 27.12800
C  -3.89500 42.15600 26.46100
C  -3.72100 42.53400 25.07400
C  -2.29000 42.88600 24.98400
C  -5.14400 41.75200 27.19600
C  -4.67000 42.70500 23.97000
O  -4.44400 43.22700 22.90900
C  -6.05100 42.22800 24.15900
N  0.68100 43.62000 24.55900
C  -0.32200 43.81100 23.65400
C  0.07100 44.49800 22.35100
C  1.52200 44.79300 22.73600
C  1.83700 44.11700 24.05000
C  -0.07300 43.61000 21.12800
C  2.09500 46.24400 22.42900
C  1.98200 47.29500 23.51500
N  2.40400 43.08700 26.75100
C  3.38600 43.51100 25.88400
C  4.67100 43.38900 26.55100
C  4.36800 42.89600 27.81300
C  2.94100 42.74200 27.96400
C  6.03800 43.75000 25.89700
C  4.95500 42.54300 29.05900
O  6.10200 42.34300 29.39700
C  3.74900 42.30200 30.04300
C  4.03800 41.07300 30.85200
O  3.79600 39.92500 30.49300
O  4.64300 41.41400 32.01200
C  5.03000 40.25100 32.86500
H  -3.17300 41.62700 28.95000
H  -2.26600 43.41800 23.03000
H  3.94000 44.45700 24.02900
H  1.08300 40.94000 31.33000
H  -1.60600 42.26800 31.09600
H  -1.08800 39.66100 31.69100
H  -1.28800 39.58100 29.97600
H  -2.63900 40.16700 30.89200
H  -0.09600 43.66900 31.67200
H  1.66600 43.67900 31.48400
H  0.74400 43.71800 33.82000
H  2.17500 42.86600 33.33600
H  -5.87100 42.55800 27.30000
H  -5.03600 41.40300 28.22300
H  -5.61900 40.91500 26.68400
H  -6.42200 42.19100 23.13400
H  -6.61900 42.96500 24.72800
H  -6.05400 41.21300 24.55400
H  -0.53800 45.38600 22.17900
H  2.15000 44.04400 22.25400
H  0.88600 43.29400 20.71800
H  -0.66100 44.14300 20.38100
H  -0.65800 42.71400 21.33900
H  1.51800 46.61400 21.58200
H  3.05400 46.03300 21.95400
H  1.75400 46.90800 24.50800
H  1.36600 48.16000 23.27200
H  3.05400 47.47100 23.60600
H  6.25500 43.02400 25.11300
H  6.73100 43.64800 26.73200
H  6.01700 44.74300 25.44700
H  3.64400 43.05600 30.82300
H  5.00500 40.54400 33.91400
H  6.10500 40.09500 32.77300
H  4.54200 39.31100 32.60700

