79

Mg 9.58200 47.19100 25.33600
C  7.48700 47.57900 28.24800
C  12.03500 48.57500 27.15000
C  11.27900 47.08700 22.45900
C  6.55800 46.60000 23.53100
N  9.70700 47.86600 27.41500
C  8.76900 48.03400 28.40400
C  9.41200 48.65800 29.67300
C  10.77700 49.27600 29.13900
C  10.81200 48.50200 27.81200
C  10.76600 50.86700 29.04400
C  9.66000 47.54800 30.75600
C  9.05200 47.70400 32.17300
H  9.16800 46.51800 33.13100
N  11.42900 47.54400 24.86200
C  12.32600 48.10200 25.84100
C  13.61200 47.90600 25.28200
C  13.47600 47.55700 23.86600
C  12.02200 47.41000 23.62300
C  14.88500 48.29300 26.11300
C  14.54400 47.43600 22.85700
O  14.31800 47.18900 21.68900
C  15.99500 47.50900 23.31200
N  9.01400 46.91100 23.30000
C  9.92900 46.85400 22.26500
C  9.29400 46.57300 20.94400
C  7.79300 46.29200 21.34700
C  7.77600 46.56200 22.80100
C  9.40400 47.57000 19.78200
C  7.26800 44.91500 20.96100
C  7.66600 43.76300 21.87400
N  7.39500 47.17200 25.71900
C  6.35900 46.88800 24.91500
C  5.08900 46.83700 25.72200
C  5.51400 47.01900 27.05900
C  6.93700 47.34700 26.98700
C  3.80000 46.51600 25.19400
C  5.12700 47.12500 28.48000
O  4.05700 46.92700 29.04200
C  6.44500 47.46100 29.31900
C  6.73700 46.19200 30.14600
O  7.47900 45.26800 29.90600
O  5.96500 46.31200 31.24500
C  5.95400 45.12900 32.14600
H  12.83500 49.13200 27.64200
H  11.88000 47.05700 21.54700
H  5.62800 46.39300 22.99600
H  8.73100 49.44300 30.00000
H  11.63100 49.03300 29.77100
H  11.69200 51.25700 29.46800
H  9.82000 51.15900 29.50000
H  10.63400 51.26800 28.03900
H  10.73700 47.42700 30.86800
H  9.46000 46.61200 30.23300
H  8.00100 47.94500 32.01300
H  9.45500 48.59800 32.64800
H  14.70000 48.30000 27.18800
H  15.44800 49.16400 25.78000
H  15.60500 47.47600 26.06800
H  16.12000 48.50000 23.74800
H  16.74300 47.38300 22.53000
H  16.08600 46.71700 24.05500
H  9.76300 45.65700 20.58600
H  7.17500 47.03200 20.83800
H  9.88100 48.49500 20.10700
H  8.45200 47.89400 19.36200
H  10.03700 47.01000 19.09400
H  7.62700 44.70000 19.95400
H  6.18400 45.02800 20.94000
H  8.34400 43.10100 21.33500
H  6.72900 43.22300 22.00900
H  8.15000 44.10300 22.78900
H  3.37700 47.44200 24.80400
H  3.19700 46.19600 26.04400
H  3.87300 45.77800 24.39600
H  6.31600 48.27300 30.03400
H  6.82100 45.20400 32.80300
H  5.83000 44.18100 31.62400
H  5.00900 45.11400 32.68900

