79

Mg -11.59200 37.56100 41.88700
C  -9.48700 35.04100 40.67700
C  -9.74100 39.86600 40.05200
C  -14.17300 39.78300 42.28900
C  -13.54300 35.07200 43.24700
N  -9.83300 37.40900 40.45800
C  -9.08500 36.30800 40.21800
C  -7.92600 36.69600 39.31100
C  -7.94400 38.29200 39.25400
C  -9.28200 38.55600 40.03500
C  -6.68500 39.05900 39.73400
C  -7.97900 36.06900 37.88000
C  -6.76200 35.23300 37.50000
H  -5.72800 35.94000 36.62200
N  -11.80200 39.59600 41.43100
C  -10.92500 40.32600 40.68900
C  -11.41700 41.69100 40.55300
C  -12.64400 41.71500 41.32100
C  -12.87700 40.32600 41.81500
C  -10.78600 42.80600 39.81600
C  -13.46600 43.00600 41.57900
O  -13.03300 44.05800 41.05800
C  -14.73900 43.03000 42.41200
N  -13.56700 37.40000 42.60600
C  -14.45600 38.40800 42.69100
C  -15.90300 37.94000 43.13600
C  -15.72500 36.47000 43.40400
C  -14.15900 36.29800 43.07300
C  -16.44900 38.75100 44.35000
C  -16.53100 35.56100 42.44100
C  -17.60000 34.54400 42.91000
N  -11.43500 35.48800 42.18200
C  -12.28200 34.63600 42.78500
C  -11.67400 33.30300 42.77500
C  -10.51400 33.45000 42.02800
C  -10.46500 34.75400 41.58000
C  -12.29800 32.10700 43.42800
C  -9.39800 32.74600 41.37400
O  -9.08000 31.56400 41.44300
C  -8.70100 33.79200 40.54600
C  -7.24700 33.82200 41.04900
O  -6.43600 32.95300 40.78100
O  -7.05400 34.95700 41.77400
C  -5.79900 35.10900 42.53400
H  -9.09400 40.55300 39.50400
H  -14.98400 40.51300 42.33800
H  -14.18600 34.30000 43.67400
H  -6.98900 36.40000 39.78200
H  -8.06900 38.66300 38.23700
H  -6.91800 39.52700 40.69000
H  -6.38800 39.92000 39.13700
H  -5.90900 38.33300 39.97500
H  -8.11100 36.86200 37.14400
H  -8.92600 35.57000 37.67900
H  -6.95600 34.22200 37.14200
H  -6.31300 35.02700 38.47200
H  -9.93300 42.59700 39.17000
H  -10.37200 43.49700 40.55100
H  -11.47000 43.37400 39.18600
H  -15.02500 44.00200 42.81300
H  -14.66100 42.37900 43.28300
H  -15.57000 42.64700 41.82000
H  -16.52600 38.17400 42.27200
H  -15.93100 36.21100 44.44300
H  -15.60600 38.88300 45.02800
H  -17.27300 38.16500 44.75600
H  -16.83500 39.74400 44.12100
H  -15.89400 34.82400 41.95100
H  -16.99100 36.18500 41.67600
H  -18.54500 35.01600 43.17700
H  -17.13600 34.22500 43.84300
H  -17.71600 33.72400 42.20100
H  -12.82100 31.50800 42.68300
H  -13.02400 32.46400 44.15900
H  -11.38500 31.71000 43.87200
H  -8.66200 33.44000 39.51500
H  -6.12400 35.66100 43.41600
H  -4.99400 35.70300 42.10100
H  -5.30400 34.24300 42.97500

