79

Mg 47.56600 15.42100 27.68500
C  45.35000 15.27100 30.52300
C  49.73200 17.07300 29.58500
C  49.46700 15.50500 24.99500
C  44.94200 13.79700 25.87900
N  47.47400 16.16100 29.79200
C  46.53900 15.96700 30.79700
C  47.10900 16.36600 32.17000
C  48.36800 17.18100 31.80700
C  48.54300 16.73600 30.30300
C  48.24600 18.74300 31.78500
C  47.35900 15.20300 33.11300
C  47.36700 15.49300 34.64800
H  47.11100 16.97800 35.04700
N  49.47600 16.07100 27.38500
C  50.15300 16.79300 28.29000
C  51.40700 17.12100 27.67300
C  51.38300 16.62700 26.32600
C  50.05800 16.04500 26.15300
C  52.57600 17.84200 28.35400
C  52.43700 16.70900 25.24900
O  52.34800 16.13600 24.13200
C  53.68500 17.43700 25.42600
N  47.11700 14.91300 25.67800
C  48.16300 14.94600 24.76200
C  47.65000 14.44300 23.36200
C  46.30000 13.63300 23.79700
C  46.10400 14.10900 25.22700
C  47.52000 15.55300 22.38800
C  46.35600 12.08900 23.51900
C  46.54200 11.16100 24.74100
N  45.48900 14.71300 28.02600
C  44.64500 14.01800 27.27600
C  43.50600 13.56700 28.02600
C  43.72300 14.07900 29.26300
C  44.94900 14.70900 29.24500
C  42.33900 12.87700 27.44300
C  43.20300 14.17100 30.67200
O  42.13400 13.84900 31.09400
C  44.21000 14.90900 31.53600
C  43.51900 16.09700 32.09000
O  42.98400 17.04900 31.45800
O  43.54000 15.95000 33.47600
C  42.58800 16.70800 34.19300
H  50.52000 17.62300 30.10400
H  50.03900 15.57600 24.06800
H  44.25900 13.09800 25.39100
H  46.34000 17.00400 32.60500
H  49.10000 16.83200 32.53600
H  48.01200 19.14700 30.80000
H  49.21800 19.11200 32.11100
H  47.36500 19.02400 32.36200
H  48.27800 14.70100 32.80900
H  46.59700 14.47600 32.83200
H  48.33100 15.20600 35.07000
H  46.56500 14.94000 35.13700
H  52.37300 17.82000 29.42500
H  52.68600 18.79100 27.83000
H  53.56600 17.40000 28.24000
H  53.38500 18.41500 25.80100
H  54.20600 17.63800 24.48900
H  54.35900 17.01800 26.17300
H  48.42100 13.83700 22.88600
H  45.45200 14.00000 23.21800
H  46.50300 15.93900 22.45000
H  47.80800 15.11900 21.43000
H  48.21400 16.31600 22.74200
H  47.14500 11.78700 22.83100
H  45.43500 11.81300 23.00700
H  46.64000 10.10700 24.47900
H  45.73000 11.35800 25.44000
H  47.55200 11.33700 25.11100
H  42.40400 11.80700 27.64100
H  42.29000 13.03600 26.36600
H  41.39600 13.29000 27.80100
H  44.53300 14.16300 32.26200
H  42.72100 16.44600 35.24200
H  41.59100 16.41600 33.86400
H  42.74100 17.78100 34.07800

