79

Mg 54.66500 24.66100 44.46500
C  51.89300 26.59600 44.00100
C  52.69500 21.73800 43.91800
C  57.42100 22.67600 44.21100
C  56.64500 27.44000 44.38900
N  52.47800 24.21600 43.92800
C  51.58500 25.18500 43.89300
C  50.21300 24.47100 43.79600
C  50.43600 22.96800 44.28900
C  51.93400 22.92700 43.99100
C  50.09400 22.71900 45.76100
C  49.32300 24.57400 42.58200
C  49.94000 24.01000 41.33300
H  49.45800 24.59500 39.98800
N  55.00100 22.59900 44.05100
C  54.03600 21.55700 43.85700
C  54.70000 20.30900 43.84600
C  56.04700 20.45700 44.05600
C  56.22200 21.94500 44.15000
C  53.78700 19.02900 43.65100
C  57.11300 19.42200 44.01000
O  56.76900 18.29500 43.59600
C  58.60700 19.60900 44.37000
N  56.77200 25.00000 44.39500
C  57.72600 24.04300 44.33100
C  59.11800 24.62100 44.21000
C  58.80300 26.17200 44.18800
C  57.30900 26.27400 44.42300
C  60.10700 24.19100 45.38200
C  59.34600 26.92700 42.93500
C  58.45500 26.75400 41.64800
N  54.40800 26.67600 44.29700
C  55.29500 27.75700 44.29000
C  54.53500 28.98500 44.32700
C  53.18300 28.58600 44.12200
C  53.21800 27.15800 44.11900
C  55.05600 30.33600 44.61400
C  51.88000 29.10900 44.02300
O  51.54300 30.24000 43.99900
C  50.99800 27.84600 43.86200
C  50.42300 28.02400 42.53500
O  51.02400 27.87600 41.48100
O  49.04100 28.16400 42.55600
C  48.27600 28.15500 41.28000
H  52.03700 20.86600 43.92300
H  58.28700 22.01600 44.12900
H  57.27800 28.31500 44.22600
H  49.67000 24.99600 44.58300
H  49.95500 22.25400 43.62000
H  50.96600 22.25600 46.22300
H  49.24300 22.03800 45.75800
H  49.78600 23.61000 46.30700
H  48.94700 25.57600 42.37400
H  48.42500 23.99000 42.77800
H  49.84400 22.92800 41.24400
H  51.00600 24.23900 41.34400
H  54.23700 18.06300 43.42200
H  52.97900 19.28600 42.96700
H  53.36700 18.99000 44.65600
H  59.19000 20.21100 43.67400
H  59.02200 18.60200 44.41200
H  58.70600 20.03600 45.36800
H  59.48100 24.41500 43.20300
H  59.22200 26.73300 45.02300
H  60.89300 23.54800 44.98500
H  59.57500 23.44200 45.96800
H  60.55100 25.06600 45.85700
H  60.37000 26.59700 42.76000
H  59.40300 28.00500 43.08200
H  57.98200 27.71000 41.42200
H  57.67800 25.99000 41.67000
H  59.14900 26.46400 40.85900
H  54.85100 30.94500 43.73300
H  56.13500 30.26900 44.75800
H  54.53900 30.74800 45.48000
H  50.20500 27.84900 44.61000
H  48.10300 29.15700 40.88800
H  47.34600 27.65200 41.54600
H  48.78100 27.57100 40.51000

