79

Mg 46.91800 35.46300 29.05800
C  45.44300 33.08200 31.13400
C  46.75000 37.79200 31.51200
C  47.78400 37.88200 26.82800
C  46.32800 33.26500 26.26300
N  46.33400 35.37800 31.13600
C  45.77800 34.28300 31.75900
C  45.78600 34.53200 33.26800
C  45.56200 36.13000 33.23600
C  46.33800 36.51000 31.91700
C  44.06200 36.57600 33.09900
C  47.19600 34.02800 33.68800
C  47.24800 33.75500 35.19400
H  46.21500 34.36700 36.18800
N  47.42500 37.44000 29.24400
C  47.35100 38.24500 30.27900
C  47.98400 39.49200 30.06900
C  48.42300 39.50900 28.71100
C  47.88100 38.25500 28.17800
C  48.07100 40.58200 31.14300
C  49.28900 40.48800 27.96200
O  49.52000 40.32400 26.75600
C  50.03100 41.65800 28.70700
N  46.97700 35.57500 26.85900
C  47.34600 36.69700 26.24100
C  47.20500 36.50900 24.68100
C  46.70600 35.01700 24.52300
C  46.68800 34.58400 25.94200
C  46.09300 37.37900 24.02400
C  47.59300 34.15300 23.64100
C  46.91000 33.32800 22.56000
N  46.21900 33.49300 28.69100
C  46.05200 32.73300 27.51100
C  45.46100 31.37800 27.88000
C  45.16100 31.55300 29.25600
C  45.62700 32.81000 29.69000
C  45.26700 30.17400 27.03000
C  44.52500 30.90500 30.42300
O  44.12400 29.76800 30.60200
C  44.41600 31.96000 31.52100
C  44.60500 31.51400 32.90900
O  45.63400 31.01700 33.36400
O  43.46800 31.70600 33.65400
C  43.28600 31.13900 34.92400
H  46.44700 38.59400 32.18700
H  48.05200 38.69200 26.14700
H  46.02600 32.70200 25.37700
H  44.91200 34.16400 33.80500
H  46.07100 36.59700 34.07900
H  43.84900 37.20200 32.23300
H  43.72800 37.10500 33.99100
H  43.47200 35.66900 32.96500
H  47.87600 34.86500 33.53400
H  47.50400 33.17800 33.08000
H  48.21300 34.05400 35.60300
H  47.12300 32.67500 35.11500
H  47.10900 40.61400 31.65300
H  48.11100 41.52900 30.60400
H  48.97900 40.45600 31.73300
H  50.71500 41.97100 27.91900
H  50.52500 41.33400 29.62300
H  49.33400 42.45500 28.96700
H  48.16900 36.83600 24.29300
H  45.70000 35.01600 24.10300
H  45.64800 38.11000 24.69900
H  45.30600 36.91000 23.43200
H  46.66900 37.91500 23.27000
H  48.03500 33.41100 24.30600
H  48.35000 34.79700 23.19200
H  47.16000 33.66400 21.55300
H  45.82800 33.45900 22.55200
H  47.08100 32.25700 22.66700
H  45.53500 30.46400 26.01400
H  44.22400 29.93300 27.23600
H  45.82700 29.29700 27.35300
H  43.41400 32.37700 31.41700
H  42.24500 31.33400 35.18200
H  43.96800 31.66400 35.59300
H  43.58500 30.09100 34.90300

