79

Mg 47.45300 24.84600 28.19100
C  48.10500 27.25000 30.78700
C  46.53300 22.60500 30.54800
C  46.84400 22.76000 25.66400
C  48.66100 27.29300 25.85700
N  47.30100 25.01700 30.37000
C  47.67700 26.02100 31.24500
C  47.38300 25.54400 32.67700
C  46.95600 24.08100 32.54000
C  46.98000 23.83700 31.03700
C  47.81000 23.07600 33.35000
C  46.47200 26.51000 33.40700
C  45.89300 25.87700 34.76400
H  46.35400 26.49700 36.12300
N  46.72800 23.00400 28.14900
C  46.35900 22.21200 29.17900
C  45.75600 21.03200 28.67400
C  45.88600 20.99500 27.28100
C  46.52100 22.29300 26.95400
C  45.28400 19.85300 29.60300
C  45.38800 19.98900 26.21700
O  45.68200 20.15000 25.04500
C  44.68200 18.77400 26.73700
N  47.96200 24.88700 26.00400
C  47.47200 23.93300 25.22000
C  47.59700 24.34500 23.78300
C  48.02000 25.82200 23.86300
C  48.24600 26.03500 25.33800
C  48.43100 23.32100 22.94900
C  46.93700 26.71800 23.22200
C  47.40900 28.07900 22.67300
N  48.21700 26.77500 28.24600
C  48.66000 27.66700 27.20600
C  48.88900 28.95200 27.69400
C  48.73600 28.87100 29.10500
C  48.36600 27.51200 29.37500
C  49.37700 30.11300 26.88200
C  48.82400 29.55800 30.33500
O  49.17600 30.69100 30.54400
C  48.30600 28.51900 31.49600
C  49.35500 28.47800 32.59700
O  50.49900 28.05200 32.53800
O  48.88300 29.04400 33.69600
C  49.85900 29.45400 34.72600
H  46.20400 21.91200 31.32500
H  46.55900 22.17800 24.78500
H  48.84200 28.16900 25.23100
H  48.28900 25.56100 33.28300
H  45.96400 23.82200 32.91100
H  48.45900 23.58300 34.06400
H  48.42100 22.47900 32.67200
H  47.12800 22.42800 33.90000
H  45.80000 26.94000 32.66400
H  47.19100 27.26200 33.73100
H  45.94400 24.79400 34.87500
H  44.83100 26.11700 34.70200
H  45.39300 20.10900 30.65700
H  45.67400 18.90200 29.24000
H  44.19700 19.86200 29.51800
H  43.91100 19.00600 27.47100
H  45.48400 18.10300 27.04600
H  44.14400 18.33900 25.89500
H  46.58000 24.42300 23.39800
H  49.02400 25.87800 23.44300
H  48.73300 22.55000 23.65700
H  49.21600 23.80300 22.36700
H  47.68100 22.92500 22.26400
H  46.07800 26.79700 23.88800
H  46.54700 26.28400 22.30200
H  47.08200 28.71400 23.49600
H  46.93500 28.18100 21.69600
H  48.47300 28.18800 22.46100
H  50.25700 29.83200 26.30300
H  49.56600 30.96100 27.54000
H  48.61400 30.41200 26.16300
H  47.39000 28.89800 31.94900
H  50.91300 29.28000 34.51300
H  49.60700 28.89300 35.62700
H  49.73400 30.51400 34.94500

