79

Mg 23.90000 -6.34600 46.54100
C  26.02300 -3.99300 45.13700
C  21.41900 -5.37000 44.42500
C  21.87400 -9.21400 47.18500
C  26.58200 -7.76600 48.12700
N  23.76700 -4.88600 44.94200
C  24.75600 -4.00800 44.56100
C  24.22500 -3.07400 43.55700
C  22.68000 -3.22700 43.67400
C  22.61700 -4.59000 44.36200
C  21.87400 -2.09400 44.40600
C  24.87900 -3.33400 42.17100
C  25.48400 -2.16000 41.42400
H  24.51000 -1.64200 40.34300
N  21.88800 -7.15500 45.98500
C  21.08200 -6.53600 45.07100
C  19.89700 -7.27600 44.77400
C  19.94300 -8.41100 45.66500
C  21.24500 -8.30300 46.31100
C  18.81900 -7.02000 43.64200
C  18.84600 -9.41200 45.77200
O  17.88400 -9.50600 45.01100
C  18.86500 -10.38500 46.95700
N  24.12800 -8.13800 47.63000
C  23.20400 -9.20100 47.79000
C  23.80100 -10.39100 48.57200
C  25.33800 -9.98200 48.72000
C  25.35700 -8.54500 48.13700
C  23.02400 -10.70500 49.89600
C  26.33800 -10.88500 48.10200
C  26.17600 -12.42700 48.38800
N  25.97900 -6.01500 46.67400
C  26.88400 -6.64600 47.43300
C  28.12000 -5.85100 47.33500
C  27.82600 -4.80300 46.51000
C  26.49500 -4.95300 46.07500
C  29.44100 -6.28300 48.05300
C  28.33200 -3.56900 45.98600
O  29.38300 -2.94300 46.28900
C  27.14400 -2.96600 45.00700
C  26.76500 -1.62100 45.43900
O  25.90600 -1.26500 46.23000
O  27.46100 -0.68800 44.71600
C  27.25800 0.72600 45.11000
H  20.55800 -4.88700 43.95800
H  21.40200 -10.19400 47.27400
H  27.42000 -8.22000 48.66100
H  24.50900 -2.08000 43.90300
H  22.24200 -3.17000 42.67700
H  22.49400 -1.67100 45.19600
H  20.92100 -2.43700 44.81000
H  21.68500 -1.29400 43.69100
H  24.27900 -3.86600 41.43300
H  25.62400 -4.11100 42.34200
H  26.43100 -2.35100 40.92000
H  25.62600 -1.32900 42.11500
H  19.27200 -6.42400 42.85100
H  18.02700 -6.39500 44.05500
H  18.35800 -7.89800 43.18900
H  17.82700 -10.59100 47.22100
H  19.30800 -9.87800 47.81400
H  19.40500 -11.26500 46.60700
H  23.73900 -11.30100 47.97500
H  25.53000 -9.89300 49.78900
H  21.98900 -10.78800 49.56400
H  23.30600 -9.97500 50.65400
H  23.22200 -11.66300 50.37600
H  27.33400 -10.60900 48.44700
H  26.36800 -10.66600 47.03400
H  26.17700 -13.02200 47.47500
H  25.23900 -12.66400 48.89200
H  26.97800 -12.82500 49.01100
H  29.25400 -6.03100 49.09700
H  30.34900 -5.78100 47.72000
H  29.55800 -7.36500 48.10600
H  27.63600 -2.90800 44.03600
H  27.52600 0.91900 46.14800
H  26.21800 1.04300 45.03300
H  27.78900 1.37500 44.41300

