79

Mg 0.05400 43.58100 26.20500
C  2.68200 43.30400 28.64700
C  -2.19900 43.26000 28.88600
C  -2.32600 43.32800 23.96600
C  2.52600 43.88500 23.77400
N  0.26800 43.37700 28.49600
C  1.42300 43.32500 29.23100
C  1.07900 43.19400 30.67700
C  -0.44900 42.90800 30.72100
C  -0.86300 43.28600 29.32600
C  -0.77900 41.50600 31.06600
C  1.55700 44.59000 31.34800
C  1.82800 44.59200 32.80100
H  1.24400 43.52000 33.66200
N  -1.93100 43.30600 26.40300
C  -2.67800 43.34300 27.54300
C  -4.10600 43.35300 27.20600
C  -4.11800 43.27200 25.76500
C  -2.73500 43.27800 25.32300
C  -5.18300 43.26300 28.25200
C  -5.29700 43.17500 24.79800
O  -5.26600 43.08000 23.55100
C  -6.69400 43.20000 25.37000
N  0.17300 43.13100 24.15000
C  -1.01900 43.36900 23.48800
C  -0.66600 43.56200 21.98500
C  0.78100 44.10000 21.99500
C  1.24700 43.61700 23.37400
C  -0.87900 42.18300 21.27500
C  0.92600 45.63800 21.84000
C  1.88200 46.10600 20.71000
N  2.15900 43.50000 26.13500
C  3.03400 43.70900 25.08800
C  4.38900 43.66800 25.61300
C  4.30900 43.49800 26.99300
C  2.92900 43.37200 27.24400
C  5.58200 43.97400 24.69100
C  5.13100 43.42900 28.16200
O  6.32100 43.41000 28.36600
C  4.04300 43.25800 29.31100
C  4.23100 42.02900 30.16300
O  4.03300 40.85200 29.87800
O  4.61800 42.50900 31.38700
C  4.89000 41.50900 32.39300
H  -2.97600 43.17600 29.64800
H  -3.04600 43.49200 23.16200
H  3.26500 44.17000 23.02200
H  1.64100 42.43700 31.22400
H  -0.87600 43.54400 31.49600
H  0.06700 41.01900 31.55200
H  -1.01300 40.89800 30.19200
H  -1.62400 41.37700 31.74200
H  0.76600 45.30400 31.11800
H  2.40000 45.09900 30.88000
H  1.52900 45.55300 33.21900
H  2.91100 44.62800 32.92300
H  -4.72400 42.67900 29.05000
H  -6.06800 42.83300 27.78300
H  -5.50000 44.23500 28.62800
H  -6.76300 44.14500 25.91100
H  -6.76900 42.27800 25.94700
H  -7.41400 43.06200 24.56300
H  -1.24500 44.31700 21.45200
H  1.21900 43.65700 21.10100
H  -0.02000 41.62300 20.90400
H  -1.48900 42.22500 20.37200
H  -1.38400 41.52700 21.98300
H  1.32400 46.03300 22.77500
H  -0.05900 46.06700 21.65400
H  1.50500 46.97300 20.16600
H  2.07400 45.39800 19.90300
H  2.75400 46.63500 21.09400
H  5.29400 43.62600 23.69900
H  6.49000 43.51900 25.08800
H  5.83400 45.03400 24.67200
H  4.17300 44.11800 29.96800
H  4.87700 42.03000 33.35000
H  5.78200 40.88800 32.30900
H  4.04900 40.82200 32.49100

