79

Mg 25.73600 1.89900 29.29100
C  27.50700 1.59000 32.13000
C  22.78700 2.00300 31.04500
C  24.03700 1.76000 26.25900
C  28.62200 1.09900 27.46500
N  25.28100 1.93200 31.41500
C  26.16500 1.81300 32.40800
C  25.47900 2.04200 33.76800
C  23.86800 2.11200 33.39900
C  23.92200 2.09400 31.86900
C  22.97300 1.10500 34.04900
C  26.10200 3.17600 34.63100
C  26.55800 2.91600 36.16000
H  25.96700 3.81100 37.25600
N  23.68200 1.93300 28.75700
C  22.67700 2.07400 29.59200
C  21.46300 2.23100 28.82600
C  21.80400 1.98900 27.46800
C  23.22500 1.91400 27.44000
C  20.09000 2.41600 29.45100
C  20.91400 1.80700 26.27200
O  21.30200 1.50400 25.14400
C  19.38400 1.90000 26.29900
N  26.36200 1.79400 27.17900
C  25.45300 1.69600 26.14700
C  26.10300 1.59500 24.77100
C  27.63100 1.40100 25.17100
C  27.55900 1.49800 26.65800
C  25.51300 0.51600 23.85900
C  28.57600 2.46500 24.49900
C  29.64300 1.87000 23.55500
N  27.76400 1.43200 29.62600
C  28.81400 1.00100 28.82900
C  29.96900 0.75700 29.61200
C  29.50400 0.90700 30.92600
C  28.20500 1.32800 30.85700
C  31.36200 0.51500 29.09700
C  29.88000 1.02900 32.34600
O  30.98400 0.89100 32.90100
C  28.66500 1.49700 33.18900
C  28.38700 0.56800 34.31100
O  27.78400 -0.45800 34.21100
O  29.02800 0.83500 35.47600
C  28.89300 -0.13000 36.57600
H  21.91200 2.06500 31.69500
H  23.49300 1.74000 25.31300
H  29.53700 1.02400 26.87300
H  25.62900 1.11100 34.31400
H  23.51700 3.10800 33.66800
H  22.57700 0.30000 33.42900
H  22.13100 1.63300 34.49600
H  23.47500 0.54300 34.83600
H  25.43900 4.03800 34.69800
H  26.96100 3.47100 34.02800
H  27.62900 3.02200 36.33300
H  26.24200 1.91200 36.44300
H  19.47400 3.02000 28.78500
H  20.10100 2.82800 30.46000
H  19.77900 1.37100 29.47500
H  19.11300 1.56700 25.29700
H  19.04300 2.93500 26.31400
H  18.87400 1.33400 27.07800
H  25.99300 2.56400 24.28400
H  28.06000 0.41500 24.99300
H  24.87100 -0.13700 24.45000
H  26.29000 -0.13700 23.46100
H  24.90800 1.05100 23.12700
H  29.13100 2.99300 25.27500
H  28.04800 3.24500 23.95100
H  30.45600 1.26300 23.95300
H  30.21300 2.67700 23.09400
H  29.15000 1.23600 22.81800
H  31.43800 0.74400 28.03400
H  31.59300 -0.53200 29.28900
H  32.00200 1.16800 29.69000
H  28.89000 2.48000 33.60200
H  28.90800 -1.18400 36.29500
H  28.10800 0.07700 37.30300
H  29.85600 0.07800 37.04200

