79

Mg 41.14800 7.93200 29.81100
C  42.87900 9.39600 32.56400
C  38.82800 6.78200 32.03600
C  39.47500 6.75500 27.23600
C  43.90400 8.74700 27.77900
N  40.77200 8.29300 32.04800
C  41.60000 8.89400 32.91700
C  41.07100 8.68700 34.36700
C  39.66900 7.94400 34.13300
C  39.71500 7.62800 32.63000
C  39.35600 6.71700 35.02100
C  40.89000 10.10000 35.00000
C  39.85600 10.16700 36.16100
H  40.10200 11.00300 37.39800
N  39.36000 6.97200 29.59200
C  38.62400 6.52700 30.66100
C  37.44900 5.77400 30.18900
C  37.54700 5.76100 28.72300
C  38.85200 6.52800 28.46100
C  36.43700 5.22400 31.14600
C  36.66400 5.12100 27.67300
O  36.92200 5.16700 26.47500
C  35.33700 4.35800 28.14700
N  41.69600 7.57800 27.75700
C  40.73200 7.30800 26.92300
C  41.36300 7.16200 25.47500
C  42.67000 8.03400 25.58600
C  42.81700 8.06400 27.10800
C  41.63400 5.71300 25.22100
C  42.64100 9.43400 24.91100
C  41.36000 10.25200 25.20300
N  42.93800 8.81000 30.06100
C  43.94200 9.07000 29.15500
C  44.99800 9.86300 29.82100
C  44.68800 9.97700 31.13600
C  43.43700 9.32300 31.23400
C  46.22800 10.33500 29.09800
C  45.03300 10.42400 32.50100
O  45.99800 11.10500 32.88500
C  43.83400 10.07900 33.47500
C  44.41600 9.30700 34.62800
O  44.80500 8.14600 34.59400
O  44.32900 9.97900 35.79500
C  44.55400 9.34700 37.05400
H  38.13500 6.37900 32.77700
H  38.85700 6.45000 26.38900
H  44.74100 9.07600 27.16000
H  41.72200 8.06000 34.97700
H  38.81600 8.59300 34.33000
H  39.46200 5.72400 34.58500
H  38.30100 6.90000 35.22800
H  39.83500 6.68400 35.99900
H  40.76100 10.86800 34.23700
H  41.87800 10.21300 35.44600
H  39.80700 9.13800 36.51600
H  38.86800 10.51700 35.86200
H  35.63200 4.60600 30.74900
H  35.87000 6.07700 31.51800
H  36.88900 4.63800 31.94500
H  34.82400 3.98800 27.26000
H  34.68600 5.10600 28.60000
H  35.47700 3.49000 28.79100
H  40.70400 7.55500 24.70100
H  43.35400 7.41500 25.00500
H  41.14300 5.02800 25.91300
H  42.65900 5.37200 25.37100
H  41.47700 5.45400 24.17400
H  42.57400 9.23400 23.84200
H  43.57700 9.96200 25.09200
H  40.84700 9.72800 26.00800
H  40.69700 10.37200 24.34600
H  41.75700 11.21300 25.53100
H  45.84000 10.75100 28.16800
H  46.90600 9.50100 28.91700
H  46.70900 11.16500 29.61700
H  43.46100 11.04000 33.83000
H  43.97300 9.97800 37.72700
H  45.59300 9.52500 37.33300
H  44.37800 8.27200 37.10900

