79

Mg -10.89900 15.13900 42.52100
C  -7.67500 13.65500 41.94200
C  -10.12800 17.65300 40.46800
C  -14.15800 15.99600 42.71300
C  -11.80500 12.01400 44.15200
N  -9.06300 15.48900 41.31900
C  -7.82100 14.88700 41.28900
C  -6.89200 15.61000 40.25800
C  -7.68900 16.91600 40.00800
C  -9.08200 16.66400 40.58300
C  -6.95000 18.14000 40.64300
C  -6.40500 14.78500 39.01700
C  -4.95200 14.81500 38.81300
H  -4.38600 15.72400 37.67200
N  -11.99400 16.66500 41.74900
C  -11.49800 17.60800 40.90000
C  -12.44400 18.62600 40.75400
C  -13.60500 18.23900 41.47800
C  -13.35900 16.87100 41.99400
C  -12.22100 19.94600 40.02000
C  -14.93900 19.00800 41.50500
O  -15.00000 20.14600 41.04100
C  -16.18300 18.46700 42.17500
N  -12.73300 14.02000 43.28300
C  -13.89800 14.74600 43.30200
C  -14.94700 14.02600 44.20800
C  -14.28500 12.62600 44.55900
C  -12.85400 12.90300 44.00400
C  -15.26100 14.83800 45.48600
C  -14.95700 11.47400 43.81100
C  -15.08900 10.16900 44.76000
N  -9.87400 13.31100 43.20400
C  -10.46000 12.13600 43.73600
C  -9.36200 11.18500 43.95700
C  -8.27900 11.73100 43.18700
C  -8.66200 13.03000 42.76600
C  -9.44800 9.89700 44.75800
C  -6.92700 11.50600 42.62800
O  -6.20000 10.50000 42.72500
C  -6.42600 12.82300 41.94000
C  -5.39300 13.48600 42.78400
O  -5.35200 13.37700 44.04700
O  -4.44000 14.10100 41.98200
C  -3.56600 14.97600 42.67100
H  -9.67800 18.53500 40.00700
H  -15.17600 16.32800 42.92800
H  -12.00100 11.13900 44.77500
H  -6.04700 15.82800 40.91200
H  -7.70700 17.19700 38.95500
H  -7.44300 18.48200 41.55300
H  -6.90300 18.98100 39.95200
H  -5.88700 18.03800 40.86100
H  -6.78500 15.33900 38.15900
H  -6.81100 13.77400 39.01900
H  -4.57400 13.82200 38.57200
H  -4.36900 15.17900 39.65900
H  -11.16400 20.14600 39.84400
H  -12.63900 20.67300 40.71600
H  -12.80300 19.91500 39.09800
H  -16.91300 19.26800 42.29400
H  -15.84200 18.23300 43.18300
H  -16.67700 17.67000 41.62000
H  -15.87900 13.86300 43.66600
H  -14.16900 12.48900 45.63400
H  -14.76500 15.79500 45.64700
H  -15.12100 14.29900 46.42300
H  -16.30300 15.15400 45.53300
H  -14.37300 11.13600 42.95500
H  -15.96000 11.73300 43.47300
H  -15.98200 9.57700 44.55900
H  -14.97100 10.41200 45.81600
H  -14.28000 9.46000 44.58300
H  -9.37100 9.89400 45.84500
H  -8.65300 9.29900 44.31400
H  -10.40800 9.51300 44.41200
H  -5.99200 12.52500 40.98600
H  -2.96500 14.52200 43.45800
H  -4.14200 15.70100 43.24600
H  -2.82500 15.41800 42.00400

