79

Mg 8.07400 2.51200 28.01500
C  9.87700 1.04100 30.63900
C  6.49900 4.57000 30.02500
C  6.38500 3.64600 25.28200
C  9.44600 -0.07800 25.90700
N  8.17200 2.66600 30.07500
C  8.99900 2.10500 30.98600
C  8.84000 2.74500 32.39300
C  7.67700 3.81300 32.11600
C  7.44600 3.64000 30.59300
C  6.41400 3.70300 32.99000
C  10.13100 3.23200 33.06600
C  10.24400 2.82700 34.54600
H  11.09800 3.66400 35.48400
N  6.82300 4.10100 27.65800
C  6.26900 4.81900 28.68400
C  5.29800 5.72300 28.07000
C  5.36600 5.56500 26.62600
C  6.22500 4.38500 26.43700
C  4.23000 6.51000 28.87100
C  4.58400 6.26200 25.50200
O  4.70100 5.91700 24.32800
C  3.89300 7.53600 25.85000
N  7.87600 1.77500 25.94300
C  7.14200 2.49900 25.02300
C  7.36900 2.03900 23.55200
C  8.20500 0.76500 23.84200
C  8.52700 0.79700 25.30800
C  6.12000 1.72600 22.64500
C  9.38500 0.50200 22.87000
C  9.36700 -0.84100 22.11900
N  9.51700 0.87400 28.21400
C  9.93600 -0.01900 27.24000
C  10.87500 -1.01300 27.92100
C  10.90600 -0.54900 29.27800
C  10.05300 0.51500 29.38200
C  11.53700 -2.23400 27.29500
C  11.40600 -0.80800 30.54600
O  12.01000 -1.81900 31.01600
C  10.82000 0.27000 31.55500
C  10.05700 -0.39600 32.66600
O  8.84300 -0.63300 32.67700
O  10.84100 -0.61000 33.78700
C  10.22000 -0.82700 35.07000
H  5.93900 5.23600 30.68500
H  5.88200 4.04300 24.39700
H  9.63100 -0.91100 25.22600
H  8.26900 1.97500 32.91100
H  8.09900 4.80700 32.26700
H  6.44000 4.69100 33.44800
H  6.39800 2.92300 33.75100
H  5.59700 3.57100 32.28000
H  10.15800 4.31800 32.97100
H  10.98400 2.84500 32.50900
H  10.51600 1.77200 34.58200
H  9.21000 2.84300 34.89200
H  4.01700 6.00700 29.81400
H  3.28000 6.61000 28.34600
H  4.69500 7.48900 28.98600
H  4.49600 7.98300 26.64000
H  2.96200 7.40700 26.40300
H  3.87100 8.15600 24.95400
H  7.98700 2.79500 23.06800
H  7.56600 -0.08300 23.59200
H  5.21700 1.89700 23.23200
H  6.14500 0.74700 22.16700
H  6.11900 2.53200 21.91100
H  10.27100 0.70100 23.47400
H  9.32200 1.33600 22.17000
H  8.69600 -0.63100 21.28500
H  9.02400 -1.58500 22.83800
H  10.34000 -1.10200 21.70300
H  12.32500 -1.83400 26.65600
H  10.72800 -2.77200 26.80200
H  12.00600 -2.85700 28.05700
H  11.63300 0.84200 32.00000
H  10.92500 -0.68300 35.88800
H  9.88800 -1.85500 35.21600
H  9.35800 -0.17500 35.20900

