79

Mg 49.25400 34.74000 26.54000
C  46.91000 33.84700 29.15800
C  50.10200 37.57900 28.50100
C  50.63500 36.02400 23.90100
C  47.68700 32.19000 24.65600
N  48.61900 35.60000 28.55600
C  47.80000 34.92700 29.43700
C  47.74300 35.67800 30.76700
C  48.39400 37.07700 30.40600
C  49.13400 36.71300 29.10600
C  47.43100 38.24100 30.22800
C  48.34600 35.07600 32.03900
C  47.59000 35.16900 33.37400
H  47.95300 36.24800 34.37400
N  50.35900 36.52200 26.29700
C  50.69300 37.51000 27.17400
C  51.49900 38.54000 26.53400
C  51.57800 38.16900 25.13800
C  50.83300 36.86100 25.06800
C  52.01800 39.73100 27.23000
C  52.33700 38.92500 23.96400
O  52.37300 38.43400 22.83500
C  52.87700 40.29100 24.04900
N  49.11300 34.21800 24.55200
C  49.93100 34.84600 23.72700
C  50.06900 33.99500 22.43400
C  49.22200 32.73900 22.73600
C  48.53900 33.09100 24.01800
C  49.61500 34.76200 21.10500
C  49.98600 31.38600 22.85300
C  50.03400 30.59800 21.51000
N  47.80900 33.09300 26.93400
C  47.24900 32.22200 25.95800
C  46.27100 31.34800 26.57200
C  46.10700 31.97900 27.85700
C  47.06500 33.03300 28.01200
C  45.60000 30.12100 25.96300
C  45.33900 31.94200 29.10600
O  44.47700 31.18000 29.48200
C  45.77800 33.17200 30.02400
C  46.11800 32.62100 31.32400
O  46.91300 31.70800 31.54300
O  45.32300 33.11500 32.24800
C  45.09800 32.40400 33.51800
H  50.38000 38.48500 29.04200
H  51.33200 36.29800 23.10500
H  47.39500 31.32300 24.05900
H  46.70900 35.91000 31.02000
H  49.10900 37.39100 31.16700
H  47.30400 38.48400 29.17300
H  47.84900 39.12600 30.70700
H  46.52300 37.98800 30.77500
H  49.33900 35.50100 32.18800
H  48.49600 33.99800 31.97300
H  47.70400 34.22400 33.90600
H  46.51800 35.31400 33.24800
H  51.95800 40.64900 26.64500
H  53.00400 39.57700 27.66900
H  51.42700 39.95000 28.11900
H  53.68600 40.39800 24.77200
H  52.06600 40.99700 24.22900
H  53.22400 40.58800 23.06000
H  51.12300 33.73000 22.34600
H  48.45000 32.55000 21.98900
H  49.07100 34.08200 20.45000
H  50.55200 35.07900 20.64600
H  49.12500 35.71800 21.29100
H  49.48300 30.73400 23.56700
H  51.01500 31.63400 23.11300
H  49.46300 29.68200 21.65900
H  51.06400 30.40700 21.21200
H  49.46600 31.14700 20.75900
H  46.21300 29.22100 26.00200
H  45.35300 30.07500 24.90200
H  44.72800 29.79400 26.53100
H  44.96100 33.88100 30.15900
H  44.10300 31.97800 33.64900
H  45.18900 33.19900 34.25900
H  45.84300 31.68100 33.85400

