79

Mg 47.22100 15.10300 27.54300
C  45.60000 15.07400 30.66700
C  49.57100 17.13500 28.76100
C  48.63400 15.12500 24.42900
C  44.56600 13.22900 26.30200
N  47.46900 16.03500 29.49000
C  46.75200 15.84600 30.63600
C  47.45400 16.43100 31.80000
C  48.57600 17.33000 31.13900
C  48.60500 16.76800 29.70600
C  48.25600 18.76500 31.16900
C  48.02700 15.42600 32.78500
C  47.63700 15.61500 34.28400
H  48.71500 15.53800 35.26600
N  48.94200 15.97800 26.71000
C  49.74800 16.80200 27.36500
C  50.90400 17.01800 26.55300
C  50.70600 16.30500 25.33800
C  49.30000 15.82100 25.39900
C  52.12500 17.82600 27.18800
C  51.63600 16.27000 24.15000
O  51.27200 16.01700 23.01900
C  53.03700 16.47200 24.39900
N  46.71900 14.31700 25.69000
C  47.45000 14.44800 24.50600
C  46.84700 13.70200 23.29100
C  45.49500 13.10300 23.91900
C  45.64100 13.52000 25.41300
C  46.57600 14.53800 22.03200
C  45.37100 11.61100 23.68600
C  46.51600 10.81500 24.35900
N  45.40100 14.38400 28.27100
C  44.43500 13.67100 27.65200
C  43.38100 13.38700 28.55300
C  43.80000 13.87200 29.84300
C  45.01200 14.46100 29.55200
C  42.05000 12.62500 28.20100
C  43.41000 13.98400 31.22500
O  42.52800 13.50700 31.89900
C  44.59900 14.84600 31.82500
C  44.00100 16.04800 32.47900
O  43.43300 16.94300 31.93100
O  44.14700 15.88700 33.87000
C  43.21200 16.70000 34.62100
H  50.25900 17.90300 29.12200
H  49.09500 15.19200 23.44100
H  43.83100 12.50200 25.95000
H  46.71400 17.03100 32.32900
H  49.51900 17.16500 31.66000
H  47.84200 19.04600 32.13800
H  47.46200 19.02800 30.47000
H  49.16500 19.36000 31.08800
H  49.11000 15.37100 32.67100
H  47.71800 14.44700 32.41800
H  46.93900 14.80600 34.50000
H  46.97000 16.46600 34.42200
H  53.03800 17.23300 27.13600
H  52.19600 17.98900 28.26300
H  52.34500 18.67200 26.53600
H  53.24400 15.79100 25.22500
H  53.13500 17.51200 24.70900
H  53.71700 16.18400 23.59700
H  47.36900 12.78900 23.00600
H  44.65500 13.66400 23.51200
H  47.35200 14.14300 21.37700
H  46.74600 15.59900 22.21200
H  45.58500 14.28600 21.65300
H  45.32000 11.44200 22.61000
H  44.47700 11.14200 24.09700
H  46.17400 10.16700 25.16600
H  47.32200 11.43000 24.76100
H  46.87500 10.22600 23.51500
H  42.25600 11.64700 27.76400
H  41.43700 13.07700 27.42100
H  41.45400 12.39500 29.08400
H  45.08100 14.34000 32.66200
H  42.88000 15.99200 35.38000
H  42.32800 17.00300 34.06100
H  43.70000 17.54100 35.11400

