79

Mg 8.57200 3.23400 27.98100
C  10.00400 1.63600 30.86100
C  6.40000 4.89300 30.27300
C  7.37600 4.77900 25.41700
C  10.48200 1.16400 25.87100
N  8.34300 3.26600 30.28900
C  9.02500 2.55300 31.20600
C  8.64700 3.00700 32.68700
C  7.23900 3.69300 32.38000
C  7.33700 3.95800 30.90200
C  6.03700 2.85100 32.75900
C  9.72200 3.86200 33.39400
C  9.30500 4.75500 34.57300
H  10.15300 4.52500 35.84900
N  7.21600 4.60000 27.83700
C  6.36600 5.15800 28.83800
C  5.54600 6.20900 28.22100
C  5.72500 6.11700 26.80600
C  6.78000 5.10200 26.63500
C  4.54100 7.07400 29.03300
C  5.07500 6.97200 25.71900
O  5.35500 6.80200 24.56100
C  3.95100 7.88000 26.06600
N  8.77300 2.99400 25.87400
C  8.28000 3.86800 25.01900
C  8.76200 3.62800 23.58700
C  9.72800 2.42400 23.81900
C  9.63100 2.13600 25.27800
C  7.73900 3.52800 22.46000
C  11.25900 2.65900 23.32700
C  12.36900 3.16200 24.30000
N  9.87700 1.62800 28.22000
C  10.63400 0.89400 27.28700
C  11.52000 0.00700 27.92800
C  11.35300 0.31200 29.28600
C  10.33100 1.21900 29.44700
C  12.42100 -0.97500 27.20500
C  11.89100 0.02100 30.61100
O  12.81600 -0.77000 30.85300
C  11.15700 0.90700 31.59700
C  10.78000 0.08400 32.73600
O  9.91600 -0.76100 32.73500
O  11.35900 0.56000 33.87600
C  10.88700 -0.03500 35.09200
H  5.75900 5.48100 30.93300
H  7.07400 5.30700 24.50900
H  10.99800 0.56700 25.11600
H  8.61900 2.10700 33.30100
H  7.20100 4.67300 32.85600
H  5.22500 3.07600 32.06800
H  5.66100 2.99200 33.77200
H  6.37600 1.84100 32.52800
H  10.00600 4.60300 32.64700
H  10.56400 3.23900 33.69400
H  8.29500 4.42700 34.81700
H  9.38700 5.79700 34.26400
H  4.41600 6.71000 30.05300
H  3.55500 7.03000 28.56900
H  4.75100 8.14300 29.02100
H  3.14600 7.27200 26.47900
H  3.61400 8.37400 25.15500
H  4.16500 8.62100 26.83700
H  9.38300 4.50800 23.41900
H  9.34200 1.59500 23.22600
H  6.78900 3.89400 22.85000
H  7.62300 2.46900 22.22600
H  7.92600 4.19100 21.61500
H  11.28300 3.40100 22.52800
H  11.50600 1.73100 22.81200
H  12.03000 3.20500 25.33500
H  12.75800 4.14700 24.04200
H  13.09300 2.35300 24.21100
H  12.84500 -0.32600 26.43900
H  11.95800 -1.78600 26.64300
H  13.21500 -1.35000 27.85100
H  11.76900 1.77800 31.83200
H  10.44000 0.78800 35.64800
H  11.62800 -0.52900 35.72200
H  10.01900 -0.69400 35.06100

