79

Mg 17.61600 -0.90300 27.60300
C  16.35900 0.98500 30.20400
C  19.49500 -2.67600 29.94400
C  18.87900 -2.52000 24.97000
C  15.95000 1.25400 25.34500
N  17.97600 -0.72600 29.81800
C  17.24000 0.01400 30.70800
C  17.62400 -0.21400 32.18000
C  18.88700 -1.19000 31.98800
C  18.79400 -1.56000 30.52700
C  20.27700 -0.60800 32.42100
C  16.46300 -0.76800 33.07600
C  16.48500 -0.52400 34.62500
H  17.74700 0.16200 35.19900
N  18.98400 -2.37400 27.43300
C  19.54400 -3.09600 28.51900
C  20.31500 -4.25400 27.98600
C  20.03300 -4.34400 26.65500
C  19.23200 -3.09100 26.29300
C  21.09800 -5.22100 28.95700
C  20.30700 -5.39900 25.58800
O  19.74800 -5.42800 24.50000
C  21.35000 -6.50600 25.80300
N  17.68400 -0.45300 25.44900
C  18.19300 -1.41900 24.58300
C  17.79600 -1.10600 23.16600
C  16.93300 0.14300 23.27600
C  16.77400 0.31000 24.80200
C  18.94500 -1.03100 22.13400
C  15.61900 -0.04400 22.58600
C  14.53700 -0.94200 23.25000
N  16.33600 0.79000 27.66400
C  15.71300 1.53300 26.67000
C  14.82300 2.54300 27.28100
C  15.04600 2.32500 28.65700
C  15.95400 1.24000 28.83100
C  13.94700 3.60300 26.69100
C  14.70300 2.74700 29.97400
O  13.96600 3.66400 30.26100
C  15.53600 1.95700 31.03400
C  16.37000 2.91900 31.76300
O  17.46200 3.30600 31.41800
O  15.63900 3.34900 32.82400
C  16.37500 4.44300 33.51600
H  19.98500 -3.38600 30.61400
H  19.35600 -3.14500 24.21300
H  15.36600 1.74000 24.56100
H  17.85000 0.73000 32.67700
H  18.76200 -2.09200 32.58700
H  20.16800 0.45000 32.65900
H  20.93700 -0.54000 31.55700
H  20.70900 -1.10500 33.29000
H  16.34500 -1.83600 32.89600
H  15.53700 -0.28700 32.76100
H  16.35700 -1.51200 35.06700
H  15.63800 0.12000 34.86000
H  20.82300 -6.26300 28.79400
H  20.93400 -5.05700 30.02200
H  22.13600 -5.09600 28.64900
H  21.82500 -6.52500 26.78400
H  22.20300 -6.40300 25.13200
H  20.77100 -7.40900 25.60800
H  17.11100 -1.88900 22.84000
H  17.47200 0.98400 22.83900
H  19.88700 -1.30400 22.61100
H  19.01900 -0.09200 21.58700
H  18.72800 -1.74800 21.34300
H  15.72500 -0.34600 21.54400
H  15.16800 0.94800 22.59400
H  13.68900 -0.26800 23.36800
H  14.75100 -1.40500 24.21400
H  14.29500 -1.73900 22.54700
H  14.44200 3.81900 25.74500
H  14.10300 4.41000 27.40800
H  12.88100 3.40200 26.58700
H  14.83600 1.55700 31.76900
H  17.33200 4.16000 33.95600
H  15.80900 4.85300 34.35200
H  16.69000 5.27400 32.88500

