79

Mg 1.73400 -1.11600 43.19800
C  5.07600 -1.31300 42.28200
C  1.42000 1.61600 40.85100
C  -1.59900 -1.44000 43.21100
C  2.01500 -4.37000 44.50400
N  3.06400 0.02100 41.74500
C  4.39600 -0.22900 41.65900
C  5.06500 0.82700 40.85600
C  4.00500 1.96000 40.68500
C  2.74400 1.13100 41.04000
C  4.10600 3.34900 41.38500
C  5.47900 0.29000 39.48700
C  6.81900 0.84700 38.82500
H  6.57700 1.61500 37.60900
N  0.12700 0.05600 42.38100
C  0.21700 1.09900 41.49500
C  -1.09000 1.75700 41.34600
C  -2.01200 0.84900 41.97300
C  -1.21500 -0.25300 42.58300
C  -1.28200 3.00000 40.49200
C  -3.49200 1.06800 42.08700
O  -3.96800 2.13100 41.70100
C  -4.41100 0.05700 42.81900
N  0.36900 -2.60600 43.97000
C  -0.94000 -2.54200 43.81400
C  -1.71600 -3.90300 44.03700
C  -0.56300 -4.67900 44.60900
C  0.69900 -3.90300 44.32100
C  -3.03900 -3.95800 44.85400
C  -0.54900 -6.21700 44.11300
C  -0.72600 -7.20800 45.27900
N  3.29300 -2.57100 43.49700
C  3.28900 -3.82900 44.07900
C  4.65200 -4.34400 44.06100
C  5.39900 -3.32500 43.47500
C  4.47500 -2.33300 43.07800
C  5.05400 -5.63500 44.51800
C  6.71600 -2.98600 42.97900
O  7.70200 -3.69100 43.05500
C  6.60900 -1.62400 42.25100
C  7.30600 -0.56300 43.16100
O  6.93200 -0.23700 44.27100
O  8.36200 0.00500 42.47300
C  8.97300 1.20000 43.02900
H  1.42300 2.50700 40.22000
H  -2.65800 -1.70500 43.22900
H  2.12200 -5.39200 44.87300
H  5.88900 1.28600 41.40300
H  3.97500 2.20400 39.62300
H  3.19000 3.70600 41.85600
H  4.38800 4.01900 40.57400
H  4.90700 3.26700 42.12000
H  4.58500 0.38600 38.87100
H  5.75200 -0.74600 39.68800
H  7.46500 -0.01400 38.65200
H  7.29700 1.45600 39.59200
H  -0.65100 3.20700 39.62700
H  -1.12700 3.84500 41.16200
H  -2.29300 3.11600 40.10300
H  -5.40600 0.49400 42.73600
H  -3.93300 -0.04200 43.79300
H  -4.26100 -0.79200 42.15200
H  -1.88700 -4.23000 43.01100
H  -0.73500 -4.54900 45.67800
H  -2.87500 -4.35500 45.85500
H  -3.86300 -4.44000 44.32800
H  -3.37300 -2.92300 44.92800
H  0.38600 -6.54500 43.65900
H  -1.37700 -6.34500 43.41600
H  -0.70900 -6.58900 46.17600
H  -0.02100 -8.04000 45.27100
H  -1.70300 -7.68900 45.23400
H  5.15900 -6.30300 43.66400
H  4.30500 -5.92900 45.25400
H  6.02900 -5.52200 44.99100
H  7.09500 -1.72900 41.28100
H  8.69300 2.11300 42.50400
H  10.05400 1.07600 42.96300
H  8.71000 1.38400 44.07000

