79

Mg 16.12500 -1.54200 28.04300
C  15.28400 0.69700 30.64400
C  18.29100 -3.12700 30.17400
C  17.34000 -3.46600 25.31600
C  14.65800 0.50900 25.64900
N  16.87900 -1.13800 30.14000
C  16.15800 -0.35600 31.07700
C  16.54300 -0.77300 32.48000
C  17.65600 -1.83700 32.30600
C  17.63100 -2.06400 30.81700
C  19.14000 -1.38200 32.76200
C  15.24300 -1.23300 33.26500
C  15.11500 -0.79100 34.66800
H  16.27500 -0.00400 35.29700
N  17.48300 -3.14400 27.81600
C  18.22100 -3.68200 28.84800
C  18.93200 -4.86700 28.34600
C  18.56500 -5.04900 26.99900
C  17.78700 -3.83000 26.63600
C  19.89900 -5.63400 29.18900
C  18.94500 -6.16900 26.01900
O  18.60700 -6.16800 24.84200
C  19.89700 -7.18900 26.50100
N  16.16400 -1.32400 25.76500
C  16.64100 -2.27300 24.94000
C  16.29300 -1.91000 23.42200
C  15.43100 -0.66700 23.51000
C  15.43200 -0.47900 25.06800
C  17.56200 -1.79200 22.50900
C  14.02600 -0.69100 22.83300
C  13.73000 0.41800 21.84200
N  15.04400 0.07000 28.09800
C  14.50400 0.82000 27.02400
C  13.66700 1.80600 27.53900
C  13.93600 1.81600 28.96600
C  14.83400 0.76300 29.26000
C  12.63200 2.69300 26.79600
C  13.65100 2.43500 30.23400
O  12.89800 3.37700 30.47700
C  14.47900 1.66700 31.42200
C  15.38900 2.64800 32.04400
O  16.60100 2.52300 32.17900
O  14.68500 3.62800 32.85300
C  15.53700 4.40700 33.73200
H  18.86000 -3.80200 30.81600
H  17.46800 -4.19000 24.50900
H  14.15000 1.18800 24.96100
H  16.90600 0.12400 32.98200
H  17.28100 -2.68900 32.87400
H  19.41700 -2.05000 33.57700
H  19.07100 -0.33700 33.06400
H  19.90700 -1.48000 31.99400
H  15.14100 -2.31800 33.30600
H  14.34200 -0.87700 32.76400
H  14.87600 -1.67800 35.25500
H  14.30200 -0.08500 34.83400
H  19.36900 -6.52700 29.51900
H  20.24900 -5.15500 30.10400
H  20.73300 -5.82800 28.51400
H  20.12000 -7.96300 25.76700
H  19.32900 -7.65500 27.30600
H  20.91400 -6.87800 26.73700
H  15.60600 -2.68200 23.07500
H  16.02900 0.19500 23.21400
H  17.94600 -2.80400 22.38400
H  18.29100 -1.14300 22.99600
H  17.32800 -1.52100 21.48000
H  13.27400 -0.48400 23.59500
H  13.70600 -1.61600 22.35300
H  13.03000 0.11000 21.06500
H  14.70800 0.59000 21.39400
H  13.40500 1.31700 22.36500
H  12.08400 3.31600 27.50300
H  11.99500 1.97900 26.27500
H  13.07200 3.31200 26.01300
H  13.77300 1.32100 32.17600
H  16.18700 5.00900 33.09700
H  16.13900 3.65900 34.24700
H  15.11500 5.06300 34.49300

