79

Mg 3.07800 -0.60000 44.50500
C  6.39100 0.37600 43.56600
C  1.85200 2.04500 42.73500
C  0.08200 -2.13900 44.52200
C  4.58000 -3.60900 45.94300
N  4.01000 1.12900 43.34300
C  5.35800 1.31100 43.10000
C  5.56000 2.59000 42.19100
C  4.11900 3.25100 42.17500
C  3.22700 2.09600 42.83100
C  3.91900 4.56600 42.91700
C  6.01100 2.16300 40.82200
C  7.40900 2.59300 40.29000
H  7.40900 3.29200 38.87800
N  1.17400 -0.04400 43.91200
C  0.90800 1.10000 43.17100
C  -0.52000 1.20800 43.03000
C  -1.12200 -0.01200 43.52100
C  0.06700 -0.83900 44.02400
C  -1.24200 2.36300 42.19900
C  -2.56700 -0.36900 43.59400
O  -3.46800 0.28300 43.08200
C  -3.05200 -1.73300 44.23100
N  2.51200 -2.56000 45.14400
C  1.18500 -2.91500 45.02100
C  0.92400 -4.36500 45.53600
C  2.36200 -4.87000 45.78100
C  3.24000 -3.59700 45.63300
C  0.17200 -4.32000 46.92100
C  2.77900 -6.00600 44.71700
C  2.67700 -7.43200 45.32400
N  5.11000 -1.49100 44.77400
C  5.50500 -2.62300 45.46500
C  6.91700 -2.54700 45.61200
C  7.33500 -1.45000 44.83100
C  6.16300 -0.80200 44.39500
C  7.73200 -3.46600 46.43100
C  8.48200 -0.72300 44.32000
O  9.64500 -0.87300 44.53400
C  7.96400 0.41400 43.44400
C  8.54400 1.63100 43.97400
O  9.31600 2.35800 43.35200
O  8.02600 1.97200 45.22200
C  8.24300 3.27800 45.76300
H  1.41800 2.84500 42.13200
H  -0.81700 -2.72900 44.71100
H  4.89900 -4.51900 46.45400
H  6.36700 3.13200 42.68400
H  3.78600 3.43200 41.15300
H  4.77000 4.94000 43.48600
H  3.00400 4.42100 43.49200
H  3.76400 5.30200 42.12800
H  5.29400 2.45100 40.05300
H  5.95600 1.07400 40.80300
H  8.11500 1.76400 40.23500
H  7.67800 3.37900 40.99700
H  -1.89100 1.83900 41.49700
H  -0.56400 3.09100 41.75300
H  -1.88200 3.02900 42.77800
H  -4.11600 -1.66800 44.46000
H  -2.62500 -1.96200 45.20800
H  -2.86400 -2.47500 43.45500
H  0.33900 -4.97700 44.85000
H  2.47600 -5.26800 46.78900
H  -0.71600 -3.79000 46.57500
H  0.61300 -3.63000 47.64000
H  -0.10600 -5.24700 47.42200
H  3.80600 -5.74600 44.45800
H  2.13800 -5.93700 43.83900
H  2.20200 -7.37800 46.30300
H  3.68000 -7.83600 45.46500
H  2.07300 -7.97900 44.60000
H  7.16500 -3.55500 47.35700
H  8.75700 -3.15200 46.62800
H  7.85500 -4.43100 45.94000
H  8.26100 0.40700 42.39500
H  7.41700 3.95500 45.54300
H  9.14600 3.70800 45.33000
H  8.24700 3.24300 46.85300

