79

Mg 36.00200 49.89300 25.84600
C  36.46200 48.05500 28.80800
C  35.11200 52.50400 27.64500
C  35.24000 51.22800 22.86700
C  37.15400 46.89800 24.03600
N  35.66700 50.09500 27.96500
C  35.92200 49.33000 29.02800
C  35.58300 49.93000 30.40100
C  35.03400 51.33700 29.90400
C  35.28000 51.32200 28.40200
C  33.60600 51.68800 30.33000
C  36.80400 50.03700 31.36500
C  36.65800 49.73100 32.86900
H  35.31600 49.50900 33.54100
N  35.32600 51.62600 25.34400
C  35.09800 52.67300 26.22200
C  34.80100 53.81500 25.44400
C  34.74200 53.45800 24.07700
C  35.04500 52.01500 24.06500
C  34.67300 55.14900 26.12900
C  34.51400 54.31500 22.85900
O  34.47000 53.84900 21.71500
C  34.32700 55.77900 22.86200
N  36.08800 49.12600 23.73400
C  35.78000 49.97300 22.74100
C  36.11500 49.33300 21.38600
C  37.08500 48.15700 21.76900
C  36.71900 47.97800 23.25300
C  34.81700 48.90400 20.64300
C  38.63500 48.54200 21.63900
C  39.63600 47.34700 21.76500
N  36.73500 47.90600 26.24500
C  37.14600 46.82500 25.44500
C  37.60000 45.76100 26.29000
C  37.30900 46.21200 27.59500
C  36.80700 47.50300 27.52000
C  38.30300 44.48400 25.88400
C  37.34900 45.77200 29.00600
O  37.60100 44.67100 29.54500
C  36.82000 47.00200 29.85700
C  35.70600 46.57500 30.69400
O  34.57600 46.33200 30.32100
O  36.15600 46.18600 31.95900
C  35.15300 45.52900 32.84700
H  34.92900 53.37600 28.27500
H  35.11000 51.71700 21.89900
H  37.61700 46.10000 23.45100
H  34.81400 49.29700 30.84400
H  35.67600 52.13700 30.27300
H  33.16800 50.84300 30.86100
H  32.99600 51.65900 29.42800
H  33.55300 52.67500 30.79100
H  37.27100 51.01300 31.23900
H  37.57300 49.36800 30.97800
H  37.14100 50.53800 33.42000
H  37.27500 48.87100 33.12900
H  35.53400 55.78800 25.93000
H  34.53300 55.14200 27.21000
H  33.73800 55.62800 25.84000
H  34.83600 56.22500 23.71700
H  33.26500 55.96200 23.02300
H  34.74100 56.18100 21.93700
H  36.52600 50.13800 20.77600
H  36.82900 47.21100 21.29300
H  34.78100 49.51300 19.74000
H  33.92800 49.31100 21.12500
H  34.71700 47.88400 20.27300
H  38.80800 49.25200 22.44800
H  38.81400 49.06900 20.70100
H  39.03000 46.47100 21.53300
H  40.20300 47.43300 22.69200
H  40.26600 47.60900 20.91500
H  38.99600 44.66100 25.06100
H  37.58500 43.73400 25.55200
H  38.88800 44.09700 26.71900
H  37.53100 47.38400 30.58900
H  34.82300 44.56500 32.46100
H  34.23400 46.07600 33.05700
H  35.51100 45.37100 33.86400

