79

Mg 47.38700 16.57900 28.35600
C  45.48500 16.58900 31.35400
C  49.70000 18.57700 29.89000
C  48.92600 17.12900 25.42500
C  44.53600 15.31100 26.73500
N  47.50100 17.54500 30.34900
C  46.72300 17.23000 31.42800
C  47.32000 17.73800 32.80600
C  48.52800 18.59200 32.25200
C  48.60500 18.23600 30.74200
C  48.50300 20.13500 32.48200
C  47.84100 16.58500 33.81600
C  47.86100 16.94700 35.27600
H  47.40300 18.35300 35.62300
N  49.16100 17.56400 27.76400
C  50.00500 18.26600 28.57400
C  51.10100 18.78200 27.78200
C  50.99100 18.31100 26.50200
C  49.68500 17.59700 26.49100
C  52.24300 19.53400 28.52600
C  51.83100 18.50000 25.23000
O  51.49600 18.02500 24.14700
C  53.06800 19.24500 25.27000
N  46.87600 16.08100 26.35600
C  47.65600 16.45400 25.32100
C  46.99200 16.18400 23.95700
C  45.67400 15.37400 24.42700
C  45.67600 15.50500 25.91000
C  46.66100 17.50600 23.14300
C  45.52400 13.94600 23.77400
C  44.63200 13.87100 22.45800
N  45.42400 16.00900 28.90100
C  44.38600 15.51200 28.12700
C  43.25600 15.18000 29.02200
C  43.67100 15.56900 30.26700
C  44.98000 16.03400 30.14900
C  42.00500 14.67300 28.67800
C  43.22100 15.80000 31.62800
O  42.07700 15.65600 32.08900
C  44.37200 16.40200 32.43800
C  43.85300 17.69000 33.01500
O  44.12700 18.89400 32.66400
O  43.05200 17.33300 34.10300
C  42.53400 18.48000 34.92200
H  50.46400 19.18900 30.37400
H  49.36600 17.20200 24.42800
H  43.68500 14.88500 26.19900
H  46.62200 18.47500 33.20300
H  49.44000 18.27000 32.75400
H  47.52700 20.47800 32.82800
H  48.77600 20.62300 31.54700
H  49.35900 20.36700 33.11600
H  48.84100 16.31700 33.47700
H  47.10300 15.78300 33.78200
H  48.80500 16.69000 35.75500
H  47.17000 16.21800 35.70000
H  52.75400 18.72500 29.04600
H  51.83700 20.23500 29.25600
H  52.92300 20.08400 27.87500
H  53.40700 19.37900 24.24300
H  53.79700 18.67000 25.84200
H  52.87600 20.18200 25.79300
H  47.57300 15.50000 23.33800
H  44.78200 15.88100 24.06000
H  45.60900 17.78200 23.08100
H  46.98300 17.27500 22.12700
H  47.22100 18.40200 23.41000
H  45.04900 13.18500 24.39300
H  46.56200 13.63200 23.66700
H  44.82000 12.91200 21.97500
H  45.01700 14.53500 21.68400
H  43.55300 13.91500 22.61000
H  41.97700 14.68300 27.58800
H  41.12400 15.05300 29.19400
H  42.17400 13.62300 28.91700
H  44.63400 15.70500 33.23400
H  43.07500 18.56500 35.86500
H  41.48100 18.33600 35.16500
H  42.52600 19.42100 34.37200

