79

Mg -6.28800 24.81000 26.59600
C  -4.56600 26.40700 29.22600
C  -7.29700 22.51300 28.80000
C  -7.55800 22.96100 24.02500
C  -4.25300 26.69800 24.35300
N  -5.96800 24.53800 28.74200
C  -5.37800 25.35700 29.65500
C  -5.77100 25.03100 31.09700
C  -6.32300 23.60500 30.93600
C  -6.53200 23.50300 29.39000
C  -5.40800 22.43000 31.45900
C  -6.72800 26.11600 31.73300
C  -7.44000 25.87900 33.12500
H  -7.14000 24.57800 33.97100
N  -7.56000 23.12500 26.43000
C  -7.84200 22.29700 27.52000
C  -8.62900 21.21300 27.00300
C  -8.71600 21.35100 25.56900
C  -7.96600 22.57200 25.29600
C  -9.19700 20.21300 27.92300
C  -9.60100 20.58100 24.61500
O  -9.62800 20.81800 23.45400
C  -10.52200 19.40600 25.19600
N  -5.95400 24.89800 24.53200
C  -6.70200 24.06500 23.63300
C  -6.24900 24.29900 22.15700
C  -5.44700 25.63000 22.32600
C  -5.12800 25.71600 23.83600
C  -5.47700 23.13000 21.43800
C  -6.37000 26.91800 22.00200
C  -6.83700 27.09500 20.55000
N  -4.76600 26.28900 26.68900
C  -4.05300 26.97300 25.69500
C  -3.09000 27.91800 26.30000
C  -3.36300 27.79400 27.72400
C  -4.32700 26.77000 27.88500
C  -2.00000 28.82400 25.67800
C  -2.98100 28.29900 29.00700
O  -2.27300 29.22500 29.40500
C  -3.81200 27.41800 30.02600
C  -2.90700 26.78100 31.07200
O  -1.85700 26.17900 30.88300
O  -3.34200 27.10400 32.30800
C  -2.45500 26.81500 33.40900
H  -7.60900 21.79100 29.55700
H  -7.92000 22.40900 23.15500
H  -3.69500 27.39600 23.72500
H  -4.85200 24.93700 31.67600
H  -7.30400 23.45600 31.38800
H  -4.72900 22.73700 32.25400
H  -4.75200 22.26000 30.60500
H  -5.91700 21.50700 31.73900
H  -7.46100 26.26800 30.94100
H  -6.22900 27.08500 31.75900
H  -8.49900 25.87000 32.86500
H  -7.21500 26.72900 33.77000
H  -10.26600 20.39400 28.03400
H  -8.79500 20.24600 28.93600
H  -8.82300 19.27400 27.51600
H  -9.92200 18.62800 25.66900
H  -11.23300 19.22400 24.39100
H  -11.10900 20.02500 25.87300
H  -7.11700 24.46000 21.51800
H  -4.55400 25.58500 21.70400
H  -6.19500 22.84000 20.67100
H  -5.31400 22.38800 22.22000
H  -4.52700 23.49600 21.04900
H  -5.82700 27.82900 22.25500
H  -7.25500 26.98900 22.63500
H  -6.41400 28.02500 20.17000
H  -7.92400 27.11200 20.46600
H  -6.59000 26.20500 19.97100
H  -2.39200 29.39300 24.83500
H  -1.26800 28.06600 25.40000
H  -1.44400 29.48100 26.34700
H  -4.51200 27.98700 30.63700
H  -1.46800 27.26700 33.30500
H  -2.51600 25.74500 33.60700
H  -2.84300 27.34700 34.27700

