79

Mg 2.18400 8.20200 27.10800
C  2.30500 10.02200 30.09900
C  2.03100 5.31700 29.16700
C  2.27700 6.34000 24.29500
C  2.96200 11.14700 25.36100
N  2.19900 7.74300 29.42400
C  2.09800 8.67600 30.36500
C  1.71200 8.06200 31.70900
C  1.90800 6.51000 31.38700
C  2.07000 6.44900 29.93100
C  3.13300 5.81900 32.05300
C  0.32500 8.36900 32.30800
C  0.06300 8.04000 33.79700
H  1.22800 7.55500 34.74500
N  2.06400 6.07900 26.89000
C  2.05400 5.09400 27.80100
C  2.03400 3.86400 27.05700
C  2.09800 4.10300 25.66000
C  2.13900 5.54100 25.53100
C  1.93700 2.46900 27.75900
C  2.15200 3.15000 24.47500
O  2.30700 3.44800 23.31400
C  1.91800 1.68300 24.72100
N  2.49000 8.71100 25.11700
C  2.44100 7.70700 24.15600
C  2.79700 8.42500 22.79100
C  2.85300 9.96000 23.16000
C  2.80400 9.97000 24.63700
C  4.03300 7.87800 22.05100
C  1.87600 10.89400 22.49200
C  0.38500 10.88900 22.83100
N  2.47900 10.26000 27.57600
C  2.84300 11.34500 26.72000
C  2.86400 12.53100 27.56100
C  2.72400 12.07200 28.91200
C  2.50400 10.66000 28.84100
C  3.12500 13.87900 27.19300
C  2.71300 12.45400 30.27200
O  2.90000 13.58800 30.73000
C  2.41500 11.20100 31.08000
C  3.40900 11.01900 32.15200
O  4.52300 10.50900 32.07900
O  2.91300 11.50800 33.30300
C  3.71400 11.44300 34.50800
H  1.91100 4.41200 29.76600
H  2.17400 5.73300 23.39400
H  3.16100 12.05600 24.79000
H  2.53700 8.34600 32.36200
H  1.04200 5.89600 31.63500
H  3.66200 6.46500 32.75400
H  3.80900 5.42700 31.29300
H  2.76700 4.96200 32.61700
H  -0.30000 7.61900 31.82200
H  -0.05000 9.36900 32.09100
H  -0.74800 7.31800 33.88400
H  -0.41000 8.96000 34.13900
H  2.73700 1.74300 27.61200
H  0.98900 1.98400 27.52600
H  1.93100 2.71700 28.82000
H  2.66500 1.20600 25.35500
H  1.67700 1.10300 23.83000
H  0.95600 1.55200 25.21700
H  1.89900 8.43000 22.17300
H  3.82400 10.25500 22.76200
H  4.62400 7.39300 22.82700
H  4.61700 8.66400 21.57100
H  3.77600 7.13200 21.29900
H  1.87200 10.68800 21.42200
H  2.18600 11.93500 22.58800
H  -0.16900 10.64600 21.92500
H  0.11200 11.86900 23.22300
H  0.15600 10.15900 23.60700
H  3.21500 14.52800 28.06400
H  2.39000 14.28800 26.49900
H  4.01500 13.89400 26.56400
H  1.44600 11.19500 31.58000
H  4.27800 10.51300 34.57600
H  3.03700 11.59800 35.34800
H  4.44300 12.24800 34.41100

