79

Mg 6.22500 54.00100 42.10000
C  5.29600 50.57100 41.68800
C  9.31200 53.27400 40.60600
C  6.78800 57.28500 41.75300
C  2.81800 54.63700 42.71200
N  7.08400 52.20800 41.22400
C  6.56500 50.92600 41.14600
C  7.58300 49.95900 40.45500
C  8.90800 50.73700 40.46100
C  8.42900 52.18600 40.78200
C  9.98400 50.17900 41.45200
C  7.21800 49.34300 39.04900
C  6.20800 50.21000 38.22200
H  6.48100 50.36400 36.70400
N  7.87400 55.15300 41.42100
C  9.09600 54.65000 40.92400
C  10.01900 55.73400 40.67900
C  9.32500 56.94100 41.13300
C  7.92900 56.54200 41.46800
C  11.36600 55.63500 40.06700
C  9.88700 58.34200 41.13300
O  11.11300 58.51600 40.95300
C  9.04100 59.52500 41.44900
N  4.96500 55.67700 41.94900
C  5.47900 56.93800 42.03500
C  4.39500 57.90700 42.52400
C  3.07300 57.08300 42.43800
C  3.65800 55.72600 42.40100
C  4.65500 58.43100 43.92900
C  2.21600 57.43200 41.19400
C  0.73100 57.81800 41.53200
N  4.39000 52.87100 42.34600
C  3.15100 53.28100 42.78000
C  2.30700 52.12000 42.99300
C  3.20300 51.04100 42.66600
C  4.35700 51.56800 42.17200
C  0.98700 52.06300 43.54600
C  3.33900 49.59900 42.66200
O  2.62700 48.73300 43.09500
C  4.71800 49.24900 42.00200
C  4.33600 48.42700 40.81200
O  3.67700 48.79800 39.85100
O  4.74900 47.16400 41.03200
C  4.30900 46.14200 40.06500
H  10.30000 53.04100 40.20300
H  6.95800 58.35400 41.89300
H  1.74900 54.77500 42.88700
H  7.69500 49.15700 41.18500
H  9.33000 50.84500 39.46200
H  9.57700 50.04300 42.45400
H  10.81100 50.88300 41.54600
H  10.30300 49.23100 41.01900
H  6.77300 48.35600 39.17700
H  8.11700 49.19600 38.45000
H  6.34100 51.25600 38.49800
H  5.22600 49.77900 38.41700
H  11.28500 55.28600 39.03700
H  11.91700 54.83500 40.56100
H  12.10300 56.43800 40.07800
H  8.26700 59.56600 40.68200
H  9.66400 60.40600 41.29700
H  8.61500 59.55700 42.45100
H  4.31800 58.79900 41.90200
H  2.55700 57.17800 43.39300
H  3.99200 57.99900 44.67900
H  4.52700 59.51000 44.01800
H  5.65700 58.10700 44.20900
H  2.05200 56.58600 40.52600
H  2.71100 58.16900 40.56200
H  0.47500 57.80800 42.59100
H  0.12700 57.09800 40.98100
H  0.47900 58.78100 41.08700
H  0.42200 51.20400 43.18400
H  0.44300 52.96800 43.27500
H  1.12700 52.00400 44.62500
H  5.27300 48.60700 42.68600
H  4.58300 45.21800 40.57300
H  4.89900 46.21400 39.15200
H  3.27200 46.21600 39.73700

