79

Mg 41.10700 9.49200 29.47000
C  43.27800 10.30700 32.04600
C  38.71400 8.54400 31.78500
C  39.42200 7.94900 26.94200
C  43.58500 10.44200 27.23300
N  41.08900 9.22800 31.57700
C  42.07700 9.68900 32.44100
C  41.40300 9.77400 33.89700
C  40.10200 9.06000 33.70500
C  39.92400 8.96600 32.24500
C  40.16000 7.62100 34.22300
C  41.25400 11.29700 34.40900
C  42.06000 11.75200 35.69400
H  41.32000 12.36200 36.84800
N  39.30300 8.45900 29.34000
C  38.46000 8.26500 30.43500
C  37.23500 7.62400 29.89600
C  37.39900 7.48000 28.55100
C  38.76200 7.91300 28.21300
C  36.08300 7.13700 30.68400
C  36.36500 7.01400 27.54400
O  36.64100 6.76100 26.40300
C  34.87000 7.15800 27.89100
N  41.54200 9.20300 27.43900
C  40.69200 8.49800 26.65800
C  41.11900 8.57200 25.16000
C  42.50100 9.26000 25.31800
C  42.49000 9.71700 26.76600
C  41.16900 7.24800 24.45700
C  42.70100 10.42500 24.34600
C  44.07100 10.42300 23.55000
N  43.02600 10.24800 29.56800
C  43.89400 10.59400 28.54000
C  45.11000 11.12500 29.14200
C  44.95200 10.98900 30.48200
C  43.64200 10.47500 30.70400
C  46.17200 11.74600 28.38500
C  45.51200 11.28600 31.80100
O  46.64300 11.65300 32.14400
C  44.42300 10.86100 32.85200
C  44.92600 9.92700 33.89900
O  45.16400 8.72800 33.72100
O  45.20500 10.58200 35.06100
C  45.76900 9.71000 36.17000
H  37.87500 8.32900 32.45000
H  38.94200 7.36900 26.15200
H  44.30500 10.84700 26.51900
H  41.98000 9.13300 34.56400
H  39.18700 9.41600 34.17800
H  40.90000 7.52700 35.01800
H  40.23100 6.85500 33.45100
H  39.23500 7.33100 34.72200
H  40.18600 11.51300 34.39800
H  41.52800 12.09400 33.71700
H  42.75500 12.53100 35.37900
H  42.74000 10.97500 36.04200
H  36.39200 7.03200 31.72400
H  35.64000 6.22100 30.29400
H  35.29600 7.88700 30.76400
H  34.30500 7.19500 26.96000
H  34.68100 8.13100 28.34500
H  34.52300 6.34600 28.53100
H  40.36100 9.16200 24.64600
H  43.23900 8.46200 25.24300
H  40.61900 6.58300 25.12300
H  42.19200 6.90100 24.30900
H  40.63500 7.37000 23.51500
H  42.65700 11.33700 24.94200
H  41.89000 10.47100 23.61900
H  44.50000 11.42200 23.62100
H  43.91100 10.20400 22.49400
H  44.72600 9.67700 24.00000
H  45.84000 12.38500 27.56700
H  46.89200 11.09600 27.88700
H  46.68900 12.43900 29.05000
H  43.94800 11.68500 33.38500
H  46.36100 8.84900 35.86000
H  44.88500 9.34000 36.69000
H  46.31400 10.33100 36.88100

