79

Mg -12.84300 16.34700 41.92900
C  -9.82900 14.64300 41.71300
C  -11.23500 19.14000 40.53800
C  -15.86100 17.87900 41.47100
C  -14.45600 13.29000 42.52300
N  -10.78000 16.74900 40.98900
C  -9.68900 15.93500 41.19600
C  -8.43000 16.63700 40.59400
C  -8.92100 18.09400 40.19900
C  -10.41500 18.01300 40.63000
C  -8.06400 19.22700 40.73100
C  -8.07500 15.82000 39.33800
C  -6.59700 15.64400 38.98000
H  -6.20400 16.57700 37.77600
N  -13.46200 18.28400 41.21700
C  -12.61000 19.27900 40.73900
C  -13.37900 20.48300 40.55800
C  -14.75100 20.10800 40.75600
C  -14.75500 18.70800 41.17600
C  -12.81400 21.80300 40.07600
C  -15.89000 21.03300 40.54000
O  -15.71000 22.20600 40.18600
C  -17.30400 20.62200 40.68700
N  -14.82500 15.63900 41.98600
C  -15.86100 16.54300 41.93300
C  -17.18600 15.87800 42.16000
C  -16.82700 14.37700 42.43200
C  -15.33200 14.37900 42.29500
C  -17.92900 16.57300 43.37200
C  -17.36400 13.33400 41.40800
C  -18.93500 13.11800 41.40900
N  -12.29800 14.44800 42.16600
C  -13.00300 13.32000 42.52900
C  -12.16600 12.21200 42.93400
C  -10.90500 12.63500 42.63900
C  -11.02700 14.00300 42.08800
C  -12.55200 10.81900 43.34500
C  -9.51600 12.30700 42.72700
O  -8.85800 11.33200 43.11900
C  -8.80600 13.58400 42.00100
C  -7.67400 14.13900 42.83800
O  -7.66200 14.68900 43.92400
O  -6.50100 13.97700 42.11800
C  -5.42600 14.80200 42.57400
H  -10.69400 19.95000 40.04500
H  -16.86200 18.25900 41.25600
H  -14.95900 12.36500 42.81200
H  -7.68800 16.85000 41.36300
H  -8.92800 18.24000 39.11900
H  -7.92200 19.87600 39.86600
H  -7.10000 18.94300 41.15200
H  -8.65400 19.78300 41.46000
H  -8.59500 16.31600 38.51800
H  -8.45900 14.81000 39.48500
H  -6.31100 14.60800 38.79400
H  -5.97200 15.92400 39.82700
H  -13.10300 21.90900 39.03100
H  -11.72800 21.74100 40.14300
H  -13.10600 22.64300 40.70600
H  -17.55900 19.81100 40.00500
H  -17.98800 21.47100 40.66000
H  -17.54400 20.17200 41.65100
H  -17.79200 16.03400 41.26700
H  -17.10200 14.07400 43.44300
H  -17.36500 17.42200 43.75700
H  -18.05500 15.91900 44.23400
H  -18.83600 16.98600 42.92900
H  -16.88700 12.39700 41.69500
H  -17.06600 13.65200 40.40800
H  -19.25200 12.20200 41.90700
H  -19.12200 12.92000 40.35400
H  -19.50700 13.96300 41.79300
H  -13.27300 10.95500 44.15100
H  -11.74800 10.32500 43.89000
H  -13.18100 10.15300 42.75400
H  -8.30500 13.28500 41.08000
H  -5.27600 14.73400 43.65200
H  -5.51800 15.85400 42.30700
H  -4.51900 14.39900 42.12400

