79

Mg -4.33300 25.05500 25.64200
C  -2.78100 26.53300 28.41900
C  -5.62300 22.69900 27.93400
C  -5.44100 23.25900 22.99200
C  -2.67200 27.26900 23.62600
N  -4.28000 24.70400 27.94900
C  -3.57300 25.48200 28.79700
C  -4.13000 25.13700 30.22500
C  -4.73500 23.73200 30.08700
C  -4.98600 23.74500 28.58000
C  -3.89600 22.53200 30.56800
C  -5.15900 26.20500 30.72200
C  -5.11400 26.25000 32.25500
H  -5.03600 24.87100 32.93000
N  -5.34200 23.29100 25.47400
C  -5.76800 22.53900 26.53200
C  -6.47800 21.42200 26.04900
C  -6.40400 21.43200 24.60000
C  -5.69400 22.69300 24.27300
C  -7.12400 20.47600 27.02100
C  -6.89100 20.48000 23.53800
O  -6.59600 20.56700 22.35100
C  -7.72700 19.24500 23.89500
N  -3.84500 25.07900 23.53900
C  -4.68600 24.38300 22.65700
C  -4.63500 25.01200 21.25500
C  -3.70800 26.24300 21.45000
C  -3.38900 26.22300 22.98300
C  -4.12800 24.08300 20.09900
C  -4.33700 27.59200 21.13300
C  -4.38900 27.98100 19.62000
N  -3.01300 26.65200 25.93700
C  -2.37000 27.45300 24.95800
C  -1.55100 28.43200 25.60500
C  -1.63600 28.10400 26.99300
C  -2.50800 26.98400 27.14200
C  -0.86900 29.51500 24.96300
C  -1.14600 28.39800 28.35600
O  -0.30800 29.18800 28.70600
C  -1.90100 27.43800 29.34500
C  -0.98200 26.71400 30.20300
O  -0.46000 25.69000 29.90500
O  -0.94400 27.32600 31.43100
C  -0.20300 26.51700 32.46000
H  -6.10400 22.04100 28.66000
H  -5.89600 22.79300 22.11600
H  -2.25200 27.97100 22.90300
H  -3.31400 25.12000 30.94800
H  -5.73200 23.72000 30.52800
H  -3.95900 21.67100 29.90200
H  -4.13500 22.14300 31.55800
H  -2.84300 22.77500 30.43000
H  -6.17300 25.92000 30.44100
H  -4.96700 27.14600 30.20700
H  -5.91700 26.90700 32.59100
H  -4.13600 26.68600 32.45900
H  -7.70400 20.96100 27.80700
H  -6.31000 19.86600 27.41200
H  -7.65500 19.69600 26.47700
H  -8.60400 19.47600 24.50000
H  -7.10200 18.54900 24.45400
H  -8.08200 18.68300 23.03100
H  -5.61100 25.26200 20.84000
H  -2.76000 26.05200 20.94800
H  -3.32200 23.42600 20.42600
H  -3.65500 24.70400 19.33900
H  -4.90900 23.52800 19.57900
H  -3.73200 28.40100 21.54100
H  -5.30900 27.76500 21.59600
H  -5.45100 28.12800 19.42400
H  -4.01800 27.19200 18.96500
H  -3.79700 28.88700 19.48700
H  0.03800 29.71100 25.53600
H  -1.41800 30.45000 24.84600
H  -0.61200 29.28500 23.92900
H  -2.60200 28.00200 29.96100
H  0.71800 27.08000 32.61600
H  0.09900 25.51200 32.16500
H  -0.77200 26.45600 33.38700

