79

Mg 2.05200 -2.12500 44.81300
C  5.37900 -1.26000 43.93700
C  0.93600 0.60600 42.89600
C  -1.02900 -3.28000 45.22600
C  3.38000 -5.05100 46.11300
N  3.16200 -0.56100 43.47300
C  4.49700 -0.38400 43.32500
C  4.79200 0.86100 42.46200
C  3.32600 1.44900 42.11600
C  2.37500 0.42100 42.85900
C  2.99900 2.92300 42.65900
C  5.63300 0.64400 41.20900
C  6.82900 1.62700 40.99100
H  6.78600 2.42100 39.64300
N  0.24600 -1.47400 44.16300
C  -0.02600 -0.36400 43.39700
C  -1.45700 -0.33300 43.07700
C  -2.05700 -1.46400 43.72500
C  -0.91300 -2.18000 44.36500
C  -2.04500 0.85800 42.31900
C  -3.49500 -1.75200 43.73000
O  -4.40400 -1.02000 43.33300
C  -3.99700 -3.02700 44.11500
N  1.28000 -3.99000 45.35500
C  0.00800 -4.07400 45.73700
C  -0.35100 -5.24600 46.69600
C  1.09400 -5.85300 46.82300
C  1.97900 -4.90900 46.02400
C  -1.01500 -5.04200 48.03900
C  1.40300 -7.30800 46.23400
C  1.68500 -8.47800 47.28700
N  3.99600 -3.09100 45.02000
C  4.38500 -4.28600 45.58100
C  5.81800 -4.36300 45.71900
C  6.24500 -3.15200 45.14300
C  5.12900 -2.47400 44.66800
C  6.55900 -5.37500 46.50800
C  7.35800 -2.34500 44.94400
O  8.49200 -2.54900 45.26300
C  6.88100 -1.19700 43.98100
C  7.27000 0.04600 44.64500
O  7.06400 0.41000 45.78300
O  8.20200 0.65900 43.79800
C  8.69600 1.99100 44.21400
H  0.77800 1.48800 42.27200
H  -2.04900 -3.54300 45.51400
H  3.55900 -5.95000 46.70700
H  5.24000 1.57300 43.15500
H  3.09100 1.33500 41.05800
H  3.93300 3.42300 42.91600
H  2.37400 3.06700 43.54000
H  2.37400 3.35400 41.87700
H  5.09600 0.50700 40.27000
H  6.03000 -0.36700 41.30400
H  7.75400 1.05100 40.95400
H  7.01500 2.33200 41.80000
H  -2.88600 0.48200 41.73500
H  -1.47700 1.37500 41.54600
H  -2.37800 1.71200 42.90800
H  -4.17500 -3.16600 45.18100
H  -3.24000 -3.75200 43.81600
H  -4.97300 -3.21800 43.66800
H  -0.92600 -5.95400 46.10000
H  1.48200 -5.74000 47.83500
H  -1.98700 -4.57800 47.86900
H  -0.34800 -4.49900 48.70700
H  -1.14600 -6.01300 48.51800
H  2.22100 -7.24700 45.51600
H  0.61100 -7.70900 45.60000
H  2.63200 -8.97300 47.07200
H  0.78400 -9.08900 47.22100
H  1.71500 -8.03300 48.28100
H  7.54900 -5.04100 46.81800
H  6.69500 -6.23100 45.84700
H  6.13900 -5.82800 47.40600
H  7.36700 -1.37900 43.02300
H  7.79600 2.54100 44.48600
H  9.23800 2.45200 43.38800
H  9.34000 1.91400 45.09000

