79

Mg 48.51900 35.05100 28.04400
C  47.04900 33.20400 30.55400
C  48.34900 37.79200 30.04400
C  49.89800 36.65500 25.52000
C  47.89100 32.26500 25.83300
N  47.68100 35.41700 30.12500
C  47.31400 34.48900 30.93900
C  47.10400 35.10200 32.38200
C  47.14400 36.66600 31.98000
C  47.78000 36.61400 30.60300
C  45.80600 37.50500 32.06200
C  48.23900 34.60800 33.37900
C  48.70500 35.53700 34.55700
H  47.73900 36.56400 35.14300
N  49.08700 36.99300 27.85400
C  48.92000 37.98800 28.76800
C  49.64800 39.13300 28.23800
C  50.07100 38.85600 26.88500
C  49.66000 37.45500 26.67500
C  50.00200 40.38300 29.05800
C  50.83400 39.75300 25.85900
O  51.39900 39.30200 24.87600
C  51.00500 41.19300 26.10700
N  48.80400 34.61100 25.98000
C  49.51500 35.40300 25.16100
C  49.91100 34.79000 23.87400
C  49.25700 33.32000 23.98200
C  48.54500 33.40400 25.32400
C  49.39400 35.58300 22.61200
C  50.34900 32.27400 24.06100
C  50.00300 30.87200 23.54400
N  47.68800 32.97900 28.11100
C  47.46300 32.04000 27.14900
C  46.82500 30.87000 27.77800
C  46.59700 31.31500 29.10900
C  47.12300 32.61300 29.25000
C  46.24200 29.68700 27.06000
C  46.05500 30.92900 30.42600
O  45.45400 29.91800 30.74700
C  46.48200 32.06100 31.37600
C  47.43000 31.62700 32.48000
O  48.65500 31.58900 32.37900
O  46.79600 31.27000 33.59700
C  47.55600 31.13900 34.85500
H  48.42500 38.63200 30.73700
H  50.45300 37.16200 24.72800
H  47.74300 31.43500 25.13900
H  46.14700 34.73100 32.74800
H  47.78700 37.26600 32.62400
H  45.78800 38.01100 33.02800
H  44.95100 36.83000 32.08500
H  45.91400 38.26700 31.29100
H  49.11000 34.26200 32.82200
H  47.84700 33.76900 33.95200
H  49.56700 36.06900 34.15400
H  48.96700 34.85000 35.36200
H  49.79000 41.28200 28.47900
H  50.99500 40.31300 29.50200
H  49.36000 40.42700 29.93800
H  51.54100 41.26500 27.05400
H  50.02800 41.67500 26.14900
H  51.59800 41.59200 25.28400
H  50.99400 34.72300 23.77700
H  48.64400 33.06500 23.11700
H  48.70900 36.37500 22.91400
H  48.90700 34.95400 21.86700
H  50.19200 36.03700 22.02500
H  50.70300 32.07300 25.07300
H  51.15700 32.69100 23.46100
H  50.84300 30.40700 23.02700
H  49.07000 30.87300 22.98100
H  49.76400 30.11800 24.29400
H  47.09700 29.08500 26.75000
H  45.77400 30.10100 26.16800
H  45.47100 29.13300 27.59600
H  45.59700 32.42700 31.89600
H  48.45700 31.74800 34.93900
H  47.94700 30.12200 34.89700
H  46.81100 31.35700 35.62000

