79

Mg 6.04700 54.29000 41.40000
C  5.55000 50.73700 41.22700
C  9.25700 53.60300 40.30400
C  6.40900 57.40100 41.14300
C  2.61900 54.60100 42.06400
N  7.15100 52.35600 40.55500
C  6.74500 51.06900 40.64000
C  7.78100 50.12600 40.12800
C  9.06500 50.97700 40.27200
C  8.44800 52.40500 40.37000
C  10.01500 50.53600 41.45400
C  7.42600 49.65000 38.67100
C  6.82700 50.63300 37.63400
H  5.89600 50.00700 36.55500
N  7.67100 55.39900 40.85200
C  8.90000 54.95800 40.44400
C  9.70300 56.15800 40.28000
C  8.95000 57.27900 40.51900
C  7.58700 56.72100 40.79600
C  11.14800 56.09100 39.85900
C  9.45700 58.77200 40.60200
O  10.65500 59.00000 40.39200
C  8.51100 59.91200 40.95100
N  4.65500 55.73500 41.37500
C  5.10400 57.00400 41.44000
C  4.03200 58.01200 41.89200
C  2.80700 57.12900 41.79700
C  3.36800 55.66500 41.76600
C  4.33900 58.60800 43.37400
C  1.82100 57.41200 40.68900
C  1.93600 56.77100 39.30500
N  4.41300 52.94900 41.63500
C  3.12700 53.26000 42.07200
C  2.49100 51.97000 42.47400
C  3.40000 50.99500 42.05900
C  4.55200 51.64200 41.65300
C  1.05300 51.77000 42.96700
C  3.62300 49.60700 42.13900
O  2.90700 48.64900 42.42600
C  5.03000 49.37600 41.50100
C  4.75000 48.50200 40.33500
O  4.05000 48.88900 39.40200
O  5.23400 47.24600 40.63000
C  4.46700 46.24400 39.83500
H  10.30000 53.28300 40.26200
H  6.45600 58.47000 41.36300
H  1.56700 54.74900 42.31800
H  7.84800 49.22600 40.74000
H  9.56600 50.86000 39.31100
H  11.02000 50.40100 41.05400
H  9.66100 49.55000 41.75500
H  10.01000 51.27300 42.25800
H  6.73600 48.80900 38.75200
H  8.35300 49.34400 38.18600
H  7.62600 51.05000 37.02000
H  6.33800 51.44300 38.17500
H  11.52800 55.06900 39.85100
H  11.59500 56.60500 40.71000
H  11.36800 56.62100 38.93200
H  9.02900 60.84700 41.16500
H  8.07200 59.64900 41.91400
H  7.74500 60.05300 40.18900
H  4.01600 58.81500 41.15500
H  2.19900 57.04300 42.69800
H  4.86000 57.91700 44.03700
H  3.35400 58.84600 43.77600
H  4.84300 59.57400 43.33300
H  1.74700 58.48400 40.50800
H  0.87900 57.14600 41.16800
H  1.05600 56.14400 39.16800
H  2.92600 56.33500 39.17300
H  1.87900 57.57600 38.57300
H  1.05600 50.71500 43.24200
H  0.41100 51.78000 42.08600
H  0.66200 52.37800 43.78200
H  5.46500 48.80700 42.32300
H  4.94300 46.24900 38.85400
H  3.41400 46.52300 39.82900
H  4.69200 45.29700 40.32500

