79

Mg 53.12600 22.98800 44.04700
C  50.67400 25.40500 43.46800
C  50.97200 20.53700 43.03300
C  55.76000 20.94300 44.01300
C  55.24200 25.55700 45.37200
N  51.13900 23.02900 43.09800
C  50.31700 24.11500 43.05600
C  49.06200 23.68400 42.23900
C  49.02700 22.15400 42.50800
C  50.43800 21.86300 42.85500
C  48.12100 21.74400 43.72900
C  49.22000 23.95000 40.73300
C  47.95600 23.92700 39.99600
H  47.82700 23.30500 38.58100
N  53.35700 20.98800 43.59200
C  52.32400 20.13900 43.27400
C  52.86200 18.80300 43.09700
C  54.29500 18.90400 43.32000
C  54.53200 20.34300 43.66400
C  52.03600 17.63400 42.79300
C  55.30200 17.71600 43.28000
O  54.77400 16.57800 43.18000
C  56.76100 17.81100 43.39500
N  55.21600 23.25500 44.48800
C  56.08700 22.24800 44.33600
C  57.51500 22.66500 44.68700
C  57.35700 24.12300 45.23700
C  55.90200 24.35600 45.04200
C  58.29500 21.72100 45.65600
C  58.27400 25.28600 44.75500
C  59.07500 26.01800 45.78600
N  52.97700 25.07700 44.38400
C  53.84400 25.95500 45.04600
C  53.21900 27.20600 45.20100
C  51.95300 27.10900 44.54900
C  51.91900 25.74700 44.06800
C  53.80200 28.40600 45.85700
C  50.71100 27.74900 44.15800
O  50.23600 28.84700 44.32800
C  49.90500 26.71200 43.33300
C  49.70900 27.21700 41.99000
O  50.53500 27.21800 41.05000
O  48.41400 27.54300 41.86800
C  47.96300 27.99100 40.56700
H  50.17900 19.79800 42.89900
H  56.59300 20.25500 43.85300
H  55.89500 26.33600 45.77200
H  48.14900 24.15200 42.61000
H  48.71300 21.66100 41.58700
H  47.94200 22.67600 44.26500
H  48.58900 20.97500 44.34300
H  47.20300 21.28400 43.36200
H  49.91200 23.18300 40.38400
H  49.69300 24.90900 40.52100
H  47.62900 24.95700 39.85500
H  47.16000 23.41800 40.54000
H  52.32700 17.23500 41.82200
H  50.97300 17.87600 42.79800
H  52.27200 16.91800 43.58100
H  57.09300 18.59200 42.71100
H  57.20500 16.91700 42.95600
H  57.08500 17.96700 44.42400
H  57.95300 22.63500 43.69000
H  57.50600 24.12500 46.31700
H  58.66800 22.26500 46.52300
H  59.19800 21.33000 45.18800
H  57.63700 20.90400 45.95200
H  57.59600 26.00800 44.30000
H  58.99100 24.89500 44.03300
H  60.13600 25.77400 45.73400
H  58.61300 25.83000 46.75600
H  59.04100 27.09100 45.59700
H  53.59100 28.34400 46.92500
H  53.26300 29.30900 45.56800
H  54.88700 28.50500 45.82700
H  48.94300 26.66700 43.84500
H  47.81600 29.07100 40.58200
H  47.04300 27.45100 40.34500
H  48.69000 27.77100 39.78600

