79

Mg 24.15500 -5.47000 45.18300
C  26.42000 -3.04300 43.86700
C  21.67400 -3.98700 43.49900
C  22.50400 -8.28900 45.44300
C  26.91800 -6.84600 46.89600
N  24.18100 -3.68900 43.81700
C  25.11000 -2.87400 43.43900
C  24.57900 -1.80500 42.55000
C  23.11300 -1.82000 42.88900
C  22.92000 -3.23800 43.46000
C  22.50000 -0.76000 43.84900
C  24.80900 -2.05900 41.03500
C  25.30700 -0.86600 40.25200
H  25.07900 -1.01100 38.75500
N  22.30000 -6.08200 44.63000
C  21.40600 -5.27300 43.97500
C  20.19300 -5.99400 43.81900
C  20.42700 -7.28700 44.26000
C  21.78600 -7.29800 44.75900
C  18.91600 -5.37300 43.18400
C  19.34200 -8.45500 44.20900
O  18.24500 -8.33700 43.78400
C  19.75900 -9.87100 44.71700
N  24.63300 -7.28600 46.00400
C  23.71800 -8.28700 46.05600
C  24.36400 -9.50900 46.81500
C  25.54500 -8.86100 47.64000
C  25.71400 -7.60700 46.77000
C  23.29000 -10.17600 47.73700
C  26.68800 -9.72700 47.83800
C  27.22700 -9.76100 49.30300
N  26.17700 -4.95900 45.40600
C  27.20600 -5.66700 46.11000
C  28.35000 -4.95800 46.07100
C  28.18100 -3.92700 45.20900
C  26.79100 -3.96600 44.79300
C  29.55800 -5.34900 46.80300
C  28.77900 -2.78200 44.57700
O  29.90200 -2.28600 44.79200
C  27.74700 -2.30900 43.57500
C  27.52100 -0.77100 43.64900
O  26.98600 -0.17800 44.58300
O  28.11100 -0.05500 42.62000
C  28.03800 1.43500 42.64500
H  20.84800 -3.33700 43.20100
H  22.06400 -9.28200 45.56100
H  27.74700 -7.08500 47.56500
H  25.10600 -0.87000 42.74000
H  22.53100 -1.81900 41.96800
H  23.26100 -0.03300 44.13400
H  22.06500 -1.22900 44.73200
H  21.71900 -0.26600 43.27100
H  23.89700 -2.45200 40.58600
H  25.67900 -2.71300 40.96800
H  26.36900 -0.68800 40.41800
H  24.88200 0.07400 40.60600
H  18.00100 -5.79100 43.60200
H  18.99300 -5.52400 42.10700
H  18.86300 -4.29500 43.33400
H  18.91900 -10.53500 44.51400
H  19.86400 -9.88400 45.80200
H  20.62400 -10.28000 44.19500
H  24.64800 -10.34200 46.17200
H  25.09400 -8.40500 48.52100
H  23.02100 -11.18100 47.41000
H  22.30900 -9.70600 47.67700
H  23.70200 -10.35300 48.73000
H  27.57800 -9.46600 47.26500
H  26.44800 -10.78200 47.70300
H  26.85400 -8.85100 49.77200
H  28.29400 -9.97600 49.35800
H  26.76400 -10.57800 49.85800
H  29.43000 -5.08100 47.85200
H  30.46900 -4.85100 46.47000
H  29.71400 -6.42700 46.77100
H  28.10400 -2.64600 42.60200
H  27.01600 1.71200 42.38400
H  28.45600 1.94200 41.77600
H  28.37300 1.83400 43.60200

