79

Mg 26.53900 0.04200 28.75300
C  28.32600 -0.51400 31.76800
C  23.66000 0.01700 30.66100
C  24.91100 0.59600 25.91300
C  29.48000 -0.87400 26.86600
N  26.10300 -0.28700 30.89600
C  26.98400 -0.17000 31.99700
C  26.32400 0.12600 33.36000
C  24.78800 -0.03100 33.01800
C  24.84500 -0.10400 31.43400
C  24.04600 -1.20100 33.67700
C  26.73700 1.42200 34.14500
C  27.08000 1.17000 35.60500
H  26.50400 1.97800 36.76900
N  24.49700 0.34900 28.38700
C  23.47000 0.19600 29.24300
C  22.21400 0.55000 28.54100
C  22.59500 0.85100 27.14500
C  24.03600 0.59500 27.07600
C  20.80200 0.56400 29.19400
C  21.75600 1.19500 25.93700
O  22.15400 1.54200 24.85500
C  20.25300 1.32300 26.17200
N  27.11700 -0.12500 26.66400
C  26.27800 0.27800 25.74800
C  26.85600 0.17000 24.28800
C  28.36300 -0.14300 24.61900
C  28.32900 -0.41800 26.12200
C  26.22600 -0.88300 23.27600
C  29.30900 1.07500 24.20500
C  30.77800 0.68700 23.81600
N  28.53900 -0.60200 29.18400
C  29.62400 -0.97400 28.26700
C  30.74100 -1.30400 29.09500
C  30.31300 -1.15700 30.38100
C  28.94500 -0.73500 30.47200
C  32.10700 -1.64100 28.69000
C  30.67600 -1.29000 31.82300
O  31.70500 -1.70100 32.39400
C  29.47200 -0.80100 32.68900
C  29.03500 -1.85500 33.63500
O  28.64500 -2.97700 33.30100
O  29.16300 -1.40000 34.92800
C  29.05500 -2.44900 35.90900
H  22.73300 0.14000 31.22500
H  24.47100 0.91800 24.96700
H  30.29400 -1.20100 26.21600
H  26.42300 -0.76300 33.98300
H  24.33300 0.89800 33.36100
H  24.30200 -2.18800 33.29400
H  23.02400 -0.93600 33.40600
H  24.06500 -1.26100 34.76600
H  25.88900 2.10700 34.15300
H  27.62700 1.78800 33.63300
H  28.16400 1.20900 35.71500
H  26.81400 0.15000 35.88200
H  20.39000 1.55700 29.36900
H  20.88200 0.07800 30.16700
H  20.21000 -0.03900 28.50500
H  19.90400 0.29400 26.26100
H  19.85000 1.75800 25.25800
H  19.88000 1.97500 26.96300
H  26.71500 1.16000 23.85600
H  28.68500 -1.02600 24.06700
H  25.23400 -1.06200 23.69000
H  26.85200 -1.75700 23.09700
H  26.00700 -0.40600 22.32000
H  29.35000 1.80200 25.01600
H  28.79400 1.52600 23.35600
H  30.93000 -0.39100 23.77500
H  31.42900 1.11600 24.57800
H  31.11900 1.07600 22.85600
H  32.65900 -0.77800 28.31800
H  31.96900 -2.45600 27.98000
H  32.53000 -2.16700 29.54600
H  29.62200 0.11500 33.26100
H  29.27500 -2.03500 36.89300
H  29.86700 -3.16200 35.76900
H  28.15100 -3.05800 35.92800

