79

Mg 41.38800 8.39000 29.97700
C  43.21800 9.69500 32.75000
C  38.98600 7.51300 32.21100
C  39.87100 7.17900 27.41600
C  44.13300 9.36100 27.93300
N  41.22800 8.54800 32.22300
C  42.02100 9.09000 33.19700
C  41.53700 8.96400 34.62300
C  40.09800 8.31600 34.33200
C  40.11300 8.08400 32.81700
C  39.76200 7.10900 35.18400
C  41.57400 10.33200 35.40300
C  40.64600 10.56300 36.65600
H  41.30000 10.24100 38.03900
N  39.62300 7.39700 29.83100
C  38.77100 7.10800 30.86300
C  37.57100 6.49900 30.29900
C  37.78500 6.58300 28.86400
C  39.17600 6.99800 28.63200
C  36.40200 5.97500 31.10600
C  36.74300 6.31900 27.72600
O  37.01300 6.26800 26.49600
C  35.22900 6.29500 28.03900
N  42.04400 8.17600 27.89200
C  41.10500 7.71000 27.04400
C  41.69600 7.75600 25.61100
C  43.04500 8.61400 25.69900
C  43.06100 8.76500 27.23500
C  41.91800 6.30900 24.98800
C  43.07200 9.96000 24.85200
C  44.18900 10.06600 23.91800
N  43.26300 9.25700 30.19500
C  44.22300 9.77100 29.26300
C  45.34900 10.31600 29.99000
C  44.97400 10.33400 31.30000
C  43.69200 9.64500 31.41400
C  46.47200 10.98900 29.42500
C  45.44200 10.79400 32.59700
O  46.38700 11.47900 32.95100
C  44.35200 10.32600 33.61800
C  44.99600 9.46200 34.59400
O  45.00900 8.22300 34.51400
O  45.44400 10.10500 35.70500
C  45.58100 9.36300 36.99000
H  38.11800 7.42500 32.86800
H  39.36300 6.84700 26.50700
H  44.90700 9.75200 27.26900
H  42.17500 8.26200 35.15900
H  39.30700 9.04700 34.49600
H  39.36300 6.24600 34.65000
H  38.97000 7.50100 35.82300
H  40.58300 6.84500 35.85000
H  41.47700 11.22500 34.78600
H  42.60100 10.40400 35.76000
H  39.77700 9.90600 36.61500
H  40.30600 11.59700 36.71700
H  35.50100 6.58900 31.11200
H  36.87100 5.84000 32.08000
H  36.14000 5.00400 30.68400
H  34.83000 5.46700 28.62500
H  34.73100 6.37600 27.07300
H  34.98000 7.25400 28.49300
H  41.00100 8.36500 25.03200
H  43.94000 8.08200 25.37800
H  41.26700 5.65900 25.57200
H  42.96800 6.04600 25.12100
H  41.56300 6.42400 23.96400
H  43.18100 10.75300 25.59200
H  42.08200 10.09800 24.41600
H  44.68200 11.03400 23.82700
H  43.79500 9.95400 22.90800
H  44.97700 9.31200 23.93300
H  46.67200 12.04200 29.62400
H  46.46200 10.85100 28.34400
H  47.32700 10.34800 29.64100
H  44.04200 11.23900 34.12800
H  45.85400 8.32200 36.81300
H  44.65900 9.34600 37.57100
H  46.34700 9.82500 37.61200

