79

Mg 1.72600 8.86900 26.51400
C  2.43100 10.59100 29.53500
C  1.90500 5.90400 28.45300
C  1.41800 7.06700 23.69600
C  2.11900 11.78800 24.74400
N  2.24600 8.34500 28.68900
C  2.28800 9.26000 29.73100
C  2.18600 8.50700 31.12000
C  2.25800 7.01300 30.73200
C  2.14100 7.04900 29.17800
C  3.56800 6.18500 31.11200
C  0.90600 8.95100 31.94800
C  1.28400 8.96600 33.40600
H  2.42500 8.13600 33.93200
N  1.64000 6.76100 26.15300
C  1.57000 5.70600 27.04900
C  1.50500 4.45800 26.34300
C  1.25200 4.77000 24.98100
C  1.42600 6.25600 24.85100
C  1.65700 3.07500 27.14000
C  1.04100 3.87800 23.79400
O  0.85400 4.27200 22.63100
C  1.01600 2.41300 23.95800
N  1.84700 9.33400 24.54000
C  1.65800 8.44000 23.53600
C  1.77800 9.19600 22.08800
C  1.61200 10.72400 22.47400
C  1.81500 10.63000 24.01100
C  3.06600 8.93800 21.22100
C  0.22500 11.41100 22.25100
C  0.02900 12.31300 21.00800
N  2.13500 10.78400 26.96300
C  2.32500 11.88000 26.10100
C  2.82600 12.99300 26.87000
C  2.75300 12.55900 28.23500
C  2.46400 11.18400 28.23100
C  2.88600 14.38100 26.26900
C  2.82300 12.98800 29.55200
O  3.12900 14.07200 30.00800
C  2.60400 11.72700 30.40500
C  3.67200 11.57900 31.36300
O  4.80100 11.13200 31.16400
O  3.28800 12.01000 32.60900
C  4.25700 11.92200 33.72000
H  1.87700 4.98900 29.04800
H  1.17100 6.58700 22.74700
H  2.21700 12.65800 24.09000
H  3.20000 8.76000 31.42800
H  1.39700 6.51200 31.17400
H  4.09300 5.86200 30.21300
H  3.24700 5.31800 31.68800
H  4.22400 6.80600 31.72200
H  0.05100 8.28600 31.83100
H  0.55100 9.90700 31.56500
H  0.50200 8.80100 34.14700
H  1.65400 9.98000 33.55900
H  0.97800 3.05400 27.99200
H  2.64100 3.15900 27.60000
H  1.64400 2.17200 26.52900
H  0.25200 2.09200 24.66600
H  1.96000 2.11100 24.41200
H  0.90400 1.89200 23.00800
H  0.86100 8.89500 21.58300
H  2.39200 11.37900 22.08500
H  3.40800 7.91900 21.40200
H  3.87900 9.54800 21.61400
H  2.92100 8.98200 20.14100
H  -0.02500 11.75100 23.25600
H  -0.43600 10.57400 22.03100
H  -0.88900 12.00800 20.50400
H  0.86200 12.22500 20.31200
H  -0.01300 13.37600 21.24300
H  3.29200 14.20700 25.27300
H  3.57600 14.90400 26.93200
H  1.96400 14.96000 26.32300
H  1.68600 11.91200 30.96200
H  4.45500 12.83500 34.28100
H  5.22200 11.55300 33.37100
H  3.89000 11.10900 34.34700

