79

Mg -2.19100 35.05000 26.95200
C  -3.59900 33.18200 29.66200
C  -1.12700 37.32400 29.49000
C  -1.07200 37.06500 24.59200
C  -3.77500 33.07600 24.67500
N  -2.31700 35.18300 29.32300
C  -2.88500 34.29400 30.19000
C  -2.74400 34.80600 31.69000
C  -2.05900 36.22900 31.52200
C  -1.85700 36.30900 30.04100
C  -2.79100 37.49800 32.17500
C  -2.01500 33.77600 32.61500
C  -2.85200 33.37900 33.81200
H  -2.10600 32.78400 35.02400
N  -1.09800 36.86200 27.08000
C  -0.78000 37.59200 28.15100
C  0.17200 38.60200 27.71700
C  0.19100 38.59800 26.26700
C  -0.71200 37.55300 25.89000
C  0.94500 39.45500 28.64900
C  0.92500 39.41900 25.22600
O  0.65600 39.38800 24.03600
C  2.08800 40.37900 25.65300
N  -2.41500 35.03900 24.90700
C  -1.89200 35.99500 24.15400
C  -2.01200 35.61800 22.65000
C  -2.83700 34.38300 22.68300
C  -2.97500 34.08100 24.19800
C  -2.51600 36.69500 21.65000
C  -2.42000 33.22000 21.79900
C  -1.68700 32.04600 22.40000
N  -3.54000 33.52400 27.09200
C  -4.03400 32.73300 26.03300
C  -4.94800 31.75700 26.50800
C  -4.70600 31.89100 27.93100
C  -3.85900 32.90200 28.24600
C  -5.76400 30.87000 25.69200
C  -5.05000 31.23600 29.25900
O  -5.68800 30.24900 29.55900
C  -4.33900 32.14800 30.33800
C  -5.35300 32.64300 31.28500
O  -6.00000 33.69400 31.14400
O  -5.58500 31.76400 32.30400
C  -6.63400 32.15700 33.25700
H  -0.87800 38.11000 30.20600
H  -0.68700 37.67100 23.76900
H  -4.27100 32.39200 23.98400
H  -3.74600 34.84000 32.11900
H  -1.03400 36.35300 31.87400
H  -3.25500 38.06000 31.36500
H  -2.00300 38.16700 32.52200
H  -3.47900 37.26700 32.98900
H  -1.04800 34.18500 32.90800
H  -1.88500 32.90100 31.97700
H  -3.57200 32.62200 33.50300
H  -3.43900 34.22200 34.17800
H  0.84800 39.32400 29.72700
H  0.50700 40.44200 28.50400
H  2.00400 39.55200 28.41300
H  3.01400 39.88200 25.94300
H  1.75800 41.12200 26.37900
H  2.40500 40.88900 24.74400
H  -0.99600 35.34800 22.36300
H  -3.79000 34.65500 22.22900
H  -2.75100 37.57500 22.25000
H  -3.36700 36.32800 21.07700
H  -1.72700 36.87500 20.92100
H  -1.81400 33.44100 20.92000
H  -3.38200 32.87100 21.42100
H  -0.90300 31.79000 21.68600
H  -2.36800 31.21600 22.58500
H  -1.15200 32.26200 23.32500
H  -6.41300 31.33300 24.94900
H  -6.49100 30.34500 26.31200
H  -5.15900 30.02700 25.35900
H  -3.58700 31.59700 30.90100
H  -7.62400 32.45400 32.90900
H  -6.38200 33.08000 33.77900
H  -6.67200 31.38600 34.02600

