79

Mg 26.58700 51.01800 26.91100
C  24.23000 52.04000 29.27800
C  28.80200 50.41900 29.53000
C  28.86200 50.45300 24.57900
C  24.35700 52.18300 24.49400
N  26.36600 51.02800 29.11600
C  25.27400 51.37000 29.88100
C  25.41200 50.97400 31.38600
C  27.05400 50.81300 31.48300
C  27.47200 50.64300 29.95000
C  27.82300 51.81900 32.32200
C  24.58400 49.77000 31.75800
C  23.70000 49.92500 33.02600
H  23.63500 48.77400 33.99100
N  28.54900 50.41200 27.00700
C  29.25500 50.17800 28.19900
C  30.54500 49.70100 27.79400
C  30.67000 49.71400 26.35200
C  29.34800 50.17000 25.90500
C  31.63000 49.23000 28.85600
C  31.81000 49.30700 25.44500
O  31.83200 49.57100 24.26100
C  32.97400 48.51300 25.97600
N  26.72300 51.49400 24.81000
C  27.70900 51.02900 24.04100
C  27.41600 51.25800 22.50900
C  25.86800 51.55900 22.61600
C  25.67400 51.85500 24.03300
C  28.22300 52.40100 21.93200
C  24.94700 50.38000 22.19100
C  24.02000 50.58800 20.99700
N  24.69800 51.89600 26.83800
C  23.89100 52.30300 25.78700
C  22.63200 52.84600 26.26900
C  22.71800 52.70400 27.65300
C  23.97900 52.15100 27.93000
C  21.52300 53.59800 25.51100
C  22.01500 52.91400 28.91200
O  20.83000 53.20500 29.16100
C  23.01300 52.54100 30.02200
C  23.24500 53.65000 30.93600
O  23.59900 54.80400 30.68300
O  22.99700 53.16400 32.20900
C  23.48400 54.00500 33.37100
H  29.51200 50.27400 30.34700
H  29.58100 50.30700 23.77100
H  23.66800 52.41100 23.67700
H  25.15400 51.87600 31.94100
H  27.28300 49.86700 31.97400
H  28.63300 51.27400 32.80600
H  27.09400 52.36800 32.91900
H  28.45000 52.48400 31.72700
H  25.28000 48.95400 31.95100
H  23.90200 49.49700 30.95200
H  22.70000 50.09500 32.62600
H  23.92500 50.89700 33.46600
H  31.46600 49.53700 29.88900
H  32.46900 49.87700 28.59900
H  31.94800 48.18900 28.79700
H  32.58000 47.63700 26.49200
H  33.59000 49.16600 26.59400
H  33.58900 48.20200 25.13100
H  27.54000 50.37600 21.88100
H  25.48500 52.46600 22.14700
H  29.17500 52.45100 22.46100
H  27.73900 53.37100 22.04300
H  28.43000 52.17500 20.88600
H  24.21800 50.05800 22.93400
H  25.64000 49.61300 21.84600
H  22.99000 50.50200 21.34300
H  24.16600 49.89700 20.16700
H  24.11100 51.59100 20.57900
H  21.00000 54.36400 26.08300
H  20.74700 52.88000 25.24500
H  21.96600 54.07000 24.63500
H  22.62000 51.66100 30.53300
H  24.34400 53.44500 33.73700
H  22.68800 53.99700 34.11500
H  23.67700 55.07700 33.31900

