79

Mg 26.11700 51.26000 25.55400
C  23.78700 52.13200 27.98800
C  28.35000 50.61600 27.89000
C  28.45400 50.93800 23.11400
C  23.83400 52.32300 23.04000
N  26.11600 51.49600 27.72200
C  24.99400 51.80100 28.55100
C  25.31500 51.49600 29.98500
C  26.88300 51.20100 29.92000
C  27.17500 51.04900 28.45100
C  27.87000 52.23200 30.47000
C  24.42100 50.37700 30.60500
C  23.61300 50.79900 31.83400
H  23.92900 50.11000 33.13900
N  28.02100 50.68400 25.48300
C  28.74700 50.42600 26.57100
C  30.11300 50.05800 26.15800
C  30.17400 50.18100 24.76900
C  28.84300 50.60500 24.40300
C  31.19000 49.69800 27.08400
C  31.35500 49.96000 23.79900
O  31.35100 50.02800 22.54500
C  32.68700 49.41900 24.33000
N  26.22200 51.75400 23.40100
C  27.23700 51.37800 22.64100
C  27.11500 51.97400 21.25400
C  25.57200 52.09500 21.11500
C  25.18900 52.18900 22.60000
C  28.03000 53.17800 20.99900
C  24.82900 50.90400 20.46500
C  24.15400 51.20500 19.10400
N  24.22600 52.03600 25.43800
C  23.37100 52.30700 24.35900
C  22.05900 52.78300 24.84800
C  22.24600 52.77900 26.23000
C  23.48900 52.21100 26.58200
C  20.95400 53.28200 24.00200
C  21.49600 53.00500 27.38400
O  20.37700 53.51400 27.59800
C  22.51600 52.55900 28.56900
C  22.67600 53.65500 29.57500
O  23.26500 54.71900 29.45500
O  22.04200 53.37900 30.71300
C  21.88000 54.42600 31.75200
H  29.08400 50.36500 28.65900
H  29.23100 50.72800 22.37600
H  23.17400 52.41600 22.17500
H  25.30100 52.42500 30.55600
H  27.02300 50.24700 30.42900
H  27.50000 53.25000 30.34300
H  28.88900 52.19600 30.08600
H  27.73200 52.06300 31.53800
H  25.11500 49.56900 30.83500
H  23.68600 50.03000 29.87900
H  22.56400 50.69900 31.55500
H  23.83900 51.85800 31.96400
H  31.33600 48.61900 27.13800
H  30.99400 49.98200 28.11800
H  32.14700 50.17700 26.87600
H  32.49400 48.49100 24.86900
H  32.99900 50.30700 24.88000
H  33.37600 49.31200 23.49300
H  27.37100 51.15300 20.58500
H  25.37400 53.02000 20.57400
H  27.45500 54.05500 20.70500
H  28.66400 52.88000 20.16400
H  28.64200 53.49200 21.84500
H  24.07800 50.48400 21.13500
H  25.48000 50.03200 20.40300
H  23.25400 50.59300 19.03600
H  24.84900 51.01000 18.28700
H  23.79500 52.22000 19.26700
H  20.73800 52.56700 23.20800
H  21.35000 54.12500 23.43500
H  20.06600 53.56100 24.56900
H  22.10800 51.71600 29.12700
H  22.44900 54.13200 32.63400
H  20.81300 54.51400 31.95700
H  22.21500 55.42000 31.45600

