79

Mg 1.72100 42.49200 25.45000
C  3.87100 42.40800 28.08700
C  -0.89100 41.15400 27.47900
C  -0.17000 41.81800 22.74500
C  4.41300 43.33300 23.31300
N  1.56400 41.78200 27.53400
C  2.57200 42.01300 28.39700
C  2.02600 41.67000 29.85100
C  0.59900 41.14200 29.57000
C  0.33600 41.48900 28.13100
C  0.26800 39.61200 30.00800
C  2.12900 42.95800 30.72900
C  2.49300 42.69300 32.25200
H  2.22700 41.31500 32.90700
N  -0.37400 41.76500 25.17300
C  -1.24400 41.27200 26.08300
C  -2.50500 40.97500 25.35900
C  -2.31200 41.27100 23.95600
C  -0.90700 41.60400 23.92700
C  -3.68800 40.34200 26.15800
C  -3.24500 41.17700 22.76700
O  -2.97800 41.49600 21.60900
C  -4.61500 40.64400 23.01100
N  2.08700 42.54800 23.33500
C  1.12100 42.24200 22.44600
C  1.65400 42.47700 21.02600
C  3.03900 43.34100 21.27900
C  3.14500 43.16000 22.71100
C  1.89000 41.15400 20.34100
C  3.02100 44.78300 20.73300
C  2.18100 45.74900 21.57500
N  3.76200 42.92400 25.61700
C  4.73600 43.21900 24.69500
C  6.00600 43.23400 25.36500
C  5.72800 42.95300 26.69000
C  4.38300 42.79000 26.77900
C  7.36200 43.61700 24.75300
C  6.29500 42.76200 28.01400
O  7.47900 42.81900 28.33300
C  5.07100 42.41800 28.99500
C  5.43400 41.15600 29.66500
O  5.23000 40.12000 29.19800
O  5.92800 41.39900 30.85700
C  5.83000 40.28400 31.78100
H  -1.67100 40.85400 28.18300
H  -0.70900 41.63400 21.81300
H  5.24000 43.44800 22.61000
H  2.65900 40.90700 30.30400
H  -0.05000 41.77500 30.17400
H  -0.03800 38.98100 29.17400
H  -0.47600 39.70100 30.80000
H  1.21600 39.20100 30.35200
H  1.22300 43.56100 30.65700
H  2.89000 43.66300 30.39600
H  1.92200 43.44200 32.80000
H  3.53200 43.02000 32.28500
H  -3.34200 40.34700 27.19200
H  -3.86600 39.28400 25.96500
H  -4.59300 40.92400 25.98300
H  -5.26300 40.87600 22.16600
H  -5.14300 41.09500 23.85200
H  -4.57400 39.56100 23.12600
H  1.00800 43.15200 20.46400
H  3.94800 42.87700 20.89600
H  1.19200 40.43700 20.77400
H  2.92600 40.89600 20.56000
H  1.68300 41.37300 19.29300
H  2.60900 44.75200 19.72400
H  3.99700 45.23600 20.55900
H  1.42700 46.05000 20.84700
H  2.73600 46.62300 21.91800
H  1.66600 45.18000 22.34900
H  7.21700 44.33400 23.94400
H  7.95000 42.80500 24.32600
H  7.95300 44.08800 25.53800
H  4.93500 43.29600 29.62600
H  6.81000 39.82000 31.66600
H  5.10600 39.48500 31.61900
H  5.71600 40.68100 32.79000

