79

Mg 44.01100 3.59300 47.67100
C  41.87800 6.37200 47.09000
C  41.34800 1.55900 47.23500
C  46.13700 1.03300 47.72100
C  46.74600 5.88100 47.35500
N  41.84400 3.90300 47.17800
C  41.17600 5.12700 47.06700
C  39.69800 4.81400 46.84100
C  39.50100 3.41800 47.35200
C  40.98600 2.87100 47.36200
C  38.67300 3.14500 48.60700
C  39.29800 4.97500 45.35500
C  38.37500 6.14500 45.05300
H  37.64500 6.07800 43.63200
N  43.74700 1.54100 47.53300
C  42.59700 0.88900 47.44300
C  42.81200 -0.57300 47.57800
C  44.20600 -0.73800 47.75500
C  44.78300 0.63800 47.66100
C  41.70800 -1.65900 47.45900
C  44.93800 -2.08400 48.00300
O  44.30500 -3.13800 47.86100
C  46.46200 -2.22800 48.34700
N  46.13400 3.46500 47.40900
C  46.74100 2.22900 47.65000
C  48.23000 2.42500 47.80300
C  48.44600 3.92900 47.38100
C  47.03100 4.49300 47.48000
C  48.77400 2.15800 49.20000
C  49.09900 4.14600 46.02900
C  48.48500 3.36800 44.77100
N  44.32500 5.68000 47.22600
C  45.44000 6.47100 47.23500
C  45.05900 7.88100 47.16900
C  43.68700 7.83500 47.08500
C  43.25100 6.52300 47.10700
C  46.00000 9.01400 47.15900
C  42.47600 8.67300 47.03100
O  42.44900 9.85200 47.01100
C  41.29600 7.76000 46.94100
C  40.28400 8.14700 47.93700
O  40.40200 8.04700 49.14700
O  39.08300 8.50300 47.34400
C  37.87100 8.60100 48.22700
H  40.51200 0.85700 47.22700
H  46.83800 0.20400 47.84300
H  47.51200 6.65200 47.46200
H  39.18200 5.64800 47.31700
H  38.97700 2.81300 46.61100
H  39.38000 3.07300 49.43400
H  37.98200 2.30600 48.52300
H  38.03600 4.00400 48.81400
H  38.80000 4.11600 44.90400
H  40.24200 5.17300 44.84800
H  38.91800 7.05100 44.78200
H  37.74100 6.32400 45.92200
H  42.10500 -2.32200 46.69100
H  40.75500 -1.31100 47.06100
H  41.59400 -2.24200 48.37300
H  47.04900 -2.27100 47.43000
H  46.56700 -3.17700 48.87300
H  46.77600 -1.45900 49.05300
H  48.90400 1.82400 47.19200
H  49.00100 4.47100 48.14700
H  49.33300 1.22200 49.20700
H  48.00400 2.07900 49.96700
H  49.49200 2.93100 49.47500
H  50.11700 3.75900 46.07200
H  49.14500 5.18200 45.69500
H  48.98600 2.46000 44.43600
H  48.64600 3.99600 43.89500
H  47.41600 3.20700 44.90900
H  46.74500 9.05000 47.95400
H  45.37500 9.90700 47.14900
H  46.47400 8.88200 46.18600
H  40.79000 7.95000 45.99500
H  37.97900 7.85500 49.01400
H  37.01700 8.30600 47.61800
H  37.85700 9.62100 48.61100

