79

Mg -2.24000 34.58700 26.49700
C  -3.92700 32.65500 29.02000
C  -1.25100 36.72300 28.96700
C  -1.03400 36.63300 24.05400
C  -4.05800 32.84100 24.12500
N  -2.49200 34.57100 28.77800
C  -3.18300 33.67700 29.56400
C  -2.91700 33.99900 31.06300
C  -2.28400 35.47000 30.97500
C  -1.94300 35.62300 29.51400
C  -2.86700 36.73000 31.64000
C  -2.14900 32.88100 31.72600
C  -2.78100 32.19900 32.94300
H  -2.05500 32.11000 34.24500
N  -1.16100 36.37900 26.51500
C  -0.81600 37.05800 27.64000
C  0.06200 38.16400 27.24100
C  0.15900 38.07700 25.80900
C  -0.77000 37.04400 25.39100
C  0.88100 38.99100 28.23900
C  1.05600 38.80500 24.84300
O  0.99400 38.65200 23.60700
C  2.17500 39.58300 25.46100
N  -2.54400 34.72400 24.48300
C  -1.90400 35.60300 23.71800
C  -2.36800 35.50300 22.29000
C  -2.91100 34.06200 22.21800
C  -3.20200 33.82500 23.70700
C  -3.50700 36.50400 21.81800
C  -1.89000 33.08300 21.50500
C  -0.55900 32.61900 22.14600
N  -3.64300 33.11600 26.49700
C  -4.25500 32.44500 25.44600
C  -5.07800 31.31300 25.89300
C  -4.93200 31.40300 27.31400
C  -4.04200 32.45200 27.59100
C  -5.83400 30.39400 25.10800
C  -5.36300 30.76800 28.59300
O  -6.12600 29.79600 28.77600
C  -4.71400 31.54000 29.66700
C  -5.82000 32.14500 30.42700
O  -6.37800 33.19200 30.13800
O  -6.04100 31.49700 31.64400
C  -6.94300 32.17800 32.57600
H  -0.99400 37.36700 29.81200
H  -0.63900 37.17200 23.19100
H  -4.66200 32.40800 23.32500
H  -3.90100 34.11800 31.51800
H  -1.36000 35.38200 31.54600
H  -3.88300 36.47800 31.94400
H  -3.11200 37.50800 30.91600
H  -2.21300 37.17300 32.39100
H  -1.18200 33.31000 31.98900
H  -1.98600 32.18500 30.90300
H  -3.07400 31.19200 32.64400
H  -3.80000 32.55500 33.10000
H  0.53100 39.03500 29.27100
H  0.84000 40.01000 27.85400
H  1.93200 38.70500 28.20600
H  2.86400 39.60700 24.61700
H  2.71900 38.97500 26.18400
H  1.92100 40.60600 25.73700
H  -1.62800 35.72800 21.52100
H  -3.86700 33.92100 21.71400
H  -3.30400 36.89400 20.82000
H  -3.57500 37.38600 22.45400
H  -4.42600 35.91600 21.83500
H  -1.64200 33.47800 20.52000
H  -2.49600 32.18200 21.41200
H  0.20800 32.48200 21.38300
H  -0.55400 31.62000 22.58300
H  -0.10500 33.26900 22.89400
H  -5.74100 30.61000 24.04400
H  -6.88300 30.53600 25.37100
H  -5.61400 29.33300 25.23100
H  -4.19000 30.97700 30.44000
H  -7.76400 31.53700 32.89700
H  -7.43000 33.03800 32.11600
H  -6.44400 32.49400 33.49300

