79

Mg 25.20800 -6.52300 48.06300
C  27.81700 -4.51000 46.69700
C  23.05900 -5.47200 45.54500
C  23.15900 -9.18400 48.65300
C  27.65200 -8.02200 49.97200
N  25.46400 -5.19500 46.25100
C  26.57800 -4.32400 46.03100
C  26.19900 -3.33500 44.95000
C  24.60100 -3.52100 44.71000
C  24.32400 -4.80700 45.52100
C  23.63100 -2.37400 45.11400
C  27.03300 -3.53000 43.65600
C  27.43300 -2.17800 42.93300
H  27.06800 -1.93100 41.53800
N  23.34400 -7.23300 47.33600
C  22.65000 -6.61600 46.25900
C  21.49100 -7.43500 45.91200
C  21.45100 -8.50700 46.88000
C  22.70400 -8.34900 47.63700
C  20.52800 -7.28400 44.72400
C  20.42500 -9.62300 46.91700
O  19.46500 -9.69200 46.11600
C  20.39600 -10.67100 47.95600
N  25.34700 -8.27500 49.25100
C  24.33100 -9.16500 49.41200
C  24.71100 -10.27900 50.41700
C  26.17100 -10.02700 50.72000
C  26.44400 -8.68600 49.96600
C  23.68800 -10.25200 51.53500
C  27.20400 -11.10500 50.20200
C  27.75000 -11.94500 51.39300
N  27.27100 -6.13200 48.54000
C  28.13900 -6.86700 49.32200
C  29.35600 -6.20500 49.31300
C  29.27900 -5.20800 48.35800
C  27.99800 -5.31800 47.78600
C  30.56000 -6.66700 49.98100
C  29.94500 -4.14600 47.65600
O  31.07200 -3.74000 47.87500
C  29.07400 -3.68200 46.53100
C  28.77600 -2.17900 46.75400
O  29.47100 -1.29400 46.26800
O  27.64200 -2.01600 47.55100
C  27.23500 -0.72500 47.99300
H  22.34100 -5.10500 44.80900
H  22.56200 -10.09500 48.73300
H  28.45300 -8.48300 50.55300
H  26.25600 -2.35700 45.42700
H  24.39400 -3.68800 43.65300
H  23.63900 -1.66600 44.28600
H  24.20700 -1.81100 45.84800
H  22.63400 -2.71300 45.39400
H  26.44100 -4.04500 42.90000
H  27.88400 -4.20900 43.71800
H  28.47800 -1.97400 43.16600
H  26.83700 -1.42100 43.44100
H  20.93400 -6.60100 43.97900
H  19.55300 -6.91500 45.04300
H  20.43900 -8.22600 44.18400
H  21.28200 -11.28400 47.79400
H  19.55000 -11.35000 47.85300
H  20.35400 -10.24000 48.95600
H  24.65600 -11.20900 49.85200
H  26.36000 -9.86000 51.78100
H  22.70600 -10.53000 51.15200
H  23.64000 -9.34700 52.14100
H  23.81200 -11.10800 52.19800
H  28.08600 -10.55600 49.87400
H  26.63400 -11.56900 49.39800
H  28.70200 -12.24900 50.95700
H  27.10600 -12.73900 51.77100
H  28.05700 -11.39600 52.28300
H  31.16100 -7.06700 49.16500
H  30.32400 -7.32800 50.81600
H  31.04600 -5.74600 50.30400
H  29.57200 -3.88100 45.58200
H  26.75000 -0.90400 48.95200
H  26.51600 -0.34600 47.26700
H  28.10900 -0.07500 48.03400

