79

Mg 40.25800 41.40000 27.37900
C  39.38300 43.64400 29.96500
C  41.53000 39.28800 29.76400
C  41.32500 39.33900 24.90800
C  39.63700 43.94400 25.03300
N  40.37900 41.41100 29.72600
C  39.75100 42.34100 30.46500
C  39.83400 41.90600 31.98400
C  40.79000 40.70300 31.89800
C  40.98900 40.42900 30.40400
C  42.20100 41.01100 32.59400
C  38.34700 41.83300 32.48000
C  37.95500 42.63200 33.76200
H  38.99600 42.58600 34.91500
N  41.22400 39.49200 27.33800
C  41.75500 38.83500 28.44000
C  42.25800 37.58200 27.97800
C  42.10200 37.46500 26.53200
C  41.51500 38.76300 26.21900
C  42.97000 36.58100 28.87000
C  42.55900 36.39900 25.62100
O  42.60100 36.64400 24.43700
C  43.02700 35.00300 26.09900
N  40.58900 41.66300 25.37400
C  40.90500 40.63700 24.54500
C  40.83600 41.07200 23.10800
C  39.95200 42.32900 23.15300
C  40.11800 42.69900 24.62300
C  42.13700 41.38300 22.32100
C  38.43100 42.07400 22.78400
C  37.69000 40.78400 23.12100
N  39.75700 43.41200 27.40700
C  39.58000 44.33200 26.37500
C  39.07600 45.57000 26.90400
C  38.99500 45.37600 28.30200
C  39.36000 43.94600 28.53300
C  38.75500 46.74400 26.08800
C  38.65600 45.87600 29.60200
O  38.21300 47.04200 29.76500
C  38.94600 44.92900 30.72000
C  39.99300 45.52800 31.68000
O  41.20000 45.37300 31.58900
O  39.33600 46.17000 32.73300
C  40.09400 46.89000 33.75400
H  41.79000 38.49600 30.46900
H  41.71300 38.83300 24.02100
H  39.60100 44.64900 24.20000
H  40.25700 42.75100 32.52700
H  40.22100 39.88400 32.33900
H  42.82700 41.61300 31.93600
H  42.64700 40.01600 32.57300
H  42.08700 41.45700 33.58200
H  38.02300 40.82400 32.73700
H  37.67100 42.12000 31.67400
H  36.99400 42.21400 34.06200
H  37.72100 43.60500 33.33000
H  43.10700 36.86200 29.91400
H  43.99800 36.38100 28.56800
H  42.53200 35.58400 28.82200
H  43.44500 34.48900 25.23300
H  42.19800 34.43500 26.52100
H  43.82100 35.12200 26.83600
H  40.30300 40.24400 22.64100
H  40.26900 43.09900 22.44900
H  42.25500 42.43800 22.07400
H  42.19300 40.93100 21.33000
H  42.94800 40.99300 22.93600
H  38.32000 42.40200 21.75000
H  38.00100 42.91100 23.33400
H  37.21300 40.47400 22.19200
H  36.96500 40.96900 23.91400
H  38.37900 39.99900 23.43400
H  38.98200 47.59200 26.73500
H  37.68800 46.87800 25.90700
H  39.42500 46.71500 25.23000
H  37.97700 44.76000 31.18900
H  40.79400 47.64100 33.38800
H  40.74000 46.18100 34.27200
H  39.49600 47.35100 34.54000

