79

Mg 34.68700 3.35600 29.38000
C  32.49200 4.30100 32.04700
C  37.11400 3.02000 31.90600
C  37.04400 2.75100 27.08700
C  32.29600 3.72200 27.14400
N  34.79200 3.84300 31.73900
C  33.78200 3.95800 32.52700
C  34.14800 3.74300 33.97800
C  35.65300 3.47400 33.88400
C  35.86400 3.41300 32.41900
C  36.47200 4.64000 34.52200
C  33.45500 2.62100 34.78600
C  32.78000 2.99400 36.18800
H  33.54400 4.04800 37.08700
N  36.76900 2.84500 29.46900
C  37.54100 2.74100 30.58200
C  38.87100 2.34000 30.24000
C  38.88900 2.11900 28.82900
C  37.55200 2.64400 28.35500
C  39.87000 2.16400 31.32300
C  40.00400 1.62500 27.97200
O  39.90300 1.61200 26.69600
C  41.23600 1.17300 28.58200
N  34.70300 3.48200 27.33200
C  35.74500 3.07500 26.61400
C  35.37400 2.99000 25.05200
C  33.84400 3.02800 25.11200
C  33.52300 3.38500 26.60700
C  36.00100 4.12500 24.16800
C  33.22900 1.67100 24.80000
C  31.76600 1.56100 24.49100
N  32.83400 4.00500 29.48900
C  31.91400 4.04800 28.44000
C  30.58900 4.49100 28.99700
C  30.84000 4.64300 30.36000
C  32.20600 4.33900 30.65100
C  29.28600 4.62300 28.17800
C  30.22300 5.05600 31.59000
O  29.04300 5.40700 31.84100
C  31.24400 4.68600 32.74100
C  31.38100 5.90500 33.66100
O  31.92700 6.92300 33.36200
O  30.72600 5.67400 34.87500
C  30.94300 6.76300 35.81900
H  37.79000 2.76800 32.72500
H  37.79000 2.43900 26.35300
H  31.41000 3.67800 26.50700
H  33.96100 4.71900 34.42700
H  35.95000 2.51100 34.29900
H  37.37000 4.29400 35.03200
H  35.83400 5.10400 35.27400
H  36.72100 5.35500 33.73700
H  34.05400 1.72800 34.95900
H  32.60000 2.19900 34.25800
H  32.64200 2.17100 36.88900
H  31.80400 3.39400 35.91100
H  39.60100 1.13800 31.57600
H  39.59300 2.87200 32.10300
H  40.93300 2.25600 31.09900
H  40.94200 0.51000 29.39500
H  41.81900 1.96100 29.05900
H  41.86200 0.75700 27.79300
H  35.74800 2.01100 24.75400
H  33.26700 3.70600 24.48300
H  36.62600 4.80800 24.74200
H  35.20300 4.69000 23.68500
H  36.59000 3.67000 23.37100
H  33.60900 1.02000 25.58800
H  33.71600 1.23500 23.92800
H  31.22300 2.45800 24.19400
H  31.40200 1.24600 25.46800
H  31.61400 0.86500 23.66600
H  29.23400 4.20300 27.17400
H  29.07200 5.69200 28.18500
H  28.48800 4.14600 28.74600
H  30.77000 3.91400 33.34600
H  30.50600 6.48500 36.77800
H  30.48400 7.66500 35.41500
H  32.02500 6.88600 35.88000

