79

Mg 44.83700 4.31200 47.40600
C  43.21200 7.29600 46.54600
C  41.85700 2.59800 46.52300
C  46.55000 1.48700 47.50000
C  47.84700 6.14500 47.83400
N  42.79200 4.88900 46.55100
C  42.37900 6.18300 46.34100
C  40.94500 6.21800 45.70900
C  40.46800 4.79800 46.07100
C  41.76200 4.04500 46.39700
C  39.32500 4.74900 47.19100
C  40.95000 6.55200 44.23400
C  39.85800 7.51800 43.76800
H  39.36900 7.52900 42.31400
N  44.28300 2.37900 46.99700
C  42.99500 1.84500 46.81800
C  43.15000 0.38100 46.87500
C  44.50900 0.10800 47.01200
C  45.14400 1.37800 47.21000
C  41.93800 -0.64400 46.67300
C  45.12200 -1.31800 46.77000
O  44.37500 -2.29000 46.55100
C  46.52200 -1.61500 46.77400
N  46.88400 3.87600 47.47300
C  47.25900 2.62500 47.72500
C  48.78400 2.57300 48.05200
C  49.23900 4.08700 48.16900
C  47.87900 4.70200 47.88600
C  49.24800 1.58900 49.18700
C  50.44000 4.66800 47.32700
C  50.50100 4.36500 45.85300
N  45.41800 6.31600 47.15300
C  46.66800 6.92900 47.40300
C  46.48900 8.37600 47.23000
C  45.12800 8.58200 46.91800
C  44.57900 7.30300 46.85000
C  47.57800 9.36800 47.24400
C  44.08200 9.54800 46.65600
O  44.13400 10.75400 46.54300
C  42.84600 8.72200 46.28000
C  41.83200 9.12600 47.26000
O  41.75100 8.76700 48.42100
O  41.05800 10.11300 46.71400
C  39.91900 10.68000 47.45500
H  40.98400 1.94700 46.43500
H  47.11400 0.56300 47.63900
H  48.78300 6.66600 48.04100
H  40.43700 6.90800 46.38200
H  39.98800 4.35600 45.19800
H  38.98300 5.70700 47.58200
H  39.77500 4.26000 48.05500
H  38.49100 4.17800 46.78300
H  40.71000 5.72500 43.56500
H  41.88600 6.97400 43.86900
H  40.34300 8.48300 43.91600
H  38.91300 7.45500 44.30700
H  42.03600 -1.04100 45.66200
H  40.97800 -0.13700 46.76600
H  42.00600 -1.35300 47.49800
H  46.89600 -1.55500 47.79600
H  47.12000 -0.94000 46.16100
H  46.70300 -2.58700 46.31400
H  49.22400 2.17600 47.13600
H  49.41100 4.21700 49.23700
H  50.11500 2.09400 49.61200
H  49.58800 0.64400 48.76300
H  48.36200 1.47800 49.81100
H  51.37600 4.35500 47.78900
H  50.45100 5.74600 47.48700
H  51.53200 4.07900 45.64700
H  50.19600 5.27900 45.34200
H  49.83800 3.52400 45.64800
H  47.18900 10.33800 47.55400
H  48.07800 9.42500 46.27700
H  48.30000 9.06700 48.00300
H  42.53000 8.93700 45.25900
H  39.30200 9.81600 47.70100
H  39.27100 11.38100 46.92900
H  40.25900 11.21100 48.34400

