79

Mg 45.36400 4.08500 45.31700
C  43.25700 6.96600 45.41700
C  42.50600 2.22100 44.68300
C  47.36200 1.45800 44.77800
C  48.14600 6.28700 45.16000
N  43.12500 4.56800 45.01000
C  42.55400 5.82200 44.98200
C  41.02700 5.78700 44.74400
C  40.76100 4.22900 44.87700
C  42.21700 3.60900 44.88300
C  39.94600 3.75600 46.12400
C  40.43600 6.37400 43.50600
C  41.33400 6.31400 42.24900
H  40.64500 6.45000 40.92500
N  44.98700 2.08900 44.91700
C  43.77100 1.54000 44.61600
C  43.94200 0.06900 44.37500
C  45.33400 -0.12800 44.60800
C  45.96000 1.13300 44.84200
C  42.72800 -0.91000 44.11900
C  45.96300 -1.50600 44.50900
O  45.25500 -2.48100 44.15300
C  47.36300 -1.73500 44.95400
N  47.45200 3.88400 45.02900
C  48.00700 2.67500 44.94900
C  49.51500 2.76500 44.65600
C  49.78500 4.28600 44.76300
C  48.40100 4.88900 45.05400
C  50.55900 1.88800 45.40500
C  50.44000 4.80900 43.42500
C  51.95000 4.76000 43.39000
N  45.71500 6.23000 45.23400
C  46.85800 6.97100 45.22700
C  46.50600 8.44000 45.39800
C  45.10400 8.42800 45.64300
C  44.70500 7.10400 45.39200
C  47.42100 9.62200 45.24400
C  43.97300 9.27100 45.98200
O  43.91700 10.47500 46.34500
C  42.76100 8.34000 45.73600
C  41.96400 8.36400 46.96900
O  42.17100 7.65100 47.97400
O  40.96900 9.29900 46.92500
C  40.15000 9.35700 48.14100
H  41.61200 1.63200 44.46800
H  48.06900 0.65400 44.56300
H  49.06800 6.87200 45.15500
H  40.43100 6.19900 45.55800
H  40.19900 3.90800 44.00000
H  40.52800 3.40600 46.97700
H  39.32200 2.88000 45.94800
H  39.27400 4.54600 46.45900
H  40.25500 7.41000 43.79100
H  39.44800 5.94800 43.33600
H  41.80700 5.33200 42.20700
H  42.07600 7.06100 42.53000
H  42.51600 -1.54000 44.98300
H  43.01400 -1.43400 43.20700
H  41.78300 -0.38000 44.00100
H  47.45200 -2.80300 45.15200
H  47.64000 -1.08800 45.78700
H  48.01400 -1.45100 44.12700
H  49.65400 2.40000 43.63800
H  50.49700 4.59400 45.52900
H  50.07500 1.24200 46.13800
H  51.30800 2.47100 45.94100
H  51.05300 1.25300 44.67000
H  50.12700 5.84100 43.27000
H  50.16300 4.18500 42.57600
H  52.30800 4.18100 42.53900
H  52.38400 4.18400 44.20700
H  52.42200 5.73800 43.29000
H  48.29500 9.24100 44.71600
H  47.67100 9.85700 46.27900
H  46.94200 10.55200 44.93900
H  42.07400 8.72100 44.98100
H  39.60000 8.42800 48.29500
H  39.44800 10.18900 48.19900
H  40.69700 9.44300 49.08000

