79

Mg 26.98500 49.39100 25.26500
C  24.81000 50.50600 28.05100
C  29.08100 48.28500 27.73600
C  28.94800 48.63300 22.77200
C  24.68200 50.90900 23.07600
N  26.80200 49.35000 27.70300
C  25.94600 49.86500 28.56800
C  26.27500 49.55400 29.95600
C  27.83800 49.12500 29.89400
C  27.92500 48.85400 28.34800
C  28.88800 50.05300 30.49300
C  25.42200 48.39600 30.60700
C  24.85500 48.64100 31.97400
H  25.88000 49.20500 32.99700
N  28.73600 48.57800 25.28100
C  29.44900 48.05700 26.36000
C  30.74800 47.55800 25.86000
C  30.79100 47.79200 24.45000
C  29.46500 48.40200 24.07900
C  31.71200 46.95400 26.82700
C  32.05300 47.63800 23.59500
O  32.17300 48.21300 22.52400
C  33.26000 46.93000 24.11100
N  26.81900 49.65100 23.20900
C  27.76300 49.18800 22.31900
C  27.25500 49.27400 20.90800
C  25.93300 50.03100 21.00900
C  25.77600 50.23100 22.50800
C  28.21700 49.71100 19.83800
C  24.76500 49.29100 20.33500
C  23.96400 50.07600 19.31600
N  25.12300 50.45200 25.51100
C  24.29200 50.95300 24.50600
C  23.20400 51.68900 25.10900
C  23.37100 51.55500 26.46600
C  24.54800 50.78000 26.69700
C  22.16400 52.46700 24.34500
C  22.79100 51.92000 27.74600
O  21.81700 52.52900 28.04200
C  23.71000 51.17900 28.83800
C  24.12900 52.15500 29.86600
O  24.97600 53.00100 29.79100
O  23.43100 51.92100 31.04100
C  23.95800 52.71900 32.11400
H  29.80300 47.98800 28.50000
H  29.53200 48.25400 21.93000
H  23.90500 51.32900 22.43500
H  26.16000 50.43600 30.58500
H  27.93900 48.24400 30.52800
H  29.43500 49.37500 31.14900
H  28.39300 50.89500 30.97700
H  29.60100 50.38500 29.73800
H  25.99800 47.48400 30.76100
H  24.62500 48.11200 29.91900
H  24.44800 47.71600 32.38200
H  24.03400 49.35700 31.93400
H  31.33900 46.60300 27.79000
H  32.48200 47.71300 26.96100
H  32.21400 46.11200 26.35200
H  33.16900 45.86300 24.31500
H  33.55000 47.30900 25.09200
H  34.12600 47.02600 23.45600
H  26.97300 48.25700 20.63600
H  25.99300 51.01200 20.53700
H  28.57000 48.77900 19.39700
H  29.09000 50.16000 20.31300
H  27.78700 50.32400 19.04600
H  24.17800 48.91300 21.17200
H  25.17100 48.37700 19.90100
H  22.91600 49.78200 19.24900
H  24.30400 49.76900 18.32700
H  24.00900 51.16100 19.41700
H  21.16800 52.19100 24.69300
H  22.29500 52.28400 23.27800
H  22.44400 53.43600 24.75900
H  23.09100 50.46900 29.38700
H  23.57100 52.26700 33.02800
H  23.62600 53.75800 32.10100
H  25.04700 52.77100 32.11200

