79

Mg 45.99300 17.05800 28.41700
C  44.52900 16.63000 31.70000
C  48.54500 18.58900 29.94000
C  47.11800 17.56600 25.33700
C  43.14600 15.34000 27.10300
N  46.40200 17.59500 30.56500
C  45.79000 17.30900 31.72700
C  46.52000 17.73800 32.94600
C  47.69200 18.49300 32.36700
C  47.54600 18.25300 30.84400
C  47.75200 20.04100 32.54200
C  47.05400 16.43100 33.73200
C  47.05100 16.46200 35.22600
H  46.90900 17.73900 36.03700
N  47.59100 17.98000 27.74400
C  48.56800 18.61800 28.55500
C  49.61300 19.10900 27.64900
C  49.19400 18.75200 26.28100
C  47.98100 18.05300 26.38100
C  50.75600 20.02600 27.95900
C  49.93700 19.00500 24.93400
O  49.45700 18.72900 23.86000
C  51.31700 19.63600 24.93600
N  45.18300 16.54500 26.60600
C  45.90400 16.90100 25.46700
C  45.12000 16.52600 24.17300
C  43.94600 15.66300 24.75400
C  44.06000 15.89800 26.21000
C  44.53000 17.78500 23.46200
C  44.00700 14.11600 24.44900
C  44.98600 13.29800 25.25300
N  44.19700 16.19300 29.20400
C  43.19100 15.52100 28.50700
C  42.12800 15.15700 29.45200
C  42.64700 15.50800 30.75000
C  43.89400 16.17100 30.55300
C  40.86800 14.39700 29.01300
C  42.34800 15.53300 32.12600
O  41.32400 15.16600 32.67600
C  43.55000 16.28700 32.86100
C  42.99600 17.45800 33.51800
O  42.58700 18.45500 32.90200
O  42.98300 17.27600 34.88600
C  42.38100 18.28600 35.68400
H  49.37900 19.17700 30.32900
H  47.47800 17.59500 24.30600
H  42.38700 14.65000 26.72800
H  45.89900 18.32900 33.61900
H  48.65100 18.16100 32.76300
H  47.52300 20.48500 31.57300
H  48.78900 20.22800 32.82200
H  47.04100 20.32100 33.31900
H  48.04000 16.08900 33.41700
H  46.32700 15.67100 33.44700
H  47.95900 15.96800 35.57300
H  46.19900 15.89300 35.59800
H  50.46300 21.02300 27.63000
H  51.68800 19.68600 27.50800
H  50.89100 20.08800 29.03900
H  52.08900 19.23400 25.59100
H  51.28900 20.67700 25.25800
H  51.54800 19.65600 23.87100
H  45.79900 16.01600 23.48900
H  42.98200 16.09100 24.48100
H  43.47500 17.87200 23.20300
H  45.10700 17.86300 22.54000
H  44.85000 18.62700 24.07600
H  44.28500 14.06000 23.39700
H  43.02400 13.66200 24.57400
H  44.55000 12.83800 26.13900
H  45.85200 13.89300 25.54300
H  45.36700 12.49600 24.61900
H  40.44500 14.87000 28.12600
H  40.17400 14.63200 29.81900
H  40.92800 13.34100 28.74900
H  44.04200 15.60800 33.55600
H  42.55500 19.25000 35.20700
H  42.93600 18.31600 36.62100
H  41.34500 17.96300 35.79200

