79

Mg -1.73000 33.76300 27.53800
C  -3.32800 32.17700 30.03800
C  -0.15700 35.77100 29.87100
C  -0.33500 35.62700 25.01200
C  -3.50100 31.83700 25.23000
N  -1.98300 34.16600 29.73900
C  -2.52200 33.23600 30.55200
C  -2.09400 33.50200 31.97700
C  -1.20600 34.82000 31.94000
C  -1.10100 34.97500 30.44300
C  -1.77000 36.11300 32.72200
C  -1.35200 32.24000 32.56500
C  -1.81500 31.64600 33.86600
H  -1.02900 31.86200 35.16700
N  -0.42000 35.51500 27.51600
C  0.21200 36.09900 28.56100
C  1.18800 37.01400 28.08900
C  1.06200 37.11100 26.69100
C  0.11600 36.00200 26.33400
C  1.98100 37.89500 29.05000
C  1.74700 38.10400 25.73800
O  1.47000 38.11100 24.57000
C  2.88400 38.95700 26.30400
N  -1.82100 33.75900 25.47700
C  -1.17300 34.61600 24.67900
C  -1.41700 34.19400 23.21200
C  -2.42500 33.02400 23.23400
C  -2.59200 32.81800 24.75700
C  -1.88300 35.39100 22.20000
C  -1.86400 31.72700 22.51700
C  -0.67000 31.07800 23.16600
N  -3.14900 32.27000 27.57500
C  -3.72000 31.51400 26.61000
C  -4.58500 30.42400 27.24300
C  -4.47100 30.68900 28.57900
C  -3.63200 31.84900 28.74900
C  -5.41500 29.33600 26.45500
C  -4.99700 30.32800 29.81600
O  -5.82200 29.44300 30.08400
C  -4.28400 31.18500 30.79700
C  -5.28800 31.87700 31.65800
O  -5.80700 32.93200 31.34500
O  -5.50800 31.20800 32.80200
C  -6.60200 31.64700 33.61100
H  0.31100 36.31200 30.69500
H  0.15200 36.14200 24.18100
H  -4.00000 31.27600 24.43700
H  -2.87500 33.75800 32.69400
H  -0.20400 34.51400 32.24100
H  -2.38900 36.82000 32.17000
H  -0.95300 36.76500 33.03300
H  -2.27200 35.73300 33.61200
H  -0.32300 32.49400 32.82000
H  -1.34600 31.42600 31.84000
H  -1.96000 30.56900 33.78300
H  -2.82100 31.97000 34.13200
H  2.14600 37.46200 30.03700
H  1.56800 38.88600 29.24000
H  2.99400 38.02400 28.66700
H  2.64500 39.66600 27.09600
H  3.20300 39.48100 25.40300
H  3.59100 38.17500 26.58400
H  -0.44700 33.84700 22.85700
H  -3.37100 33.21400 22.72600
H  -2.97200 35.37100 22.24700
H  -1.42700 35.36000 21.21100
H  -1.65100 36.39700 22.55000
H  -1.50800 32.00700 21.52600
H  -2.64300 30.97500 22.39700
H  -0.35300 31.57500 24.08300
H  0.15900 31.13300 22.46000
H  -0.83400 30.02400 23.39100
H  -5.32500 28.46100 27.09900
H  -5.06100 29.19600 25.43400
H  -6.47000 29.60600 26.42400
H  -3.60900 30.48200 31.28600
H  -6.97100 32.61300 33.26500
H  -6.24800 31.85100 34.62100
H  -7.45900 30.98100 33.51300

