79

Mg -1.75800 17.41600 26.73200
C  -2.49400 15.22700 29.31200
C  -2.66800 20.01200 28.89100
C  -1.73500 19.51500 24.13800
C  -1.51800 14.69500 24.55000
N  -2.39700 17.60400 28.90400
C  -2.55100 16.55200 29.81600
C  -2.82200 16.99600 31.27400
C  -3.04800 18.52800 30.99100
C  -2.72900 18.74900 29.48400
C  -4.48600 18.99200 31.35900
C  -1.59500 16.78200 32.24800
C  -1.71700 17.31500 33.65500
H  -1.75000 16.23300 34.75400
N  -1.95600 19.50300 26.58700
C  -2.34200 20.36300 27.59800
C  -2.35600 21.73000 27.08400
C  -2.01700 21.64300 25.68400
C  -1.88900 20.21400 25.39600
C  -2.80800 22.89100 27.86100
C  -1.84200 22.73000 24.71200
O  -1.77400 22.53800 23.49100
C  -1.75000 24.15900 25.19300
N  -1.52900 17.11900 24.52600
C  -1.54700 18.19000 23.74600
C  -1.41400 17.74400 22.30900
C  -1.23900 16.21700 22.43100
C  -1.43600 16.00400 23.88900
C  -2.65200 18.14400 21.38900
C  0.18900 15.83300 21.95800
C  1.37300 16.25900 22.98300
N  -2.01200 15.36800 26.86200
C  -1.83100 14.35200 25.86700
C  -2.12300 13.12000 26.53100
C  -2.49600 13.47600 27.79900
C  -2.35100 14.79600 27.97100
C  -2.28600 11.74300 25.81700
C  -2.97300 12.89100 28.99900
O  -3.24100 11.74300 29.18600
C  -2.95400 14.02300 30.04500
C  -1.85200 13.62000 30.97100
O  -0.63100 13.74000 30.81900
O  -2.33900 13.09100 32.15100
C  -1.55500 12.18800 33.06700
H  -2.92400 20.90900 29.45800
H  -1.59500 20.15700 23.26700
H  -1.43600 13.79300 23.94100
H  -3.66800 16.48100 31.72800
H  -2.44500 19.24200 31.55100
H  -4.31000 19.87900 31.96700
H  -5.17400 18.28200 31.81800
H  -4.94800 19.36500 30.44400
H  -0.73000 17.24900 31.77700
H  -1.37000 15.71600 32.22700
H  -2.64000 17.89400 33.67600
H  -0.86100 17.92600 33.94200
H  -3.45200 23.47400 27.20300
H  -1.92200 23.48000 28.09800
H  -3.35600 22.71300 28.78600
H  -0.94000 24.05500 25.91400
H  -2.71200 24.33900 25.67300
H  -1.60600 24.94200 24.44800
H  -0.51600 18.23000 21.92500
H  -2.03200 15.62100 21.98000
H  -3.08700 17.36300 20.76400
H  -2.40800 19.06100 20.85200
H  -3.55400 18.31300 21.97800
H  0.34900 16.12700 20.92100
H  0.17800 14.74400 21.90700
H  1.02700 16.84400 23.83500
H  2.15500 16.79300 22.44400
H  1.83400 15.39500 23.46200
H  -2.81800 11.90700 24.88000
H  -2.79000 11.02900 26.46800
H  -1.30400 11.30700 25.63600
H  -3.91000 14.35600 30.45000
H  -0.90300 11.55400 32.46700
H  -2.22400 11.44600 33.50300
H  -0.99100 12.64500 33.88000

