79

Mg 40.97500 10.02700 30.20600
C  43.07000 10.95100 32.69000
C  38.76500 8.69800 32.59200
C  38.92100 8.78800 27.76400
C  43.20200 11.07300 27.79800
N  40.95400 9.80000 32.43300
C  41.89100 10.35000 33.20000
C  41.35600 10.46100 34.65800
C  40.10200 9.53100 34.64300
C  39.87000 9.31400 33.15000
C  40.19500 8.08800 35.42100
C  41.11300 11.95900 35.10200
C  41.77100 12.32400 36.48200
H  40.89000 12.74000 37.68500
N  39.18900 8.81800 30.21700
C  38.50000 8.39200 31.31100
C  37.33700 7.68000 30.88500
C  37.28900 7.71400 29.43300
C  38.50000 8.44300 29.07500
C  36.36000 6.99900 31.87400
C  36.31000 7.06500 28.38400
O  36.49400 7.05600 27.12900
C  35.28600 6.05900 28.86100
N  41.18200 9.76200 27.98500
C  40.01400 9.43000 27.29200
C  40.31900 9.62800 25.79700
C  41.73700 10.29400 25.79800
C  42.00000 10.51100 27.25800
C  40.16700 8.44200 24.88000
C  42.03100 11.48200 24.80300
C  41.21400 12.72400 25.21100
N  42.86000 10.70800 30.24000
C  43.57400 11.15400 29.19200
C  44.79800 11.76600 29.69400
C  44.64500 11.74600 31.06300
C  43.45900 11.01400 31.35600
C  45.85700 12.28000 28.78400
C  45.20700 12.16100 32.25300
O  46.30100 12.73100 32.47600
C  44.18200 11.66800 33.46200
C  44.88700 10.81200 34.45100
O  44.91200 9.58600 34.61000
O  45.50600 11.67600 35.36400
C  46.04600 11.02600 36.60000
H  38.05100 8.40400 33.36400
H  38.31200 8.29200 27.00600
H  43.84300 11.53800 27.04700
H  42.17500 9.94900 35.16400
H  39.32600 10.14400 35.10300
H  40.71300 8.34600 36.34500
H  40.68200 7.27600 34.88100
H  39.19500 7.78200 35.72900
H  40.08000 12.28600 35.22700
H  41.50500 12.59100 34.30500
H  42.49900 13.11200 36.29100
H  42.40600 11.47600 36.73900
H  36.50100 7.15300 32.94300
H  36.19900 5.94600 31.63900
H  35.43100 7.48800 31.58100
H  34.48800 6.60000 29.37100
H  35.77400 5.37800 29.55700
H  34.92300 5.37900 28.09000
H  39.55200 10.33500 25.48100
H  42.42300 9.58200 25.34100
H  40.88700 8.37300 24.06400
H  39.14100 8.38700 24.51500
H  40.33400 7.59000 25.53800
H  41.71300 11.25700 23.78500
H  43.10400 11.66400 24.75800
H  40.62300 12.53900 26.10700
H  40.55100 13.13100 24.44800
H  41.85500 13.53600 25.55500
H  45.49000 13.15800 28.25100
H  46.15800 11.56000 28.02300
H  46.75300 12.40500 29.39200
H  43.80800 12.57300 33.94300
H  46.87900 10.38300 36.31600
H  45.28700 10.45900 37.13800
H  46.65700 11.64900 37.25300

