79

Mg 1.53000 8.50800 26.57900
C  2.02600 10.35400 29.42600
C  1.67200 5.64700 28.45500
C  1.09600 6.77800 23.75000
C  1.85700 11.48200 24.69300
N  1.64400 8.03600 28.75200
C  1.80600 8.99000 29.68000
C  1.67000 8.33200 31.05300
C  1.96700 6.84600 30.76400
C  1.70900 6.84100 29.22300
C  3.42200 6.47000 31.05900
C  0.29800 8.54300 31.67100
C  0.12900 8.72200 33.16900
H  1.31500 8.43800 34.13200
N  1.42800 6.46800 26.16200
C  1.36500 5.42300 27.08100
C  1.00800 4.21400 26.42600
C  1.02600 4.52200 25.06000
C  1.16800 5.98700 24.92600
C  0.85600 2.86400 27.11300
C  0.81800 3.62400 23.89100
O  0.67900 4.06500 22.74900
C  0.68100 2.16700 24.11900
N  1.39600 9.12300 24.58000
C  1.22400 8.16700 23.60700
C  1.28000 8.83400 22.18900
C  1.03800 10.30400 22.55800
C  1.53200 10.34500 24.01500
C  2.52400 8.73900 21.30400
C  -0.44200 10.71300 22.52300
C  -0.99500 11.44500 21.29500
N  2.02700 10.52200 26.95600
C  2.16800 11.61300 26.09300
C  2.39800 12.82200 26.86700
C  2.40700 12.30800 28.20200
C  2.13000 10.95900 28.18800
C  2.45700 14.15400 26.45200
C  2.53000 12.72700 29.60900
O  2.85100 13.79900 30.07400
C  2.21200 11.48000 30.43800
C  3.46100 11.28900 31.20800
O  4.44900 10.66000 30.91400
O  3.37200 12.06300 32.30000
C  4.51900 11.94400 33.28600
H  1.72300 4.68200 28.96400
H  0.97600 6.35400 22.75100
H  1.57400 12.36100 24.11100
H  2.41100 8.78400 31.71100
H  1.27000 6.16300 31.25100
H  3.40200 5.69300 31.82300
H  4.08700 7.32000 31.21100
H  3.92700 5.92100 30.26400
H  -0.31500 7.69100 31.37600
H  -0.15500 9.35000 31.09500
H  -0.68000 8.03700 33.42200
H  -0.15000 9.74800 33.41000
H  0.56400 3.03500 28.14900
H  1.84900 2.41500 27.07600
H  0.14700 2.15200 26.69100
H  1.61200 1.80900 24.55900
H  0.46800 1.51000 23.27600
H  -0.24900 2.06000 24.67600
H  0.41800 8.62000 21.55800
H  1.63500 11.02900 22.00500
H  3.09100 7.80800 21.33400
H  3.21700 9.51800 21.61800
H  2.21100 8.95500 20.28200
H  -0.59600 11.37800 23.37200
H  -1.11600 9.89700 22.78400
H  -1.70200 10.84400 20.72100
H  -0.16300 11.61700 20.61200
H  -1.38100 12.44800 21.47200
H  1.85700 14.80700 27.08600
H  2.09700 14.30700 25.43400
H  3.46300 14.57300 26.48100
H  1.30300 11.62800 31.02200
H  4.55700 11.01200 33.85000
H  4.50300 12.82400 33.93000
H  5.40300 11.92800 32.64800

