79

Mg 52.85800 23.54600 43.54200
C  50.02700 25.76700 43.27000
C  50.89200 20.93600 43.23400
C  55.66800 21.79800 43.30900
C  54.80600 26.63700 43.89100
N  50.69000 23.36800 42.97900
C  49.69400 24.39200 43.14300
C  48.33800 23.69400 43.18300
C  48.69500 22.28100 43.74400
C  50.14900 22.17800 43.24200
C  48.58600 22.07300 45.27900
C  47.44300 23.74900 41.93800
C  48.18600 23.96000 40.65500
H  47.54800 23.31200 39.37400
N  53.25800 21.63400 43.08000
C  52.30500 20.65500 43.06300
C  52.93100 19.43700 42.82400
C  54.33000 19.65400 42.93400
C  54.45300 21.10300 43.13800
C  52.18000 18.07200 42.93300
C  55.46700 18.61300 42.83200
O  55.13500 17.43500 42.63600
C  56.97300 18.86200 43.00500
N  54.94600 24.15100 43.42000
C  55.90300 23.19300 43.49600
C  57.25500 23.80800 43.75500
C  57.01200 25.35800 43.64500
C  55.45600 25.38800 43.65600
C  57.84200 23.34400 45.05500
C  57.49700 25.88300 42.27600
C  58.86000 26.62100 42.46500
N  52.48100 25.75800 43.75000
C  53.35800 26.79200 43.91200
C  52.61600 28.01000 44.20100
C  51.30900 27.67900 43.89600
C  51.25900 26.28300 43.51300
C  53.16600 29.32200 44.73600
C  49.94700 28.17000 43.81000
O  49.39900 29.23800 44.02900
C  49.13400 27.00200 43.21900
C  48.78500 27.37500 41.84100
O  49.46800 27.21500 40.85900
O  47.51100 27.90100 41.75000
C  46.96500 28.05400 40.37300
H  50.21900 20.11100 43.47700
H  56.60400 21.23500 43.29300
H  55.33400 27.58400 44.02200
H  47.79000 24.29200 43.91100
H  48.15000 21.49800 43.21700
H  48.33300 23.04400 45.70400
H  49.54800 21.77100 45.69500
H  47.76400 21.40300 45.53100
H  46.71800 24.54800 42.09500
H  46.91600 22.80300 41.82000
H  49.23300 23.65900 40.64600
H  48.17700 25.01900 40.39800
H  51.14900 18.03500 42.58000
H  52.05700 17.78800 43.97800
H  52.69900 17.34700 42.30500
H  57.58800 17.98300 42.81000
H  57.29300 19.35700 43.92100
H  57.21400 19.51100 42.16300
H  57.96800 23.40100 43.03800
H  57.43400 25.85100 44.52200
H  58.41500 22.43200 44.88200
H  57.04200 23.30100 45.79400
H  58.52700 24.08400 45.47000
H  56.74000 26.52400 41.82500
H  57.60400 24.98700 41.66500
H  58.95900 27.21000 43.37700
H  58.95100 27.40000 41.70800
H  59.75900 26.00800 42.40600
H  52.48900 29.65400 45.52400
H  53.09100 30.09900 43.97500
H  54.10200 29.24500 45.29000
H  48.25400 26.89300 43.85200
H  46.27600 27.21100 40.32400
H  47.64900 27.92300 39.53400
H  46.24900 28.86500 40.24100

