79

Mg 1.38900 42.17800 25.52700
C  2.78500 42.02500 28.59400
C  -1.67700 41.23300 26.80700
C  0.15900 42.00400 22.32900
C  4.56200 42.33400 24.13600
N  0.69400 41.62100 27.47100
C  1.39200 41.87700 28.58500
C  0.48600 41.95000 29.79800
C  -0.87100 41.46200 29.24300
C  -0.61700 41.28000 27.77000
C  -1.35000 40.04700 29.92900
C  0.44200 43.29800 30.65900
C  0.93700 42.91800 32.09300
H  0.03100 43.12100 33.36200
N  -0.47100 41.79100 24.71700
C  -1.60700 41.44700 25.37700
C  -2.69900 41.27100 24.53800
C  -2.26200 41.42600 23.21900
C  -0.79900 41.72900 23.39600
C  -4.05900 40.94100 25.00800
C  -3.03700 41.28100 21.91100
O  -2.52200 41.27600 20.81500
C  -4.59600 41.02800 21.90600
N  2.26800 42.17900 23.54500
C  1.51800 42.21900 22.40400
C  2.38800 42.36400 21.14400
C  3.77400 42.72800 21.77800
C  3.53600 42.45200 23.25000
C  2.48400 41.11500 20.22500
C  4.17100 44.16600 21.36600
C  5.04100 44.29600 20.15900
N  3.30500 42.09700 26.21200
C  4.49700 42.17200 25.54200
C  5.60500 42.06000 26.52800
C  4.98900 42.13400 27.79000
C  3.57800 42.06500 27.51800
C  7.10100 42.18500 26.14900
C  5.15600 42.10200 29.22100
O  6.17500 42.04600 29.90500
C  3.68100 42.08300 29.83200
C  3.53300 41.04300 30.82000
O  3.26000 39.86300 30.64100
O  3.98500 41.58400 32.05100
C  4.20200 40.62500 33.13800
H  -2.56100 40.98500 27.39700
H  -0.14500 42.00500 21.28100
H  5.53000 42.72500 23.81500
H  0.92300 41.05000 30.23100
H  -1.68500 42.17300 29.38500
H  -2.43000 40.12200 30.05900
H  -0.77000 39.75700 30.80600
H  -1.09500 39.35700 29.12500
H  -0.54000 43.76600 30.58700
H  1.02100 44.02200 30.08600
H  1.83000 43.53500 32.18700
H  1.27700 41.90100 32.29300
H  -4.28800 39.94000 24.64200
H  -4.84300 41.65500 24.75500
H  -4.04100 40.95300 26.09800
H  -4.95500 41.02500 20.87700
H  -5.07100 41.86000 22.42400
H  -4.90300 40.07200 22.33100
H  1.97600 43.16500 20.53000
H  4.46800 41.94800 21.46700
H  2.28300 40.18400 20.75600
H  3.46700 41.07100 19.75600
H  1.84900 41.15300 19.34100
H  4.55700 44.72000 22.22200
H  3.28700 44.70000 21.01700
H  4.52600 44.42800 19.20800
H  5.62600 43.37700 20.10900
H  5.76500 45.09800 20.30000
H  7.51200 43.18800 26.02800
H  7.31500 41.62500 25.23900
H  7.69600 41.65800 26.89500
H  3.53700 43.06000 30.29200
H  4.65900 41.24900 33.90700
H  4.90100 39.82500 32.89500
H  3.21300 40.29600 33.45800

