79

Mg 6.91500 54.11600 40.90500
C  6.76100 50.38800 41.07800
C  10.22500 53.65600 40.29000
C  6.96800 57.37000 40.17400
C  3.43600 54.08800 41.20000
N  8.34000 52.19400 40.60100
C  8.05800 50.84400 40.66800
C  9.31400 50.03300 40.43100
C  10.47500 51.09300 40.52900
C  9.66400 52.39200 40.47100
C  11.33100 51.00200 41.81400
C  9.20400 49.14300 39.12600
C  9.12500 49.93500 37.80400
H  7.76400 49.96700 37.11200
N  8.39000 55.33600 40.31400
C  9.69400 54.91500 40.14200
C  10.49800 56.09700 39.88500
C  9.63200 57.25500 40.06900
C  8.26500 56.71200 40.21600
C  11.99600 56.01000 39.50300
C  10.11600 58.63000 40.02200
O  11.26500 58.91500 39.71600
C  9.13200 59.73800 40.41400
N  5.40900 55.47400 40.49900
C  5.68100 56.82200 40.21400
C  4.45500 57.60500 40.15800
C  3.27800 56.46800 40.12200
C  4.05600 55.29500 40.73700
C  4.22500 58.45600 41.47400
C  2.87000 56.13500 38.65100
C  1.63600 56.69300 37.96000
N  5.35100 52.62500 41.17200
C  4.06000 52.79900 41.37500
C  3.47400 51.54600 41.84000
C  4.49600 50.59900 41.73200
C  5.65700 51.29100 41.32800
C  2.07500 51.36700 42.38600
C  4.79900 49.18900 41.85100
O  4.06700 48.33900 42.32600
C  6.30300 48.95500 41.33700
C  6.01100 48.11400 40.14000
O  5.22900 48.47400 39.26300
O  6.55500 46.82500 40.19700
C  6.29400 45.92400 39.01600
H  11.23400 53.60000 39.87600
H  6.90000 58.45500 40.07900
H  2.34600 54.13100 41.24100
H  9.26400 49.37300 41.29700
H  11.16600 50.97800 39.69400
H  11.32400 50.02800 42.30300
H  11.14400 51.74600 42.58900
H  12.37700 51.13300 41.53900
H  8.36700 48.44900 39.20100
H  10.07600 48.49200 39.18600
H  9.88300 49.44700 37.19200
H  9.48900 50.93200 38.05300
H  12.02500 55.61100 38.48800
H  12.58200 55.29700 40.08200
H  12.54100 56.95100 39.58300
H  8.59100 60.06100 39.52500
H  9.77000 60.50600 40.85100
H  8.42300 59.45400 41.19200
H  4.46300 58.24700 39.27700
H  2.46100 56.79500 40.76400
H  4.78600 58.06300 42.32200
H  3.14200 58.52200 41.57200
H  4.66500 59.45300 41.45000
H  2.74700 55.05400 38.57300
H  3.66500 56.45100 37.97600
H  1.14400 57.48200 38.52700
H  0.84700 55.94200 37.93100
H  1.88800 57.10700 36.98300
H  1.44300 50.88100 41.64400
H  1.58300 52.33600 42.47700
H  1.99400 50.76300 43.29000
H  6.86800 48.39300 42.08100
H  5.54100 45.24600 39.41800
H  7.10800 45.27400 38.69600
H  5.77900 46.36200 38.16100

