79

Mg 8.91800 3.71300 27.79700
C  10.48700 2.03600 30.51100
C  6.83800 5.19700 29.89900
C  7.47500 4.99500 25.12100
C  10.84300 1.49700 25.74400
N  8.70900 3.59200 29.84500
C  9.51000 3.02100 30.83000
C  9.19200 3.60100 32.26900
C  7.94200 4.46600 32.07000
C  7.84600 4.44300 30.50100
C  6.74500 3.84300 32.84100
C  10.37500 4.07000 33.14700
C  10.09400 5.17300 34.25000
H  10.47800 4.79000 35.69000
N  7.32700 4.92200 27.54600
C  6.55600 5.47500 28.53300
C  5.48000 6.23100 27.96700
C  5.77900 6.38000 26.57500
C  6.88900 5.38600 26.33100
C  4.42800 6.86000 28.71500
C  5.13400 7.17300 25.45900
O  5.50300 7.12400 24.28200
C  4.15800 8.21100 25.89500
N  9.10200 3.16600 25.73500
C  8.46200 4.03800 24.84400
C  8.83000 3.71000 23.41200
C  9.91300 2.57100 23.61300
C  9.93100 2.31900 25.10400
C  7.55700 3.19700 22.59900
C  11.31600 2.88600 23.08600
C  11.79500 1.78900 22.16600
N  10.31100 2.07100 28.04100
C  11.01000 1.25300 27.09900
C  11.81200 0.29500 27.77700
C  11.69600 0.64200 29.11300
C  10.71100 1.63700 29.21400
C  12.68900 -0.76600 27.13000
C  12.11600 0.28800 30.47000
O  12.96900 -0.51300 30.89100
C  11.37400 1.19900 31.38900
C  10.60700 0.42200 32.43500
O  9.45700 -0.01700 32.31400
O  11.33500 0.42600 33.59900
C  10.59600 0.27300 34.87100
H  6.10900 5.59700 30.60700
H  7.24800 5.48600 24.17200
H  11.43400 0.79800 25.14900
H  8.92300 2.71100 32.83800
H  8.16500 5.48900 32.37400
H  5.97900 3.63000 32.09600
H  6.29000 4.60100 33.47700
H  6.75600 2.94800 33.46300
H  11.19400 4.41900 32.51800
H  10.71100 3.17400 33.66800
H  9.07500 5.55900 34.24100
H  10.68200 6.07200 34.06300
H  4.26900 6.51100 29.73500
H  3.43500 6.90800 28.26800
H  4.73600 7.89700 28.84200
H  3.29400 7.63300 26.22300
H  3.85900 8.91700 25.12000
H  4.50400 8.80800 26.73900
H  9.32100 4.60900 23.03900
H  9.51500 1.67300 23.14200
H  6.68500 3.22400 23.25300
H  7.66800 2.16800 22.25800
H  7.36500 3.75200 21.68000
H  11.98200 3.10000 23.92100
H  11.28600 3.82400 22.53100
H  12.21600 2.34900 21.33100
H  11.05000 1.11700 21.74100
H  12.56300 1.23000 22.70200
H  12.02300 -1.31100 26.46100
H  13.09700 -1.46300 27.86100
H  13.54200 -0.31200 26.62600
H  12.14000 1.86700 31.78300
H  9.90500 -0.56200 34.98800
H  10.10700 1.23100 35.05100
H  11.31400 0.09600 35.67200

