79

Mg 0.75700 7.96200 27.40500
C  1.44000 10.28300 29.92500
C  0.80100 5.40300 29.67900
C  0.11200 5.69300 24.95600
C  1.08500 10.51300 25.10900
N  1.08500 7.87000 29.52400
C  1.17400 8.92100 30.38200
C  1.15600 8.40700 31.84800
C  1.10600 6.82700 31.70800
C  1.08200 6.66500 30.19400
C  2.35700 6.05700 32.22800
C  -0.03400 9.06300 32.62300
C  -0.14900 8.82300 34.14100
H  0.96400 8.19400 34.96700
N  0.46500 5.92200 27.34000
C  0.61600 4.97000 28.38200
C  0.36000 3.62400 27.89600
C  0.06000 3.70400 26.54100
C  0.16800 5.17000 26.21000
C  0.28100 2.42300 28.83600
C  -0.30800 2.58300 25.50600
O  -0.74500 2.79400 24.40700
C  -0.29600 1.16500 25.86300
N  0.67400 8.12800 25.32900
C  0.31100 7.05600 24.55600
C  0.07300 7.46800 23.08500
C  0.42800 8.99300 23.14000
C  0.75200 9.26700 24.64600
C  0.97600 6.62400 22.08200
C  -0.57600 10.02700 22.50500
C  0.01800 10.98200 21.46900
N  1.35100 9.93600 27.41800
C  1.41100 10.86000 26.40900
C  1.83100 12.16300 26.94100
C  1.92400 11.95000 28.30300
C  1.53900 10.60600 28.58300
C  2.13300 13.41700 26.16000
C  2.34200 12.59900 29.59900
O  2.71800 13.76000 29.77800
C  2.00900 11.44600 30.69100
C  3.23600 11.14700 31.48100
O  4.20800 10.44800 31.12400
O  3.14600 11.70300 32.69200
C  4.21100 11.52400 33.65000
H  0.63400 4.63900 30.44000
H  -0.02800 4.91600 24.20100
H  1.00300 11.35700 24.42000
H  2.14400 8.70800 32.19900
H  0.18900 6.35900 32.06600
H  2.43900 5.07400 31.76600
H  2.22000 5.98700 33.30700
H  3.26400 6.64900 32.10900
H  -0.93500 8.71800 32.11500
H  -0.17000 10.10600 32.33300
H  -1.08100 8.30700 34.37300
H  -0.12300 9.82600 34.56900
H  -0.72500 2.00400 28.83100
H  0.40100 2.72500 29.87700
H  0.92900 1.57200 28.62500
H  0.55400 0.88900 26.48800
H  -0.05900 0.66400 24.92400
H  -1.22200 0.79700 26.30500
H  -0.99800 7.33600 22.93300
H  1.38000 9.06700 22.61500
H  1.18600 7.17100 21.16300
H  0.22800 5.84500 21.93400
H  1.92900 6.24900 22.45600
H  -0.86600 10.60700 23.38200
H  -1.48400 9.62400 22.05700
H  -0.75900 11.29900 20.77300
H  0.94900 10.58900 21.06300
H  0.41200 11.91500 21.87200
H  1.15900 13.71500 25.76900
H  2.83200 13.34300 25.32700
H  2.47700 14.23700 26.79100
H  1.23600 11.73600 31.40400
H  5.00700 10.80600 33.45000
H  3.63300 11.19700 34.51500
H  4.67200 12.48600 33.87200

