79

Mg -0.85100 17.77400 27.77800
C  -1.72600 15.63800 30.43700
C  -1.67500 20.31000 29.77800
C  -0.77900 19.67800 25.05700
C  -0.63400 14.99900 25.68400
N  -1.66200 17.99400 29.93400
C  -1.91100 16.98600 30.79100
C  -2.09400 17.54600 32.19400
C  -2.18900 19.05300 31.91500
C  -1.87100 19.10400 30.44200
C  -3.61600 19.61600 32.32100
C  -0.96200 17.12100 33.17300
C  -0.51900 18.22000 34.29500
H  0.45100 17.70200 35.30400
N  -1.04100 19.76100 27.55700
C  -1.31700 20.69400 28.49300
C  -1.17700 21.98300 27.90600
C  -0.99300 21.86600 26.50300
C  -0.93700 20.38400 26.34000
C  -1.45400 23.26200 28.65800
C  -0.72500 22.87600 25.37900
O  -0.67100 22.49900 24.21900
C  -0.71700 24.33200 25.70800
N  -0.69600 17.40900 25.71100
C  -0.61400 18.39900 24.77200
C  -0.50400 17.86900 23.32400
C  -0.08600 16.42400 23.63800
C  -0.50900 16.24900 25.10300
C  -1.77400 18.16300 22.52200
C  1.34700 16.21500 23.36800
C  2.40500 16.62200 24.38900
N  -1.13700 15.78300 27.99400
C  -0.95200 14.77200 27.02400
C  -1.25800 13.40700 27.60000
C  -1.53200 13.67800 28.97900
C  -1.42700 15.15900 29.13000
C  -1.36600 12.18200 26.82600
C  -1.82800 13.09900 30.25400
O  -1.89200 11.91500 30.53500
C  -1.91900 14.34400 31.32400
C  -0.68500 14.12200 32.21100
O  0.38800 14.64000 32.03600
O  -1.10600 13.43200 33.34500
C  -0.15300 13.46100 34.43700
H  -1.91300 21.09800 30.49500
H  -0.95100 20.23300 24.13300
H  -0.52700 14.15000 25.00500
H  -3.07700 17.16300 32.46800
H  -1.44300 19.59100 32.50100
H  -4.28000 19.39300 31.48600
H  -3.46100 20.67900 32.50900
H  -4.05300 19.19000 33.22400
H  -0.05100 16.93200 32.60400
H  -1.26200 16.28000 33.79800
H  -1.39600 18.75800 34.65500
H  0.18200 18.93400 33.86200
H  -2.10800 23.84500 28.00900
H  -0.47800 23.72100 28.81400
H  -1.98700 23.00100 29.57200
H  -0.22400 24.94400 24.95300
H  -0.15900 24.53300 26.62200
H  -1.74000 24.68700 25.82800
H  0.34800 18.41500 22.92100
H  -0.70100 15.64300 23.19100
H  -2.24100 17.21000 22.27500
H  -1.46300 18.80200 21.69500
H  -2.51300 18.78000 23.03300
H  1.62400 16.69600 22.43100
H  1.45200 15.15300 23.14300
H  2.89300 17.50500 23.97600
H  2.92500 15.67100 24.50700
H  2.02800 16.97500 25.34800
H  -0.52300 12.02400 26.15300
H  -2.31400 12.15700 26.28700
H  -1.33900 11.34600 27.52500
H  -2.89900 14.37500 31.79900
H  0.11900 12.51300 34.90100
H  -0.70500 14.01100 35.20000
H  0.80200 13.94400 34.23000

