79

Mg 44.39400 3.04400 46.66300
C  42.56700 5.95600 46.21100
C  41.57100 1.26100 46.15700
C  46.50000 0.42100 46.40100
C  47.36300 5.12900 46.27000
N  42.26700 3.56100 46.05100
C  41.75400 4.84400 45.95800
C  40.17700 4.75600 45.98300
C  39.95600 3.27300 46.11400
C  41.30300 2.63800 46.17100
C  39.04400 2.75900 47.22700
C  39.55000 5.43000 44.76300
C  40.10700 4.80200 43.39600
H  40.99500 5.53800 42.49200
N  44.07400 1.15400 46.28500
C  42.80400 0.57300 46.10800
C  43.01900 -0.87100 46.00100
C  44.41400 -1.10000 45.93700
C  45.12000 0.20300 46.24000
C  41.92300 -1.87400 45.89000
C  45.16000 -2.44600 45.67100
O  44.61500 -3.49300 45.45000
C  46.58400 -2.54900 45.50400
N  46.59700 2.80800 46.43900
C  47.20600 1.60500 46.55800
C  48.76100 1.71900 46.69800
C  48.92900 3.22900 46.30800
C  47.52200 3.71700 46.38800
C  49.17500 1.22500 48.15200
C  49.60800 3.43300 44.92200
C  51.10500 3.70800 44.92200
N  44.90900 5.09000 46.40100
C  46.10600 5.78900 46.34500
C  45.92000 7.21700 46.36000
C  44.48500 7.28100 46.36700
C  43.97300 5.98900 46.33800
C  46.99200 8.17900 46.37100
C  43.43500 8.21200 46.33900
O  43.47300 9.47800 46.31300
C  42.08300 7.41900 46.17700
C  41.27000 7.61800 47.47500
O  41.09000 6.79100 48.36100
O  40.53600 8.83000 47.44600
C  39.42000 8.91100 48.37000
H  40.68100 0.64000 46.03300
H  47.24700 -0.35900 46.56000
H  48.20800 5.81700 46.35400
H  39.71100 5.23900 46.84100
H  39.64800 2.80400 45.18000
H  38.16500 2.27700 46.80100
H  38.79100 3.58300 47.89500
H  39.47700 1.97700 47.85200
H  39.83700 6.48100 44.71100
H  38.46100 5.38400 44.78300
H  39.20000 4.68000 42.80400
H  40.58900 3.82600 43.46300
H  41.52000 -1.94000 44.87900
H  41.07000 -1.59900 46.51000
H  42.16000 -2.90500 46.15100
H  46.93300 -1.72800 44.87700
H  46.80500 -3.54000 45.10700
H  47.05200 -2.55800 46.48800
H  49.13800 0.95000 46.02400
H  49.50700 3.80600 47.03000
H  49.77600 1.95800 48.69100
H  49.72400 0.28500 48.11100
H  48.29300 1.09200 48.77900
H  49.06600 4.00500 44.16800
H  49.70700 2.46300 44.43300
H  51.55600 3.77900 45.91100
H  51.19000 4.64600 44.37200
H  51.62100 2.94300 44.34200
H  47.51900 8.17000 47.32500
H  46.54500 9.17100 46.31300
H  47.57300 7.97100 45.47300
H  41.45500 7.69300 45.32900
H  39.17100 9.96500 48.49500
H  39.45900 8.41600 49.34000
H  38.60100 8.40700 47.85800

