79

Mg 8.76700 3.97800 28.02000
C  10.15500 2.18700 30.81300
C  6.93900 5.81300 30.34400
C  7.24600 5.44500 25.57600
C  10.16100 1.56300 25.94800
N  8.58600 3.97600 30.37000
C  9.39000 3.21800 31.23800
C  9.18100 3.74800 32.64800
C  7.98500 4.78400 32.45600
C  7.75500 4.83400 30.96000
C  6.67900 4.29800 33.15700
C  10.47000 4.52300 33.23600
C  10.34100 5.20300 34.60000
H  11.14800 4.57500 35.68100
N  7.33900 5.54300 27.96400
C  6.70800 6.13900 28.98200
C  5.84900 7.12500 28.51700
C  5.93700 7.06400 27.05700
C  6.89000 6.02700 26.79600
C  5.13300 8.04900 29.43900
C  5.17400 7.91300 25.98700
O  5.32000 7.73100 24.76700
C  4.29500 9.02000 26.41200
N  8.59100 3.44600 26.04200
C  7.99500 4.30000 25.21400
C  8.37200 3.97500 23.69800
C  9.41800 2.75800 23.84900
C  9.42200 2.61500 25.39300
C  7.10300 3.69600 22.81400
C  10.88300 3.13800 23.35200
C  11.51400 2.25400 22.15000
N  9.92600 2.23900 28.29900
C  10.37100 1.46800 27.29600
C  11.32500 0.47700 27.83700
C  11.17500 0.68800 29.27200
C  10.31400 1.78300 29.47300
C  12.10700 -0.62000 27.12400
C  11.67200 0.27300 30.52400
O  12.34300 -0.67300 30.87100
C  11.06300 1.26600 31.54700
C  10.33000 0.55800 32.70800
O  9.36600 -0.19800 32.68200
O  11.03200 0.90800 33.83500
C  10.42500 0.41700 35.06500
H  6.53900 6.43000 31.15100
H  6.85700 6.00300 24.72300
H  10.69300 0.78700 25.39400
H  8.88500 2.93100 33.30500
H  8.18000 5.77100 32.87400
H  6.66800 4.71700 34.16300
H  6.79000 3.21600 33.23400
H  5.74100 4.48400 32.63400
H  10.63800 5.32400 32.51600
H  11.31500 3.83500 33.24400
H  9.31300 5.33900 34.93500
H  10.75100 6.19700 34.42300
H  4.08100 7.86000 29.22600
H  5.40300 9.10300 29.37600
H  5.16400 7.78300 30.49500
H  3.91600 9.44500 25.48200
H  4.96800 9.74200 26.87400
H  3.47800 8.70300 27.06000
H  8.84500 4.87500 23.30400
H  8.89800 1.89200 23.43800
H  6.16700 3.76900 23.36800
H  7.19400 2.75700 22.26900
H  7.11600 4.40100 21.98300
H  11.64800 3.00400 24.11700
H  10.95200 4.17700 23.03100
H  10.89000 1.36400 22.06900
H  12.53600 1.90700 22.30200
H  11.62400 2.81900 21.22500
H  13.06000 -0.14000 26.90100
H  11.66100 -0.84300 26.15500
H  12.24700 -1.50200 27.74700
H  11.88600 1.85800 31.94800
H  9.34700 0.47400 35.21100
H  10.82900 0.99800 35.89500
H  10.79100 -0.60300 35.17700

