79

Mg -12.33300 17.25400 40.79700
C  -9.54900 15.21700 40.10800
C  -10.72000 19.83700 39.53900
C  -15.40900 18.75900 40.54600
C  -14.08100 14.17700 41.61300
N  -10.28600 17.53600 40.05500
C  -9.33700 16.55200 39.83500
C  -7.99100 17.19000 39.44300
C  -8.39300 18.70200 39.28700
C  -9.86200 18.76000 39.70700
C  -7.34800 19.58700 39.97700
C  -7.40600 16.56500 38.19100
C  -5.88100 16.16300 38.10700
H  -5.16000 16.60100 36.86700
N  -12.93900 19.14500 40.26100
C  -12.13000 20.08900 39.75100
C  -12.89700 21.25600 39.36700
C  -14.29600 20.93800 39.66300
C  -14.26400 19.54300 40.20200
C  -12.17300 22.52700 38.85500
C  -15.45500 21.92000 39.46800
O  -15.19500 23.04500 39.10700
C  -16.84200 21.56600 39.75500
N  -14.46400 16.53400 41.00400
C  -15.49200 17.39300 40.94200
C  -16.80500 16.82400 41.46700
C  -16.42000 15.39700 41.93200
C  -14.86500 15.36200 41.49500
C  -17.50600 17.74600 42.59900
C  -17.35600 14.25400 41.29600
C  -17.96900 13.42300 42.31700
N  -11.92700 15.11800 41.01400
C  -12.72400 14.03300 41.33700
C  -11.92300 12.82700 41.33700
C  -10.67400 13.21400 40.84600
C  -10.71100 14.59700 40.67800
C  -12.34200 11.43100 41.64300
C  -9.34500 12.74100 40.39400
O  -8.86500 11.60400 40.35100
C  -8.55400 14.04100 39.95800
C  -7.46000 14.32600 40.89600
O  -7.50600 14.65900 42.06300
O  -6.33400 13.75500 40.33700
C  -5.04800 13.83200 41.05100
H  -10.09700 20.62600 39.11300
H  -16.40800 19.16000 40.36000
H  -14.60500 13.27400 41.93100
H  -7.27500 16.98700 40.24000
H  -8.25500 19.07100 38.27100
H  -7.80700 20.57400 40.03600
H  -6.36300 19.51400 39.51600
H  -7.27800 19.14800 40.97200
H  -7.61500 17.28600 37.40100
H  -7.89600 15.61400 37.98200
H  -5.79400 15.09500 38.30500
H  -5.38700 16.64500 38.95000
H  -12.46300 22.59900 37.80700
H  -11.08400 22.52300 38.89600
H  -12.54300 23.39200 39.40500
H  -17.56000 22.35100 39.52100
H  -16.87400 21.28400 40.80800
H  -17.10600 20.74100 39.09300
H  -17.48600 16.76700 40.61700
H  -16.47200 15.28600 43.01500
H  -18.48300 18.11500 42.28700
H  -16.95800 18.61900 42.95300
H  -17.63900 17.25100 43.56100
H  -16.75800 13.56100 40.70300
H  -18.06300 14.73300 40.61900
H  -19.03200 13.30800 42.10600
H  -17.96700 13.91300 43.29100
H  -17.49000 12.44700 42.40600
H  -13.04300 11.36000 42.47500
H  -11.54200 10.71100 41.81800
H  -12.82800 11.14200 40.71100
H  -8.16900 13.79900 38.96800
H  -4.93400 12.92300 41.64200
H  -4.98800 14.72100 41.67800
H  -4.27000 13.82200 40.28800

