79

Mg 0.08100 8.11600 26.20900
C  1.21100 9.65500 29.16300
C  -0.23000 5.16900 27.92100
C  -0.52400 6.60700 23.30500
C  0.70900 11.20100 24.48300
N  0.41800 7.43400 28.38900
C  0.74600 8.25500 29.38900
C  0.92700 7.47700 30.65500
C  0.52000 5.97200 30.22000
C  0.13800 6.15900 28.78600
C  1.65200 4.98600 30.59900
C  0.20500 8.06600 31.86700
C  0.86200 7.99000 33.28800
H  2.00200 6.97100 33.52900
N  -0.35000 6.23600 25.70300
C  -0.46900 5.11800 26.53500
C  -0.72600 3.91300 25.78700
C  -0.93000 4.31100 24.44300
C  -0.62000 5.74600 24.42200
C  -0.99800 2.48400 26.38700
C  -1.40100 3.45000 23.25900
O  -1.68800 3.98900 22.20200
C  -1.73700 2.01300 23.47100
N  0.15000 8.83300 24.18700
C  -0.00700 7.93300 23.18500
C  0.26700 8.62700 21.81500
C  0.27100 10.13200 22.16500
C  0.43900 10.07100 23.73800
C  1.56500 8.15000 21.08800
C  -0.94500 10.95300 21.65600
C  -0.57900 12.36700 21.32100
N  0.74100 10.07200 26.64700
C  1.00700 11.17000 25.88700
C  1.48700 12.30200 26.69700
C  1.51200 11.76300 27.99600
C  1.09100 10.42300 27.92100
C  1.90700 13.61500 26.25500
C  1.85800 12.08500 29.38100
O  2.28800 13.10800 29.90300
C  1.58400 10.77100 30.21600
C  2.63300 10.56400 31.26900
O  3.69000 9.95500 31.17100
O  2.34500 11.22000 32.45100
C  3.40300 11.07200 33.44100
H  -0.39700 4.21800 28.43200
H  -0.75800 6.13600 22.34800
H  0.85600 12.11300 23.90200
H  2.00200 7.51200 30.83400
H  -0.22500 5.54000 30.88800
H  2.02500 4.63300 29.63700
H  1.34000 4.07100 31.10200
H  2.52800 5.43600 31.06500
H  -0.73400 7.52400 31.98000
H  0.03000 9.12300 31.66300
H  0.05900 7.63200 33.93200
H  1.15300 8.95900 33.69300
H  -2.06500 2.37800 26.58400
H  -0.59100 2.48600 27.39800
H  -0.55900 1.74900 25.71100
H  -0.76600 1.52700 23.57000
H  -2.08000 1.68300 22.49000
H  -2.48000 1.78600 24.23500
H  -0.57100 8.42600 21.14800
H  1.20300 10.51400 21.74800
H  1.29300 7.43900 20.30800
H  2.07500 7.59200 21.87400
H  2.17500 8.91800 20.61300
H  -1.69100 10.91600 22.44900
H  -1.18800 10.43600 20.72700
H  -0.61000 12.56500 20.25000
H  0.36800 12.74300 21.70900
H  -1.28200 13.09800 21.72000
H  1.17500 14.26300 25.77300
H  2.64600 13.46700 25.46800
H  2.32800 14.22300 27.05600
H  0.62200 11.10000 30.60700
H  3.50200 10.02400 33.72300
H  3.07300 11.48900 34.39200
H  4.31700 11.45400 32.98400

