79

Mg 52.66600 23.33600 44.91500
C  50.24700 25.79500 44.15700
C  50.75500 20.98800 43.57200
C  55.52000 21.65800 44.48400
C  54.84900 26.19200 45.97200
N  50.82100 23.48700 43.81500
C  49.94300 24.48900 43.63700
C  48.63000 23.99200 43.09300
C  48.61500 22.46600 43.41500
C  50.14500 22.29300 43.59400
C  47.69600 22.14000 44.60200
C  48.38200 24.48800 41.62500
C  49.63100 24.31900 40.62100
H  49.19400 24.40200 39.15200
N  53.04100 21.47000 44.34900
C  52.06900 20.58700 43.87800
C  52.79200 19.36100 43.62500
C  54.17900 19.55700 43.94000
C  54.29600 20.99800 44.20100
C  52.07800 18.04600 43.20300
C  55.23700 18.44700 43.85000
O  54.86900 17.28000 43.64300
C  56.67400 18.68900 44.04100
N  54.86900 23.83000 45.14600
C  55.81800 22.93600 44.93000
C  57.24100 23.30700 45.44700
C  56.91700 24.77400 45.93800
C  55.46600 24.94800 45.66100
C  57.64900 22.40100 46.60800
C  57.84100 25.88700 45.29400
C  58.28000 27.10800 46.07500
N  52.57100 25.59900 45.08300
C  53.44300 26.48900 45.72600
C  52.74200 27.72800 45.90500
C  51.47800 27.56200 45.28900
C  51.46700 26.23700 44.81700
C  53.25400 28.99700 46.34800
C  50.30000 28.18400 44.96100
O  49.94200 29.32500 45.08900
C  49.41400 27.11300 44.15000
C  49.09900 27.61100 42.72900
O  49.83000 27.79100 41.81100
O  47.75000 27.95700 42.75900
C  47.13000 28.48600 41.57600
H  49.97700 20.23200 43.44700
H  56.35400 20.95900 44.39400
H  55.45800 27.00100 46.38000
H  47.97300 24.60500 43.71100
H  48.36800 21.88000 42.52900
H  48.16300 21.36500 45.20900
H  46.84400 21.63100 44.15100
H  47.49700 23.03500 45.19200
H  48.13500 25.54900 41.58600
H  47.52800 23.95500 41.20700
H  49.93300 23.30400 40.88200
H  50.41000 25.02600 40.90400
H  52.55600 17.76200 42.26600
H  51.09500 18.38000 42.87000
H  52.05800 17.32800 44.02300
H  56.79400 19.12000 45.03500
H  56.94900 19.38300 43.24600
H  57.15300 17.71300 43.96500
H  57.92600 23.33600 44.59900
H  57.09200 24.86900 47.01000
H  56.76500 22.15000 47.19500
H  58.34900 23.02700 47.16100
H  58.09500 21.49100 46.20800
H  57.28700 26.15700 44.39500
H  58.76800 25.38400 45.01800
H  57.91600 27.89800 45.41900
H  59.35900 27.21500 46.18900
H  57.94600 26.96400 47.10300
H  54.26700 29.19500 45.99800
H  53.20500 29.01600 47.43700
H  52.65200 29.82500 45.97500
H  48.50400 27.03600 44.74500
H  47.79600 29.22500 41.13200
H  46.24400 29.00200 41.94800
H  46.87200 27.74900 40.81600

