79

Mg 7.25200 53.96000 40.88400
C  7.16200 50.46400 40.52200
C  10.52200 54.00800 39.92800
C  7.00500 57.39800 40.51600
C  3.82600 53.97200 41.68000
N  8.66900 52.40700 40.22400
C  8.44200 51.08800 40.16800
C  9.71500 50.35500 39.85100
C  10.80800 51.42100 39.87000
C  10.01200 52.70500 40.07000
C  11.92000 51.29900 40.98600
C  9.62600 49.52200 38.57200
C  9.31900 50.26800 37.24800
H  8.13800 49.83400 36.39300
N  8.60700 55.48800 40.39400
C  9.94600 55.30600 39.99300
C  10.52800 56.53900 39.63600
C  9.48900 57.54300 39.65500
C  8.30200 56.80700 40.19800
C  11.97500 56.61300 39.17400
C  9.58900 59.03100 39.18700
O  10.53600 59.45600 38.67700
C  8.46100 59.96600 39.26500
N  5.46900 55.47300 40.75900
C  5.72600 56.83200 40.80500
C  4.53500 57.63500 41.27900
C  3.47000 56.46700 41.44900
C  4.32200 55.18300 41.34500
C  4.64300 58.68600 42.38400
C  2.27900 56.47500 40.44800
C  1.60500 57.83400 40.12400
N  5.78800 52.57700 41.17000
C  4.47500 52.74500 41.53200
C  3.84400 51.43300 41.67800
C  4.85700 50.50700 41.32200
C  6.04300 51.23000 40.95100
C  2.44100 51.16400 42.00700
C  5.13900 49.10200 41.14900
O  4.51700 48.07800 41.39000
C  6.56800 49.07800 40.44000
C  6.24800 48.51800 39.11300
O  5.76800 49.15500 38.21800
O  6.59900 47.14500 39.14700
C  5.97600 46.32300 38.17800
H  11.56500 53.84300 39.65000
H  7.00200 58.48900 40.57400
H  2.88600 53.98800 42.23400
H  9.86000 49.72100 40.72600
H  11.28900 51.29000 38.90100
H  11.57300 52.02800 41.71800
H  12.89100 51.47300 40.52100
H  11.95700 50.29200 41.40100
H  9.03700 48.61900 38.73100
H  10.62900 49.09900 38.52300
H  10.20900 50.19200 36.62300
H  9.24100 51.32300 37.50800
H  11.99900 56.53400 38.08700
H  12.51900 55.79700 39.65000
H  12.49400 57.54800 39.38300
H  7.51600 59.57500 38.88900
H  8.61100 60.91600 38.75100
H  8.36500 60.13700 40.33700
H  4.23900 58.17100 40.37700
H  3.06500 56.54800 42.45800
H  5.71100 58.74100 42.59200
H  4.10200 58.59400 43.32600
H  4.26600 59.63200 41.99600
H  1.41400 56.04400 40.95400
H  2.48200 55.91800 39.53300
H  2.04100 58.69200 40.63500
H  0.56700 57.71600 40.43600
H  1.56700 58.02700 39.05200
H  2.50600 50.63700 42.95900
H  1.96600 50.51500 41.27100
H  1.81400 52.03400 42.20300
H  7.10100 48.37100 41.07600
H  6.66100 46.22600 37.33600
H  5.06200 46.79200 37.81400
H  5.88300 45.38000 38.71700

