79

Mg 47.17000 24.69000 27.62900
C  47.92600 26.92200 30.19000
C  46.15400 22.53500 29.90400
C  46.55700 22.58100 25.06300
C  48.78900 26.82100 25.36600
N  47.25400 24.63300 29.93500
C  47.44300 25.72600 30.71000
C  46.93700 25.44900 32.14000
C  46.35100 23.99800 31.92900
C  46.58000 23.67000 30.53000
C  46.91900 22.91100 32.96800
C  46.10000 26.44700 32.83500
C  45.07100 25.95400 33.84600
H  44.79200 26.97700 34.91000
N  46.34600 22.81200 27.51100
C  46.10200 22.07300 28.56500
C  45.48600 20.82800 28.07800
C  45.54900 20.88600 26.70900
C  46.15800 22.09500 26.32500
C  44.85800 19.77100 29.01000
C  44.97900 19.91400 25.66600
O  44.95700 20.14000 24.42100
C  44.39900 18.61700 26.09500
N  47.70800 24.55700 25.57900
C  47.31600 23.61400 24.66000
C  47.72200 23.91800 23.16700
C  48.12900 25.39600 23.32500
C  48.28900 25.57400 24.85500
C  48.90000 23.08200 22.55200
C  47.04100 26.30600 22.72100
C  47.35100 27.79700 22.63700
N  48.16100 26.43500 27.70100
C  48.73000 27.20300 26.73700
C  49.10600 28.53700 27.30700
C  48.77300 28.46500 28.65500
C  48.25000 27.11500 28.84200
C  49.75600 29.73300 26.60400
C  48.76300 29.19400 29.86800
O  49.15900 30.33800 30.06100
C  48.15500 28.20900 30.95500
C  49.23800 28.16500 32.01200
O  50.38100 27.62800 31.95400
O  48.67200 28.59500 33.19700
C  49.51000 28.63300 34.37700
H  45.62100 21.87300 30.59000
H  46.33600 21.99200 24.17000
H  49.35300 27.47400 24.69700
H  47.85500 25.44500 32.72700
H  45.28900 23.99600 32.17700
H  46.17600 22.55700 33.68300
H  47.79300 23.36500 33.43500
H  47.17400 22.02700 32.38400
H  45.62500 26.94600 31.99000
H  46.80700 27.11800 33.32300
H  45.35400 25.00400 34.29900
H  44.12400 25.92800 33.30600
H  43.78600 19.86400 28.83600
H  45.20900 19.86200 30.03800
H  45.19500 18.77400 28.72700
H  43.56000 18.85900 26.74800
H  45.17500 18.07800 26.63800
H  44.11200 18.09800 25.18000
H  46.80400 23.80400 22.59100
H  49.10900 25.50600 22.86300
H  49.10000 22.16600 23.10800
H  49.86700 23.57600 22.64500
H  48.64900 22.95600 21.49900
H  46.28200 26.37800 23.50100
H  46.64700 25.95700 21.76600
H  47.28500 28.15100 23.66500
H  46.81600 28.37500 21.88300
H  48.43200 27.89100 22.53100
H  49.50900 29.74500 25.54200
H  50.82900 29.68800 26.78800
H  49.27800 30.61200 27.03500
H  47.25400 28.62300 31.40800
H  48.94200 28.07500 35.12100
H  49.69000 29.68700 34.59100
H  50.41400 28.02900 34.29000

