79

Mg -11.21900 38.36700 42.42200
C  -9.22700 35.67500 41.27100
C  -8.97300 40.44700 40.76700
C  -13.51500 40.78700 42.59000
C  -13.68300 35.98000 43.15300
N  -9.43800 38.09900 41.01700
C  -8.76800 36.92000 40.80400
C  -7.49800 37.07800 39.91700
C  -7.30400 38.64100 39.88400
C  -8.61200 39.11900 40.62900
C  -5.99800 39.22500 40.53500
C  -7.58600 36.42300 38.45100
C  -6.55600 35.26400 38.06000
H  -5.36400 35.46500 37.07300
N  -11.19200 40.36300 42.00400
C  -10.15500 41.03500 41.36000
C  -10.43200 42.42700 41.41200
C  -11.76800 42.55700 41.91300
C  -12.23600 41.21900 42.15900
C  -9.50600 43.56500 40.96400
C  -12.51500 43.86600 42.09100
O  -12.02700 44.93300 41.77000
C  -13.82900 43.93000 42.80700
N  -13.31500 38.39600 42.89300
C  -14.04200 39.53200 42.89400
C  -15.47200 39.36900 43.04500
C  -15.49900 37.80800 43.35900
C  -14.12000 37.36200 43.14400
C  -16.15100 40.27100 44.20900
C  -16.58700 37.05000 42.61600
C  -16.32400 36.48900 41.20000
N  -11.35800 36.29500 42.49600
C  -12.36100 35.47900 42.86500
C  -11.90900 34.12400 43.00300
C  -10.69700 34.15100 42.34900
C  -10.41800 35.48400 42.00600
C  -12.77100 33.08600 43.68700
C  -9.60400 33.28700 41.90900
O  -9.42600 32.11900 42.01500
C  -8.59300 34.23300 41.09400
C  -7.15600 34.12700 41.61800
O  -6.37400 33.35600 41.03000
O  -6.93000 34.89700 42.69500
C  -5.58500 34.77800 43.25900
H  -8.29600 41.11300 40.22700
H  -14.35600 41.48300 42.58600
H  -14.49900 35.28700 43.36900
H  -6.63800 36.70600 40.47300
H  -7.39900 38.99600 38.85700
H  -5.29900 38.40700 40.71000
H  -6.24400 39.62400 41.51900
H  -5.54100 40.02500 39.95300
H  -7.44700 37.15400 37.65400
H  -8.56700 35.95500 38.36700
H  -7.17200 34.44000 37.70100
H  -5.97300 35.01400 38.94700
H  -9.60200 43.69800 39.88700
H  -8.46400 43.26500 41.08000
H  -9.59700 44.53900 41.44600
H  -13.90800 43.40000 43.75600
H  -14.62000 43.56400 42.15200
H  -14.07400 44.98500 42.92900
H  -15.98700 39.52900 42.09800
H  -15.57800 37.58100 44.42200
H  -15.34400 40.60600 44.86000
H  -16.86900 39.62000 44.70900
H  -16.62300 41.10700 43.69200
H  -17.53500 37.54300 42.83100
H  -16.74900 36.07600 43.07700
H  -15.73800 35.57100 41.23000
H  -15.70600 37.22900 40.69300
H  -17.30900 36.26700 40.79000
H  -13.77400 33.28700 43.30900
H  -12.76900 33.02200 44.77500
H  -12.48100 32.13700 43.23700
H  -8.51300 33.97100 40.03900
H  -4.75900 34.77500 42.54800
H  -5.59000 33.92300 43.93500
H  -5.30600 35.56800 43.95700

