79

Mg 9.21500 4.56400 27.26700
C  10.54100 2.94500 30.00600
C  6.88200 6.04000 29.54300
C  7.51500 5.90600 24.74100
C  10.83700 2.31300 25.13200
N  8.64200 4.39600 29.53400
C  9.52600 3.86000 30.42100
C  9.10600 4.22600 31.85200
C  7.85700 5.06900 31.61600
C  7.76000 5.14900 30.15200
C  6.55900 4.76000 32.45000
C  10.21300 4.95200 32.61900
C  9.85600 5.38000 34.06100
H  10.70200 4.81100 35.23300
N  7.56100 5.93400 27.11200
C  6.74900 6.37200 28.16900
C  5.82200 7.31900 27.64300
C  6.07300 7.41600 26.29900
C  7.08700 6.37300 25.98900
C  4.71900 8.09300 28.52900
C  5.51400 8.38700 25.29900
O  5.82000 8.26300 24.12600
C  4.50800 9.40200 25.77500
N  9.12600 4.09100 25.28800
C  8.38900 4.90000 24.40400
C  8.73200 4.67600 22.93200
C  9.93800 3.62400 23.08300
C  10.04600 3.30500 24.53000
C  7.61300 4.34100 21.92500
C  11.27300 4.25800 22.72300
C  11.56300 5.62600 23.33400
N  10.50100 3.02000 27.41700
C  11.10300 2.15200 26.49300
C  11.92900 1.19800 27.15000
C  11.71800 1.55100 28.52700
C  10.83900 2.56800 28.66600
C  12.94700 0.20200 26.59000
C  12.19100 1.17300 29.78700
O  12.94200 0.25800 30.11800
C  11.38400 2.01800 30.84500
C  10.56900 1.07600 31.67500
O  9.36600 0.73400 31.50700
O  11.35000 0.65600 32.73200
C  10.58300 0.14500 33.92100
H  6.09000 6.46800 30.16100
H  6.99900 6.30900 23.86600
H  11.37000 1.54800 24.56400
H  8.86900 3.32200 32.41300
H  8.04500 6.08800 31.95500
H  5.77600 4.24400 31.89400
H  6.09200 5.68400 32.79000
H  6.88800 4.15500 33.29500
H  10.56300 5.79500 32.02400
H  11.03100 4.23300 32.57900
H  8.81700 5.22000 34.35000
H  10.04300 6.44800 33.94900
H  4.55500 7.47600 29.41200
H  3.74300 8.12600 28.04500
H  5.01400 9.10300 28.81300
H  4.17100 10.08400 24.99500
H  4.98900 10.02200 26.53200
H  3.59500 8.99600 26.21000
H  9.13800 5.59700 22.51300
H  9.71400 2.74500 22.47900
H  7.77300 3.43700 21.33800
H  7.46800 5.19600 21.26400
H  6.69600 4.10600 22.46500
H  11.32800 4.42900 21.64800
H  12.06800 3.55800 22.98100
H  10.75400 5.96200 23.98300
H  11.65800 6.40000 22.57200
H  12.45500 5.69400 23.95600
H  13.33800 0.29100 25.57700
H  12.52800 -0.79400 26.73700
H  13.82600 0.30500 27.22500
H  12.10500 2.48100 31.51900
H  11.30900 0.02900 34.72700
H  9.99700 -0.74700 33.70000
H  9.93700 1.00100 34.11500

