79

Mg 26.78200 50.16700 26.03300
C  24.66000 51.21700 28.82900
C  29.05500 49.27400 28.34200
C  28.45200 49.23500 23.51900
C  24.32400 51.57600 24.00200
N  26.83500 50.24000 28.31700
C  25.85700 50.55500 29.20600
C  26.34800 50.27500 30.66600
C  27.86900 49.82800 30.49200
C  27.93000 49.77100 28.96000
C  28.86200 50.72100 31.31000
C  25.34600 49.08300 31.27600
C  25.57100 48.70300 32.75900
H  26.52100 49.42600 33.74800
N  28.56300 49.52400 25.93900
C  29.36700 49.14800 26.93100
C  30.58200 48.62600 26.39900
C  30.41000 48.59000 24.98300
C  29.11300 49.17500 24.74600
C  31.76200 48.12600 27.28900
C  31.41400 48.11000 23.93200
O  31.19000 48.22900 22.75800
C  32.68600 47.47800 24.37800
N  26.44200 50.41300 23.99600
C  27.24600 49.80500 23.13800
C  26.49600 49.56200 21.76500
C  25.17600 50.33000 21.92000
C  25.34700 50.87900 23.36200
C  27.35500 49.94200 20.51700
C  23.89700 49.53800 21.70100
C  22.80200 50.03500 20.71700
N  24.96800 51.27400 26.31200
C  24.12200 51.79100 25.34400
C  23.06100 52.45100 26.02900
C  23.24200 52.31500 27.39700
C  24.39800 51.48300 27.50900
C  21.81100 53.09000 25.43100
C  22.62700 52.60800 28.69400
O  21.55000 53.22800 29.01800
C  23.68500 51.90900 29.67400
C  24.19500 53.01200 30.46200
O  24.89600 53.95000 30.16200
O  23.73800 52.90800 31.74400
C  24.11900 53.89800 32.70800
H  29.65200 48.86900 29.16100
H  28.85800 48.75800 22.62500
H  23.44400 51.82800 23.40700
H  26.30300 51.26900 31.11100
H  27.95000 48.87800 31.02000
H  29.43700 49.98700 31.87500
H  28.47100 51.51600 31.94700
H  29.61800 51.16300 30.66200
H  25.62600 48.17200 30.74700
H  24.30400 49.33700 31.08000
H  25.83800 47.64700 32.78100
H  24.60500 48.84400 33.24400
H  32.01300 47.08300 27.09400
H  31.62600 48.39800 28.33500
H  32.63500 48.69100 26.96100
H  32.53100 46.56700 24.95700
H  33.38400 48.16200 24.86100
H  33.20000 47.25400 23.44300
H  26.28600 48.49300 21.75400
H  25.29700 51.20000 21.27500
H  28.01900 50.78100 20.72400
H  26.80200 50.16000 19.60300
H  27.96200 49.04500 20.40200
H  23.36800 49.60200 22.65200
H  24.13500 48.47600 21.63100
H  23.16100 50.99900 20.35800
H  21.81400 50.21300 21.14100
H  22.62400 49.32400 19.91000
H  22.19800 53.86200 24.76600
H  21.29500 53.45500 26.32000
H  21.30100 52.38300 24.77700
H  23.08900 51.27700 30.33200
H  23.83100 54.89800 32.38600
H  25.17700 53.74000 32.92000
H  23.54100 53.82500 33.63000

