79

Mg 16.74600 -2.50200 27.48000
C  15.54700 -0.33100 30.08800
C  19.18600 -3.46500 29.64900
C  18.16100 -4.21700 24.91300
C  14.60900 -0.92700 25.32100
N  17.21300 -1.89500 29.60800
C  16.57200 -1.14800 30.53800
C  17.14700 -1.30300 32.00100
C  18.44900 -2.15800 31.63500
C  18.27300 -2.58700 30.17700
C  19.74000 -1.30000 31.78400
C  16.21100 -1.86900 33.02900
C  16.49000 -1.56200 34.49400
H  17.75500 -0.84700 34.91700
N  18.43000 -3.65500 27.32400
C  19.29800 -3.98100 28.32600
C  20.28300 -4.91000 27.85300
C  20.02200 -5.01800 26.50800
C  18.81200 -4.28800 26.18400
C  21.32500 -5.62200 28.77300
C  20.84800 -5.77300 25.45500
O  20.59200 -5.75400 24.26900
C  22.21500 -6.34800 25.78300
N  16.53900 -2.52000 25.48300
C  17.06800 -3.38600 24.59100
C  16.62100 -3.23700 23.13900
C  15.42300 -2.22600 23.32000
C  15.51900 -1.86600 24.83100
C  17.84900 -2.71800 22.29700
C  14.08800 -2.93700 22.87500
C  13.38900 -2.32900 21.69400
N  15.21100 -1.02100 27.62600
C  14.44400 -0.53600 26.65800
C  13.50600 0.34000 27.28900
C  13.86700 0.44200 28.67700
C  14.99000 -0.37400 28.80300
C  12.47200 1.12300 26.68000
C  13.57100 1.15600 29.85800
O  12.75500 2.02900 30.13900
C  14.65300 0.69300 30.85400
C  15.42000 1.88000 31.24100
O  16.17700 2.43200 30.49200
O  15.21000 2.19700 32.54900
C  15.85600 3.42600 32.86400
H  19.97700 -3.78200 30.33200
H  18.48200 -4.78100 24.03400
H  13.83400 -0.51800 24.67000
H  17.39500 -0.27300 32.25800
H  18.53300 -3.00300 32.31800
H  19.61400 -0.46400 32.47100
H  20.04800 -0.81600 30.85700
H  20.50700 -2.01800 32.07500
H  16.29900 -2.95500 33.01400
H  15.19500 -1.58600 32.75200
H  16.55800 -2.44900 35.12400
H  15.63700 -1.04800 34.93600
H  22.31900 -5.63900 28.32500
H  21.03100 -6.56100 29.24100
H  21.38700 -5.09200 29.72400
H  22.01400 -7.16700 26.47300
H  22.84700 -5.56500 26.20200
H  22.66400 -6.65100 24.83700
H  16.34100 -4.24600 22.83800
H  15.51000 -1.34400 22.68500
H  18.69100 -2.52900 22.96400
H  17.54700 -1.76800 21.85700
H  17.94300 -3.43400 21.48000
H  13.32200 -2.99000 23.64900
H  14.23300 -3.97300 22.56800
H  12.36600 -2.21100 22.05100
H  13.29600 -3.02200 20.85800
H  13.89100 -1.46200 21.26500
H  12.00400 0.78900 25.75400
H  12.86300 2.13400 26.56800
H  11.60200 1.17800 27.33400
H  14.09400 0.26700 31.68800
H  15.50600 3.76500 33.83900
H  15.64400 4.18800 32.11300
H  16.92900 3.23800 32.89300

