79

Mg -3.04000 16.97500 26.73900
C  -3.66700 14.84800 29.44900
C  -3.57900 19.57000 29.02700
C  -3.42700 19.08300 24.22000
C  -3.41800 14.23200 24.61100
N  -3.68200 17.17300 29.05300
C  -3.64000 16.16800 29.97900
C  -3.68900 16.70400 31.41800
C  -3.88100 18.22700 31.18300
C  -3.69400 18.34400 29.68600
C  -5.18000 18.94300 31.76100
C  -2.65200 16.15700 32.44500
C  -2.24800 17.05700 33.53800
H  -1.83600 16.34300 34.87000
N  -3.08100 19.02000 26.68900
C  -3.32000 19.94000 27.71500
C  -3.23400 21.26500 27.09000
C  -3.19000 21.14200 25.72400
C  -3.22500 19.68300 25.46100
C  -3.27200 22.56300 27.98600
C  -3.21800 22.21700 24.70500
O  -3.19900 22.00300 23.54700
C  -3.15700 23.63600 25.04000
N  -3.53400 16.69500 24.77600
C  -3.55100 17.72400 23.90500
C  -3.60400 17.20600 22.42600
C  -3.34000 15.71100 22.59100
C  -3.47600 15.51100 24.12100
C  -4.93600 17.63600 21.65200
C  -1.95800 15.33600 21.87500
C  -0.69100 15.32700 22.72000
N  -3.29200 14.93800 26.94400
C  -3.44600 13.94200 25.99400
C  -3.67700 12.69500 26.67200
C  -3.78800 12.98800 28.06500
C  -3.58700 14.31500 28.11700
C  -3.96400 11.35000 26.09200
C  -4.08500 12.47000 29.37000
O  -4.38000 11.39500 29.89200
C  -4.00500 13.67500 30.34200
C  -2.92100 13.27900 31.27600
O  -1.76400 13.41700 30.98900
O  -3.45300 12.78500 32.39500
C  -2.47200 12.44400 33.47500
H  -3.62600 20.38300 29.75400
H  -3.53900 19.75200 23.36400
H  -3.29000 13.35300 23.97600
H  -4.63900 16.39500 31.85400
H  -3.05100 18.72200 31.68800
H  -4.81300 19.69000 32.46500
H  -5.81300 18.24900 32.31500
H  -5.77900 19.41200 30.98000
H  -1.72000 16.06100 31.88600
H  -3.11200 15.24300 32.82100
H  -3.13400 17.64400 33.77600
H  -1.37600 17.68900 33.37000
H  -3.50800 22.42500 29.04100
H  -4.11900 23.14800 27.62800
H  -2.33800 23.12600 27.99400
H  -3.96700 23.87000 25.73100
H  -3.21000 24.30200 24.17800
H  -2.20600 23.76200 25.55600
H  -2.80500 17.67300 21.85000
H  -4.06200 15.15900 21.99100
H  -5.55400 16.75200 21.80900
H  -4.84800 17.79000 20.57700
H  -5.51700 18.44900 22.08800
H  -1.66300 15.93800 21.01600
H  -2.05200 14.30000 21.54900
H  -0.65100 16.05600 23.52900
H  0.22500 15.53700 22.16800
H  -0.59700 14.28200 23.01500
H  -4.24100 10.71300 26.93200
H  -3.20300 10.87500 25.47200
H  -4.89500 11.55000 25.56100
H  -4.94000 13.90000 30.85300
H  -2.90700 11.75500 34.19900
H  -2.30400 13.33500 34.08000
H  -1.49100 12.03000 33.24200

