79

Mg -2.39500 34.82100 26.45600
C  -3.41100 32.89800 29.35600
C  -1.26600 37.29800 28.54700
C  -2.36900 36.95100 23.83000
C  -4.27500 32.62600 24.46400
N  -2.41700 35.11200 28.70900
C  -2.79100 34.19500 29.66800
C  -2.36800 34.72000 31.14700
C  -1.71900 36.07600 30.78700
C  -1.71900 36.11800 29.25200
C  -2.29600 37.34100 31.47400
C  -1.44400 33.73200 32.02400
C  -1.97800 33.32600 33.44400
H  -0.97900 33.29200 34.51900
N  -1.75300 36.80400 26.23700
C  -1.35100 37.64700 27.20100
C  -0.76300 38.90200 26.56300
C  -1.20200 38.71100 25.14500
C  -1.87900 37.43500 24.99200
C  0.01900 39.99300 27.32400
C  -1.06000 39.74400 24.07600
O  -1.60200 39.75500 23.01200
C  -0.13400 40.87600 24.25300
N  -3.32200 34.90100 24.37700
C  -3.01200 35.81300 23.52500
C  -3.40000 35.38400 22.10900
C  -3.81400 33.83900 22.33400
C  -3.82700 33.75000 23.83200
C  -4.40000 36.36000 21.47200
C  -2.98500 32.86900 21.41500
C  -1.58100 32.49500 22.04400
N  -3.55900 33.05300 26.75100
C  -4.18100 32.23300 25.84100
C  -4.68600 31.07300 26.57400
C  -4.41400 31.32700 27.91400
C  -3.77900 32.56700 27.98200
C  -5.57600 30.03700 26.09900
C  -4.59600 30.87700 29.25900
O  -5.14100 29.87300 29.72100
C  -3.97800 31.89600 30.27800
C  -5.06200 32.34900 31.27700
O  -6.11900 32.96500 30.97700
O  -4.81100 31.88600 32.51100
C  -5.84200 31.97700 33.54100
H  -0.77800 38.08100 29.13200
H  -2.37000 37.53400 22.90700
H  -4.83500 31.90500 23.86500
H  -3.22000 34.88200 31.80700
H  -0.68100 36.17000 31.10800
H  -2.84600 37.02600 32.36100
H  -3.09900 37.90600 31.00100
H  -1.55200 38.07400 31.78300
H  -0.44600 34.15700 32.13300
H  -1.17300 32.83000 31.47500
H  -2.31900 32.29200 33.48000
H  -2.89000 33.89000 33.63900
H  -0.60600 40.88200 27.40800
H  0.98100 40.31400 26.92300
H  0.26500 39.68500 28.34000
H  -0.56600 41.54700 24.99500
H  0.07800 41.45200 23.35200
H  0.85000 40.49600 24.52700
H  -2.53200 35.37800 21.45000
H  -4.85900 33.73300 22.04200
H  -5.09900 35.78900 20.86100
H  -3.88800 37.00200 20.75500
H  -4.98100 36.83800 22.26000
H  -2.80300 33.43900 20.50400
H  -3.51300 31.92700 21.26400
H  -0.87200 33.18600 21.58600
H  -1.33500 31.49900 21.67700
H  -1.49000 32.69800 23.11100
H  -5.30400 29.82800 25.06400
H  -6.60400 30.39300 26.16800
H  -5.54200 29.06900 26.59800
H  -3.04300 31.50700 30.68000
H  -5.63100 31.24500 34.32000
H  -6.83400 31.78800 33.13200
H  -5.81000 32.94000 34.04900

