79

Mg 48.04400 16.31300 28.37500
C  46.48200 15.86500 31.48600
C  50.49600 18.12700 29.87300
C  49.41500 16.86700 25.28400
C  45.23600 14.95500 26.81600
N  48.38000 17.05600 30.45300
C  47.67600 16.59100 31.56200
C  48.38400 17.02700 32.83600
C  49.57300 17.91100 32.28200
C  49.44700 17.76000 30.78600
C  49.55500 19.41300 32.82400
C  48.71100 15.81100 33.80700
C  48.47400 16.06500 35.28400
H  48.22400 17.49900 35.80700
N  49.78900 17.22900 27.71400
C  50.66700 17.97300 28.50100
C  51.78400 18.36400 27.74200
C  51.53700 18.00800 26.40800
C  50.22000 17.33300 26.35900
C  53.01000 19.10900 28.28200
C  52.46200 18.10200 25.15200
O  52.14600 17.70100 24.03000
C  53.81400 18.89800 25.27900
N  47.46400 15.79300 26.35100
C  48.19000 16.25800 25.24900
C  47.51200 15.83700 23.90100
C  46.22000 15.05100 24.42000
C  46.31200 15.20900 25.95800
C  47.14100 17.02400 22.91100
C  46.04600 13.60500 23.95400
C  45.70700 13.41400 22.43200
N  46.22300 15.52800 28.96500
C  45.20200 14.89700 28.26200
C  44.14100 14.53600 29.17900
C  44.61700 14.80900 30.42300
C  45.85400 15.47500 30.26800
C  42.87500 14.00500 28.79000
C  44.33100 14.75600 31.84300
O  43.31500 14.36000 32.41300
C  45.46000 15.44600 32.60800
C  44.79000 16.56300 33.36100
O  44.24900 17.52200 32.81900
O  44.53700 16.14900 34.67200
C  43.71100 17.03100 35.45800
H  51.23600 18.78900 30.32900
H  49.78600 17.21700 24.31900
H  44.26200 14.63300 26.43900
H  47.59600 17.64200 33.27100
H  50.53300 17.51600 32.61400
H  48.67900 19.56200 33.45500
H  49.48100 20.01500 31.91800
H  50.47200 19.73900 33.31300
H  49.72300 15.54000 33.50500
H  48.09200 14.96600 33.50600
H  49.36800 15.68300 35.77500
H  47.60600 15.42900 35.46000
H  53.87800 18.46400 28.41700
H  52.74900 19.56300 29.23800
H  53.13500 20.02700 27.70800
H  54.36400 18.57600 26.16300
H  53.60200 19.96100 25.16700
H  54.42400 18.56600 24.43900
H  48.07600 15.07400 23.36400
H  45.33100 15.59400 24.09900
H  46.08400 17.21600 22.72400
H  47.69200 16.74200 22.01500
H  47.62500 17.95300 23.21200
H  45.28100 13.13800 24.57400
H  46.99200 13.09600 24.14200
H  46.17500 12.49400 22.08200
H  46.00100 14.29300 21.85900
H  44.63200 13.24400 22.36700
H  42.30500 13.88700 29.71200
H  42.98200 13.02800 28.31700
H  42.41200 14.69800 28.08800
H  45.78000 14.73300 33.36800
H  44.34700 17.77100 35.94300
H  43.34400 16.51700 36.34700
H  42.90500 17.52700 34.91900

