79

Mg 9.19700 3.46100 27.16300
C  10.31400 1.83100 29.96300
C  7.21700 5.47300 29.03000
C  8.01900 4.83400 24.25800
C  10.92700 1.11800 25.18500
N  8.67300 3.44900 29.30100
C  9.46800 2.89500 30.27400
C  9.10500 3.56400 31.71400
C  7.97600 4.57500 31.29000
C  7.92800 4.55300 29.80400
C  6.69700 4.43100 32.02000
C  10.37800 3.99500 32.48500
C  10.21500 4.85100 33.67100
H  10.39500 4.34800 35.09700
N  7.88700 4.98000 26.63900
C  7.14900 5.63100 27.61100
C  6.30500 6.61000 26.97500
C  6.53900 6.50600 25.54800
C  7.52300 5.45900 25.40700
C  5.46800 7.63300 27.78400
C  6.00500 7.29900 24.38400
O  6.30000 7.09900 23.24800
C  5.04900 8.41200 24.70100
N  9.50700 3.07600 25.09000
C  8.90100 3.78200 24.12500
C  9.34900 3.39900 22.73100
C  10.17200 2.16900 23.02600
C  10.23100 2.12700 24.51000
C  8.13900 3.30800 21.75800
C  11.48000 1.97300 22.24700
C  11.47000 0.87500 21.14300
N  10.35800 1.81100 27.44300
C  11.05400 0.95100 26.59000
C  11.86500 -0.05600 27.33600
C  11.56000 0.30100 28.70200
C  10.59500 1.38800 28.69100
C  12.74000 -1.20400 26.81900
C  12.01900 -0.01700 30.04500
O  12.97800 -0.74800 30.38300
C  11.19900 0.97500 30.89100
C  10.40100 0.48000 31.96800
O  9.22900 0.26000 31.93800
O  11.17600 0.20200 33.02000
C  10.49800 -0.13000 34.27700
H  6.73100 6.27600 29.58900
H  7.66100 5.28100 23.32800
H  11.45400 0.47100 24.48100
H  8.72600 2.77100 32.35800
H  8.42000 5.55700 31.45200
H  6.85000 3.66500 32.78100
H  5.95100 4.05700 31.31900
H  6.38700 5.40400 32.39900
H  11.14500 4.49800 31.89600
H  10.75500 3.01700 32.78400
H  9.26400 5.38100 33.65400
H  10.88200 5.69600 33.50300
H  4.50700 7.78400 27.29200
H  6.06300 8.54100 27.68400
H  5.31600 7.39600 28.83700
H  5.53900 9.13400 25.35400
H  4.13200 7.98100 25.10200
H  4.73000 8.84400 23.75200
H  10.04100 4.17200 22.39600
H  9.66600 1.21500 22.87800
H  7.21000 3.34400 22.32700
H  8.08400 2.36300 21.21700
H  8.23600 4.19700 21.13600
H  12.27000 1.68100 22.93900
H  11.89900 2.92400 21.92000
H  10.44700 0.85300 20.76700
H  11.89300 -0.04600 21.54500
H  12.03800 1.19700 20.27000
H  13.78900 -0.96700 26.64100
H  12.31300 -1.41000 25.83700
H  12.78900 -2.02500 27.53400
H  11.87700 1.71800 31.31000
H  11.14700 0.09000 35.12500
H  10.29200 -1.19300 34.40700
H  9.59600 0.47200 34.38700

