79

Mg 25.50500 1.17900 28.99400
C  27.41100 0.80500 32.04700
C  22.66100 1.51800 31.09400
C  23.56300 1.13500 26.37400
C  28.30300 0.31300 27.22800
N  25.16300 1.19900 31.31100
C  26.08000 1.12000 32.30800
C  25.43300 1.35500 33.67100
C  23.95700 1.38300 33.26700
C  23.90100 1.32300 31.80400
C  22.89500 0.31400 33.85900
C  25.99800 2.55500 34.41400
C  26.73900 2.31800 35.78400
H  26.43900 3.22300 36.96500
N  23.40600 1.29400 28.75500
C  22.44400 1.50500 29.70600
C  21.17500 1.75000 29.01300
C  21.48200 1.81100 27.59900
C  22.83900 1.38700 27.49900
C  19.90100 1.90500 29.74600
C  20.56800 2.18100 26.40100
O  20.91600 2.07100 25.27400
C  19.24600 2.70200 26.69100
N  25.87900 0.57500 27.08700
C  24.92900 0.85500 26.13500
C  25.51700 0.80500 24.69600
C  27.04400 0.42000 25.02600
C  27.08700 0.47100 26.53100
C  24.90100 -0.23600 23.74300
C  28.09100 1.37700 24.39700
C  28.77100 0.85300 23.11100
N  27.48200 0.63400 29.49200
C  28.52000 0.36200 28.60900
C  29.71500 0.19200 29.35900
C  29.37600 0.39400 30.76900
C  27.93900 0.56300 30.73700
C  31.11900 0.02600 28.75000
C  29.85000 0.48000 32.18300
O  30.99300 0.29100 32.62400
C  28.59300 0.83700 33.06700
C  28.48400 -0.28500 34.07700
O  28.10700 -1.37800 33.76200
O  28.94200 0.18300 35.31500
C  28.84300 -0.74000 36.46200
H  21.77300 1.59100 31.72600
H  23.03200 0.96300 25.43600
H  29.24000 0.00700 26.75700
H  25.63500 0.43100 34.21200
H  23.50900 2.35700 33.46500
H  23.22000 0.15700 34.88800
H  22.87300 -0.58400 33.24100
H  21.92200 0.79200 33.97400
H  25.13600 3.14600 34.72100
H  26.44900 3.26100 33.71700
H  27.75100 2.64400 35.54400
H  26.63300 1.25000 35.97800
H  19.80000 1.16400 30.54000
H  18.97500 1.59700 29.26100
H  19.71300 2.85900 30.23800
H  18.78800 3.14000 25.80500
H  19.38400 3.41100 27.50700
H  18.58400 1.93200 27.08800
H  25.49400 1.78600 24.22000
H  27.49800 -0.53100 24.74800
H  25.67300 -0.96500 23.49500
H  24.62300 0.36600 22.87800
H  24.04100 -0.67700 24.24600
H  28.89400 1.68700 25.06600
H  27.68900 2.36300 24.16300
H  28.53200 -0.16900 22.81800
H  29.85900 0.84000 23.17100
H  28.45500 1.47500 22.27300
H  31.25000 0.49300 27.77400
H  31.22900 -1.05300 28.64100
H  31.80700 0.32700 29.54100
H  28.79800 1.76900 33.59500
H  29.12300 -1.73000 36.10100
H  27.87500 -0.82000 36.95600
H  29.45500 -0.46500 37.32000

