79

Mg 34.69200 49.56700 25.73400
C  34.54100 47.94800 28.98900
C  33.31000 52.36000 27.33700
C  34.11900 50.88000 22.74700
C  35.52300 46.56800 24.25900
N  33.99200 50.07800 27.87800
C  34.06500 49.33500 29.04300
C  33.76500 50.10400 30.33900
C  33.19100 51.45300 29.78800
C  33.38900 51.26200 28.22600
C  31.71700 51.73300 30.06300
C  35.00000 50.15300 31.28600
C  34.85800 49.46600 32.59900
H  33.55900 49.64600 33.38900
N  34.07100 51.43900 25.15900
C  33.57200 52.43900 25.96900
C  33.37600 53.57800 25.13800
C  33.57000 53.19000 23.79200
C  33.85500 51.76600 23.84900
C  32.98100 54.93100 25.63000
C  33.51900 54.05100 22.52000
O  33.59800 53.64700 21.40200
C  33.32600 55.51000 22.62700
N  34.60300 48.78500 23.79700
C  34.45400 49.54100 22.70300
C  34.96500 48.87500 21.40500
C  35.43800 47.51300 21.93200
C  35.24300 47.65600 23.42200
C  33.94200 48.91700 20.29200
C  36.80000 47.05400 21.35600
C  38.02300 47.63200 22.09100
N  34.90000 47.60400 26.45000
C  35.27600 46.49800 25.69400
C  35.53400 45.35000 26.61800
C  35.21100 45.91600 27.89200
C  34.90900 47.26100 27.75200
C  35.98200 43.93800 26.33400
C  35.12500 45.57000 29.29300
O  35.37300 44.51400 29.87400
C  34.64100 46.88200 30.03400
C  33.46800 46.68600 30.92400
O  32.36000 47.12100 30.70600
O  33.76300 45.81100 31.90200
C  32.67400 45.48400 32.88900
H  33.23100 53.30800 27.87400
H  34.14500 51.36900 21.77100
H  35.87900 45.73300 23.65100
H  32.98000 49.60400 30.90600
H  33.72700 52.27700 30.26000
H  31.34600 51.06200 30.83800
H  30.94900 51.68600 29.29100
H  31.63900 52.74800 30.45300
H  35.32500 51.18700 31.40700
H  35.76800 49.81200 30.59300
H  35.70200 49.75400 33.22600
H  34.92500 48.39000 32.43800
H  33.82100 55.61400 25.50400
H  32.84200 54.91300 26.71100
H  31.99500 55.15100 25.22100
H  32.29900 55.77000 22.88200
H  33.46700 55.93400 21.63300
H  34.14800 55.99800 23.15100
H  35.77100 49.42100 20.91500
H  34.73100 46.77500 21.55300
H  32.94900 49.27600 20.56500
H  33.82900 47.96900 19.76600
H  34.29800 49.53200 19.46600
H  36.80200 47.41100 20.32600
H  36.93500 45.97700 21.26000
H  38.63800 46.77400 22.36300
H  37.85900 48.21900 22.99500
H  38.63000 48.04600 21.28700
H  35.48000 43.41000 25.52400
H  35.93500 43.21800 27.15200
H  37.04000 43.93500 26.07200
H  35.48200 47.20400 30.64800
H  33.21700 45.24800 33.80400
H  32.15600 44.64200 32.43000
H  31.98700 46.25100 33.24700

