79

Mg 36.25300 49.24200 24.25700
C  36.77600 47.65400 27.33700
C  35.02300 51.95400 25.74700
C  35.60700 50.61100 21.31100
C  37.48900 46.23600 22.62300
N  36.01700 49.70300 26.30700
C  36.28100 48.94900 27.42500
C  36.00500 49.69200 28.74500
C  35.42400 51.11800 28.20600
C  35.45900 50.89800 26.65500
C  33.97700 51.48300 28.73000
C  37.27000 49.83500 29.72100
C  37.04500 49.67700 31.20800
H  35.55300 49.64200 31.70000
N  35.40800 51.04600 23.61700
C  35.02000 52.07000 24.41300
C  34.64900 53.23100 23.60200
C  34.77200 52.81700 22.27100
C  35.28500 51.49400 22.34300
C  34.10100 54.61700 24.18700
C  34.45400 53.52100 20.96300
O  34.85900 53.11500 19.93900
C  33.73100 54.84300 21.02100
N  36.35300 48.44500 22.24000
C  36.05600 49.25100 21.21300
C  36.47400 48.65300 19.87300
C  37.16600 47.27100 20.28500
C  36.95400 47.28100 21.81600
C  35.31800 48.45200 18.89500
C  38.63500 47.05300 19.83300
C  39.69400 47.91800 20.52200
N  36.96400 47.34600 24.79000
C  37.43800 46.25200 24.01900
C  37.97800 45.25600 24.92000
C  37.72200 45.83100 26.20600
C  37.15600 47.06400 26.07200
C  38.60900 43.98200 24.71500
C  37.95800 45.56700 27.67600
O  38.63400 44.71800 28.24900
C  37.30100 46.71700 28.44000
C  36.28000 46.08000 29.29700
O  35.11500 45.76200 29.00000
O  36.80300 45.86900 30.57700
C  35.80100 45.27000 31.51800
H  34.55300 52.78100 26.28300
H  35.53300 51.12900 20.35200
H  38.04000 45.44200 22.11400
H  35.16600 49.20900 29.24600
H  36.00900 52.02200 28.37600
H  34.16000 52.43900 29.22200
H  33.60800 50.76500 29.46200
H  33.23000 51.66700 27.95700
H  37.71100 50.79800 29.46400
H  38.06200 49.12300 29.49100
H  37.65700 50.46400 31.64800
H  37.52900 48.75700 31.53600
H  34.41500 54.59800 25.23100
H  33.02100 54.76000 24.16000
H  34.52800 55.48600 23.68600
H  34.44200 55.61900 21.30500
H  32.97400 54.66200 21.78400
H  33.20100 55.04100 20.08900
H  37.16500 49.34500 19.39100
H  36.59800 46.46200 19.82500
H  34.35900 48.60700 19.38900
H  35.38500 47.46400 18.43900
H  35.36800 49.23200 18.13500
H  38.70500 47.18400 18.75300
H  38.83700 45.98200 19.86000
H  39.43200 48.37100 21.47900
H  40.14700 48.56400 19.77000
H  40.54700 47.27000 20.72600
H  38.20900 43.64600 23.75800
H  38.34200 43.16500 25.38600
H  39.68900 43.98700 24.86200
H  38.00900 47.18800 29.12200
H  35.86400 44.18700 31.41000
H  34.81000 45.70800 31.63900
H  36.31300 45.60100 32.42200

