79

Mg -1.83200 17.33400 26.12500
C  -2.44800 15.18400 28.88100
C  -3.12700 19.84700 27.99800
C  -1.61100 19.28700 23.56000
C  -1.31300 14.48200 24.12500
N  -2.71900 17.46600 28.22900
C  -2.80900 16.52300 29.17400
C  -3.33500 17.05200 30.53400
C  -3.99300 18.35300 30.03800
C  -3.26600 18.58800 28.66200
C  -5.54400 18.27600 29.93500
C  -2.18200 17.27600 31.52100
C  -2.49900 16.89400 33.00100
H  -1.22900 16.48400 33.87100
N  -1.99900 19.36200 25.95700
C  -2.56700 20.24500 26.80900
C  -2.40600 21.57200 26.29600
C  -1.88800 21.43300 25.00400
C  -1.86300 20.05400 24.74000
C  -2.74700 22.78100 27.13500
C  -1.41500 22.52600 24.10600
O  -0.80600 22.24800 23.07700
C  -1.47700 23.88300 24.55500
N  -1.71900 16.90300 24.18300
C  -1.55400 17.90600 23.26400
C  -1.53100 17.42900 21.85000
C  -1.11900 15.91800 22.03300
C  -1.39100 15.75700 23.54300
C  -2.93000 17.70400 21.26400
C  0.41500 15.58900 21.79900
C  1.46300 16.01500 22.79900
N  -1.86200 15.21600 26.41800
C  -1.60700 14.19300 25.54600
C  -1.67600 12.88600 26.20300
C  -2.01100 13.22300 27.56300
C  -2.11500 14.62800 27.62800
C  -1.52100 11.51200 25.62100
C  -2.23700 12.64300 28.86000
O  -2.24700 11.48800 29.28700
C  -2.55100 13.91500 29.76600
C  -1.57900 13.91600 30.95900
O  -0.37000 13.97200 30.92200
O  -2.31000 13.57000 32.04400
C  -1.53600 13.14900 33.18300
H  -3.55600 20.54400 28.72200
H  -1.57700 19.97000 22.70900
H  -1.02400 13.72700 23.39100
H  -4.02600 16.29300 30.89900
H  -3.74400 19.16100 30.72600
H  -6.08700 19.09100 30.41500
H  -5.84900 17.28800 30.27900
H  -5.81300 18.27000 28.87900
H  -1.85000 18.31300 31.56700
H  -1.42600 16.56000 31.19700
H  -3.25500 16.12400 33.14800
H  -2.86600 17.82400 33.43700
H  -3.12200 22.59600 28.14200
H  -3.48700 23.41000 26.64000
H  -1.81500 23.34700 27.15500
H  -2.47100 24.15000 24.91400
H  -1.23600 24.53600 23.71700
H  -0.68500 24.06100 25.28200
H  -0.74100 17.93400 21.29200
H  -1.75900 15.34200 21.36400
H  -3.40700 16.72500 21.23000
H  -2.82400 18.00300 20.22100
H  -3.54100 18.26900 21.96700
H  0.82500 16.06600 20.90900
H  0.48900 14.54200 21.50600
H  1.90100 15.12100 23.24300
H  1.02200 16.71200 23.51100
H  2.36700 16.40800 22.33400
H  -1.47700 11.49300 24.53300
H  -2.44900 10.99200 25.86100
H  -0.68000 11.00400 26.09200
H  -3.55900 13.73900 30.14200
H  -2.02700 13.66100 34.01100
H  -0.51100 13.51400 33.23700
H  -1.54400 12.06000 33.21900

