79

Mg 0.35900 43.23100 26.05400
C  2.46700 43.44000 28.77900
C  -2.11800 42.36400 28.34100
C  -1.52500 42.63100 23.50700
C  3.10100 43.64800 23.89800
N  0.09200 43.51800 28.40200
C  1.09600 43.49700 29.26500
C  0.63800 43.42100 30.67500
C  -0.79500 42.83000 30.55300
C  -0.93900 42.88800 29.00100
C  -1.14400 41.54600 31.35200
C  0.76500 44.82500 31.37900
C  0.63300 44.79500 32.92800
H  0.68800 43.48900 33.70800
N  -1.64800 42.87300 25.93800
C  -2.51600 42.57200 26.95100
C  -3.85100 42.20900 26.40200
C  -3.62800 42.16100 24.99000
C  -2.19600 42.49300 24.75300
C  -5.10100 41.98300 27.26200
C  -4.62300 41.79300 23.98200
O  -4.31800 41.66600 22.79400
C  -6.11100 41.49800 24.35000
N  0.67200 43.27900 24.00100
C  -0.24700 42.89700 23.11800
C  0.20400 42.87200 21.59600
C  1.67600 43.41800 21.80000
C  1.83700 43.45000 23.31500
C  0.07300 41.45100 20.95800
C  1.90200 44.82200 21.11100
C  1.30000 46.01800 21.86900
N  2.37900 43.48700 26.20000
C  3.38500 43.52800 25.30700
C  4.62800 43.58900 26.00300
C  4.30800 43.50400 27.32800
C  2.93900 43.48000 27.40200
C  6.00200 43.62400 25.46300
C  4.88800 43.39500 28.60200
O  6.02400 43.40400 28.97100
C  3.75000 43.46400 29.65700
C  3.98600 42.29200 30.50800
O  3.50500 41.15700 30.40900
O  4.68500 42.69900 31.59000
C  4.97700 41.64100 32.52400
H  -2.89500 42.05200 29.04200
H  -2.11200 42.29000 22.65200
H  4.00700 43.66400 23.28900
H  1.26200 42.69300 31.19300
H  -1.51600 43.59400 30.84300
H  -1.19300 40.73200 30.62800
H  -2.15700 41.64600 31.74000
H  -0.36900 41.29100 32.07500
H  -0.12200 45.32400 30.98900
H  1.66200 45.25800 30.93500
H  -0.18800 45.42100 33.27800
H  1.56500 45.22300 33.29700
H  -5.91200 42.67800 27.04600
H  -4.83800 41.97600 28.32000
H  -5.39400 40.96200 27.01900
H  -6.31200 40.55400 24.85600
H  -6.72100 41.61700 23.45500
H  -6.43200 42.29400 25.02100
H  -0.47100 43.51800 21.03500
H  2.44500 42.75600 21.40200
H  1.07400 41.02900 21.04600
H  -0.17500 41.59600 19.90600
H  -0.71800 40.85000 21.40800
H  1.42000 44.76400 20.13500
H  2.97300 45.02400 21.10100
H  0.67800 46.54300 21.14400
H  2.13000 46.60000 22.26800
H  0.59000 45.78700 22.66300
H  6.10700 44.68100 25.21800
H  6.12400 43.02700 24.56000
H  6.77400 43.29500 26.15800
H  3.79800 44.38400 30.24000
H  5.55900 40.79400 32.15800
H  4.11200 41.22100 33.03700
H  5.60900 42.10400 33.28200

