79

Mg 6.51400 57.54600 42.18100
C  5.83300 53.98600 42.15400
C  9.58900 56.75600 40.77700
C  6.88800 60.75100 41.53700
C  3.33100 58.06900 43.36500
N  7.49100 55.62400 41.39700
C  7.11100 54.37500 41.54300
C  8.25800 53.37000 41.24300
C  9.56400 54.24200 41.12400
C  8.80400 55.63600 41.12600
C  10.59700 54.13500 42.24800
C  7.86900 52.54300 39.92300
C  8.93100 52.13700 38.85200
H  8.45900 51.03500 37.88700
N  8.09000 58.65200 41.39700
C  9.25700 58.11900 40.80400
C  9.97800 59.23000 40.23700
C  9.32600 60.40700 40.59100
C  8.01900 59.96300 41.19100
C  11.31300 59.03400 39.37000
C  9.80800 61.88200 40.42200
O  10.77400 62.15800 39.74900
C  9.03600 63.05000 41.06200
N  5.19400 59.17300 42.32100
C  5.62700 60.42500 42.13700
C  4.59500 61.55700 42.52500
C  3.50600 60.64600 43.14900
C  3.97200 59.22100 42.89000
C  5.19100 62.56300 43.58400
C  2.09300 60.85000 42.58600
C  0.93400 60.68200 43.47300
N  4.89700 56.33800 42.80800
C  3.71200 56.68800 43.28300
C  2.94800 55.46700 43.63000
C  3.81600 54.43000 43.30500
C  4.91700 54.96500 42.67200
C  1.54100 55.43600 44.21200
C  3.90500 53.03100 43.23200
O  3.24300 52.16300 43.77200
C  5.27500 52.66400 42.45600
C  4.91200 51.92500 41.23000
O  4.33400 52.36400 40.28000
O  5.32300 50.59300 41.40500
C  4.93800 49.64100 40.37200
H  10.57900 56.55500 40.36300
H  6.84200 61.82500 41.34800
H  2.34900 58.19100 43.82600
H  8.34300 52.52200 41.92400
H  10.22700 54.07200 40.27700
H  10.21100 53.40700 42.96200
H  10.86000 55.12600 42.62000
H  11.49300 53.69200 41.81300
H  7.06200 53.10500 39.45300
H  7.33900 51.67100 40.30800
H  9.83200 51.75000 39.32700
H  9.21100 53.04900 38.32600
H  11.28000 59.22200 38.29700
H  11.73100 58.02800 39.41700
H  12.09100 59.58600 39.89700
H  8.76700 62.89800 42.10700
H  8.15000 63.32000 40.48700
H  9.69400 63.91900 41.05500
H  4.22300 62.01600 41.60900
H  3.57700 60.84400 44.21800
H  4.50900 62.82100 44.39400
H  5.63500 63.39100 43.03100
H  6.10300 62.10900 43.97300
H  1.99400 60.20500 41.71200
H  2.08500 61.80300 42.05600
H  1.14600 60.21100 44.43300
H  0.19800 60.01300 43.02500
H  0.46000 61.65000 43.63500
H  0.86700 55.13600 43.41000
H  1.33400 56.45000 44.55400
H  1.49500 54.73600 45.04600
H  5.84800 52.04300 43.14400
H  4.02200 49.93600 39.85900
H  4.90200 48.57900 40.61600
H  5.70200 49.75900 39.60300

