79

Mg 26.12700 50.54000 26.41100
C  23.90700 51.38200 29.01600
C  28.48600 49.75100 28.95200
C  28.47800 50.33600 24.14700
C  23.87400 51.74200 24.11800
N  26.08700 50.47600 28.73500
C  25.08100 50.93500 29.56000
C  25.39500 50.75300 31.11000
C  26.97800 50.40400 31.03200
C  27.23200 50.13300 29.45600
C  27.92400 51.53200 31.69700
C  24.49800 49.77800 31.81200
C  23.84300 50.16200 33.15700
H  24.67200 50.66400 34.32300
N  28.17600 50.03200 26.49800
C  28.90700 49.62500 27.59800
C  30.19700 49.25100 27.27500
C  30.34100 49.53500 25.89100
C  28.97200 49.99800 25.40600
C  31.20200 48.64700 28.19000
C  31.49400 49.47000 24.90600
O  31.49700 49.92100 23.76000
C  32.76800 48.90900 25.45600
N  26.15900 50.93000 24.40600
C  27.26600 50.68400 23.59600
C  26.97700 50.96400 22.07000
C  25.45100 51.33300 22.14000
C  25.12700 51.35300 23.59500
C  27.94000 51.88600 21.30800
C  24.54700 50.46900 21.26300
C  24.33900 49.03800 21.85600
N  24.25200 51.28800 26.48300
C  23.46600 51.72600 25.47600
C  22.17300 52.17300 25.95000
C  22.32900 52.10300 27.34000
C  23.57200 51.51400 27.62000
C  21.02600 52.64800 25.12200
C  21.71400 52.46100 28.54000
O  20.61700 53.09500 28.67000
C  22.68200 51.98100 29.71600
C  23.05000 53.10400 30.59100
O  24.09500 53.78700 30.52500
O  22.11700 53.26300 31.50400
C  22.23200 54.39600 32.44200
H  29.18700 49.50300 29.75200
H  29.23100 50.19100 23.36900
H  23.19900 52.01400 23.30400
H  25.27300 51.75500 31.52000
H  27.18900 49.46600 31.54500
H  28.25200 52.24700 30.94200
H  28.73300 50.90400 32.07000
H  27.40100 52.07600 32.48300
H  25.02900 48.86900 32.09300
H  23.72200 49.52500 31.08900
H  23.33500 49.25700 33.48700
H  23.06700 50.92700 33.12200
H  31.52000 47.66400 27.84100
H  30.88100 48.48400 29.21900
H  32.00400 49.37200 28.05300
H  32.62300 47.99000 26.02300
H  33.05700 49.60400 26.24500
H  33.59900 48.79000 24.76000
H  27.01200 49.99900 21.56400
H  25.35700 52.40100 21.94200
H  28.57300 52.48100 21.96500
H  27.33600 52.59000 20.73500
H  28.47900 51.25600 20.60000
H  24.61400 50.42900 20.17500
H  23.65100 51.08800 21.20900
H  25.07000 48.71700 22.59800
H  24.13800 48.29300 21.08600
H  23.35500 49.10200 22.32000
H  20.07600 52.53600 25.64500
H  20.90600 52.05500 24.21400
H  21.03700 53.71400 24.89500
H  22.15200 51.17600 30.22400
H  22.29700 54.08800 33.48500
H  21.27300 54.89500 32.30300
H  22.94100 55.19700 32.23100

