79

Mg 17.04900 52.06700 26.47700
C  19.08800 50.63100 28.89100
C  14.91300 53.06900 28.89400
C  15.09800 53.38000 24.09600
C  19.26700 50.84500 24.00500
N  17.06400 51.87900 28.67600
C  18.03300 51.32600 29.50700
C  17.61600 51.44200 31.00600
C  16.15200 51.96800 30.90100
C  16.03400 52.40300 29.41700
C  15.03300 51.01400 31.32800
C  18.70200 52.29700 31.76300
C  18.82500 52.10800 33.28100
H  17.69000 51.34000 33.96500
N  15.23000 53.12200 26.54700
C  14.49900 53.49900 27.65100
C  13.29800 54.17900 27.31900
C  13.37900 54.37600 25.87300
C  14.63200 53.61000 25.41400
C  12.26700 54.72900 28.17600
C  12.52700 55.22200 24.95200
O  12.76600 55.41700 23.75600
C  11.26500 55.93600 25.52300
N  17.27900 52.27600 24.32100
C  16.31600 52.84100 23.57200
C  16.49400 52.45700 22.12900
C  17.98200 51.82900 22.16400
C  18.19200 51.58700 23.60100
C  15.40400 51.50100 21.70300
C  19.09500 52.77300 21.74000
C  19.19000 54.18900 22.29000
N  18.85200 50.94700 26.34800
C  19.67300 50.54500 25.29200
C  20.72500 49.71900 25.85600
C  20.51600 49.65700 27.23800
C  19.40700 50.48500 27.51200
C  21.77100 49.17400 25.01000
C  20.97600 49.09800 28.48300
O  21.86300 48.31100 28.66400
C  20.07800 49.73700 29.64500
C  19.42400 48.58900 30.26900
O  18.57000 47.84100 29.76700
O  19.80200 48.51500 31.55400
C  19.04000 47.61200 32.39600
H  14.27800 53.37600 29.72800
H  14.39700 53.72400 23.33300
H  20.04800 50.58100 23.28900
H  17.64300 50.44700 31.45000
H  16.01700 52.87000 31.49700
H  14.08500 51.51800 31.51400
H  15.44300 50.47300 32.18100
H  14.85700 50.25900 30.56200
H  18.40200 53.32500 31.56200
H  19.63400 52.26600 31.19700
H  18.72900 53.11000 33.69900
H  19.79800 51.71400 33.57500
H  11.25900 54.51600 27.81800
H  12.40300 55.80900 28.22800
H  12.33400 54.30800 29.17900
H  11.45700 56.60300 26.36300
H  10.60800 55.14800 25.89000
H  10.74900 56.41300 24.69000
H  16.55200 53.34000 21.49200
H  18.03300 50.83600 21.71700
H  14.60000 51.50700 22.43900
H  15.89100 50.53500 21.56300
H  15.08200 51.73400 20.68800
H  19.09800 52.65300 20.65700
H  20.02200 52.27000 22.01600
H  20.07000 54.34700 22.91400
H  18.30000 54.57000 22.79000
H  19.27600 54.75900 21.36500
H  22.37300 48.49300 25.61000
H  22.35800 49.95200 24.52000
H  21.20000 48.72700 24.19600
H  20.68100 50.29300 30.36300
H  18.01900 47.53900 32.02100
H  18.95100 47.90200 33.44300
H  19.47800 46.62000 32.29300

