79

Mg 16.35100 -2.08000 27.55100
C  15.38800 -0.00700 30.31900
C  18.60100 -3.52600 29.62900
C  17.53800 -3.60700 24.85300
C  14.24600 -0.32200 25.55100
N  16.78400 -1.87700 29.70700
C  16.28900 -1.00700 30.68700
C  16.78000 -1.32900 32.08200
C  17.88300 -2.39800 31.79300
C  17.74400 -2.61100 30.25900
C  19.27300 -1.99900 32.27200
C  15.68100 -1.87900 32.98700
C  15.57300 -1.30000 34.51200
H  16.82300 -0.90700 35.26300
N  17.78100 -3.47200 27.32100
C  18.62300 -3.93100 28.28900
C  19.46800 -4.95500 27.73600
C  19.10300 -5.08900 26.35800
C  18.10500 -3.98800 26.07300
C  20.35900 -5.82700 28.44900
C  19.64800 -6.12900 25.31900
O  19.19800 -6.13800 24.21000
C  20.83000 -7.05700 25.63300
N  16.03800 -1.93000 25.45700
C  16.62100 -2.62300 24.51900
C  16.29700 -2.11700 23.10000
C  14.89300 -1.44200 23.37000
C  15.09400 -1.18000 24.87200
C  17.42000 -1.29100 22.38100
C  13.60900 -2.26600 22.98700
C  12.61400 -2.84700 24.04600
N  15.06800 -0.54300 27.82900
C  14.16300 0.01100 26.92000
C  13.46800 1.12400 27.55600
C  13.88600 1.06700 28.91300
C  14.89100 0.08800 29.01100
C  12.71300 2.19100 26.76100
C  13.74100 1.79900 30.15200
O  13.06600 2.80900 30.39900
C  14.61800 1.03000 31.18100
C  15.55000 1.97100 31.91100
O  16.49300 2.55400 31.45200
O  15.11100 2.04100 33.22400
C  15.65100 3.12500 34.09300
H  19.32400 -4.09100 30.22200
H  18.00400 -4.04200 23.96600
H  13.37800 0.03000 24.99000
H  17.23600 -0.37600 32.34900
H  17.64500 -3.31200 32.33800
H  19.33100 -1.19900 33.00900
H  20.03500 -1.79000 31.52100
H  19.72600 -2.84800 32.78400
H  15.63900 -2.96700 32.93600
H  14.76100 -1.81500 32.40600
H  15.09600 -2.08800 35.09500
H  15.02700 -0.35700 34.51600
H  21.32200 -5.90000 27.94300
H  19.92800 -6.82700 28.41200
H  20.44200 -5.67200 29.52500
H  21.76800 -6.64400 25.26300
H  20.68800 -7.90100 24.95800
H  20.93100 -7.60200 26.57100
H  16.25700 -3.04400 22.52700
H  14.77700 -0.42800 22.98800
H  17.15400 -0.27500 22.08800
H  17.71200 -1.88100 21.51200
H  18.27000 -1.35800 23.06000
H  14.06400 -3.15700 22.55500
H  13.10800 -1.77300 22.15400
H  12.90900 -2.58800 25.06300
H  12.43000 -3.92100 24.01100
H  11.62900 -2.39500 23.93900
H  12.88300 3.14700 27.25500
H  11.70800 1.77800 26.84900
H  13.06400 2.19300 25.72900
H  13.88300 0.56700 31.84000
H  14.82900 3.81300 34.28900
H  16.52300 3.62500 33.67000
H  15.97600 2.59400 34.98700

