79

Mg 26.24700 -0.68900 29.32000
C  28.30800 -1.19300 32.25700
C  23.61300 -0.17900 31.53600
C  24.16400 -0.60700 26.69600
C  28.83100 -1.89500 27.41000
N  26.03500 -0.58200 31.66300
C  26.99600 -0.68100 32.60400
C  26.48200 -0.31500 34.01200
C  24.91200 -0.01900 33.70600
C  24.81600 -0.34300 32.19800
C  23.92000 -0.72600 34.71700
C  27.17900 0.90800 34.74600
C  27.97600 0.57500 36.01800
H  27.37600 1.25000 37.30000
N  24.14600 -0.34100 29.13100
C  23.23900 -0.10900 30.14000
C  21.91400 -0.00900 29.54800
C  22.08200 -0.07700 28.12700
C  23.48600 -0.38300 27.94300
C  20.69900 0.28400 30.47200
C  21.04800 -0.04700 27.03600
O  21.27300 -0.11000 25.83200
C  19.61800 0.16900 27.46900
N  26.41800 -1.20900 27.36700
C  25.52800 -0.88200 26.40500
C  26.11000 -0.85300 25.08000
C  27.58200 -1.41000 25.26500
C  27.62000 -1.48100 26.76900
C  25.27200 -1.61000 23.98700
C  28.72200 -0.59200 24.58500
C  29.02900 0.77500 25.19800
N  28.16500 -1.40400 29.66300
C  29.13600 -1.90600 28.82800
C  30.34000 -2.28800 29.57300
C  30.05700 -1.87500 30.86300
C  28.74600 -1.38000 30.91400
C  31.63000 -2.60600 28.90400
C  30.72700 -1.77800 32.15000
O  31.85900 -2.16900 32.51500
C  29.54100 -1.40700 33.14100
C  29.43900 -2.46100 34.12800
O  28.71600 -3.48000 34.09000
O  30.27100 -2.20400 35.16400
C  30.04500 -3.08500 36.35000
H  22.80700 0.05100 32.23600
H  23.53200 -0.51500 25.81000
H  29.66900 -2.20000 26.78100
H  26.57500 -1.20700 34.63000
H  24.79800 1.05800 33.83200
H  23.65300 -1.75600 34.48300
H  22.94600 -0.23700 34.70500
H  24.45200 -0.74900 35.66900
H  26.49600 1.73000 34.96100
H  27.91300 1.44100 34.14100
H  29.04100 0.73700 35.85300
H  27.96700 -0.49600 36.22100
H  20.01600 -0.56200 30.54500
H  20.13900 1.18300 30.21300
H  20.96200 0.53700 31.50000
H  19.36300 -0.57900 28.21900
H  18.92900 0.16400 26.62400
H  19.46600 1.16500 27.88200
H  26.12600 0.15300 24.66000
H  27.71300 -2.41200 24.85800
H  24.76700 -0.93700 23.29400
H  24.56000 -2.15100 24.61000
H  25.89900 -2.31000 23.43600
H  28.54400 -0.43800 23.52100
H  29.68300 -1.10000 24.66200
H  30.04700 0.71100 25.58100
H  28.33900 0.97300 26.01800
H  28.86100 1.51100 24.41200
H  31.94600 -1.64000 28.51000
H  31.45300 -3.19900 28.00700
H  32.45200 -2.95600 29.53000
H  29.75300 -0.46000 33.63700
H  30.88100 -2.82100 36.99700
H  30.14600 -4.09700 35.95800
H  29.14400 -2.95900 36.95000

