79

Mg 24.66000 -5.49300 45.64200
C  27.23300 -3.39600 44.31100
C  22.57200 -3.93300 43.34000
C  22.56800 -8.00600 45.98500
C  27.18500 -7.11500 47.47300
N  24.92000 -3.73600 44.11600
C  26.01100 -3.02100 43.76700
C  25.69500 -2.02500 42.60700
C  24.12700 -2.04600 42.64300
C  23.80000 -3.34200 43.43300
C  23.28500 -0.75300 43.20700
C  26.31900 -2.44600 41.22300
C  26.39200 -1.17000 40.28100
H  25.85400 -1.38100 38.83600
N  22.72700 -5.86400 44.94500
C  22.04700 -5.09600 44.00700
C  20.69600 -5.64400 43.80600
C  20.72000 -6.88600 44.46700
C  22.06400 -7.01300 45.17800
C  19.60000 -5.05900 42.90900
C  19.61800 -7.96400 44.52800
O  18.51400 -7.73500 44.10400
C  19.77700 -9.33800 45.22200
N  24.86600 -7.29400 46.50800
C  23.79100 -8.10700 46.60000
C  24.13400 -9.28600 47.57800
C  25.51400 -8.99600 48.10200
C  25.87900 -7.72500 47.41100
C  23.08500 -9.56900 48.67000
C  26.47300 -10.21200 47.95100
C  27.59800 -10.36000 48.97200
N  26.72200 -5.28700 45.96900
C  27.60100 -5.97700 46.83400
C  28.91400 -5.39800 46.79200
C  28.82800 -4.42000 45.74900
C  27.48700 -4.39000 45.30700
C  30.10900 -5.87600 47.47500
C  29.54000 -3.42500 44.93200
O  30.71600 -3.10000 44.97300
C  28.60700 -2.79800 43.93000
C  28.49400 -1.37800 44.12500
O  28.00000 -0.76600 45.03100
O  29.20900 -0.84100 43.10400
C  29.40900 0.60200 43.21400
H  21.95900 -3.50500 42.54300
H  21.93000 -8.85500 46.23900
H  27.96400 -7.66500 48.00600
H  26.02900 -1.04300 42.94000
H  23.80400 -2.21900 41.61600
H  24.00100 0.06800 43.17900
H  22.89700 -1.04400 44.18300
H  22.54000 -0.45900 42.46700
H  25.76300 -3.24400 40.73100
H  27.28900 -2.87400 41.47700
H  27.41000 -0.78200 40.30700
H  25.78400 -0.43700 40.81200
H  19.22900 -5.92000 42.35500
H  19.96900 -4.45300 42.08200
H  18.82700 -4.45600 43.38600
H  19.97300 -9.24100 46.28900
H  20.65000 -9.80200 44.76100
H  18.95700 -10.04200 45.08300
H  24.25600 -10.10300 46.86700
H  25.61400 -8.70300 49.14800
H  23.58100 -9.29000 49.60000
H  22.70000 -10.58700 48.73400
H  22.19200 -8.97000 48.49300
H  26.87600 -10.16800 46.93900
H  26.00700 -11.17900 48.14400
H  28.52900 -10.03200 48.51100
H  27.71200 -11.42500 49.17700
H  27.31600 -9.74000 49.82300
H  30.30100 -6.88500 47.10900
H  29.77600 -5.83800 48.51200
H  30.95000 -5.19600 47.33400
H  28.92700 -3.10200 42.93400
H  29.44500 1.01000 44.22400
H  28.68400 1.15600 42.61700
H  30.43000 0.80900 42.89600

