79

Mg -1.79600 34.34700 26.83200
C  -3.22500 32.51300 29.57300
C  -0.31400 36.34600 29.04400
C  -0.84400 36.13600 24.13400
C  -3.54500 32.14300 24.72900
N  -1.80300 34.29700 29.06700
C  -2.38700 33.55000 29.98700
C  -2.06100 33.96300 31.46600
C  -1.10700 35.22400 31.19700
C  -1.06100 35.29700 29.63600
C  -1.47000 36.59700 31.91500
C  -1.43000 32.89400 32.29300
C  -2.23000 32.51400 33.62300
H  -1.45600 32.22600 34.88700
N  -0.66900 35.98400 26.70800
C  -0.06500 36.69300 27.70000
C  0.71500 37.68300 27.14600
C  0.53800 37.69900 25.73800
C  -0.45700 36.63100 25.45300
C  1.48300 38.69000 28.05300
C  1.13100 38.63600 24.67000
O  0.74700 38.70700 23.47200
C  2.24000 39.54200 25.00800
N  -2.19200 34.20300 24.73300
C  -1.62400 35.03700 23.78700
C  -1.94800 34.59800 22.34300
C  -2.52100 33.17900 22.63300
C  -2.73200 33.10300 24.14900
C  -3.03700 35.53300 21.71900
C  -1.59200 32.06200 22.02900
C  -0.12300 32.02100 22.59600
N  -3.06900 32.71100 27.02500
C  -3.75200 31.99400 26.05300
C  -4.63300 31.03300 26.66700
C  -4.39400 31.18900 28.02000
C  -3.45000 32.20500 28.23900
C  -5.55700 30.00500 26.13900
C  -4.78000 30.68200 29.38800
O  -5.59000 29.82500 29.70900
C  -4.04600 31.51700 30.46000
C  -5.09800 32.08500 31.33000
O  -5.68000 33.12000 31.10700
O  -5.36100 31.25800 32.43800
C  -6.48600 31.72700 33.28200
H  0.24800 36.89900 29.80000
H  -0.46600 36.66700 23.25800
H  -4.02700 31.38800 24.10400
H  -3.02700 34.27300 31.86500
H  -0.08200 35.12100 31.55200
H  -2.04300 37.18200 31.19600
H  -0.64100 37.17600 32.32200
H  -2.19500 36.45600 32.71600
H  -0.51100 33.21300 32.78500
H  -1.31300 32.02400 31.64700
H  -2.58700 31.50100 33.44100
H  -3.11600 33.11800 33.81700
H  0.79100 38.72500 28.89500
H  1.74800 39.66800 27.65100
H  2.39100 38.13800 28.29800
H  1.89200 40.21800 25.78800
H  2.48200 40.19500 24.17000
H  3.06000 39.01800 25.50000
H  -0.99400 34.62200 21.81600
H  -3.48400 32.98700 22.16100
H  -3.28400 36.26100 22.49200
H  -3.90500 34.98200 21.35500
H  -2.74800 36.04400 20.80100
H  -1.49500 32.25700 20.96100
H  -2.00900 31.07200 22.21000
H  0.03200 32.70800 23.42900
H  0.66500 32.09200 21.84700
H  0.07400 31.04000 23.02800
H  -5.36400 29.00100 26.51700
H  -5.46700 30.00600 25.05200
H  -6.54500 30.34900 26.44700
H  -3.36800 30.88200 31.03100
H  -7.21800 32.23000 32.65000
H  -6.00400 32.44300 33.94800
H  -6.88000 30.98500 33.97600

