79

Mg 1.73800 42.69300 26.04500
C  2.88900 43.00000 29.34200
C  -1.35600 41.57100 27.47400
C  0.44600 42.17000 22.90100
C  4.75100 43.58000 24.80400
N  0.90400 42.25000 28.17200
C  1.55900 42.60400 29.37400
C  0.68900 42.23400 30.53500
C  -0.70400 41.69000 29.90100
C  -0.37000 41.87400 28.39800
C  -1.20700 40.25600 30.28000
C  0.43500 43.51100 31.38800
C  0.60500 43.40400 32.88000
H  0.30200 42.07600 33.48100
N  -0.12300 41.85000 25.26100
C  -1.24500 41.47600 26.03200
C  -2.28400 41.02500 25.15500
C  -1.78500 41.21800 23.80100
C  -0.42200 41.77000 23.94700
C  -3.57500 40.54500 25.71400
C  -2.53800 41.00700 22.55600
O  -2.04700 41.28900 21.43300
C  -4.00400 40.61000 22.53700
N  2.51700 42.64900 24.14300
C  1.82800 42.62900 22.97900
C  2.66900 43.10200 21.74700
C  3.86900 43.77000 22.46500
C  3.73800 43.28600 23.88400
C  3.08300 41.95700 20.84200
C  3.65900 45.34000 22.31800
C  4.32400 45.97200 21.07700
N  3.51900 43.18300 26.85400
C  4.68700 43.52200 26.24700
C  5.76700 43.67100 27.20300
C  5.08700 43.52500 28.41300
C  3.70300 43.18200 28.16700
C  7.15100 44.25000 27.00800
C  5.21200 43.70800 29.85800
O  6.18400 44.07400 30.47400
C  3.84600 43.33000 30.50400
C  4.26400 42.12600 31.31600
O  4.93400 41.15300 30.86700
O  3.98500 42.24400 32.66300
C  4.50700 41.18400 33.49800
H  -2.30100 41.17800 27.85500
H  0.03400 42.22300 21.89100
H  5.70200 43.74000 24.29300
H  1.19400 41.48400 31.14400
H  -1.58500 42.27900 30.15800
H  -1.70600 40.32100 31.24700
H  -0.28800 39.69200 30.44100
H  -1.84000 39.88300 29.47600
H  -0.59000 43.85700 31.24700
H  1.05800 44.35600 31.09400
H  0.08600 44.16500 33.46300
H  1.64200 43.63200 33.12900
H  -3.62300 40.25200 26.76300
H  -3.75300 39.68300 25.07100
H  -4.32000 41.33400 25.62200
H  -4.50200 40.80600 21.58700
H  -4.47800 41.34300 23.18900
H  -4.02400 39.61600 22.98300
H  2.03100 43.75100 21.14700
H  4.78400 43.32900 22.06900
H  2.26100 41.38300 20.41400
H  3.79400 41.32600 21.37600
H  3.51800 42.45700 19.97800
H  4.04600 45.81400 23.22000
H  2.60100 45.58000 22.21300
H  4.90300 46.74600 21.58000
H  3.65800 46.31400 20.28400
H  4.94300 45.23400 20.56800
H  7.43700 44.90900 27.82700
H  7.02900 44.75400 26.04900
H  7.95500 43.54300 26.80200
H  3.42400 44.11300 31.13400
H  3.98800 40.26700 33.22000
H  4.24100 41.31100 34.54700
H  5.59600 41.13900 33.47300

