79

Mg 41.13900 9.38400 29.04800
C  43.03000 10.57700 31.66700
C  38.86000 7.96200 31.21500
C  39.39500 7.82600 26.43500
C  43.56700 10.30600 26.84200
N  40.89200 9.36700 31.14900
C  41.83900 9.87900 32.03800
C  41.30000 9.73800 33.42900
C  40.07200 8.77900 33.27900
C  39.93200 8.70100 31.81800
C  40.43300 7.35400 33.88100
C  40.92700 11.09100 34.15900
C  39.96000 10.97300 35.35000
H  40.32000 11.94800 36.54700
N  39.19900 8.24500 28.85500
C  38.46400 7.75400 29.90300
C  37.35700 7.03000 29.36500
C  37.46900 7.09500 27.89200
C  38.74300 7.74400 27.65400
C  36.36000 6.41200 30.23200
C  36.46500 6.72400 26.85100
O  36.60000 6.94600 25.60600
C  35.10300 6.38100 27.30600
N  41.41700 9.14300 26.91000
C  40.65300 8.42500 26.05700
C  41.35600 8.33700 24.62000
C  42.20200 9.63700 24.76600
C  42.49400 9.70800 26.27800
C  42.18900 6.99800 24.40400
C  41.55700 10.99800 24.24000
C  40.97600 12.00000 25.16200
N  42.93500 10.29200 29.16000
C  43.78700 10.62300 28.18000
C  44.88700 11.35400 28.75800
C  44.64000 11.42600 30.13200
C  43.46300 10.71700 30.31700
C  46.04200 11.93800 28.00100
C  45.13400 11.77600 31.48900
O  46.16700 12.35500 31.83200
C  44.08300 11.36300 32.49600
C  44.63100 10.58500 33.59100
O  45.09600 9.48500 33.50200
O  44.39600 11.31500 34.78600
C  44.69500 10.56600 36.05300
H  38.15000 7.51500 31.91400
H  39.00300 7.24600 25.59600
H  44.31200 10.70700 26.15100
H  42.09400 9.12900 33.86100
H  39.10500 9.10000 33.66500
H  40.14600 7.12000 34.90600
H  41.49900 7.12500 33.85900
H  39.89900 6.63800 33.25600
H  40.57800 11.71400 33.33600
H  41.87000 11.47400 34.54800
H  39.89400 9.93700 35.68400
H  38.94400 11.28400 35.10700
H  36.72500 6.16800 31.23000
H  36.03900 5.45300 29.82500
H  35.40700 6.93700 30.29000
H  34.40800 6.31500 26.46900
H  34.76400 7.26100 27.85300
H  34.99200 5.42000 27.80800
H  40.60900 8.45900 23.83600
H  43.16100 9.49700 24.26800
H  41.85200 6.67300 23.41900
H  41.83600 6.28700 25.15100
H  43.26200 7.18400 24.42500
H  40.77800 10.68500 23.54400
H  42.33600 11.49100 23.65900
H  40.69800 11.51700 26.09800
H  40.19000 12.51400 24.60800
H  41.78500 12.70500 25.35500
H  45.72400 12.67300 27.26200
H  46.52700 11.18400 27.38000
H  46.69800 12.54800 28.62200
H  43.68500 12.25900 32.97200
H  43.72000 10.35300 36.49300
H  45.37700 11.19200 36.62900
H  45.17200 9.59900 35.89200

