79

Mg 16.84500 -2.29500 27.44100
C  15.70400 -0.16200 30.05000
C  18.76200 -3.82300 29.55000
C  18.20600 -3.67200 24.81400
C  14.90100 -0.23700 25.29300
N  17.40100 -1.82900 29.53400
C  16.72700 -1.09600 30.45200
C  17.14500 -1.43000 31.90100
C  18.41000 -2.33100 31.63300
C  18.19400 -2.74800 30.15700
C  19.80800 -1.59500 31.83200
C  16.00400 -2.05300 32.71300
C  15.65300 -1.18700 33.85100
H  16.82400 -0.48200 34.59000
N  18.18100 -3.64800 27.23300
C  18.88300 -4.22500 28.22200
C  19.58100 -5.43400 27.69500
C  19.50600 -5.39500 26.28200
C  18.59800 -4.19700 26.03200
C  20.19000 -6.49700 28.67500
C  20.17400 -6.20900 25.30000
O  19.95200 -6.05600 24.07300
C  20.96400 -7.30400 25.72500
N  16.66400 -1.98600 25.38900
C  17.34800 -2.63600 24.47100
C  17.04300 -2.23000 22.96000
C  15.91300 -1.19200 23.23600
C  15.76200 -1.20500 24.74100
C  18.33300 -1.66000 22.34800
C  14.63900 -1.40700 22.44700
C  14.73900 -1.07800 20.95200
N  15.43600 -0.65800 27.61100
C  14.71200 0.01400 26.67700
C  13.91400 1.07100 27.34500
C  14.28400 1.01000 28.61900
C  15.17100 0.00100 28.77300
C  13.05100 2.05100 26.73000
C  14.04300 1.64500 29.88500
O  13.33900 2.56800 30.26200
C  14.84500 0.74400 30.95600
C  15.61200 1.64900 31.81200
O  16.67900 2.14600 31.57900
O  14.76700 2.02100 32.82900
C  15.21600 3.15600 33.63900
H  19.41100 -4.42100 30.19300
H  18.55800 -4.10400 23.87500
H  14.25400 0.38800 24.67400
H  17.54700 -0.46800 32.22100
H  18.24900 -3.22700 32.23300
H  20.33800 -2.16500 32.59500
H  19.68000 -0.54400 32.09400
H  20.32000 -1.74000 30.88100
H  16.29200 -3.03100 33.09700
H  15.09300 -2.10600 32.11600
H  15.20500 -1.80600 34.62800
H  14.95000 -0.39300 33.60100
H  19.66700 -7.42600 28.44700
H  20.02200 -6.29500 29.73200
H  21.26300 -6.54400 28.48600
H  20.45400 -8.01100 26.38000
H  21.87700 -6.91700 26.17700
H  21.30900 -7.77300 24.80400
H  16.63000 -3.00200 22.31100
H  16.24000 -0.18200 22.98700
H  19.09400 -1.50900 23.11300
H  18.13600 -0.80500 21.70000
H  18.68400 -2.31100 21.54700
H  13.85300 -0.84100 22.94800
H  14.27400 -2.43100 22.53100
H  15.60500 -0.43900 20.78300
H  13.92900 -0.43000 20.61800
H  14.72400 -1.97900 20.33900
H  12.63000 1.53000 25.87000
H  13.65700 2.86500 26.33200
H  12.26300 2.28000 27.44700
H  14.13600 0.14800 31.53100
H  16.26700 3.29400 33.89400
H  14.68000 2.92700 34.56000
H  14.72400 4.03800 33.22900

