79

Mg 0.03600 7.14700 25.74000
C  0.86100 9.14800 28.56900
C  0.24400 4.44100 27.95900
C  -0.38000 5.08600 23.10600
C  0.46200 9.84200 23.72200
N  0.39000 6.92700 28.13000
C  0.66400 7.88000 29.00000
C  0.68500 7.36600 30.45600
C  0.92000 5.81900 30.18100
C  0.49000 5.66900 28.67600
C  2.41500 5.32500 30.43600
C  -0.56800 7.73700 31.31000
C  -0.31500 7.67400 32.89900
H  0.72700 6.69500 33.39500
N  -0.16100 5.14300 25.58100
C  -0.07200 4.18800 26.60500
C  -0.34900 2.85600 26.03700
C  -0.43300 2.98100 24.60300
C  -0.31700 4.44700 24.38200
C  -0.51200 1.76000 27.01600
C  -0.52500 1.86800 23.50000
O  -0.39800 2.20100 22.28000
C  -0.57300 0.36800 23.92200
N  0.03200 7.46500 23.66000
C  -0.14100 6.43000 22.76700
C  -0.24900 6.98300 21.35500
C  0.13100 8.47500 21.52800
C  0.20400 8.61100 23.05000
C  0.51800 6.21600 20.24200
C  -0.80400 9.45800 20.87700
C  -0.15200 10.56000 19.94600
N  0.55900 9.10300 26.05500
C  0.55000 10.05100 25.13400
C  0.72900 11.33600 25.80200
C  0.91900 11.04100 27.10900
C  0.76400 9.67100 27.26400
C  0.70500 12.65500 25.08400
C  1.24100 11.63700 28.40400
O  1.70800 12.77100 28.61200
C  1.07700 10.43100 29.40000
C  2.28700 10.40900 30.24900
O  3.43900 10.19200 29.85700
O  2.02200 10.72700 31.57800
C  3.17400 10.81400 32.44000
H  0.45600 3.59100 28.61200
H  -0.43700 4.48100 22.19800
H  0.58400 10.77400 23.16500
H  1.60100 7.81900 30.83600
H  0.29100 5.19000 30.81000
H  2.89700 6.06500 31.07400
H  2.83600 5.34500 29.43000
H  2.47500 4.33100 30.88000
H  -1.47500 7.19300 31.04800
H  -0.63900 8.81500 31.16700
H  -1.25700 7.34800 33.33900
H  -0.23300 8.69100 33.28400
H  -0.73300 2.05700 28.04100
H  0.41900 1.20600 26.90200
H  -1.32100 1.15700 26.60300
H  0.13000 0.22700 24.74400
H  -0.22500 -0.31400 23.14600
H  -1.58300 0.05500 24.18500
H  -1.29900 6.91000 21.07300
H  1.13100 8.59100 21.11000
H  0.03300 6.20600 19.26600
H  0.56600 5.17700 20.56800
H  1.58000 6.43000 20.12500
H  -1.45700 9.92300 21.61400
H  -1.44400 8.82700 20.26000
H  -0.53100 10.41900 18.93400
H  0.93300 10.45600 19.96000
H  -0.37200 11.59100 20.22100
H  1.70200 12.95200 24.76000
H  0.53800 13.45500 25.80600
H  -0.13300 12.72900 24.39000
H  0.17300 10.57000 29.99400
H  4.04900 11.26900 31.97600
H  3.25500 9.82900 32.90000
H  3.03400 11.62600 33.15300

