79

Mg -0.00500 44.22900 25.54700
C  2.18800 44.45400 28.14700
C  -2.49600 43.71500 27.89500
C  -2.18200 43.34500 23.05900
C  2.52700 44.50400 23.23700
N  -0.06400 43.90800 27.84300
C  0.92000 44.18200 28.66600
C  0.42900 44.05400 30.10600
C  -1.06800 43.73400 29.96800
C  -1.23200 43.77800 28.50500
C  -1.64300 42.46200 30.69200
C  0.92300 45.15900 31.12900
C  0.31000 45.22800 32.48100
H  0.23000 43.94800 33.30000
N  -2.06600 43.73500 25.49100
C  -2.91500 43.63100 26.57000
C  -4.33200 43.53700 26.15100
C  -4.23200 43.32200 24.72400
C  -2.80200 43.50300 24.35700
C  -5.59700 43.53600 26.96300
C  -5.28900 42.96400 23.59200
O  -5.02600 42.75700 22.39600
C  -6.71700 42.74700 23.97400
N  0.13000 43.89100 23.45300
C  -0.84700 43.52900 22.66000
C  -0.38800 43.43500 21.17200
C  1.09200 44.06900 21.22400
C  1.29100 44.12000 22.75800
C  -0.49400 41.99600 20.59400
C  1.22200 45.51400 20.51100
C  1.41700 46.78700 21.37900
N  1.96500 44.43700 25.57300
C  2.90900 44.54200 24.58300
C  4.28700 44.58100 25.19400
C  4.03400 44.55500 26.52600
C  2.63300 44.53700 26.75900
C  5.49900 44.87300 24.48100
C  4.65600 44.54600 27.82300
O  5.81600 44.69900 28.20100
C  3.45500 44.45800 28.95400
C  3.71000 43.25500 29.85100
O  3.56500 42.05100 29.55700
O  4.07200 43.68800 31.11400
C  4.40400 42.64700 32.07900
H  -3.34900 43.64700 28.57400
H  -2.82200 43.15900 22.19500
H  3.36300 44.66000 22.55200
H  0.92800 43.13700 30.42000
H  -1.53700 44.69100 30.19700
H  -2.29800 42.73600 31.52000
H  -0.84800 41.86000 31.13200
H  -2.14600 41.81200 29.97500
H  0.85600 46.07000 30.53500
H  1.99000 45.07900 31.33800
H  -0.59500 45.83600 32.45600
H  1.06300 45.85500 32.95900
H  -5.43700 43.87700 27.98600
H  -5.95700 42.50800 26.91300
H  -6.27600 44.20900 26.44000
H  -7.28600 42.19900 23.22400
H  -7.01500 43.78800 24.09300
H  -6.80400 42.16500 24.89200
H  -1.04200 44.17300 20.70700
H  1.80700 43.38000 20.77400
H  -1.35900 41.99900 19.93000
H  -0.68100 41.24000 21.35500
H  0.38800 41.68300 20.03400
H  0.46500 45.65400 19.73900
H  2.10400 45.38800 19.88200
H  1.31700 46.83000 22.46400
H  0.78800 47.59700 21.00900
H  2.43300 47.13100 21.18900
H  5.46400 44.98400 23.39700
H  6.19800 44.03700 24.51700
H  5.84700 45.77000 24.99300
H  3.64000 45.36700 29.52600
H  4.88800 43.25400 32.84300
H  5.21300 42.02300 31.69600
H  3.53300 42.09600 32.43300

