79

Mg 24.09300 -5.73500 45.76200
C  26.34100 -3.39600 44.48100
C  21.70400 -4.70200 43.44600
C  22.34400 -8.75500 46.12900
C  26.74900 -7.18700 47.52600
N  24.11500 -4.32000 44.08100
C  25.16900 -3.42900 43.73200
C  24.75400 -2.48500 42.57400
C  23.18900 -2.73000 42.53600
C  22.97000 -3.97400 43.44600
C  22.26500 -1.52700 42.84400
C  25.51400 -2.86900 41.19700
C  26.22000 -1.78800 40.43100
H  25.61200 -1.30000 39.21500
N  22.23500 -6.55500 44.96900
C  21.42200 -5.91700 44.09200
C  20.21200 -6.66500 43.96100
C  20.33600 -7.87000 44.75700
C  21.69400 -7.77700 45.41000
C  19.05900 -6.16200 43.11100
C  19.38800 -9.02400 44.84700
O  18.34200 -9.08900 44.24900
C  19.50700 -10.14900 45.85600
N  24.44100 -7.65900 46.69300
C  23.62300 -8.69700 46.66900
C  24.22100 -9.96500 47.33700
C  25.58300 -9.45300 47.92400
C  25.64700 -8.04700 47.28500
C  23.23800 -10.72300 48.39300
C  26.79700 -10.40200 47.49800
C  27.64400 -10.81100 48.72900
N  26.13300 -5.40800 46.04500
C  27.07000 -6.01900 46.83800
C  28.31500 -5.30400 46.85100
C  28.06700 -4.19700 45.97900
C  26.76500 -4.38100 45.45600
C  29.63200 -5.71600 47.48500
C  28.66400 -2.99900 45.38500
O  29.74800 -2.52500 45.50100
C  27.57000 -2.46800 44.39200
C  27.14100 -1.03000 44.75700
O  26.10800 -0.65400 45.30700
O  28.14400 -0.13900 44.26400
C  28.05400 1.33600 44.68000
H  20.97200 -4.05900 42.95400
H  21.83100 -9.68900 46.36700
H  27.47400 -7.60200 48.22900
H  25.06800 -1.50400 42.92900
H  22.95000 -3.04600 41.52000
H  22.86400 -0.62700 42.98300
H  21.73700 -1.72000 43.77800
H  21.59800 -1.25300 42.02700
H  24.79500 -3.30700 40.50400
H  26.22200 -3.63900 41.50300
H  27.25300 -2.12200 40.33600
H  26.14700 -0.93900 41.11100
H  19.22100 -6.36600 42.05200
H  18.68600 -5.14000 43.17500
H  18.17400 -6.76800 43.30300
H  19.78900 -9.58100 46.74200
H  20.27800 -10.87100 45.58800
H  18.62100 -10.68600 46.19600
H  24.41900 -10.71100 46.56800
H  25.46900 -9.38400 49.00600
H  23.74500 -11.04100 49.30400
H  22.61800 -11.54600 48.03500
H  22.46700 -9.99600 48.64800
H  27.42100 -9.95700 46.72300
H  26.42600 -11.26800 46.94900
H  28.32800 -9.98500 48.92900
H  28.10700 -11.79100 48.61200
H  27.05000 -10.92400 49.63600
H  29.84700 -6.69600 47.06000
H  29.64300 -6.09800 48.50600
H  30.39600 -4.95800 47.31000
H  28.00100 -2.46600 43.39100
H  28.33300 1.93000 43.81000
H  28.78700 1.54500 45.46000
H  27.01700 1.57200 44.91900

