79

Mg 41.92500 41.81600 26.98100
C  41.02800 44.22600 29.43200
C  42.96500 39.76000 29.44400
C  42.72500 39.58300 24.51700
C  41.41800 44.32600 24.50400
N  41.79500 42.00500 29.10100
C  41.32600 42.99000 29.86900
C  41.37600 42.56600 31.32400
C  42.27600 41.32700 31.43200
C  42.42300 41.00900 29.89500
C  43.58800 41.45500 32.18500
C  39.94500 42.40600 31.93900
C  39.80100 42.85800 33.48700
H  39.26100 41.87000 34.43800
N  42.70500 39.91400 27.02500
C  43.05200 39.25000 28.13000
C  43.63600 38.02200 27.73000
C  43.50700 37.92100 26.27600
C  42.88200 39.14900 25.89600
C  44.07900 36.94000 28.70700
C  43.92000 36.79500 25.32100
O  43.83100 36.83600 24.08200
C  44.56200 35.62700 25.80100
N  42.13500 41.96300 24.79700
C  42.51900 40.89200 24.08800
C  42.36400 41.21200 22.64000
C  42.03000 42.76700 22.59100
C  41.80200 43.08500 24.04700
C  43.58300 40.87100 21.80100
C  40.77900 42.93700 21.69400
C  41.03200 43.20700 20.19500
N  41.40800 43.82900 26.92200
C  41.17800 44.65800 25.86700
C  40.67400 45.92200 26.31800
C  40.61300 45.84900 27.73300
C  41.14800 44.54900 28.02400
C  40.42300 47.18400 25.37400
C  40.37800 46.58900 28.95300
O  40.12200 47.75500 29.14200
C  40.51600 45.49000 30.15800
C  41.48600 46.06400 31.15400
O  42.57900 46.65200 30.85000
O  40.92600 46.04300 32.45400
C  41.86100 46.60200 33.46400
H  43.24200 39.15800 30.31100
H  42.77700 38.78500 23.77300
H  41.20500 45.06900 23.73200
H  41.84400 43.37100 31.89000
H  41.77500 40.46500 31.87200
H  43.52500 40.88600 33.11200
H  43.75800 42.52300 32.31800
H  44.52400 41.18900 31.69300
H  39.72700 41.34000 32.00400
H  39.25300 43.04900 31.39500
H  39.24300 43.79400 33.52100
H  40.78100 43.15400 33.86200
H  43.32800 36.16500 28.85900
H  44.40900 37.41100 29.63300
H  45.03900 36.64200 28.28700
H  45.47400 35.83900 26.36000
H  44.82200 34.98900 24.95600
H  43.69100 35.34300 26.39100
H  41.52400 40.58600 22.33900
H  42.91000 43.34600 22.31100
H  44.16600 41.78300 21.67800
H  43.26500 40.67500 20.77600
H  44.25500 40.11700 22.21100
H  40.11800 43.66800 22.16100
H  40.08900 42.10500 21.83800
H  40.48900 44.09500 19.87100
H  40.60500 42.36800 19.64500
H  42.06900 43.31200 19.87500
H  39.63000 47.78600 25.81800
H  40.07700 47.03400 24.35100
H  41.27100 47.86400 25.29700
H  39.57700 45.35300 30.69500
H  42.87700 46.38700 33.13300
H  41.82200 46.09300 34.42700
H  41.77200 47.66900 33.67300

