79

Mg 50.63000 48.04300 43.70000
C  47.49100 49.03700 42.41900
C  50.41900 45.12700 41.88900
C  53.83000 47.40600 44.24600
C  51.02400 51.31300 45.03600
N  49.11400 47.14200 42.42700
C  47.93000 47.73300 41.94300
C  47.12800 46.71600 41.08600
C  48.10100 45.42600 41.05300
C  49.28600 45.93500 41.85100
C  47.47000 44.09300 41.58900
C  46.59000 47.23800 39.65000
C  45.06700 47.23200 39.46400
H  44.59200 46.60300 38.14600
N  51.85600 46.25800 43.46400
C  51.61400 45.26300 42.62100
C  52.73900 44.44000 42.51700
C  53.70000 45.00100 43.38000
C  53.18900 46.30000 43.72000
C  52.76600 43.17200 41.62300
C  55.04400 44.43600 43.71700
O  55.27700 43.27700 43.29600
C  56.10900 45.13700 44.56600
N  52.23100 49.29700 44.45200
C  53.50000 48.73600 44.63900
C  54.35800 49.67400 45.46900
C  53.48800 51.01000 45.66500
C  52.19000 50.56200 45.01200
C  55.04800 49.12200 46.85400
C  54.00700 52.24800 44.95100
C  54.29100 53.48200 45.85800
N  49.43700 49.77800 43.85200
C  49.77000 51.02000 44.47600
C  48.64700 51.89800 44.27300
C  47.74700 51.19200 43.50900
C  48.29400 49.88400 43.21400
C  48.49500 53.30200 44.68100
C  46.39100 51.16700 42.92000
O  45.51500 52.01500 42.90400
C  46.18800 49.80000 42.25300
C  45.02700 49.04700 42.75700
O  45.07600 48.26600 43.68500
O  43.91100 49.16600 41.94500
C  42.74700 48.37000 42.25300
H  50.26300 44.32000 41.17100
H  54.90500 47.21300 44.26900
H  50.94700 52.32800 45.43100
H  46.36700 46.50600 41.83800
H  48.50200 45.26600 40.05200
H  47.56500 43.34600 40.80000
H  46.41600 44.28600 41.79300
H  47.93100 43.70100 42.49500
H  46.97700 46.58900 38.86400
H  46.93200 48.27100 39.58900
H  44.82900 48.29500 39.45000
H  44.59000 46.65800 40.25900
H  53.80300 42.92200 41.39800
H  52.23200 43.40000 40.70100
H  52.25200 42.38400 42.17400
H  56.47600 45.97100 43.96900
H  56.89400 44.39400 44.71000
H  55.61200 45.51400 45.45900
H  55.20700 49.94500 44.84200
H  53.31000 51.13400 46.73300
H  56.13300 49.17400 46.94100
H  54.71500 48.08700 46.93600
H  54.64900 49.63600 47.72800
H  53.39500 52.62800 44.13300
H  55.00900 52.05400 44.57000
H  53.80700 53.29000 46.81600
H  53.83300 54.35100 45.38500
H  55.37300 53.48700 45.99100
H  48.55600 54.00900 43.85400
H  49.28300 53.52900 45.39900
H  47.57100 53.51500 45.21800
H  45.87600 49.92000 41.21500
H  42.46200 48.26500 43.30000
H  42.96100 47.40100 41.80300
H  41.94800 48.84100 41.67900

