79

Mg 47.82100 25.33300 28.93500
C  48.81100 27.54200 31.50800
C  46.69100 23.05000 31.36700
C  47.16600 23.07100 26.47500
C  49.32600 27.35600 26.59800
N  48.03200 25.24200 31.32600
C  48.27800 26.36800 32.09000
C  47.95400 26.00900 33.58100
C  47.24700 24.60700 33.43300
C  47.38400 24.21100 31.90400
C  47.74000 23.54500 34.40500
C  46.98900 27.06300 34.31700
C  47.40400 27.37900 35.82000
H  46.31300 27.68300 36.85100
N  46.87200 23.39400 28.92700
C  46.49600 22.66500 30.02400
C  45.84500 21.45200 29.54300
C  45.98900 21.45800 28.07000
C  46.71400 22.72600 27.73200
C  45.16200 20.29700 30.38600
C  45.45300 20.47900 27.09500
O  45.43600 20.68100 25.88200
C  44.73900 19.14900 27.57800
N  48.21700 25.26500 26.88800
C  47.99500 24.13600 26.13100
C  48.45100 24.46700 24.68000
C  48.80800 25.96200 24.67500
C  48.80200 26.16800 26.16600
C  49.50800 23.38600 24.20100
C  47.82200 26.98100 23.99300
C  48.30600 28.39800 23.65300
N  48.93900 27.06500 28.98600
C  49.38700 27.85600 27.95400
C  49.87000 29.12500 28.48900
C  49.62200 28.97800 29.84500
C  49.12800 27.69200 30.08500
C  50.42600 30.27200 27.71200
C  49.71400 29.74900 31.10700
O  50.07900 30.90100 31.23500
C  49.27400 28.75600 32.23800
C  50.49600 28.55400 33.05500
O  51.52000 27.91900 32.75400
O  50.34700 29.15800 34.30900
C  51.36000 28.80700 35.25900
H  46.30700 22.30900 32.07100
H  47.04600 22.29100 25.72000
H  49.79900 28.03300 25.88200
H  48.83000 25.71200 34.15800
H  46.18200 24.69500 33.64900
H  48.00600 22.71100 33.75600
H  46.95500 23.20200 35.07900
H  48.70700 23.74000 34.86800
H  45.97000 26.75100 34.09000
H  47.06500 28.01700 33.79600
H  48.01300 28.27100 35.67000
H  48.11500 26.63400 36.17800
H  45.71300 19.36800 30.24100
H  44.09700 20.27700 30.15600
H  45.08400 20.53200 31.44700
H  43.85700 19.17400 28.21800
H  45.51700 18.62200 28.13200
H  44.49200 18.57000 26.68900
H  47.59100 24.27600 24.03900
H  49.83200 26.03500 24.30900
H  49.07200 22.65500 23.51900
H  49.83000 22.92500 25.13400
H  50.36000 23.83200 23.68700
H  47.02600 27.21000 24.70100
H  47.48100 26.48600 23.08300
H  47.82800 28.75800 22.74200
H  49.39100 28.34400 23.56700
H  47.98500 29.08800 24.43300
H  51.48000 30.47100 27.90500
H  49.80600 31.14500 27.91600
H  50.15000 30.05400 26.68000
H  48.44200 29.26000 32.73100
H  52.35500 28.51500 34.92200
H  51.06700 28.02100 35.95600
H  51.42600 29.71900 35.85200

