79

Mg 7.18800 2.72800 27.65500
C  8.75100 1.40400 30.50800
C  5.05000 4.52400 29.69900
C  5.45600 3.78300 24.89900
C  8.92400 0.39900 25.67900
N  6.87200 2.84000 29.84700
C  7.71000 2.29800 30.85100
C  7.29000 2.77500 32.28600
C  6.05700 3.67700 31.92600
C  5.99900 3.70000 30.33800
C  4.69100 3.41200 32.59200
C  8.50800 3.37700 33.09000
C  8.22300 4.39300 34.21900
H  8.94300 4.04600 35.54300
N  5.58200 4.15300 27.31800
C  4.92200 4.79600 28.30700
C  3.98200 5.71300 27.68500
C  4.13900 5.54700 26.25900
C  5.11900 4.51000 26.06400
C  3.10900 6.65900 28.47800
C  3.55800 6.33600 25.17900
O  3.84400 6.07100 24.05500
C  2.46800 7.49800 25.44600
N  7.00200 2.01000 25.62700
C  6.24700 2.57000 24.73700
C  6.42300 2.02800 23.30400
C  7.74300 1.15100 23.55300
C  7.89400 1.16900 25.04300
C  5.22500 1.15900 22.69800
C  9.00100 1.78100 22.89400
C  9.81900 2.74900 23.72900
N  8.56300 1.20400 27.96500
C  9.22000 0.38700 27.06900
C  10.10400 -0.46800 27.75800
C  10.01000 -0.04500 29.13600
C  9.04100 0.92200 29.15600
C  11.01900 -1.50400 27.10700
C  10.62200 -0.19300 30.42800
O  11.58300 -0.88200 30.79300
C  9.72200 0.66700 31.45400
C  9.11000 -0.46700 32.27500
O  8.14000 -1.10100 31.93300
O  9.81000 -0.51000 33.43000
C  9.26500 -1.38600 34.44100
H  4.47800 5.06600 30.45400
H  5.11900 4.22900 23.96000
H  9.65900 -0.14500 25.08300
H  6.98700 1.90500 32.86700
H  6.33400 4.67000 32.28000
H  4.21100 4.34900 32.87300
H  4.74600 2.72400 33.43600
H  3.91500 3.07700 31.90500
H  9.25000 3.83400 32.43600
H  9.02600 2.59700 33.64900
H  7.14100 4.38900 34.35000
H  8.39300 5.41700 33.88700
H  3.38800 7.71300 28.46100
H  3.07400 6.41100 29.53900
H  2.08200 6.55800 28.12700
H  1.51000 7.04300 25.69900
H  2.38300 7.99700 24.48100
H  2.84000 8.23300 26.15900
H  6.61000 2.87200 22.63900
H  7.54000 0.11800 23.27300
H  4.30600 1.44700 23.20900
H  5.32400 0.07900 22.80600
H  5.19800 1.27900 21.61500
H  8.54500 2.38500 22.11000
H  9.55200 0.95400 22.44500
H  9.24800 3.07700 24.59800
H  9.91000 3.70500 23.21400
H  10.86100 2.45300 23.84900
H  10.70200 -1.79300 26.10400
H  10.90300 -2.41400 27.69500
H  12.07800 -1.24700 27.13800
H  10.35600 1.36100 32.00500
H  8.94700 -2.34900 34.04100
H  8.42400 -0.96200 34.98900
H  10.13300 -1.58200 35.07000

