79

Mg 47.45500 24.94900 28.63800
C  48.55600 27.30700 31.14800
C  47.11800 22.58800 31.03700
C  46.89700 22.71500 26.21000
C  48.43500 27.27700 26.19900
N  47.86700 24.98000 30.78900
C  48.25100 26.00500 31.66300
C  48.02100 25.63400 33.19600
C  47.74200 24.10000 33.02700
C  47.50100 23.87500 31.53900
C  48.88800 23.21000 33.58100
C  46.94700 26.46300 33.96300
C  47.46100 27.32800 35.16900
H  46.60700 27.36100 36.42000
N  46.97100 22.95400 28.63900
C  46.84900 22.17000 29.72000
C  46.51000 20.81100 29.34000
C  46.55400 20.81100 27.93100
C  46.78700 22.16900 27.51000
C  46.27700 19.63400 30.35200
C  46.19700 19.69900 26.96500
O  46.21300 19.75200 25.70300
C  45.75300 18.34500 27.48400
N  47.72000 24.99400 26.47200
C  47.20900 23.97100 25.72400
C  47.31900 24.28500 24.24100
C  47.82900 25.80800 24.22300
C  48.05000 26.07200 25.67100
C  48.33300 23.28400 23.51600
C  46.77800 26.74900 23.43500
C  45.44800 26.95200 24.20700
N  48.34400 26.90900 28.59500
C  48.54800 27.70800 27.47800
C  49.06900 28.95900 27.98800
C  49.06700 28.85300 29.40100
C  48.66700 27.57700 29.76000
C  49.61100 30.14400 27.23400
C  49.51200 29.53000 30.70700
O  50.00300 30.67400 30.89300
C  49.08000 28.57600 31.90400
C  50.14200 28.28600 32.81500
O  50.94800 27.35100 32.78400
O  50.13800 29.20000 33.87700
C  50.96700 28.76200 34.98700
H  47.06500 21.89000 31.87600
H  46.53500 21.95400 25.51600
H  48.77000 27.99800 25.45000
H  49.03600 25.76400 33.56900
H  46.83200 23.82000 33.55800
H  49.69900 23.88900 33.84700
H  49.32200 22.56500 32.81700
H  48.64700 22.50200 34.37300
H  46.21700 25.76400 34.37000
H  46.43300 27.04600 33.19800
H  47.61800 28.34600 34.81400
H  48.42700 26.93500 35.48600
H  45.26300 19.23700 30.38500
H  46.63600 20.03700 31.29900
H  46.91400 18.80000 30.05700
H  46.55200 17.72800 27.89400
H  45.42200 17.76700 26.62000
H  44.85800 18.38200 28.10400
H  46.28500 24.33200 23.90100
H  48.78300 25.85700 23.69800
H  47.72900 22.97100 22.66400
H  48.56900 22.41700 24.13300
H  49.23500 23.76600 23.14000
H  46.67100 26.29400 22.45100
H  47.07700 27.76800 23.18700
H  45.31300 27.95700 24.60800
H  45.40500 26.37500 25.13000
H  44.65100 26.67000 23.52000
H  50.51600 29.82200 26.71900
H  49.82200 30.96000 27.92500
H  48.88500 30.42500 26.47100
H  48.23200 29.10300 32.34100
H  51.94100 29.25100 34.97500
H  51.08000 27.68200 35.09100
H  50.47200 29.04800 35.91500

