79

Mg 4.20000 55.03800 41.10000
C  4.45600 51.64900 40.25500
C  7.19700 55.49400 39.25800
C  3.74000 58.43800 41.23700
C  1.02600 54.49500 42.33700
N  5.46700 53.70500 39.65900
C  5.43000 52.37600 39.61700
C  6.56100 51.79900 38.78600
C  7.61500 52.89300 38.98700
C  6.72500 54.12500 39.28900
C  8.72200 52.83900 40.02400
C  6.03000 51.42800 37.29500
C  6.14900 52.54700 36.23800
H  5.45200 52.28800 34.84100
N  5.27900 56.71200 40.33000
C  6.46900 56.68300 39.64000
C  6.95100 58.01000 39.39400
C  5.95500 58.89100 39.96000
C  4.94000 58.02300 40.59600
C  8.35800 58.36200 38.95900
C  6.00300 60.38600 39.85500
O  6.95600 60.94500 39.37500
C  4.99000 61.30600 40.38600
N  2.53400 56.25800 41.48500
C  2.60500 57.61100 41.55200
C  1.39000 58.22800 42.13300
C  0.56300 57.04300 42.51000
C  1.37600 55.87300 42.04100
C  1.66000 59.15400 43.41300
C  -0.92300 57.12500 42.07400
C  -1.90400 56.96200 43.26200
N  2.99300 53.43700 41.42900
C  1.77600 53.33300 42.05800
C  1.50900 51.91800 42.24300
C  2.52500 51.25000 41.52100
C  3.32600 52.19600 40.96700
C  0.36900 51.29600 42.99700
C  2.97900 49.93200 41.13600
O  2.55200 48.85000 41.44500
C  4.36800 50.10000 40.38200
C  4.25600 49.19400 39.24300
O  3.35200 49.27400 38.42200
O  5.33700 48.36200 39.23500
C  5.18900 47.34200 38.23600
H  8.21800 55.72000 38.94300
H  3.52900 59.50600 41.32300
H  0.08600 54.34800 42.87300
H  6.90200 50.89400 39.28900
H  8.15300 53.00800 38.04600
H  9.67500 52.93500 39.50400
H  8.63600 51.92400 40.61000
H  8.54900 53.56800 40.81500
H  4.99100 51.11400 37.19300
H  6.60400 50.58000 36.92000
H  7.19900 52.76500 36.04500
H  5.81700 53.51600 36.61200
H  8.83800 58.78000 39.84400
H  8.21500 59.02000 38.10200
H  8.97900 57.52000 38.65300
H  5.27400 62.33800 40.17900
H  4.91300 61.14500 41.46100
H  4.12100 61.03000 39.78900
H  0.85700 58.78900 41.36500
H  0.54500 56.90500 43.59100
H  2.66300 58.97600 43.80100
H  0.84400 59.02500 44.12400
H  1.58900 60.16200 43.00500
H  -1.04000 56.41800 41.25200
H  -1.20200 58.08100 41.63100
H  -2.64000 57.76300 43.19200
H  -1.42200 57.03000 44.23700
H  -2.40700 55.99900 43.35200
H  0.58900 50.34000 43.47200
H  -0.38100 50.98300 42.27200
H  -0.08300 51.94300 43.74900
H  5.12400 49.69900 41.05800
H  4.16800 47.09800 37.94100
H  5.57100 46.37600 38.56600
H  5.73200 47.50500 37.30600

