79

Mg -1.98900 18.15900 27.44800
C  -2.55900 16.02400 30.22000
C  -2.71500 20.88800 29.44300
C  -2.36900 20.02000 24.68100
C  -1.98100 15.32300 25.50300
N  -2.56900 18.40700 29.55600
C  -2.61400 17.37000 30.57100
C  -2.71900 17.91200 31.97800
C  -3.11200 19.43700 31.63700
C  -2.75900 19.62100 30.12200
C  -4.57500 19.79700 32.00200
C  -1.43000 17.87800 32.88600
C  -1.57300 17.10400 34.26000
H  -0.43200 17.15800 35.19000
N  -2.22200 20.22500 27.09900
C  -2.55600 21.16800 28.08100
C  -2.66300 22.49000 27.40800
C  -2.37800 22.23000 26.03600
C  -2.29100 20.76300 25.83000
C  -2.98600 23.74600 28.20300
C  -2.29000 23.27800 24.88900
O  -1.98000 22.94500 23.79500
C  -2.30200 24.74300 25.15900
N  -2.10100 17.69600 25.37200
C  -2.31200 18.68700 24.44700
C  -2.32600 18.08600 22.99000
C  -2.29400 16.59000 23.32600
C  -1.97600 16.49800 24.80800
C  -3.51100 18.46100 22.09600
C  -1.31400 15.71400 22.45000
C  0.15200 15.55200 22.88500
N  -2.11300 16.11800 27.72700
C  -2.06900 15.10400 26.87700
C  -2.06800 13.78800 27.50900
C  -2.30000 14.13700 28.83100
C  -2.27700 15.55700 28.92700
C  -1.92900 12.39400 26.99900
C  -2.53700 13.58000 30.09100
O  -2.65100 12.43900 30.35800
C  -2.70200 14.77700 31.16500
C  -1.73300 14.59000 32.23800
O  -0.62500 15.02600 32.27600
O  -2.26500 13.74000 33.14500
C  -1.28300 13.08000 34.08000
H  -2.90800 21.62900 30.22200
H  -2.54500 20.58500 23.76300
H  -2.19600 14.39000 24.97700
H  -3.55800 17.44100 32.49100
H  -2.48300 20.09500 32.23600
H  -4.63700 20.60300 32.73300
H  -5.11500 18.92000 32.35800
H  -5.01500 20.26700 31.12200
H  -1.11500 18.85300 33.25900
H  -0.59300 17.45900 32.32700
H  -1.99200 16.09900 34.21000
H  -2.29100 17.63600 34.88400
H  -4.00700 23.88600 27.84700
H  -2.33400 24.57400 27.92500
H  -2.97100 23.56900 29.27800
H  -2.48600 25.43600 24.33700
H  -1.35000 24.96500 25.64100
H  -3.11600 25.04200 25.82000
H  -1.33000 18.32400 22.61800
H  -3.26900 16.10800 23.25200
H  -4.27800 17.69100 22.01700
H  -3.20200 18.77000 21.09700
H  -4.11300 19.30600 22.43200
H  -1.24200 16.12200 21.44100
H  -1.79600 14.73800 22.39000
H  0.31100 14.48900 23.06700
H  0.23800 15.92400 23.90700
H  0.90200 15.99000 22.22600
H  -1.02600 12.15600 26.43700
H  -2.85100 12.19400 26.45200
H  -1.96900 11.73400 27.86600
H  -3.71100 14.94700 31.54200
H  -0.77000 12.30300 33.51400
H  -1.83600 12.65000 34.91500
H  -0.50800 13.66500 34.57600

