79

Mg 24.97900 0.90300 29.66700
C  27.17400 0.54700 32.35000
C  22.38200 1.13400 31.87400
C  22.91800 1.08300 26.89100
C  27.68700 0.31400 27.48600
N  24.89300 0.88300 31.84000
C  25.86100 0.82600 32.76800
C  25.34700 1.09200 34.21600
C  23.78300 0.83900 34.01700
C  23.62800 0.96700 32.45800
C  23.22400 -0.47300 34.65100
C  25.73500 2.47900 34.80700
C  25.05900 2.73800 36.16800
H  25.92300 2.83300 37.47500
N  23.00700 1.04800 29.47000
C  22.07000 1.13500 30.48700
C  20.77700 1.19800 29.86200
C  20.93300 1.13900 28.44200
C  22.34800 1.11900 28.20200
C  19.53700 1.13000 30.74800
C  19.78700 0.97900 27.36600
O  19.99300 0.88000 26.13900
C  18.38300 1.14000 27.80400
N  25.26400 1.00100 27.53600
C  24.26100 1.11900 26.54800
C  24.90600 1.19700 25.13000
C  26.35800 0.77700 25.41200
C  26.48900 0.67400 26.90100
C  24.13800 0.20000 24.13600
C  27.38800 1.79900 24.82500
C  28.31300 1.27000 23.75000
N  26.93900 0.40900 29.83100
C  27.93600 0.20800 28.88000
C  29.21600 -0.13500 29.54700
C  28.96100 0.02300 30.94900
C  27.55000 0.42300 31.00800
C  30.53100 -0.41400 28.81500
C  29.52500 0.00800 32.30000
O  30.67000 -0.17100 32.67800
C  28.40400 0.42200 33.22300
C  28.41000 -0.55300 34.44400
O  27.78800 -1.61800 34.46400
O  29.26600 -0.05100 35.38100
C  29.49200 -0.99500 36.44700
H  21.55200 1.16300 32.58300
H  22.23600 1.28700 26.06300
H  28.39300 0.03900 26.70000
H  25.76100 0.23400 34.74500
H  23.16000 1.67200 34.34100
H  23.27000 -1.24900 33.88700
H  22.16900 -0.32300 34.87800
H  23.82800 -0.74500 35.51700
H  25.68600 3.31000 34.10300
H  26.79300 2.38500 35.05000
H  24.44200 1.85700 36.34500
H  24.47100 3.63300 35.96600
H  19.79800 0.33000 31.44000
H  18.60700 0.71100 30.36200
H  19.32900 2.00500 31.36400
H  18.10600 0.16800 28.21300
H  17.78900 1.31800 26.90800
H  18.24500 1.97700 28.48700
H  24.89600 2.26100 24.89400
H  26.62700 -0.21100 25.03800
H  24.83000 -0.26000 23.43100
H  23.46200 0.78000 23.50700
H  23.58500 -0.61100 24.61000
H  28.00000 2.11400 25.67000
H  27.05800 2.76200 24.43600
H  29.29400 1.26400 24.22600
H  28.30800 1.92400 22.87800
H  28.07600 0.25400 23.43400
H  31.14600 0.43900 29.10200
H  30.34100 -0.41300 27.74100
H  30.94100 -1.32300 29.25400
H  28.66600 1.36400 33.70300
H  29.21000 -2.02600 36.23300
H  28.90700 -0.74600 37.33200
H  30.53500 -0.80800 36.70600

