79

Mg 8.68800 4.33500 27.43000
C  10.12500 2.77500 30.28800
C  6.88200 6.33900 29.49600
C  7.32200 5.63700 24.74500
C  10.23900 1.72900 25.47000
N  8.49500 4.50200 29.64100
C  9.22700 3.81600 30.57800
C  8.79900 4.25800 31.94600
C  7.57400 5.14600 31.67600
C  7.63500 5.38800 30.18800
C  6.17700 4.81200 32.26500
C  9.93200 4.90900 32.72600
C  10.24000 4.33400 34.16500
H  10.86700 5.29400 35.18700
N  7.39900 5.84600 27.17400
C  6.69500 6.53000 28.10600
C  5.78300 7.35100 27.38400
C  6.04700 7.32000 26.02500
C  6.98200 6.24300 25.92300
C  4.78700 8.14700 28.13600
C  5.50800 8.13500 24.81300
O  5.93800 8.16600 23.63200
C  4.34400 9.11100 25.12200
N  8.61800 3.61100 25.42400
C  8.08500 4.47900 24.48700
C  8.52800 4.16000 23.08100
C  9.50400 2.86400 23.25500
C  9.40500 2.65800 24.78800
C  7.31800 3.89900 22.15500
C  10.94800 3.05100 22.63900
C  11.12800 2.62200 21.06600
N  9.86500 2.55700 27.71100
C  10.46700 1.62500 26.87100
C  11.29500 0.75900 27.57500
C  11.25200 1.21600 28.92500
C  10.32600 2.26900 28.96600
C  12.22200 -0.36000 26.94500
C  11.79700 1.08100 30.20100
O  12.63700 0.30000 30.64000
C  11.01700 1.98100 31.22100
C  10.31600 1.08500 32.24400
O  9.22500 0.61100 32.12500
O  11.09200 1.03100 33.35100
C  10.44100 0.49900 34.54500
H  6.08500 6.72100 30.13700
H  6.96600 6.08000 23.81300
H  10.81200 1.03600 24.85000
H  8.43500 3.36900 32.46000
H  7.73300 6.12300 32.13000
H  6.12200 4.05800 33.05100
H  5.51500 4.56700 31.43400
H  5.72300 5.65900 32.77800
H  9.75600 5.97600 32.86200
H  10.79200 4.86800 32.05800
H  10.91700 3.48600 34.06900
H  9.25900 4.05400 34.54900
H  4.77700 9.15300 27.71700
H  5.02000 8.13200 29.20100
H  3.83900 7.64800 27.93200
H  3.52700 8.55800 25.58500
H  3.96500 9.61200 24.23100
H  4.62000 9.95700 25.75200
H  9.19100 4.91300 22.65200
H  9.06400 1.94500 22.86800
H  6.39500 4.18900 22.65700
H  7.38100 2.83400 21.93300
H  7.41100 4.53600 21.27500
H  11.61800 2.42300 23.22600
H  11.23500 4.09600 22.75200
H  10.27600 2.04500 20.70600
H  11.90200 1.86400 20.94300
H  11.17200 3.50100 20.42200
H  11.65800 -1.28600 26.83400
H  13.18400 -0.56200 27.41700
H  12.51000 -0.09500 25.92700
H  11.75800 2.54000 31.79300
H  10.19000 1.37800 35.14000
H  11.14000 -0.17000 35.04900
H  9.47200 0.01200 34.44200

