79

Mg 47.62900 35.61800 27.68200
C  45.99900 33.87700 30.26100
C  48.08000 38.21600 29.87000
C  49.15400 37.37600 25.28100
C  47.45300 32.78200 25.70500
N  47.20200 35.88700 29.78500
C  46.51800 35.11500 30.68500
C  46.55100 35.64300 32.09500
C  46.68200 37.18300 31.73500
C  47.36300 37.14500 30.34900
C  45.47100 38.15100 31.88100
C  47.74900 35.11600 33.10100
C  49.20100 35.77100 33.06800
H  49.56700 36.61200 34.29500
N  48.59400 37.48700 27.62400
C  48.71600 38.33700 28.65800
C  49.51900 39.45400 28.23400
C  49.71600 39.32900 26.78800
C  49.07900 38.06600 26.47600
C  49.96700 40.55800 29.28400
C  50.40900 40.27400 25.88300
O  50.45500 40.05300 24.70600
C  51.33200 41.43700 26.41600
N  48.18100 35.15100 25.73300
C  48.75700 36.06200 24.93100
C  48.81100 35.44600 23.45300
C  48.72000 33.89800 23.72700
C  48.08200 33.94300 25.12200
C  47.64900 35.99300 22.51400
C  50.03800 33.01300 23.80400
C  50.00600 31.80700 22.76600
N  46.82700 33.66600 27.87800
C  46.79500 32.67100 26.98800
C  46.24400 31.56400 27.58400
C  45.82100 31.98700 28.88400
C  46.25600 33.28700 29.04100
C  45.94900 30.12300 27.06100
C  45.12000 31.65600 30.12500
O  44.58100 30.64700 30.49100
C  45.10900 32.94900 30.95700
C  45.40200 32.68800 32.36800
O  46.38900 32.10400 32.80800
O  44.37800 33.11400 33.15500
C  44.38500 32.77000 34.54500
H  48.15300 39.05700 30.56200
H  49.52900 37.98400 24.45500
H  47.49100 31.79500 25.24000
H  45.60200 35.50400 32.61400
H  47.50600 37.48400 32.38200
H  45.19500 38.13600 32.93500
H  44.63500 37.84500 31.25200
H  45.80600 39.18600 31.81500
H  47.94200 34.07100 32.85700
H  47.20200 35.28900 34.02800
H  49.43100 36.23700 32.11000
H  49.82100 34.87400 33.09000
H  49.47200 41.48500 28.99500
H  51.04600 40.58800 29.13000
H  49.79800 40.35800 30.34200
H  51.80300 41.75800 25.48600
H  52.14500 41.21600 27.10700
H  50.75700 42.33300 26.64900
H  49.75200 35.79700 23.03100
H  47.87500 33.49600 23.16900
H  46.99200 36.59500 23.14100
H  46.95800 35.24600 22.12300
H  48.03200 36.55900 21.66500
H  50.21100 32.55600 24.77800
H  50.85000 33.61600 23.39700
H  49.21400 31.91300 22.02400
H  49.92000 30.86000 23.29800
H  50.93200 31.74700 22.19500
H  45.16000 30.14000 26.31000
H  45.56100 29.47700 27.84800
H  46.81900 29.67500 26.58000
H  44.09800 33.34200 31.06100
H  44.79900 33.59000 35.13200
H  44.89800 31.81700 34.67100
H  43.35100 32.53100 34.79300

