79

Mg -1.38800 34.62600 26.04400
C  -3.08700 32.84200 28.54800
C  -0.11000 36.79800 28.39400
C  -0.34000 36.74200 23.63100
C  -2.97100 32.59000 23.61700
N  -1.51500 34.69000 28.22200
C  -2.16800 33.77800 29.06300
C  -1.71300 34.07800 30.56300
C  -0.89600 35.44200 30.43500
C  -0.82300 35.68200 28.92900
C  -1.43200 36.57100 31.32000
C  -0.99000 32.91100 31.30400
C  -1.65000 32.48000 32.64500
H  -0.77000 32.60700 33.95900
N  -0.26100 36.52000 25.98500
C  0.06200 37.19100 27.09600
C  0.72200 38.45700 26.66000
C  0.63600 38.50100 25.26500
C  -0.01200 37.24200 24.88200
C  1.24300 39.55200 27.65600
C  1.33700 39.47200 24.32800
O  1.46100 39.23000 23.09900
C  1.94700 40.72400 24.87300
N  -1.56300 34.62400 23.93200
C  -1.03100 35.57200 23.18700
C  -1.18700 35.28400 21.66300
C  -1.87600 33.85600 21.64600
C  -2.14800 33.66700 23.16700
C  -2.00000 36.30200 20.85600
C  -0.94700 32.76300 21.11300
C  0.30800 32.44900 21.86200
N  -2.85000 33.17600 25.98600
C  -3.36400 32.38200 24.93000
C  -4.23500 31.43900 25.44700
C  -4.12600 31.51000 26.88700
C  -3.30000 32.61700 27.12600
C  -5.13500 30.49000 24.61300
C  -4.71200 31.01700 28.07600
O  -5.35600 30.00900 28.25700
C  -3.90700 31.75300 29.15700
C  -4.92000 32.16700 30.23400
O  -6.05500 32.68300 30.09300
O  -4.49200 31.66500 31.40500
C  -5.45400 31.61000 32.53700
H  0.28500 37.43900 29.18500
H  -0.10800 37.50100 22.88000
H  -3.35100 31.95900 22.81100
H  -2.54000 34.33500 31.22400
H  0.07700 35.09100 30.77800
H  -2.23400 36.19600 31.95700
H  -1.80500 37.38900 30.70500
H  -0.65800 37.04100 31.92700
H  0.02000 33.26000 31.52100
H  -1.00400 32.08700 30.59000
H  -2.20000 31.53900 32.63700
H  -2.39900 33.21200 32.94700
H  2.30800 39.52700 27.42700
H  1.10800 39.24600 28.69400
H  0.65900 40.44400 27.42900
H  2.77200 40.44800 25.53100
H  1.07600 41.22900 25.29000
H  2.32400 41.22400 23.98100
H  -0.20600 35.28600 21.18800
H  -2.75800 33.89700 21.00600
H  -3.03800 36.07400 20.61300
H  -1.55700 36.47000 19.87400
H  -2.00800 37.21700 21.44800
H  -0.58000 33.03600 20.12300
H  -1.52500 31.84600 21.00000
H  0.43600 33.04800 22.76400
H  1.19100 32.74700 21.29700
H  0.34000 31.38400 22.09400
H  -5.29600 30.93900 23.63300
H  -6.08700 30.37300 25.13000
H  -4.76100 29.46900 24.54100
H  -3.18200 31.03200 29.53600
H  -4.91300 31.95200 33.41900
H  -5.90300 30.64300 32.76200
H  -6.16400 32.42200 32.38400

