79

Mg 0.55700 43.44100 26.47200
C  2.94100 43.31800 29.06800
C  -1.91500 42.68000 28.70600
C  -1.47100 43.04600 23.85300
C  3.37800 43.89400 24.21500
N  0.58800 43.14500 28.61100
C  1.66600 43.14500 29.49100
C  1.09900 43.35200 30.92700
C  -0.34700 42.73600 30.83100
C  -0.64500 42.82400 29.28900
C  -0.40700 41.28000 31.30900
C  1.08900 44.82600 31.45300
C  1.08900 44.95900 32.99200
H  0.73300 43.75100 33.81300
N  -1.49200 43.02700 26.33900
C  -2.37800 42.81700 27.36000
C  -3.68500 42.69800 26.87000
C  -3.59900 42.64700 25.42200
C  -2.16000 42.97800 25.10100
C  -4.94100 42.49600 27.77400
C  -4.68500 42.49300 24.35000
O  -4.37600 42.63000 23.16600
C  -6.13000 42.26000 24.69200
N  0.85000 43.68700 24.33100
C  -0.17000 43.34600 23.47800
C  0.33000 43.31400 22.03700
C  1.77300 43.80700 22.15100
C  2.05100 43.76500 23.66800
C  0.15800 41.92800 21.26400
C  2.10600 45.12900 21.39000
C  2.08800 46.44700 22.19600
N  2.73000 43.56400 26.51000
C  3.74900 43.78000 25.54000
C  5.01700 43.67800 26.15500
C  4.76000 43.52400 27.52500
C  3.37300 43.42200 27.68200
C  6.33100 43.82700 25.30900
C  5.41600 43.33700 28.85000
O  6.54800 43.15000 29.11400
C  4.22800 43.39300 29.90800
C  4.25900 42.36900 30.96300
O  4.31500 41.13500 30.76000
O  4.37800 42.92900 32.23600
C  4.55500 42.08300 33.38700
H  -2.74600 42.42100 29.36500
H  -2.00000 42.56300 23.02800
H  4.15600 43.93500 23.45000
H  1.74700 42.70000 31.51300
H  -1.09300 43.33800 31.35000
H  0.43700 41.04500 31.95700
H  -0.47200 40.62300 30.44100
H  -1.31300 41.10800 31.88900
H  0.18300 45.24000 31.01100
H  1.86900 45.49000 31.08100
H  0.31000 45.70500 33.15300
H  2.06100 45.32600 33.32000
H  -4.95100 41.48800 28.19000
H  -5.82400 42.71700 27.17500
H  -4.82000 43.24300 28.55900
H  -6.06900 41.41900 25.38400
H  -6.64500 42.05100 23.75500
H  -6.50300 43.15200 25.19600
H  -0.20300 44.11400 21.52300
H  2.46200 43.05400 21.77000
H  1.11100 41.40400 21.18900
H  -0.18700 42.15700 20.25600
H  -0.52200 41.23800 21.76300
H  1.35400 45.26200 20.61200
H  3.09500 44.96900 20.95900
H  3.06600 46.91500 22.31000
H  1.48600 46.37000 23.10100
H  1.65300 47.15000 21.48600
H  6.48200 44.90200 25.41100
H  6.21000 43.47800 24.28400
H  7.20300 43.43300 25.83100
H  4.21700 44.37900 30.37400
H  4.40200 42.63000 34.31700
H  5.52400 41.59100 33.30300
H  3.82900 41.27000 33.42600

