79

Mg 29.85100 58.95100 38.58300
C  26.77900 57.26100 37.79400
C  31.50800 56.07000 38.05700
C  32.56600 60.89400 38.52500
C  27.94100 62.00600 38.61900
N  29.25400 57.02100 37.87500
C  28.00800 56.48100 37.63400
C  28.09000 55.03900 36.97500
C  29.47400 54.62800 37.58200
C  30.15100 55.97400 37.81000
C  29.39600 53.78700 38.86700
C  27.97600 55.03100 35.42900
C  26.64800 54.55600 34.78700
H  25.80000 55.43900 33.88600
N  31.83600 58.52200 38.48600
C  32.32800 57.24500 38.26200
C  33.71900 57.37100 38.13900
C  34.13200 58.74600 38.40900
C  32.80800 59.48800 38.54400
C  34.56600 56.13000 37.91000
C  35.50600 59.27200 38.45200
O  36.44100 58.63200 38.09300
C  35.75600 60.73800 38.96500
N  30.18600 61.21500 38.42900
C  31.41900 61.68200 38.49900
C  31.43200 63.24200 38.34800
C  29.87700 63.57500 38.28500
C  29.30500 62.20400 38.43500
C  32.18900 63.96400 39.50400
C  29.47100 64.27800 36.97300
C  29.83700 65.72200 36.86800
N  27.77600 59.54800 38.42100
C  27.19600 60.81500 38.55400
C  25.72400 60.58700 38.61000
C  25.50300 59.22800 38.33100
C  26.78000 58.65200 38.23800
C  24.68200 61.74100 38.69500
C  24.52400 58.26700 38.05300
O  23.31800 58.40400 38.08200
C  25.23100 56.96500 37.56000
C  24.76900 55.88400 38.57300
O  24.51600 56.08300 39.78400
O  24.30300 54.80600 37.80500
C  23.16000 54.18400 38.31400
H  32.06000 55.13500 37.94200
H  33.48300 61.47100 38.39200
H  27.32500 62.90500 38.69200
H  27.27400 54.46600 37.41500
H  30.06500 54.06100 36.86200
H  28.51100 53.17800 39.05100
H  29.59900 54.52900 39.64000
H  30.21100 53.06300 38.86100
H  28.64300 54.31600 34.94600
H  28.31200 56.02000 35.11800
H  25.91400 54.12600 35.46900
H  27.00700 53.77700 34.11400
H  35.62900 56.32000 38.06100
H  34.35200 55.68000 36.94100
H  34.25200 55.39500 38.65100
H  36.81400 60.93300 39.13900
H  35.18300 61.01200 39.85100
H  35.53100 61.47400 38.19300
H  31.92300 63.43900 37.39500
H  29.46700 64.12200 39.13500
H  31.49800 64.71600 39.88500
H  33.10300 64.47700 39.20600
H  32.28500 63.33900 40.39200
H  28.40500 64.17500 36.76800
H  29.97300 63.79400 36.13600
H  29.01600 66.41600 36.68800
H  30.58200 65.75500 36.07300
H  30.49400 66.05800 37.67000
H  25.05600 62.58400 38.11500
H  24.51400 62.11000 39.70700
H  23.68900 61.56400 38.28400
H  24.89400 56.73000 36.55000
H  22.45500 53.99400 37.50400
H  22.52400 54.84800 38.89900
H  23.32000 53.19300 38.73800

