79

Mg 48.79500 44.95900 42.79800
C  45.27600 45.24400 42.01700
C  48.85500 41.99400 41.31500
C  52.07700 45.28000 43.00100
C  48.59900 48.51400 43.66800
N  47.17300 43.74600 41.93500
C  45.91800 44.05700 41.58300
C  45.31200 42.91900 40.70700
C  46.31900 41.71300 41.03700
C  47.54300 42.53300 41.38800
C  45.93100 40.78700 42.25200
C  45.16300 43.31300 39.19100
C  43.75000 43.08800 38.60300
H  43.36700 43.99400 37.44700
N  50.26500 43.69200 42.35100
C  50.10700 42.51500 41.72100
C  51.44000 41.86900 41.57700
C  52.39800 42.71600 42.20200
C  51.62000 43.97800 42.48300
C  51.63600 40.41700 40.97300
C  53.87400 42.37000 42.41700
O  54.37700 41.35100 41.93800
C  54.82000 43.30800 43.09300
N  50.06800 46.70700 43.14700
C  51.43300 46.48200 43.16600
C  52.16800 47.74300 43.36400
C  51.14800 48.81800 43.73400
C  49.84800 47.99100 43.57100
C  53.47400 47.60400 44.20700
C  51.25300 50.07600 42.93200
C  52.11900 51.20500 43.54100
N  47.31300 46.52200 42.98400
C  47.37100 47.85700 43.41600
C  46.07100 48.50300 43.35800
C  45.25000 47.45900 42.80700
C  46.04000 46.30300 42.60400
C  45.73700 49.92600 43.71300
C  43.94900 47.30000 42.26400
O  42.99100 48.08900 42.26000
C  43.92500 45.83100 41.68400
C  42.74800 44.99400 42.12500
O  41.88900 44.54700 41.43100
O  42.74900 44.84600 43.51200
C  41.45900 44.73500 44.12300
H  49.01800 40.99200 40.91200
H  53.16400 45.31800 42.90700
H  48.40900 49.48400 44.13100
H  44.36200 42.63200 41.15700
H  46.51700 41.08900 40.16600
H  44.97500 41.06500 42.69700
H  46.74700 40.94300 42.95900
H  45.90600 39.73500 41.96900
H  45.80300 42.83500 38.44900
H  45.27400 44.39700 39.20900
H  42.99600 43.17300 39.38500
H  43.58100 42.04700 38.32800
H  52.56500 40.25000 40.42800
H  50.82800 40.31200 40.25000
H  51.63800 39.64400 41.74100
H  55.20600 44.04600 42.39100
H  55.72000 42.74400 43.34000
H  54.40500 43.79200 43.97800
H  52.54900 47.94800 42.36400
H  51.32300 49.11300 44.76900
H  53.55800 48.41300 44.93200
H  54.26100 47.77100 43.47100
H  53.61600 46.62200 44.65900
H  50.28000 50.54900 42.79700
H  51.65400 49.79200 41.95900
H  52.31100 51.08700 44.60700
H  51.63600 52.16900 43.37900
H  53.06900 51.29400 43.01500
H  45.26700 50.33400 42.81800
H  46.59700 50.50500 44.05100
H  44.99800 49.88600 44.51400
H  44.04300 45.99800 40.61300
H  41.46200 43.87400 44.79200
H  40.60500 44.80600 43.45100
H  41.36900 45.56700 44.82200

