79

Mg 26.31200 49.85600 27.09200
C  24.22800 51.39400 29.42000
C  28.43000 49.15800 29.65000
C  28.46500 48.74500 24.76100
C  24.16500 51.05600 24.49400
N  26.28300 50.19900 29.25200
C  25.30000 50.71300 30.00600
C  25.57800 50.53500 31.49200
C  27.08600 50.24000 31.49700
C  27.21700 49.76900 30.08800
C  28.04500 51.39000 31.97100
C  24.64400 49.44800 32.21700
C  23.92400 49.89800 33.50000
H  24.64900 50.48300 34.68400
N  28.15000 49.03500 27.20800
C  28.85900 48.75500 28.36000
C  30.13000 48.17000 28.04300
C  30.19200 48.08400 26.61400
C  28.86300 48.59600 26.10000
C  31.02100 47.68700 29.20800
C  31.33300 47.63900 25.70200
O  31.10300 47.50600 24.49500
C  32.73700 47.39200 26.16800
N  26.45200 50.10900 24.84800
C  27.36300 49.47200 24.17600
C  27.06100 49.54800 22.64300
C  25.55200 49.91400 22.65900
C  25.30700 50.34100 24.06800
C  28.00600 50.54600 21.92500
C  24.61100 48.74200 22.19100
C  24.77400 47.33100 22.97400
N  24.55400 51.08400 26.92300
C  23.78200 51.48800 25.81500
C  22.64100 52.31900 26.26900
C  22.74400 52.20200 27.66100
C  23.91200 51.47400 28.01300
C  21.48700 52.90500 25.41500
C  22.13900 52.67000 28.94600
O  21.21100 53.44200 29.20900
C  23.02400 52.07800 30.12100
C  23.38300 53.26900 31.08800
O  23.94100 54.25500 30.78800
O  22.80900 52.98300 32.35900
C  23.01200 54.13800 33.27500
H  29.14800 48.90700 30.43400
H  29.05700 48.17700 24.04000
H  23.53300 51.35900 23.65700
H  25.38600 51.51400 31.93200
H  27.26100 49.37200 32.13200
H  28.92500 50.99400 32.47800
H  27.46700 52.01600 32.65100
H  28.42700 51.93900 31.11100
H  25.31600 48.65000 32.53000
H  23.99200 49.07000 31.42900
H  23.46200 48.97500 33.84900
H  23.10400 50.56700 33.23700
H  30.50000 47.22400 30.04700
H  31.35000 48.61600 29.67500
H  31.78500 47.05700 28.75300
H  33.45800 47.57600 25.37200
H  32.84700 46.31300 26.28100
H  32.93200 47.92000 27.10200
H  27.16000 48.56300 22.18600
H  25.49000 50.68000 21.88500
H  27.43700 51.41300 21.58700
H  28.55100 50.03700 21.13000
H  28.77300 50.94400 22.58900
H  24.85800 48.64800 21.13400
H  23.56600 48.99400 22.37400
H  25.00100 46.52800 22.27300
H  23.84300 47.21500 23.52800
H  25.57600 47.43900 23.70400
H  21.07900 52.14900 24.74400
H  21.95400 53.66500 24.78900
H  20.66200 53.39200 25.93500
H  22.35500 51.41900 30.67600
H  22.96000 55.08600 32.74000
H  24.05800 54.23100 33.56900
H  22.34800 54.01500 34.13100

