79

Mg -1.37800 34.69900 27.24100
C  -3.10300 32.58500 29.54300
C  0.06100 36.25900 29.91600
C  -0.13400 36.77800 25.09700
C  -3.08700 33.00600 24.66600
N  -1.45100 34.42900 29.45100
C  -2.29600 33.54500 30.14100
C  -2.02600 33.73100 31.67600
C  -1.38400 35.12800 31.73600
C  -0.88700 35.29800 30.31200
C  -2.33300 36.23800 32.25700
C  -1.21900 32.58900 32.43700
C  -2.02400 31.74200 33.48200
H  -1.33100 31.61600 34.87400
N  -0.15800 36.26000 27.48300
C  0.40500 36.80500 28.63300
C  1.35000 37.77100 28.31300
C  1.30300 37.93000 26.88800
C  0.23600 36.99600 26.42100
C  2.12300 38.53500 29.39600
C  2.14900 38.88400 25.95000
O  2.07900 39.02300 24.72000
C  3.24800 39.65300 26.64500
N  -1.62200 34.93000 25.20500
C  -0.94600 35.89500 24.50700
C  -1.14300 35.80500 23.00000
C  -2.20400 34.60500 22.87600
C  -2.28300 34.10200 24.35600
C  -1.41700 37.14800 22.32400
C  -1.70800 33.41300 21.95000
C  -2.65600 33.13800 20.77200
N  -2.83400 33.18000 27.08800
C  -3.38400 32.55800 25.96200
C  -4.12500 31.35100 26.39100
C  -4.05200 31.33500 27.80700
C  -3.28700 32.52900 28.17000
C  -4.72900 30.36800 25.49200
C  -4.45600 30.64200 28.95400
O  -5.17000 29.66200 29.05300
C  -3.83700 31.44700 30.17100
C  -4.93900 31.87500 31.06300
O  -5.52800 32.97300 31.01500
O  -5.27500 30.96600 32.00800
C  -6.30000 31.31800 33.02200
H  0.60900 36.62500 30.78700
H  0.38800 37.37000 24.34200
H  -3.63400 32.46300 23.89300
H  -3.02300 33.67500 32.11400
H  -0.47000 35.28900 32.30800
H  -3.22100 36.24000 31.62400
H  -1.82200 37.20100 32.25000
H  -2.67000 36.00100 33.26600
H  -0.28800 32.92900 32.89100
H  -0.91800 31.81200 31.73400
H  -2.28700 30.72100 33.20300
H  -2.96900 32.23800 33.70600
H  1.62000 39.48700 29.56700
H  3.18700 38.69200 29.22200
H  1.97000 37.97600 30.31900
H  4.01700 39.19300 27.26600
H  2.76600 40.42200 27.24800
H  3.71500 40.30800 25.90900
H  -0.22400 35.42900 22.55000
H  -3.19200 34.93100 22.55100
H  -1.75000 37.82000 23.11500
H  -2.25500 37.12100 21.62800
H  -0.46000 37.49800 21.93800
H  -1.53100 32.46200 22.45100
H  -0.72100 33.72800 21.61100
H  -2.07900 33.51100 19.92500
H  -3.58300 33.70200 20.87000
H  -2.73000 32.07300 20.55600
H  -5.65200 30.69600 25.01400
H  -4.77600 29.34300 25.86100
H  -3.93100 30.30500 24.75200
H  -3.15900 30.79900 30.72600
H  -5.93300 32.11200 33.67100
H  -6.47800 30.46400 33.67600
H  -7.30600 31.58000 32.69500

