79

Mg 29.73300 58.61000 38.65600
C  26.74500 56.87700 38.04000
C  31.40900 55.98200 37.41500
C  32.41200 60.66700 38.37000
C  27.79300 61.47500 39.20100
N  29.09600 56.67800 37.87100
C  27.90800 56.15500 37.73800
C  27.94400 54.72000 37.23600
C  29.40500 54.34500 37.42900
C  30.01000 55.80200 37.65400
C  29.64800 53.42400 38.66200
C  27.56800 54.74500 35.72200
C  26.47300 53.87900 35.10400
H  25.68000 54.62900 34.06500
N  31.70800 58.31400 38.07900
C  32.19600 57.16800 37.55000
C  33.61900 57.32100 37.38500
C  33.96700 58.60200 37.76500
C  32.71000 59.28100 38.10000
C  34.50300 56.19900 36.73200
C  35.31700 59.25500 37.70000
O  36.20500 58.49800 37.36600
C  35.57300 60.63100 37.91900
N  30.09700 60.81800 38.82500
C  31.29400 61.36800 38.78900
C  31.20200 62.81800 38.85500
C  29.72200 63.14000 39.08600
C  29.16300 61.70100 39.09900
C  32.26200 63.50400 39.86200
C  29.08200 63.95900 37.87700
C  27.97800 64.99500 38.18500
N  27.72100 59.05500 38.83000
C  27.08100 60.21500 39.02900
C  25.63700 60.08200 39.01400
C  25.42600 58.71300 38.67000
C  26.78900 58.16800 38.55000
C  24.60200 61.14200 39.17900
C  24.47800 57.69800 38.33200
O  23.30000 57.65100 38.23600
C  25.28000 56.42900 37.95200
C  24.97100 55.17900 38.83500
O  25.43100 55.01900 39.92700
O  23.96500 54.45600 38.24700
C  23.22000 53.54900 39.08800
H  31.87000 55.11700 36.93400
H  33.29600 61.28600 38.20600
H  27.23400 62.41200 39.24800
H  27.24600 54.07800 37.77300
H  29.85200 53.86200 36.56000
H  28.69200 53.35600 39.18200
H  30.49200 53.64500 39.31400
H  29.83500 52.39300 38.36200
H  28.37800 54.45000 35.05500
H  27.45500 55.75500 35.32700
H  25.84100 53.76000 35.98400
H  26.87300 52.92400 34.76300
H  35.09700 56.66500 35.94500
H  33.92200 55.42000 36.23700
H  35.01200 55.71000 37.56300
H  36.65400 60.77400 37.89400
H  35.10200 60.78600 38.88900
H  34.94200 61.15200 37.19900
H  31.52000 63.03600 37.83500
H  29.54800 63.66500 40.02500
H  32.99900 64.17500 39.42100
H  32.86500 62.75000 40.36800
H  31.66500 64.04400 40.59700
H  28.61600 63.25600 37.18600
H  29.80200 64.47400 37.24100
H  28.29100 66.00600 37.92400
H  27.77600 65.13700 39.24600
H  27.09600 64.68500 37.62300
H  23.84500 60.74700 39.85600
H  24.24600 61.44400 38.19400
H  24.99400 61.99100 39.74000
H  25.15600 56.24400 36.88500
H  23.31700 52.51800 38.74800
H  22.19000 53.84100 39.29500
H  23.64200 53.54400 40.09300

