79

Mg 41.70600 41.64900 26.05200
C  41.24300 43.86300 28.80800
C  43.33900 39.48900 28.16100
C  42.05200 39.46200 23.41700
C  40.85300 44.26400 23.90300
N  42.08400 41.57000 28.31900
C  41.82300 42.62800 29.17400
C  42.38000 42.23700 30.59200
C  43.27600 40.99800 30.26100
C  42.94900 40.69000 28.80400
C  44.83000 41.11100 30.55900
C  41.21500 41.94300 31.57400
C  41.45500 42.43500 32.99500
H  40.40600 41.99700 34.02000
N  42.56000 39.80600 25.85000
C  43.13500 39.09000 26.82300
C  43.57600 37.82300 26.31700
C  43.21200 37.77400 24.92700
C  42.53400 39.07300 24.66000
C  44.28900 36.76300 27.08700
C  43.43600 36.61000 23.88000
O  43.31500 36.80800 22.66900
C  43.78900 35.20400 24.29500
N  41.73700 41.97100 23.98000
C  41.79500 40.81800 23.13900
C  41.57500 41.25100 21.72600
C  40.87600 42.72100 21.83800
C  41.24400 43.06900 23.32900
C  42.97100 41.21800 20.98100
C  39.39100 42.73900 21.54600
C  38.35300 42.48500 22.70300
N  41.01400 43.61200 26.24800
C  40.78600 44.53400 25.27400
C  40.37300 45.71300 25.96000
C  40.54900 45.46500 27.29300
C  40.99500 44.19900 27.43900
C  40.04900 46.92200 25.22500
C  40.31200 46.06000 28.62100
O  39.83600 47.14200 28.85200
C  40.72800 45.03700 29.69200
C  41.82800 45.64600 30.55600
O  42.98900 45.73400 30.26700
O  41.23300 46.02700 31.73300
C  42.20100 46.54400 32.71000
H  43.63800 38.71200 28.86900
H  42.08900 38.74900 22.59000
H  40.63500 45.06500 23.19300
H  43.01300 43.02900 30.99200
H  43.02600 40.08300 30.79800
H  45.35600 40.26400 30.11800
H  45.04600 41.18200 31.62500
H  45.26500 42.01800 30.14000
H  41.19900 40.86300 31.72200
H  40.27000 42.39300 31.27000
H  41.45800 43.52500 33.01700
H  42.38400 41.99800 33.36400
H  43.86400 35.78100 26.87800
H  44.26100 36.95400 28.16000
H  45.37800 36.79400 27.05200
H  43.53100 34.42800 23.57500
H  43.20300 34.91100 25.16600
H  44.82400 35.12200 24.62700
H  40.93400 40.58000 21.15400
H  41.39100 43.26900 21.04900
H  43.64300 40.42100 21.30000
H  43.45800 42.16600 21.20800
H  42.72800 41.16100 19.92000
H  39.20100 42.00500 20.76300
H  39.28300 43.69400 21.03200
H  38.91700 42.22300 23.59800
H  37.68200 41.65200 22.49500
H  37.70000 43.34600 22.84400
H  39.37800 46.68500 24.40000
H  40.96900 47.27700 24.76100
H  39.60600 47.69500 25.85400
H  39.84600 44.70700 30.24100
H  42.60800 45.81800 33.41400
H  41.70300 47.18800 33.43600
H  43.01200 47.11200 32.25200

