79

Mg 5.07900 52.42400 42.14900
C  5.04900 48.89300 41.85400
C  7.52700 52.39200 39.74500
C  4.62500 55.80500 41.85000
C  2.30000 52.18800 44.15200
N  5.97400 50.86300 40.80000
C  5.83500 49.47300 40.84800
C  6.69400 48.82600 39.75000
C  7.74800 49.90300 39.51700
C  7.04000 51.12600 40.03900
C  9.15900 49.71200 40.13600
C  5.82000 48.30500 38.53700
C  5.91500 46.79500 38.01200
H  6.38400 46.50800 36.53900
N  6.02000 53.95700 41.00600
C  7.03600 53.70600 40.10800
C  7.56100 55.03900 39.73100
C  6.86800 56.01700 40.46000
C  5.82400 55.29000 41.15700
C  8.63500 55.16300 38.69100
C  7.20500 57.44000 40.50000
O  8.21500 57.83400 39.88400
C  6.42800 58.43900 41.36500
N  3.75200 53.74700 42.89400
C  3.71300 55.06800 42.63100
C  2.39000 55.72800 43.11800
C  1.45100 54.49700 43.41900
C  2.54400 53.40700 43.52600
C  2.50900 56.60600 44.43600
C  0.43400 54.25800 42.24700
C  -0.51100 55.45700 41.94700
N  4.00000 50.94500 43.02400
C  2.99200 50.99200 43.96300
C  2.69600 49.65000 44.40200
C  3.49400 48.78000 43.59700
C  4.23700 49.59900 42.77000
C  1.71800 49.27600 45.46400
C  3.85200 47.39400 43.36300
O  3.52800 46.33800 43.82800
C  4.88900 47.47100 42.19500
C  4.61600 46.53600 41.15800
O  3.66200 46.64200 40.37100
O  5.44100 45.45600 41.29100
C  5.03300 44.30700 40.48100
H  8.41400 52.49000 39.11600
H  4.42700 56.87800 41.81900
H  1.33100 52.17400 44.65400
H  7.03000 47.95200 40.30700
H  7.89400 50.02600 38.44400
H  9.90000 49.83900 39.34700
H  9.27300 48.72500 40.58400
H  9.40400 50.55100 40.78900
H  6.08600 48.95600 37.70400
H  4.80700 48.64400 38.75600
H  4.91700 46.40200 38.20500
H  6.64200 46.35600 38.69500
H  8.58100 54.37100 37.94500
H  9.62600 55.06000 39.13200
H  8.65200 56.18100 38.29900
H  6.91400 59.41500 41.36800
H  6.48000 57.88700 42.30300
H  5.49800 58.64400 40.83400
H  2.08400 56.44200 42.35300
H  0.84800 54.70400 44.30400
H  3.39900 57.23300 44.40200
H  2.58000 55.99200 45.33400
H  1.73500 57.36900 44.51700
H  -0.19400 53.39500 42.46600
H  0.91100 53.92400 41.32600
H  0.01200 56.34800 41.59900
H  -1.14100 55.72700 42.79500
H  -1.20300 55.21400 41.14100
H  0.72900 49.37100 45.01600
H  1.80500 50.00200 46.27200
H  1.84000 48.28000 45.88900
H  5.86800 47.22000 42.60500
H  5.79700 43.53700 40.58600
H  5.12800 44.59200 39.43400
H  3.99800 44.05300 40.71000

