79

Mg 36.44800 49.43500 24.35600
C  36.18300 47.79600 27.58000
C  35.13600 52.20800 25.78800
C  36.11600 50.84700 21.24700
C  37.36200 46.36900 22.97100
N  35.77500 49.95600 26.39900
C  35.91400 49.17200 27.56500
C  35.52000 49.99900 28.83400
C  35.05600 51.34900 28.15700
C  35.25900 51.18600 26.71500
C  33.60600 51.90900 28.62100
C  36.69500 50.22900 29.88100
C  36.30100 50.14000 31.38400
H  34.82600 50.25000 31.76700
N  35.78100 51.29000 23.60800
C  35.31300 52.31400 24.41000
C  35.02300 53.49000 23.57400
C  35.22700 53.05000 22.22600
C  35.70600 51.65300 22.30200
C  34.40800 54.80600 24.13000
C  35.11200 53.79400 20.89900
O  35.46500 53.32700 19.84600
C  34.38500 55.19800 20.88500
N  36.62800 48.70900 22.45900
C  36.48600 49.52100 21.30400
C  36.89800 48.79300 20.04500
C  37.52300 47.49100 20.59600
C  37.11000 47.50000 22.10500
C  35.60700 48.59700 19.22400
C  39.10800 47.43000 20.44400
C  40.07500 48.17200 21.47000
N  36.81600 47.50100 25.02500
C  37.24400 46.32900 24.38900
C  37.46500 45.30200 25.39400
C  37.04800 45.85200 26.56800
C  36.63700 47.15400 26.36200
C  37.82300 43.87600 25.10000
C  36.85000 45.48700 27.98700
O  37.03900 44.43300 28.58700
C  36.24400 46.73900 28.69900
C  34.91100 46.35300 29.37700
O  33.76400 46.57000 28.81300
O  35.11900 45.84900 30.61400
C  33.97800 45.41800 31.29300
H  34.62700 53.10700 26.14300
H  36.15400 51.23000 20.22500
H  37.73800 45.43200 22.55300
H  34.64200 49.49500 29.23800
H  35.73100 52.19500 28.27900
H  33.18000 51.23300 29.36200
H  33.06200 51.88300 27.67700
H  33.68400 52.97100 28.85800
H  37.17100 51.20900 29.89400
H  37.41400 49.51800 29.47500
H  36.92300 50.87800 31.89100
H  36.56900 49.16700 31.79600
H  33.32500 54.76900 24.01500
H  34.97600 55.65700 23.75500
H  34.54400 54.90400 25.20700
H  34.15400 55.45000 19.85000
H  35.09700 55.93900 21.24800
H  33.40700 55.12100 21.36100
H  37.56200 49.36900 19.40100
H  37.19500 46.58900 20.08000
H  34.73000 48.67400 19.86700
H  35.62700 47.61500 18.75100
H  35.48000 49.24900 18.35900
H  39.41600 47.88800 19.50400
H  39.41600 46.38600 20.38300
H  39.42600 48.24400 22.34400
H  40.57000 49.07100 21.10200
H  40.81500 47.43300 21.77700
H  38.85900 43.98500 24.77900
H  37.13400 43.42000 24.38900
H  37.80000 43.40600 26.08400
H  36.82600 47.06500 29.56200
H  34.21200 44.86300 32.20100
H  33.30900 44.83300 30.66100
H  33.26400 46.19500 31.56400

