79

Mg 0.07000 43.29600 26.67000
C  2.21700 42.69800 29.39100
C  -2.62700 41.96100 28.48200
C  -1.80400 43.64400 23.91800
C  2.93800 44.14800 24.85800
N  -0.15800 42.41800 28.71000
C  0.84500 42.53000 29.66700
C  0.22000 42.23000 31.02600
C  -1.21200 41.75800 30.59500
C  -1.35000 42.04100 29.15800
C  -1.61800 40.29900 30.74600
C  0.26100 43.24400 32.15500
C  0.61600 42.76600 33.58200
H  0.00800 41.50300 34.12200
N  -1.96800 42.88200 26.29400
C  -2.88100 42.30300 27.11500
C  -4.18400 42.21300 26.47200
C  -3.98300 42.76300 25.14500
C  -2.51800 43.09000 25.08100
C  -5.44100 41.73400 27.09000
C  -4.94200 42.99500 24.01800
O  -4.56500 43.44500 22.93100
C  -6.52600 42.79700 24.23400
N  0.48600 43.84700 24.73900
C  -0.47700 43.99300 23.79900
C  0.01900 44.85000 22.58500
C  1.46100 45.13400 23.03700
C  1.70800 44.24300 24.28300
C  -0.10500 44.19800 21.23200
C  1.69600 46.63700 23.42900
C  1.45400 47.67500 22.39400
N  2.17300 43.41800 27.01400
C  3.18800 43.67800 26.17500
C  4.44300 43.50000 26.83900
C  4.10100 43.11600 28.17200
C  2.75800 43.01100 28.14400
C  5.79400 43.76000 26.32500
C  4.68400 42.77000 29.45700
O  5.88000 42.66100 29.77000
C  3.47100 42.70500 30.36200
C  3.51300 41.49200 31.28400
O  3.18400 40.32600 31.06000
O  3.96300 41.87200 32.52700
C  4.19200 40.84700 33.56000
H  -3.52500 41.63900 29.01400
H  -2.34000 43.85000 22.99000
H  3.85900 44.48100 24.37500
H  0.67700 41.33400 31.44600
H  -1.95500 42.44900 30.99300
H  -0.89100 39.78500 31.37500
H  -1.72100 39.73300 29.82000
H  -2.58500 40.24700 31.24700
H  -0.72800 43.66800 32.32900
H  0.92900 44.06900 31.90700
H  0.55500 43.55700 34.33000
H  1.67100 42.57600 33.38400
H  -6.01000 41.07200 26.43800
H  -6.08700 42.54900 27.41600
H  -5.24000 41.09500 27.95000
H  -6.96100 43.20000 25.14800
H  -6.70200 41.73300 24.07600
H  -7.05500 43.36500 23.46800
H  -0.52500 45.79300 22.54700
H  2.16800 44.92700 22.23400
H  0.90500 44.13800 20.82500
H  -0.64500 44.75500 20.46600
H  -0.50200 43.18500 21.17300
H  2.73200 46.67000 23.76700
H  1.16100 46.98300 24.31400
H  1.05300 47.13100 21.53900
H  2.40300 48.13300 22.11700
H  0.66100 48.37200 22.66800
H  5.77900 43.95100 25.25200
H  6.53000 42.96800 26.46500
H  6.13800 44.63600 26.87400
H  3.32700 43.60800 30.95700
H  5.18600 41.03200 33.96600
H  4.21700 39.78500 33.31400
H  3.51800 41.02500 34.39800

