79

Mg 48.52700 34.39000 27.12800
C  46.67700 33.23400 29.95700
C  48.98500 37.30000 29.06200
C  49.96400 35.81700 24.46300
C  47.53600 31.71300 25.38700
N  47.92000 35.13000 29.34800
C  47.35900 34.43000 30.33000
C  47.56500 35.10400 31.73100
C  47.70900 36.58800 31.30300
C  48.24000 36.36700 29.82800
C  46.34600 37.36000 31.43400
C  48.77600 34.47000 32.44300
C  48.65700 34.16900 33.96000
H  47.69500 35.06900 34.75700
N  49.33000 36.29700 26.79900
C  49.45700 37.35000 27.73400
C  50.24500 38.44800 27.18400
C  50.54100 38.00800 25.76800
C  49.96000 36.65600 25.60400
C  50.78900 39.56900 27.92900
C  51.35100 38.75800 24.72200
O  51.50600 38.27100 23.62900
C  52.03000 40.02300 25.00000
N  48.63100 33.88300 25.13400
C  49.40800 34.51800 24.28900
C  49.50500 33.73000 22.98000
C  48.73100 32.41200 23.29700
C  48.27100 32.68700 24.73300
C  48.92900 34.39100 21.76900
C  49.63500 31.15200 23.22100
C  50.72500 31.06200 24.38300
N  47.25600 32.88900 27.49900
C  47.06300 31.79300 26.72100
C  46.29600 30.79300 27.49500
C  46.07500 31.38300 28.71700
C  46.69200 32.65300 28.70400
C  45.88600 29.45300 26.99000
C  45.47600 31.16100 30.01200
O  44.87700 30.22400 30.44600
C  45.65400 32.43600 30.79400
C  46.01500 32.02500 32.19000
O  47.12200 31.59300 32.50500
O  44.98900 32.28500 33.08100
C  45.06400 32.00900 34.49000
H  49.29200 38.21600 29.57100
H  50.36000 36.25900 23.54700
H  47.44400 30.82700 24.75600
H  46.60100 34.88100 32.18800
H  48.56600 37.02400 31.81600
H  45.64400 36.89000 32.12300
H  45.94400 37.55800 30.44100
H  46.51300 38.35400 31.84900
H  49.65800 35.07400 32.23100
H  48.96800 33.52900 31.92800
H  49.69700 34.18800 34.28800
H  48.29200 33.17000 34.19900
H  50.47900 39.74300 28.96000
H  50.68800 40.45900 27.30800
H  51.86700 39.41000 27.95800
H  52.56000 40.34600 24.10400
H  52.74600 39.95500 25.81900
H  51.19200 40.66900 25.26500
H  50.48700 33.28300 22.82400
H  47.78200 32.28200 22.77600
H  48.91100 35.46400 21.96400
H  48.01300 33.97700 21.34600
H  49.66700 34.16100 21.00100
H  50.11800 31.23700 22.24800
H  48.98800 30.27800 23.29700
H  50.38400 30.29400 25.07800
H  50.90700 31.91700 25.03500
H  51.62500 30.70800 23.88100
H  46.32200 29.22600 26.01700
H  44.82000 29.56000 26.79400
H  46.19300 28.67900 27.69300
H  44.62600 32.79300 30.85400
H  44.16500 31.53300 34.88300
H  45.27200 32.95600 34.99000
H  45.91200 31.35500 34.69400

