79

Mg 24.78400 -4.25400 45.79700
C  26.78400 -1.84100 44.24900
C  22.05100 -3.05300 43.71500
C  23.15200 -7.24500 46.07800
C  27.64200 -5.65800 47.32600
N  24.39000 -2.60000 44.15300
C  25.50900 -1.82600 43.69600
C  24.98900 -0.81300 42.69600
C  23.36700 -0.92900 42.83700
C  23.21100 -2.30800 43.56900
C  22.70000 0.24600 43.67800
C  25.68000 -1.07400 41.33000
C  24.75000 -1.26500 40.08800
H  25.41000 -1.32300 38.71300
N  22.78300 -4.99900 45.17700
C  21.88200 -4.37200 44.31200
C  20.68100 -5.19000 44.23700
C  20.93300 -6.36900 45.02700
C  22.34500 -6.28200 45.40900
C  19.55400 -4.95500 43.33300
C  19.97500 -7.43600 45.28800
O  18.86400 -7.36900 44.80700
C  20.34600 -8.59000 46.18300
N  25.22300 -6.10700 46.71500
C  24.36500 -7.18000 46.67400
C  25.10300 -8.42200 47.25900
C  26.54400 -7.98500 47.56400
C  26.48900 -6.51600 47.17900
C  24.35900 -9.06900 48.48200
C  27.62000 -8.89100 46.81000
C  28.72300 -9.54100 47.64300
N  26.76000 -3.68500 45.98000
C  27.80600 -4.36200 46.68800
C  29.01500 -3.56500 46.52400
C  28.70200 -2.59100 45.61000
C  27.32200 -2.73300 45.23700
C  30.34000 -3.83600 47.15800
C  29.17100 -1.45200 44.81300
O  30.24300 -0.88300 44.79700
C  27.94000 -1.00400 43.87000
C  27.56600 0.42300 43.94700
O  27.09000 0.91100 44.93700
O  27.87100 1.09900 42.77900
C  27.52400 2.53100 42.89400
H  21.16900 -2.55500 43.30700
H  22.66900 -8.21200 46.23300
H  28.50100 -6.03700 47.88300
H  25.19000 0.18100 43.09400
H  22.84000 -1.08500 41.89600
H  22.38300 0.89800 42.86400
H  23.39100 0.88100 44.23300
H  21.84900 0.04400 44.32800
H  26.39700 -1.89500 41.34600
H  26.28800 -0.18700 41.15400
H  23.95700 -0.51900 40.13100
H  24.30900 -2.24100 40.29100
H  18.66600 -4.77700 43.93900
H  19.41000 -5.67700 42.52900
H  19.66300 -4.05100 42.73300
H  19.41900 -9.09900 46.44900
H  20.90500 -8.48100 47.11300
H  20.64500 -9.42300 45.54600
H  25.02600 -9.11800 46.42300
H  26.74800 -7.97900 48.63400
H  24.79300 -8.93700 49.47300
H  24.30700 -10.15200 48.37100
H  23.32700 -8.73800 48.60000
H  28.06100 -8.24500 46.05100
H  27.15100 -9.62700 46.15600
H  28.94300 -8.92300 48.51400
H  29.60800 -9.73600 47.03900
H  28.51800 -10.53400 48.04400
H  31.06800 -3.92200 46.35100
H  30.40400 -4.71900 47.79400
H  30.48000 -3.00000 47.84300
H  28.18000 -1.26500 42.84000
H  28.08700 3.07700 42.13800
H  28.11300 2.89600 43.73500
H  26.43800 2.60500 42.95100

