79

Mg 49.25700 45.79400 42.01000
C  45.85300 46.52200 41.12100
C  48.88200 42.79200 40.55000
C  52.59900 45.46400 42.21500
C  49.61600 49.23700 42.98100
N  47.60300 44.85200 40.92700
C  46.28500 45.27000 40.74200
C  45.40600 44.13900 40.10800
C  46.39000 42.96300 40.06000
C  47.72200 43.57000 40.55300
C  46.03100 41.69300 40.78100
C  45.00900 44.53900 38.62700
C  43.48000 44.28500 38.19800
H  43.23500 43.27100 37.16300
N  50.55300 44.30000 41.55200
C  50.15400 43.08100 41.01500
C  51.27900 42.20200 40.88800
C  52.46900 42.93300 41.33300
C  51.91200 44.31400 41.76600
C  51.16700 40.68700 40.49700
C  53.92700 42.45400 41.40900
O  54.14100 41.32400 41.03200
C  55.05900 43.36200 41.71000
N  50.88500 47.15300 42.44100
C  52.13700 46.74100 42.50200
C  53.04000 47.85200 42.99600
C  52.09900 49.05400 43.25100
C  50.76200 48.49600 42.76900
C  53.97400 47.39100 44.14700
C  52.49100 50.46500 42.61500
C  53.33400 51.35900 43.53800
N  48.03000 47.58000 42.08400
C  48.27000 48.87300 42.61500
C  47.00500 49.58800 42.51600
C  46.02400 48.63100 42.11900
C  46.71800 47.53500 41.69600
C  46.78300 51.01200 43.09000
C  44.59800 48.43600 42.04400
O  43.62700 49.12400 42.34300
C  44.39400 47.07900 41.23500
C  43.37600 46.25300 41.84100
O  42.24200 46.02600 41.33900
O  43.73200 45.67700 43.02100
C  42.91100 44.56200 43.45500
H  48.63500 41.78400 40.21100
H  53.68700 45.42800 42.30700
H  49.51900 50.21800 43.45100
H  44.43000 44.06700 40.58800
H  46.51400 42.66000 39.02000
H  46.37700 41.56200 41.80600
H  46.39500 40.88700 40.14300
H  44.95000 41.55800 40.80100
H  45.75900 44.21100 37.90700
H  45.06100 45.61500 38.46100
H  43.12800 45.20700 37.73400
H  42.80100 44.14600 39.03900
H  50.99600 40.47300 39.44100
H  50.43400 40.22700 41.15900
H  52.09800 40.17800 40.74500
H  55.00300 43.67100 42.75300
H  55.11900 44.30300 41.16300
H  55.99000 42.83600 41.50000
H  53.69900 48.11700 42.16900
H  52.09900 49.15700 44.33600
H  54.07800 48.17500 44.89600
H  54.94000 47.05300 43.77200
H  53.48300 46.47800 44.48300
H  51.57800 50.95000 42.27000
H  53.14300 50.39400 41.74400
H  54.35100 51.55800 43.20000
H  53.36000 50.94000 44.54400
H  52.80800 52.30900 43.63600
H  47.31000 51.03100 44.04400
H  45.75100 51.26300 43.33500
H  47.20100 51.78300 42.44300
H  44.18300 47.34500 40.19900
H  42.85600 43.84900 42.63200
H  41.91900 44.91000 43.74400
H  43.37800 44.22400 44.38000

