79

Mg 24.42900 -5.18200 45.58300
C  26.21400 -2.48300 44.15500
C  21.72900 -4.42100 43.32500
C  23.04600 -8.14000 46.32800
C  27.32100 -6.00400 47.30000
N  24.05800 -3.57500 43.99600
C  24.89300 -2.57700 43.61200
C  24.29600 -1.73500 42.46500
C  22.84200 -2.24700 42.38500
C  22.79100 -3.48100 43.29600
C  21.75800 -1.18200 42.84400
C  25.10200 -1.93500 41.08100
C  25.49600 -0.66400 40.34200
H  25.39800 -0.80100 38.79200
N  22.55400 -6.10200 45.05100
C  21.61700 -5.64800 44.14200
C  20.57100 -6.62400 44.06500
C  20.80300 -7.61300 45.05300
C  22.17400 -7.33700 45.59200
C  19.37400 -6.40800 43.12000
C  19.84900 -8.73100 45.37700
O  18.66000 -8.67800 45.01700
C  20.14700 -9.83200 46.41300
N  25.07300 -6.87000 46.59700
C  24.33200 -7.92000 46.82400
C  25.00700 -8.90600 47.79200
C  26.45100 -8.35900 47.89500
C  26.34600 -6.96100 47.28500
C  24.21800 -9.00100 49.14800
C  27.62400 -9.27100 47.37600
C  28.87200 -9.49700 48.35500
N  26.35900 -4.32700 45.80600
C  27.37700 -4.85900 46.55200
C  28.55600 -3.90800 46.38800
C  28.14100 -2.99100 45.40500
C  26.78900 -3.29300 45.12600
C  29.90100 -4.05300 47.01200
C  28.53200 -1.89600 44.61100
O  29.63100 -1.34000 44.49500
C  27.32700 -1.51200 43.75300
C  27.06600 -0.05500 43.97300
O  26.41500 0.54100 44.80600
O  27.84200 0.65300 43.06000
C  27.77700 2.09900 43.13400
H  20.85300 -4.21900 42.70400
H  22.78200 -9.19200 46.45500
H  28.22000 -6.17300 47.89700
H  24.22900 -0.66100 42.64000
H  22.63600 -2.54700 41.35800
H  22.09600 -0.89500 43.83900
H  20.78000 -1.65400 42.94200
H  21.72300 -0.28600 42.22300
H  24.60300 -2.68000 40.46100
H  26.04000 -2.39100 41.39800
H  26.49200 -0.35900 40.66300
H  24.71600 0.05900 40.58300
H  19.58900 -6.98500 42.22000
H  19.16400 -5.37800 42.83100
H  18.45900 -6.81700 43.54800
H  20.81000 -9.43500 47.18200
H  20.83400 -10.52800 45.93100
H  19.23200 -10.26200 46.82000
H  24.91500 -9.83100 47.22300
H  26.64100 -8.32100 48.96800
H  23.25700 -8.50600 49.00800
H  24.74200 -8.76100 50.07300
H  24.00900 -10.06500 49.25900
H  28.04600 -8.81100 46.48300
H  27.28000 -10.23200 46.99400
H  28.84800 -10.47200 48.84200
H  28.83300 -8.67500 49.06900
H  29.76000 -9.48500 47.72200
H  30.06200 -3.68500 48.02600
H  30.59100 -3.44000 46.43100
H  30.29700 -5.06400 46.91700
H  27.60700 -1.62900 42.70600
H  27.02400 2.47400 42.44000
H  28.71600 2.51800 42.77200
H  27.56200 2.46800 44.13700

