79

Mg 1.90600 -0.99400 44.37000
C  5.05100 0.25300 43.42900
C  0.54700 1.64400 42.33700
C  -1.11200 -2.44700 44.33000
C  3.41800 -3.81100 45.49300
N  2.79000 0.72500 42.94700
C  4.03600 1.02600 42.84400
C  4.19300 2.32300 41.97900
C  2.76600 2.67200 41.52300
C  1.98900 1.67200 42.39400
C  2.33000 4.18100 41.54800
C  5.25300 2.00200 40.78700
C  6.51900 2.92100 40.65200
H  7.77600 2.31500 39.97700
N  -0.01900 -0.39900 43.73000
C  -0.33200 0.66500 42.94200
C  -1.79000 0.80300 42.72600
C  -2.30100 -0.36300 43.31800
C  -1.11400 -1.14200 43.79700
C  -2.55400 1.80800 41.81300
C  -3.76300 -0.76600 43.33700
O  -4.55600 -0.08800 42.69300
C  -4.32000 -1.98100 43.94600
N  1.23800 -2.84700 44.78500
C  -0.06600 -3.21700 44.87700
C  -0.21200 -4.67900 45.46900
C  1.23900 -5.13000 45.71700
C  2.01200 -3.82800 45.28700
C  -1.10100 -4.72200 46.90000
C  1.65500 -6.33900 44.86100
C  1.17900 -7.70500 45.32000
N  3.88100 -1.69000 44.55000
C  4.34000 -2.93000 45.07000
C  5.78700 -2.87700 45.22300
C  6.09600 -1.64500 44.63500
C  4.92300 -0.97100 44.17300
C  6.68200 -3.87700 45.87600
C  7.21400 -0.73600 44.39200
O  8.34600 -0.83400 44.80800
C  6.61500 0.49100 43.59000
C  6.86100 1.70500 44.44500
O  6.29900 1.83900 45.54500
O  7.79900 2.48900 43.89100
C  7.84700 3.77400 44.57400
H  0.02900 2.40600 41.75000
H  -2.09000 -2.93300 44.33700
H  3.81300 -4.70800 45.97500
H  4.47600 3.22200 42.52600
H  2.71500 2.32600 40.49100
H  1.70800 4.21500 42.44300
H  1.71100 4.33700 40.66400
H  3.17100 4.87400 41.51700
H  4.82200 2.04700 39.78600
H  5.60000 0.97500 40.89700
H  6.71500 3.19500 41.68900
H  6.19200 3.83000 40.14700
H  -3.21600 1.42300 41.03700
H  -1.81800 2.26100 41.14800
H  -3.15900 2.50400 42.39300
H  -4.10100 -2.83700 43.30800
H  -5.40300 -1.87300 43.99700
H  -3.94100 -2.20500 44.94300
H  -0.61400 -5.17100 44.58300
H  1.50600 -5.30200 46.75900
H  -1.98400 -5.35800 46.83500
H  -1.40000 -3.69400 47.10500
H  -0.54600 -5.01500 47.79100
H  2.73900 -6.44600 44.90100
H  1.46800 -6.17200 43.80100
H  0.50100 -8.19800 44.62300
H  0.51100 -7.52400 46.16200
H  1.99500 -8.40100 45.51700
H  6.15400 -4.82900 45.84700
H  6.99500 -3.57200 46.87500
H  7.59300 -4.07300 45.31000
H  7.18600 0.62600 42.67100
H  8.78700 4.23200 44.26800
H  7.90800 3.71800 45.66000
H  6.98000 4.37900 44.30800

