79

Mg 24.65100 -5.83300 45.29400
C  27.08200 -3.76700 44.00700
C  22.33900 -4.69000 43.33800
C  22.72500 -8.56500 46.15000
C  27.21400 -7.23400 47.29500
N  24.77200 -4.49900 43.67200
C  25.82600 -3.62600 43.40900
C  25.37000 -2.46400 42.56700
C  23.77700 -2.64100 42.50300
C  23.60000 -4.01400 43.24500
C  23.00000 -1.37600 43.07800
C  26.04900 -2.62300 41.17800
C  26.18900 -1.46300 40.28000
H  25.65300 -1.66300 38.82500
N  22.73200 -6.46800 44.94300
C  21.94000 -5.82400 44.06100
C  20.64900 -6.47400 43.96200
C  20.74600 -7.62800 44.73300
C  22.13800 -7.62200 45.32400
C  19.59000 -6.08800 43.04300
C  19.65700 -8.68000 44.99100
O  18.57600 -8.57600 44.43600
C  19.79100 -9.87400 45.90700
N  24.92700 -7.60800 46.47100
C  24.01500 -8.64200 46.66800
C  24.54900 -9.79000 47.53300
C  25.91400 -9.24400 48.06100
C  26.03600 -7.94400 47.24700
C  23.56100 -10.40600 48.59800
C  27.16900 -10.15800 48.03100
C  28.15700 -10.04400 49.22100
N  26.70800 -5.49400 45.69400
C  27.54300 -6.10400 46.54700
C  28.90400 -5.58900 46.44900
C  28.70500 -4.61600 45.48600
C  27.36900 -4.62100 45.00800
C  30.19400 -5.77000 47.25400
C  29.33200 -3.48200 44.71500
O  30.49000 -3.02200 44.74700
C  28.28000 -2.92600 43.76000
C  28.22300 -1.45100 44.08400
O  28.18000 -0.96800 45.19500
O  28.35300 -0.73200 42.92300
C  28.35500 0.70600 43.11700
H  21.70500 -3.99600 42.78200
H  22.21200 -9.50700 46.35900
H  28.01600 -7.51100 47.98300
H  25.63300 -1.55800 43.11300
H  23.41000 -2.73700 41.48200
H  23.56600 -0.44600 43.03100
H  22.80500 -1.48500 44.14500
H  22.01300 -1.32700 42.61900
H  25.71600 -3.46900 40.57600
H  27.08600 -2.82700 41.44500
H  27.21800 -1.10400 40.30000
H  25.58100 -0.66600 40.70800
H  19.77500 -5.14400 42.53000
H  18.56100 -6.06500 43.40000
H  19.56500 -6.79400 42.21300
H  20.56200 -10.51000 45.47200
H  18.83100 -10.38000 46.00400
H  20.01500 -9.56100 46.92800
H  24.73500 -10.61900 46.85000
H  25.65600 -9.01600 49.09500
H  23.94900 -10.28800 49.61000
H  23.51500 -11.47200 48.37800
H  22.60100 -9.88800 48.58500
H  27.72500 -9.85700 47.14300
H  26.80900 -11.18400 47.94600
H  29.07000 -9.74400 48.70700
H  28.22800 -10.90200 49.89000
H  27.80700 -9.36700 50.00100
H  30.06600 -6.62700 47.91500
H  30.40600 -4.79600 47.69700
H  30.94300 -5.90000 46.47300
H  28.68800 -3.01400 42.75300
H  28.00500 1.06800 44.08400
H  27.70800 1.09800 42.33200
H  29.38000 1.01400 42.91000

