79

Mg -2.25900 17.36900 25.86400
C  -2.80200 15.17900 28.65000
C  -2.61100 20.00800 28.12800
C  -2.04700 19.41900 23.32700
C  -2.81400 14.61100 23.70600
N  -2.83500 17.53600 28.21300
C  -2.83300 16.50800 29.13500
C  -2.94500 17.03900 30.55200
C  -3.08000 18.61400 30.31100
C  -2.80200 18.76500 28.81800
C  -4.47100 19.11200 30.74000
C  -1.72600 16.54800 31.41300
C  -1.02500 17.37500 32.47000
H  -0.64500 16.58100 33.74800
N  -2.23500 19.40700 25.72800
C  -2.34500 20.33200 26.79200
C  -2.22400 21.70200 26.19400
C  -1.98300 21.60800 24.78400
C  -2.09800 20.05600 24.53800
C  -2.30700 22.94800 27.00800
C  -1.80600 22.62800 23.72700
O  -1.90100 22.39700 22.55500
C  -1.77200 24.03600 24.02200
N  -2.40500 17.08700 23.80400
C  -2.17100 18.11000 22.94000
C  -2.11500 17.65000 21.50300
C  -2.58200 16.14500 21.64700
C  -2.54500 15.87200 23.15000
C  -3.04200 18.47100 20.55700
C  -1.75300 15.10700 20.81000
C  -1.40100 15.45600 19.43700
N  -2.51600 15.26800 26.09800
C  -2.77400 14.32200 25.08600
C  -2.91100 12.98200 25.80900
C  -2.90700 13.30900 27.13400
C  -2.76900 14.70300 27.30800
C  -2.95800 11.67300 25.26100
C  -2.96100 12.75500 28.45500
O  -3.11600 11.57500 28.80100
C  -2.83900 13.92900 29.45500
C  -1.54300 13.71500 30.11700
O  -0.48400 14.15900 29.74100
O  -1.63100 12.97200 31.26300
C  -0.56100 12.73800 32.19700
H  -2.71300 20.88500 28.77000
H  -1.78100 20.13700 22.54900
H  -2.97100 13.70700 23.11400
H  -3.84800 16.56400 30.93700
H  -2.43000 19.28600 30.87100
H  -5.03500 18.33200 31.25000
H  -4.94800 19.29000 29.77600
H  -4.45700 20.00500 31.36500
H  -0.92000 16.42300 30.69000
H  -1.99600 15.58600 31.84700
H  -1.60200 18.26100 32.73400
H  -0.05300 17.79600 32.21000
H  -2.65300 22.72000 28.01700
H  -3.05300 23.64400 26.62400
H  -1.27700 23.30400 26.99200
H  -1.74100 24.72200 23.17600
H  -0.84800 24.14100 24.59000
H  -2.61300 24.29300 24.66600
H  -1.10100 17.63100 21.10300
H  -3.63700 15.98200 21.42300
H  -3.49500 19.38000 20.95400
H  -3.75100 17.81700 20.04800
H  -2.37700 18.84200 19.77700
H  -2.34100 14.19900 20.67700
H  -0.81300 14.86800 21.30800
H  -2.24400 15.95500 18.96000
H  -1.05300 14.64200 18.80100
H  -0.68100 16.27400 19.47500
H  -2.17500 11.08100 25.73300
H  -2.54800 11.65000 24.25100
H  -3.90500 11.13400 25.28700
H  -3.55900 13.89700 30.27300
H  -0.76000 13.16600 33.17900
H  0.39500 13.03200 31.76400
H  -0.58700 11.68000 32.45700

