79

Mg 46.98600 34.91000 27.98100
C  45.27400 33.02600 30.33000
C  47.24100 37.46500 30.34800
C  48.12200 36.78500 25.61700
C  46.42000 32.29900 25.64600
N  46.19900 35.23100 29.96800
C  45.66500 34.27500 30.82300
C  45.73000 34.73800 32.29400
C  45.86300 36.24800 32.10400
C  46.42300 36.36500 30.69300
C  44.50900 37.03700 32.23400
C  47.02800 34.12700 32.88400
C  47.06600 33.89300 34.38800
H  46.05600 34.71300 35.32200
N  47.68700 36.86000 28.02800
C  47.80900 37.73100 29.07800
C  48.46100 39.00100 28.61600
C  48.88900 38.71100 27.29500
C  48.21700 37.43400 26.90800
C  48.74200 40.09200 29.52900
C  49.74700 39.59800 26.37300
O  49.94000 39.13000 25.26000
C  50.16500 40.95100 26.73500
N  47.11900 34.61000 25.91400
C  47.68300 35.54000 25.15700
C  47.62500 35.14700 23.61700
C  47.43200 33.67700 23.74200
C  46.91600 33.47500 25.19600
C  46.35200 35.90500 22.97800
C  48.56900 32.70300 23.37300
C  50.09500 33.15700 23.43600
N  46.23200 32.91300 27.98500
C  46.06900 32.00800 26.94600
C  45.44200 30.76800 27.49700
C  45.11100 31.06400 28.81000
C  45.56600 32.40700 29.02300
C  45.14700 29.57300 26.59500
C  44.42900 30.66600 29.98900
O  43.80100 29.63600 30.23100
C  44.48000 31.91500 31.01600
C  44.92400 31.40200 32.32300
O  45.91800 30.78300 32.52800
O  44.01800 31.72600 33.25100
C  44.26500 31.03000 34.47600
H  47.27400 38.31200 31.03700
H  48.49900 37.34600 24.76000
H  46.23000 31.49100 24.93700
H  44.89000 34.31500 32.84600
H  46.60500 36.67800 32.77700
H  44.14700 37.61500 31.38400
H  44.55200 37.70400 33.09500
H  43.83500 36.25100 32.57600
H  47.81400 34.88000 32.82900
H  47.38200 33.18400 32.46900
H  48.05500 34.05200 34.81700
H  46.68800 32.88600 34.56600
H  49.81500 40.00700 29.70200
H  48.23300 40.08600 30.49300
H  48.51100 41.07000 29.10600
H  49.40800 41.61600 27.15000
H  50.65800 41.44500 25.89800
H  50.95200 40.78300 27.46900
H  48.53500 35.46200 23.10500
H  46.51800 33.39300 23.22000
H  46.80500 36.61600 22.28600
H  45.74400 36.38800 23.74200
H  45.73100 35.30900 22.30900
H  48.45500 32.44400 22.32000
H  48.47100 31.79000 23.96000
H  50.19300 34.17500 23.81000
H  50.46800 33.09600 22.41400
H  50.83800 32.54700 23.95100
H  45.95000 29.45300 25.86800
H  44.18500 29.64900 26.08900
H  45.10000 28.61900 27.12100
H  43.43100 32.20200 31.07800
H  43.46200 31.04700 35.21300
H  45.15200 31.53000 34.86500
H  44.43400 29.97800 34.24200

