79

Mg 49.42500 46.52500 43.67700
C  46.21600 47.00000 42.25000
C  49.68700 43.51800 42.11200
C  52.78900 46.65800 44.20300
C  49.28100 49.88000 44.41400
N  48.15100 45.48500 42.23900
C  46.83700 45.79300 41.87700
C  46.22000 44.72800 41.00600
C  47.26000 43.56900 41.03900
C  48.42700 44.15800 41.96900
C  46.73700 42.22200 41.64800
C  45.85400 45.35800 39.60200
C  44.45200 45.01900 39.03900
H  44.45200 43.85800 38.00600
N  51.00100 45.14700 43.40100
C  50.92000 44.00100 42.64900
C  52.22000 43.38900 42.66300
C  53.15200 44.23800 43.35000
C  52.31900 45.41600 43.64100
C  52.46500 42.02600 42.06800
C  54.49100 43.88300 43.75500
O  54.86700 42.69700 43.56700
C  55.45700 44.84700 44.40400
N  50.88200 48.07800 44.22500
C  52.17100 47.82500 44.51500
C  52.87900 49.12900 45.01900
C  51.71200 50.15000 45.12500
C  50.52500 49.34500 44.51100
C  53.71100 49.02400 46.31300
C  51.90800 51.54400 44.52600
C  51.05200 52.78000 45.05200
N  47.99700 48.09800 43.53200
C  48.10100 49.38400 43.91600
C  46.85100 50.08800 43.68500
C  45.98800 49.14400 43.08600
C  46.78700 48.03300 42.94300
C  46.70600 51.56600 44.06600
C  44.61100 48.97300 42.57900
O  43.59800 49.69900 42.55200
C  44.71200 47.46300 42.01400
C  43.68800 46.52200 42.75200
O  43.79400 46.15100 43.91500
O  42.55100 46.31600 41.96700
C  41.64700 45.36700 42.55800
H  49.79500 42.50800 41.71000
H  53.87700 46.71000 44.27600
H  49.26200 50.95400 44.60900
H  45.33300 44.44600 41.57300
H  47.66900 43.32900 40.05800
H  45.66500 42.34500 41.79800
H  47.22400 42.03800 42.60600
H  46.98600 41.41800 40.95600
H  46.55200 44.92100 38.88800
H  45.98900 46.43900 39.59800
H  44.04500 45.90900 38.55800
H  43.80000 44.71500 39.85700
H  52.94200 42.19300 41.10200
H  51.54700 41.51000 41.78800
H  53.15000 41.40300 42.64300
H  56.34100 44.39500 44.85200
H  54.91800 45.38800 45.18200
H  55.71500 45.57900 43.63800
H  53.54400 49.49300 44.23600
H  51.36400 50.27300 46.15100
H  53.56200 49.83100 47.03000
H  54.76600 48.93700 46.05500
H  53.44200 48.08300 46.79400
H  51.77600 51.44500 43.44800
H  52.97500 51.74500 44.61800
H  51.64700 53.61100 45.42900
H  50.44300 52.48000 45.90500
H  50.44200 53.24900 44.28000
H  46.93700 51.82800 45.09900
H  45.71200 52.00400 43.97500
H  47.48300 52.15100 43.57300
H  44.50700 47.41500 40.94500
H  42.14000 44.49000 42.97600
H  41.11400 45.01500 41.67400
H  40.94200 45.68300 43.32800

