79

Mg -11.99800 37.48400 43.32300
C  -9.82100 35.08200 42.18900
C  -10.08300 39.77800 41.54400
C  -14.37900 39.89800 43.76700
C  -14.07900 35.03300 44.38200
N  -10.22300 37.37600 41.88600
C  -9.45500 36.30100 41.60800
C  -8.28600 36.56300 40.61800
C  -8.35900 38.12000 40.62700
C  -9.69200 38.48900 41.31300
C  -7.06000 38.77900 41.25700
C  -8.57900 35.84300 39.28900
C  -7.30500 35.27600 38.56800
H  -6.80200 36.06500 37.35500
N  -12.14800 39.58800 42.88600
C  -11.25800 40.30700 42.19000
C  -11.64800 41.71100 42.40700
C  -12.89100 41.77700 43.04300
C  -13.20700 40.35400 43.28500
C  -10.76900 42.83700 41.74500
C  -13.67700 43.02100 43.31600
O  -13.20000 44.11800 43.02000
C  -15.03200 43.11400 43.94600
N  -14.00800 37.49300 43.90300
C  -14.80100 38.58100 43.95400
C  -16.18200 38.22300 44.67100
C  -16.09400 36.63700 44.70600
C  -14.66900 36.30500 44.21200
C  -16.40500 38.86200 46.07800
C  -17.17000 35.86100 43.98500
C  -16.85900 35.03200 42.68900
N  -11.94900 35.51400 43.37700
C  -12.79100 34.66900 44.02200
C  -12.22400 33.38400 44.00800
C  -11.01100 33.52500 43.38100
C  -10.92500 34.82400 42.98500
C  -12.76500 32.12100 44.67100
C  -9.77100 32.85400 42.98700
O  -9.38800 31.71400 43.25700
C  -8.94700 33.80600 42.07900
C  -7.65200 34.01000 42.87700
O  -7.48600 34.70500 43.85800
O  -6.62700 33.37300 42.21800
C  -5.32500 33.48400 42.89100
H  -9.50200 40.57700 41.07900
H  -15.15600 40.66100 43.83700
H  -14.75200 34.27400 44.78600
H  -7.42800 36.12400 41.12700
H  -8.29500 38.53300 39.62000
H  -7.37200 39.42100 42.08000
H  -6.71200 39.48100 40.49900
H  -6.26300 38.11600 41.59300
H  -9.13300 36.54500 38.66500
H  -9.20700 34.99000 39.54400
H  -7.62000 34.27600 38.27200
H  -6.51300 35.07200 39.28900
H  -11.40700 43.54000 41.20900
H  -10.13900 42.45400 40.94200
H  -10.13900 43.35400 42.46800
H  -15.22100 44.17300 44.11900
H  -15.12600 42.36700 44.73500
H  -15.81200 42.82400 43.24200
H  -16.97200 38.56900 44.00500
H  -16.04200 36.32500 45.75000
H  -16.96000 39.76500 45.82400
H  -15.40000 39.10400 46.42500
H  -17.01000 38.26800 46.76200
H  -18.08100 36.43900 43.83300
H  -17.54700 35.19300 44.76000
H  -16.70200 33.99600 42.98700
H  -15.95300 35.40000 42.20900
H  -17.70900 35.12500 42.01200
H  -13.47700 32.40900 45.44400
H  -11.98100 31.61100 45.23000
H  -13.19400 31.51000 43.87700
H  -8.81700 33.37900 41.08400
H  -4.49600 33.20500 42.24000
H  -5.28900 32.66500 43.60900
H  -5.09000 34.40900 43.41800

