79

Mg 23.84100 -6.57900 45.58100
C  26.38800 -4.53200 44.01500
C  21.63900 -4.97600 43.34400
C  21.59000 -8.81300 46.45400
C  26.28200 -8.20100 47.38200
N  24.10100 -4.99400 43.72900
C  25.16700 -4.29000 43.36900
C  24.86000 -3.35200 42.17400
C  23.31700 -3.23000 42.25300
C  22.95100 -4.45200 43.17400
C  22.71300 -1.93400 42.99000
C  25.51700 -3.96200 40.88000
C  26.45800 -2.97700 40.18400
H  26.10700 -2.75300 38.70700
N  21.87900 -6.81100 45.07800
C  21.16700 -6.08800 44.16100
C  19.78300 -6.59500 44.17100
C  19.72300 -7.71300 45.03700
C  21.11200 -7.84600 45.57400
C  18.80900 -5.96300 43.24900
C  18.53600 -8.56800 45.30600
O  17.47500 -8.40800 44.72300
C  18.53900 -9.64300 46.30300
N  23.94200 -8.35900 46.71800
C  22.85400 -9.09900 47.03100
C  23.26800 -10.31300 47.95300
C  24.70000 -9.97600 48.36500
C  25.00700 -8.79700 47.45000
C  22.26500 -10.63200 49.06200
C  25.70900 -11.20500 48.19700
C  26.70900 -11.48500 49.26600
N  25.91700 -6.43200 45.75800
C  26.75600 -7.11200 46.57700
C  28.12100 -6.53800 46.41400
C  28.03300 -5.55400 45.39100
C  26.60100 -5.50300 45.04600
C  29.30300 -7.03100 47.24600
C  28.74300 -4.61200 44.70300
O  29.93000 -4.27200 44.77700
C  27.79100 -3.99700 43.71000
C  27.92800 -2.46900 43.74400
O  28.62300 -1.78400 42.99700
O  27.27300 -1.94300 44.86800
C  27.44400 -0.46500 45.19900
H  20.88300 -4.38000 42.82900
H  20.92600 -9.65700 46.65000
H  27.06300 -8.58400 48.04100
H  25.18700 -2.35100 42.45600
H  22.94000 -3.32200 41.23400
H  23.52200 -1.36000 43.44300
H  21.99400 -2.09700 43.79300
H  22.25300 -1.30700 42.22600
H  24.75200 -4.16300 40.12900
H  25.99700 -4.91600 41.09500
H  27.48400 -3.34100 40.25000
H  26.39300 -1.99900 40.66000
H  18.62900 -6.35900 42.25000
H  19.04700 -4.90700 43.12400
H  17.85100 -6.02100 43.76700
H  18.92000 -9.29700 47.26400
H  19.09300 -10.48700 45.89200
H  17.55000 -10.02600 46.55200
H  23.34100 -11.14000 47.24700
H  24.73300 -9.61600 49.39300
H  22.69400 -10.45200 50.04700
H  22.09800 -11.70800 49.01600
H  21.32400 -10.08300 49.09400
H  26.17300 -11.19700 47.21100
H  25.06800 -12.07100 48.35900
H  27.71800 -11.68800 48.90600
H  26.39200 -12.34000 49.86300
H  26.71200 -10.67900 50.00000
H  29.12100 -7.62300 48.14300
H  29.86900 -6.13300 47.49400
H  29.97700 -7.52400 46.54600
H  28.04300 -4.24300 42.67800
H  27.82400 0.22200 44.44300
H  28.26600 -0.44600 45.91500
H  26.46900 -0.24700 45.63400

