79

Mg 1.99900 -1.61600 43.91200
C  5.32500 -1.39100 42.97900
C  1.25300 0.98500 41.71600
C  -1.29600 -2.52500 43.75900
C  2.79600 -4.61400 45.58500
N  3.18400 -0.30600 42.51900
C  4.57500 -0.33000 42.41800
C  5.04200 0.79300 41.53700
C  3.69900 1.59800 41.29700
C  2.62400 0.69100 41.87500
C  3.62300 2.94000 41.99400
C  5.75300 0.40300 40.15800
C  6.88900 1.36700 39.68300
H  6.69000 2.17800 38.35900
N  0.18800 -0.78000 43.01100
C  0.08100 0.25800 42.14700
C  -1.23200 0.65500 42.01100
C  -2.05400 -0.26900 42.68300
C  -1.08800 -1.32100 43.17700
C  -1.64600 1.98000 41.33900
C  -3.59600 -0.18000 42.80800
O  -4.21500 0.68400 42.20700
C  -4.28700 -1.17900 43.86500
N  0.95800 -3.23000 44.59800
C  -0.35900 -3.44900 44.27200
C  -0.79700 -4.90100 44.61200
C  0.40000 -5.53600 45.31200
C  1.45800 -4.40400 45.17300
C  -2.12600 -5.10600 45.28000
C  0.87600 -6.91300 44.77900
C  -0.05100 -8.07100 45.07400
N  3.75100 -2.65600 44.48500
C  3.96000 -3.86400 45.17600
C  5.37200 -4.13100 45.24900
C  5.93500 -3.17200 44.41100
C  4.94500 -2.35200 43.89000
C  6.02600 -5.30200 45.83500
C  7.18500 -2.73400 43.86000
O  8.37000 -2.99100 44.08700
C  6.77700 -1.64000 42.84900
C  7.56000 -0.49200 43.22400
O  7.57200 0.14900 44.25600
O  8.38200 -0.16200 42.20100
C  9.19100 1.03700 42.38500
H  1.06700 1.90400 41.15600
H  -2.33100 -2.86400 43.68200
H  3.08900 -5.58700 45.98600
H  5.73900 1.40400 42.11100
H  3.46400 1.69500 40.23700
H  4.37200 2.84900 42.78000
H  2.63200 3.01700 42.44200
H  3.93600 3.68300 41.26000
H  4.94700 0.36600 39.42500
H  6.29000 -0.54400 40.19600
H  7.85100 0.89200 39.48900
H  7.20800 2.06300 40.45900
H  -2.67100 2.24600 41.59500
H  -1.57100 1.98100 40.25200
H  -1.11300 2.77400 41.86300
H  -5.17800 -0.69600 44.26500
H  -3.59200 -1.32800 44.69200
H  -4.51800 -2.16600 43.46500
H  -0.86800 -5.43200 43.66300
H  0.26600 -5.62100 46.39000
H  -2.84900 -5.47400 44.55300
H  -2.56100 -4.17200 45.63700
H  -2.03100 -5.81100 46.10600
H  1.85700 -7.17400 45.17600
H  1.06700 -6.79000 43.71300
H  -0.96700 -7.87100 45.63000
H  0.45400 -8.77000 45.74000
H  -0.23100 -8.58100 44.12700
H  6.25100 -6.15200 45.19100
H  5.55800 -5.70000 46.73600
H  6.90400 -4.86800 46.31400
H  6.98400 -2.00600 41.84400
H  9.79900 0.85100 43.27000
H  8.55800 1.91300 42.24800
H  9.95900 1.06900 41.61200

