79

Mg -2.46700 17.28900 26.75700
C  -2.61900 14.73500 29.01000
C  -3.24800 19.61000 29.21500
C  -2.99700 19.59300 24.42300
C  -2.55600 14.75600 24.17900
N  -2.97200 17.16800 28.84000
C  -2.87800 16.02200 29.62900
C  -3.15000 16.34000 31.09700
C  -3.37700 17.95400 31.03300
C  -3.16200 18.28900 29.57500
C  -4.77600 18.36300 31.48900
C  -2.01500 15.78500 32.01700
C  -1.69300 16.64200 33.29300
H  -1.33100 16.01100 34.56200
N  -2.78100 19.37300 26.81400
C  -3.08400 20.15400 27.90300
C  -3.23100 21.50600 27.47900
C  -3.23800 21.52900 26.07600
C  -2.97200 20.14000 25.70000
C  -3.35200 22.70500 28.35100
C  -3.58200 22.58300 25.08000
O  -3.55100 22.38300 23.89500
C  -3.92100 23.94200 25.64200
N  -2.45400 17.24600 24.58200
C  -2.83600 18.28300 23.90000
C  -3.10900 17.92300 22.36200
C  -2.77800 16.40300 22.37700
C  -2.56800 16.10100 23.84800
C  -4.51000 18.16100 21.79100
C  -1.58600 16.02400 21.48800
C  -1.97300 15.25300 20.19700
N  -2.42600 15.13500 26.56400
C  -2.47900 14.25100 25.47900
C  -2.45100 12.92800 25.99900
C  -2.43700 13.08200 27.35600
C  -2.43200 14.46800 27.68500
C  -2.57700 11.68900 25.22900
C  -2.38600 12.36900 28.54700
O  -2.29100 11.13700 28.66700
C  -2.67700 13.31300 29.69900
C  -1.65900 12.90700 30.72200
O  -0.49900 13.26800 30.67300
O  -2.16900 11.99600 31.59300
C  -1.30200 11.40800 32.59000
H  -3.36000 20.31800 30.03800
H  -3.30200 20.26400 23.61700
H  -2.57500 13.99200 23.39900
H  -4.08000 15.86700 31.41300
H  -2.64900 18.57400 31.55600
H  -4.52500 19.10300 32.24800
H  -5.45400 17.64500 31.95100
H  -5.38700 18.81800 30.70900
H  -1.13300 15.59900 31.40400
H  -2.28900 14.79900 32.39200
H  -2.44200 17.43300 33.31400
H  -0.82300 17.24200 33.02800
H  -3.19900 22.47400 29.40500
H  -4.32000 23.20400 28.29600
H  -2.62500 23.45700 28.04400
H  -4.73000 23.90700 26.37100
H  -4.18100 24.51100 24.74900
H  -3.08600 24.41500 26.15900
H  -2.44600 18.45000 21.67600
H  -3.65800 15.82600 22.09400
H  -5.05400 18.78400 22.50200
H  -5.05600 17.23300 21.62500
H  -4.35700 18.66300 20.83600
H  -0.98200 15.26400 21.98400
H  -1.01600 16.90800 21.20100
H  -1.62400 15.68500 19.25900
H  -3.05600 15.15200 20.13000
H  -1.60200 14.22800 20.22200
H  -1.79200 11.62200 24.47500
H  -3.52200 11.66400 24.68600
H  -2.48200 10.76000 25.79200
H  -3.66000 13.05000 30.09100
H  -0.74000 10.60500 32.11300
H  -1.98200 11.03800 33.35700
H  -0.66000 12.04600 33.19700

