79

Mg -1.96800 17.85600 27.30000
C  -2.46100 15.31400 29.70100
C  -2.87400 20.13100 29.69900
C  -2.37600 20.15300 24.91100
C  -2.05700 15.34400 24.94000
N  -2.46700 17.70900 29.51600
C  -2.53600 16.59900 30.30500
C  -2.72000 16.94400 31.80000
C  -3.06900 18.50200 31.69200
C  -2.72800 18.81400 30.24000
C  -4.50500 18.95800 32.18200
C  -1.52300 16.70100 32.71700
C  -1.80300 16.03900 34.07100
H  -0.85900 16.36100 35.29700
N  -2.27200 19.90600 27.34800
C  -2.62300 20.63100 28.43900
C  -2.71300 22.03600 28.09200
C  -2.43400 22.16700 26.68400
C  -2.33700 20.71400 26.19200
C  -3.01500 23.17600 29.03100
C  -2.15400 23.42800 25.84900
O  -1.84100 23.34700 24.67500
C  -2.01300 24.70200 26.54400
N  -2.04400 17.79200 25.23200
C  -2.32200 18.88000 24.45100
C  -2.40200 18.44200 22.95300
C  -2.27100 16.88600 23.02400
C  -2.01200 16.65100 24.49200
C  -3.68300 18.91700 22.17900
C  -1.13600 16.37500 22.11400
C  0.25600 16.34800 22.70100
N  -2.13700 15.74700 27.19200
C  -2.12000 14.88000 26.20800
C  -2.27300 13.52700 26.57200
C  -2.33100 13.59600 27.99000
C  -2.34300 14.98900 28.29400
C  -2.40700 12.26100 25.78100
C  -2.51800 12.89100 29.23900
O  -2.44600 11.61400 29.35600
C  -2.61600 13.95300 30.38900
C  -1.60800 13.48400 31.43100
O  -0.38800 13.66100 31.37800
O  -2.29800 12.75400 32.33600
C  -1.52900 12.23600 33.50000
H  -3.15400 20.87500 30.44900
H  -2.55700 20.90500 24.14000
H  -2.05000 14.57000 24.17000
H  -3.57700 16.41500 32.21700
H  -2.34600 19.19100 32.12900
H  -5.14900 19.05500 31.30800
H  -4.35000 19.87500 32.75000
H  -4.80800 18.19300 32.89700
H  -1.02200 17.66300 32.82800
H  -0.79900 16.11900 32.14600
H  -1.87600 14.95700 33.96800
H  -2.79700 16.36600 34.37700
H  -2.15400 23.82300 29.19500
H  -3.51500 22.96200 29.97600
H  -3.73400 23.74800 28.44500
H  -1.78900 25.50200 25.83800
H  -1.18700 24.54700 27.23800
H  -2.99200 25.00000 26.91700
H  -1.65800 18.93900 22.33100
H  -3.16900 16.33900 22.73800
H  -3.53400 19.67400 21.40900
H  -4.41800 19.44300 22.78700
H  -4.18800 18.04200 21.77000
H  -1.30300 16.98800 21.22800
H  -1.34100 15.35000 21.80600
H  0.46200 15.27800 22.71000
H  0.43300 16.58600 23.75000
H  0.99700 16.89400 22.11700
H  -2.33000 11.35700 26.38500
H  -1.57000 12.31000 25.08600
H  -3.31900 12.22200 25.18500
H  -3.61000 13.71700 30.77000
H  -1.51100 11.14600 33.52200
H  -1.91300 12.65900 34.42800
H  -0.50100 12.59400 33.56700

