79

Mg -1.08400 34.01400 26.88100
C  -2.86400 32.49500 29.30600
C  0.15000 36.25100 29.28700
C  0.33400 35.92800 24.41100
C  -2.68800 32.17700 24.49400
N  -1.45200 34.33800 29.10900
C  -2.06700 33.42200 29.88400
C  -1.68500 33.63300 31.41100
C  -0.83400 34.98300 31.31900
C  -0.72300 35.25500 29.78300
C  -1.27300 36.18400 32.18000
C  -1.04500 32.30400 31.98900
C  -1.92200 31.59900 33.13600
H  -1.25600 31.41700 34.53500
N  0.09300 35.77700 26.88100
C  0.47000 36.52100 27.98800
C  1.33800 37.56000 27.54900
C  1.38500 37.52300 26.11900
C  0.59400 36.38100 25.72700
C  2.01400 38.51200 28.51300
C  2.10800 38.37900 25.09600
O  2.04700 38.23000 23.88300
C  2.93400 39.53400 25.60400
N  -1.19800 34.03900 24.72800
C  -0.37000 34.83300 23.95600
C  -0.35400 34.38600 22.49600
C  -1.42800 33.21600 22.48900
C  -1.72900 33.03100 24.01500
C  -0.62400 35.40900 21.41400
C  -1.03700 31.98600 21.57400
C  -0.37800 30.74000 22.31800
N  -2.53800 32.67700 26.85800
C  -3.13900 31.98400 25.82500
C  -4.14300 31.16100 26.34200
C  -4.06800 31.22800 27.72400
C  -3.08100 32.20000 28.00500
C  -5.03700 30.18200 25.55700
C  -4.60600 30.77200 28.98700
O  -5.47500 29.92900 29.16900
C  -3.77500 31.56400 30.09200
C  -4.83100 32.23000 30.88100
O  -5.30400 33.30400 30.53800
O  -5.19300 31.47800 32.00500
C  -6.34200 32.03500 32.77900
H  0.67900 36.81300 30.05900
H  0.70600 36.54300 23.58900
H  -3.00200 31.51400 23.68500
H  -2.60600 33.98200 31.87800
H  0.22300 35.00300 31.58800
H  -2.00100 35.83000 32.90900
H  -1.78800 36.89200 31.53000
H  -0.45900 36.76500 32.61400
H  -0.08800 32.57100 32.43600
H  -0.86000 31.51400 31.26100
H  -2.19300 30.58000 32.86100
H  -2.79500 32.18800 33.41500
H  3.06500 38.59500 28.23800
H  1.94100 38.12600 29.52900
H  1.59300 39.51800 28.51500
H  3.03600 40.37200 24.91400
H  3.90400 39.11400 25.86700
H  2.40400 39.87900 26.49200
H  0.64200 33.96500 22.35900
H  -2.42000 33.55600 22.19200
H  -1.02800 36.32300 21.84800
H  -1.27000 34.94700 20.66700
H  0.38400 35.61800 21.05600
H  -0.28500 32.30900 20.85400
H  -1.91100 31.64200 21.01900
H  0.49100 30.46300 21.72100
H  -1.05300 29.88500 22.36300
H  -0.15100 31.10500 23.32000
H  -4.55000 29.70800 24.70400
H  -5.89700 30.64400 25.07200
H  -5.23900 29.36500 26.25000
H  -3.31400 30.75100 30.65300
H  -6.95300 32.75900 32.24000
H  -5.74300 32.47300 33.57700
H  -6.94400 31.21300 33.16500

