79

Mg 6.76900 53.81200 41.06300
C  6.15500 50.33500 41.19200
C  10.00400 53.09800 40.37700
C  7.14000 57.09100 40.29100
C  3.32400 54.32000 41.38100
N  7.87900 51.89600 40.69500
C  7.46600 50.60900 40.87600
C  8.64500 49.71100 40.70300
C  9.87900 50.59600 40.63100
C  9.24200 52.00200 40.59500
C  10.77600 50.43900 41.85600
C  8.69300 48.65100 39.58900
C  8.70400 49.11300 38.12200
H  7.53300 48.69000 37.17600
N  8.37000 54.91900 40.39000
C  9.62100 54.47200 40.14500
C  10.43800 55.52800 39.60200
C  9.68300 56.77400 39.61700
C  8.33300 56.33700 40.16500
C  11.79000 55.21800 39.09600
C  10.17400 58.11600 39.17700
O  11.24000 58.30600 38.60500
C  9.36000 59.44700 39.38800
N  5.32400 55.47100 40.51400
C  5.79900 56.74800 40.51700
C  4.61800 57.70600 40.66100
C  3.35900 56.80300 40.59600
C  4.04900 55.46100 40.83700
C  4.74600 58.42900 42.06900
C  2.56600 56.92500 39.27500
C  1.11300 57.38600 39.39000
N  5.07200 52.67900 41.53700
C  3.75500 52.99600 41.66000
C  2.96500 51.73900 41.89800
C  3.96400 50.70800 41.81200
C  5.18500 51.30100 41.48400
C  1.56600 51.68100 42.03400
C  4.04900 49.29100 41.84900
O  3.20600 48.49300 42.17700
C  5.44900 48.95000 41.32000
C  5.30200 48.14900 40.15200
O  4.79100 48.59500 39.11000
O  5.64300 46.82700 40.55000
C  5.64100 45.89300 39.42300
H  11.07100 52.92200 40.22300
H  7.15600 58.18300 40.28900
H  2.24000 54.44700 41.40600
H  8.60500 49.17600 41.65200
H  10.48900 50.49500 39.73300
H  10.53200 51.20500 42.59300
H  11.80200 50.71700 41.61600
H  10.80200 49.41900 42.23900
H  7.93700 47.88800 39.77600
H  9.62600 48.10000 39.70300
H  9.66400 48.96600 37.62700
H  8.52200 50.18500 38.20200
H  11.71300 54.84200 38.07600
H  12.20000 54.43200 39.73100
H  12.44100 56.08100 39.23100
H  8.52800 59.53800 38.69000
H  9.99500 60.32900 39.30600
H  9.02500 59.54500 40.42100
H  4.68200 58.44400 39.86200
H  2.73300 57.06800 41.44800
H  5.78600 58.42400 42.39300
H  4.12300 58.13900 42.91500
H  4.50700 59.48900 41.98000
H  2.64400 56.04700 38.63300
H  3.03200 57.72900 38.70400
H  0.49200 56.95000 38.60800
H  1.10200 58.47500 39.42000
H  0.72200 57.01800 40.33900
H  1.42500 51.29600 43.04400
H  1.13900 50.92900 41.37000
H  1.00900 52.61700 42.04900
H  5.98500 48.37600 42.07700
H  6.61900 45.64300 39.01100
H  4.98300 46.20600 38.61300
H  5.31000 44.91500 39.77200

