79

Mg 8.94500 3.73200 27.07100
C  10.25700 2.16500 29.92700
C  7.00500 5.74300 29.07900
C  7.67200 5.29600 24.30600
C  10.43000 1.40500 25.09400
N  8.55700 3.80500 29.24900
C  9.34300 3.20700 30.24400
C  9.04600 3.74700 31.66300
C  8.11100 4.86600 31.35500
C  7.98000 4.92100 29.78700
C  6.68800 4.87000 32.09800
C  10.31500 4.22500 32.45400
C  9.96800 4.72900 33.85300
H  11.05100 4.47400 34.91600
N  7.46700 5.18500 26.73300
C  6.86200 5.92300 27.68600
C  5.96700 6.94900 27.07900
C  6.24800 6.93100 25.74200
C  7.16100 5.80400 25.48900
C  5.13800 7.94500 27.82200
C  5.81900 7.85600 24.61800
O  6.27000 7.74400 23.46500
C  4.90100 9.08200 24.92100
N  8.97400 3.36900 24.91000
C  8.46400 4.16600 24.01700
C  8.86400 3.74200 22.53900
C  9.61400 2.35300 22.86300
C  9.68200 2.37700 24.37700
C  7.87700 3.65100 21.34400
C  10.95500 2.14100 22.11900
C  10.84300 1.38000 20.76100
N  10.12400 2.15800 27.36100
C  10.67300 1.27500 26.47300
C  11.49200 0.30700 27.15300
C  11.45900 0.69000 28.50300
C  10.53200 1.75800 28.61500
C  12.10700 -0.86000 26.50300
C  11.92400 0.37000 29.86100
O  12.71100 -0.49300 30.24000
C  11.19500 1.30700 30.84300
C  10.50400 0.57100 31.85700
O  9.51700 -0.15000 31.74300
O  11.15900 0.84300 33.05700
C  10.53000 0.22100 34.25000
H  6.43800 6.41000 29.73300
H  7.46300 5.85800 23.39300
H  10.70000 0.54100 24.48400
H  8.58600 3.00600 32.31700
H  8.55900 5.81500 31.65300
H  5.95800 4.50500 31.37600
H  6.54600 5.89100 32.45100
H  6.52300 4.17400 32.92100
H  10.78300 5.00800 31.85700
H  11.09500 3.47000 32.36100
H  9.03000 4.26600 34.16100
H  9.75700 5.78300 33.67300
H  5.69500 8.88200 27.79600
H  4.96900 7.85000 28.89500
H  4.26400 8.14000 27.20100
H  5.28300 9.82300 25.62400
H  3.89400 8.80100 25.22700
H  4.87900 9.63200 23.98100
H  9.60200 4.47700 22.21700
H  8.90100 1.54500 22.70000
H  7.88800 2.61100 21.01600
H  8.17800 4.38300 20.59400
H  6.85700 3.92300 21.61500
H  11.67900 1.71300 22.81300
H  11.32800 3.15000 21.94300
H  11.59800 0.62900 20.52900
H  10.91300 2.18200 20.02600
H  9.82500 1.00200 20.67300
H  12.39500 -0.72300 25.46100
H  11.39200 -1.67800 26.41100
H  12.96700 -1.20600 27.07600
H  11.96300 1.95300 31.26800
H  9.49000 0.53100 34.35000
H  10.89700 0.75400 35.12700
H  10.66600 -0.84600 34.42300

