79

Mg 36.13400 49.92600 25.01700
C  36.39200 47.86700 28.04000
C  34.60800 52.28800 26.92900
C  35.27100 51.32700 22.23100
C  37.02000 46.97200 23.22400
N  35.70400 50.05200 27.24400
C  35.90100 49.12000 28.28500
C  35.61500 49.80200 29.68100
C  34.87900 51.15600 29.28100
C  35.13000 51.16700 27.71800
C  33.39300 51.10600 29.71800
C  36.92200 50.13300 30.41700
C  37.00000 49.80900 31.93300
H  35.70900 49.40900 32.70800
N  35.24800 51.72600 24.65500
C  34.64600 52.52300 25.57500
C  33.92200 53.60200 24.83200
C  34.11900 53.38700 23.43000
C  34.94100 52.11900 23.38200
C  33.05700 54.65300 25.47600
C  33.58700 54.10100 22.17400
O  33.63100 53.68900 21.00900
C  33.03100 55.50900 22.25600
N  36.23400 49.23800 22.96000
C  35.85300 50.06900 22.00400
C  36.07300 49.54800 20.58300
C  36.54000 48.05800 20.91300
C  36.56400 47.99100 22.45200
C  34.88500 49.62400 19.62700
C  37.99600 47.67100 20.43900
C  39.32800 48.28500 21.05700
N  36.77200 47.84700 25.45500
C  37.15000 46.76600 24.63600
C  37.49800 45.60300 25.37800
C  37.20500 45.93600 26.77500
C  36.74700 47.31500 26.71200
C  38.20900 44.38100 24.93700
C  37.17800 45.51100 28.10400
O  37.39500 44.40600 28.55000
C  36.71000 46.74100 29.04000
C  35.55700 46.23100 29.79800
O  34.35400 46.44600 29.51500
O  35.91600 45.41300 30.88800
C  34.77500 45.08700 31.74500
H  34.22200 53.14500 27.48400
H  34.97400 51.74500 21.26700
H  37.25100 46.12300 22.57900
H  34.95600 49.19600 30.30300
H  35.35600 51.97600 29.81900
H  33.13900 50.19200 30.25400
H  32.83300 51.17800 28.78600
H  33.09900 52.05100 30.17500
H  37.17200 51.18000 30.24900
H  37.69300 49.52100 29.94800
H  37.40600 50.69200 32.42600
H  37.74500 49.01900 32.02300
H  31.97200 54.55800 25.42700
H  33.28000 55.60500 24.99600
H  33.37000 54.82800 26.50500
H  33.82600 56.23800 22.41300
H  32.19000 55.55400 22.94900
H  32.67500 55.71200 21.24600
H  36.85900 50.13200 20.10200
H  35.80000 47.34800 20.54300
H  34.93500 48.83900 18.87200
H  34.71800 50.52700 19.04000
H  34.07400 49.33500 20.29500
H  38.08400 47.93400 19.38500
H  38.07100 46.58500 20.38500
H  39.76800 47.43000 21.57100
H  39.08900 49.11100 21.72700
H  40.01100 48.75300 20.34900
H  38.37300 44.42000 23.86000
H  37.64700 43.45100 25.02800
H  39.18100 44.50300 25.41400
H  37.42900 46.97800 29.82400
H  34.18300 44.35300 31.19900
H  34.14100 45.92500 32.03400
H  35.22400 44.72300 32.66900

