79

Mg 1.66900 7.99800 27.04500
C  1.66400 10.33200 29.57500
C  2.25600 5.45400 29.28000
C  2.20300 5.89100 24.46500
C  1.59900 10.64900 24.70300
N  1.67600 7.91200 29.17900
C  1.65300 8.98100 30.05900
C  1.56600 8.50000 31.48500
C  1.86800 6.90500 31.35100
C  1.92700 6.69300 29.82400
C  3.15300 6.43500 32.08900
C  0.17600 8.83200 32.19900
C  0.29400 9.07600 33.67700
H  1.43800 8.39600 34.45700
N  2.20300 6.00300 26.92600
C  2.39900 5.11100 27.95500
C  2.95600 3.92800 27.41800
C  2.91100 3.99000 26.01500
C  2.43300 5.33200 25.73800
C  3.42300 2.82600 28.31600
C  3.26900 2.94300 24.97800
O  2.98700 3.18800 23.80000
C  3.79000 1.59400 25.34800
N  1.82300 8.28000 24.85100
C  1.89000 7.21100 24.07100
C  1.88200 7.63800 22.57700
C  1.47700 9.09000 22.61000
C  1.60000 9.38800 24.13900
C  3.22500 7.42800 21.82300
C  0.06800 9.39800 22.11800
C  -0.11600 10.58200 21.22000
N  1.72700 10.04100 27.06700
C  1.73800 11.01000 26.03900
C  1.86200 12.30400 26.66000
C  1.87000 12.05800 28.05900
C  1.66700 10.71400 28.23900
C  1.93300 13.68400 26.01400
C  1.88400 12.69700 29.35200
O  1.93400 13.82300 29.76200
C  1.80200 11.57900 30.42400
C  3.17200 11.65100 31.06200
O  4.20800 11.57500 30.46000
O  3.01800 11.80800 32.45100
C  4.28400 11.82400 33.15300
H  2.32400 4.65100 30.01700
H  2.28100 5.24500 23.58800
H  1.58200 11.45200 23.96400
H  2.42200 8.98700 31.95200
H  0.99400 6.41100 31.77500
H  3.61200 5.56100 31.62700
H  3.21800 6.26500 33.16400
H  3.97400 7.13500 31.93300
H  -0.58800 8.06100 32.10400
H  -0.26400 9.68500 31.68200
H  -0.57800 8.52600 34.03100
H  0.31600 10.14200 33.90600
H  4.49100 2.73500 28.11900
H  2.98300 1.83200 28.24100
H  3.41900 3.09700 29.37200
H  2.97200 1.07000 25.84200
H  4.74700 1.56000 25.86800
H  3.99000 1.09500 24.40000
H  1.12500 7.12300 21.98500
H  2.12700 9.68600 21.96900
H  3.87200 7.28500 22.68800
H  3.55000 8.32600 21.29700
H  3.31100 6.61400 21.10400
H  -0.45300 9.66800 23.03600
H  -0.41100 8.49500 21.73800
H  -0.40500 10.28100 20.21300
H  0.78100 11.20000 21.17800
H  -0.92300 11.18300 21.63900
H  0.96600 14.15100 25.82800
H  2.04000 13.47400 24.94900
H  2.72700 14.36200 26.32600
H  1.03600 11.74100 31.18300
H  4.63900 12.85400 33.20700
H  5.16800 11.30600 32.78200
H  4.00100 11.47500 34.14600

