79

Mg 54.74100 24.49400 44.03400
C  52.35400 26.96300 43.41700
C  52.62300 22.15200 43.18300
C  57.46500 22.50400 43.84400
C  57.03000 27.27500 44.43900
N  52.75400 24.56100 43.26600
C  51.93500 25.65900 43.15300
C  50.54000 25.21200 42.76300
C  50.58500 23.69500 43.19300
C  52.07800 23.39800 43.13200
C  49.90300 23.28700 44.56300
C  50.26600 25.42600 41.28500
C  48.82200 25.74000 40.88000
H  48.23300 25.27200 39.51800
N  55.01400 22.57400 43.50700
C  53.97300 21.71000 43.36300
C  54.57100 20.33700 43.35900
C  55.94600 20.42500 43.66600
C  56.18800 21.85400 43.76900
C  53.81900 19.08000 42.98000
C  56.86800 19.15800 43.82200
O  56.50800 17.97900 43.65500
C  58.30200 19.38600 43.96100
N  57.04500 24.86300 43.91100
C  57.91500 23.81000 43.88300
C  59.36900 24.29600 44.10800
C  59.14500 25.80300 44.55900
C  57.61900 26.06700 44.28400
C  60.39300 23.47400 44.91100
C  60.00000 26.92900 43.94500
C  60.68400 27.96700 44.83200
N  54.74400 26.66000 44.05300
C  55.70900 27.60500 44.36900
C  55.07300 28.91300 44.68900
C  53.78600 28.68600 44.14900
C  53.65100 27.34600 43.87800
C  55.81000 30.09600 45.02900
C  52.50700 29.31100 43.87400
O  52.14800 30.45900 43.93300
C  51.58200 28.27200 43.19800
C  51.55500 28.75200 41.83900
O  52.44300 28.86500 41.03300
O  50.31000 29.25000 41.60100
C  49.93200 29.76400 40.24000
H  51.85600 21.37500 43.19000
H  58.33400 21.84600 43.90900
H  57.71800 28.10000 44.63200
H  49.84800 25.68300 43.46100
H  50.14200 23.09500 42.39800
H  49.20200 22.47100 44.38500
H  49.45400 24.15200 45.05200
H  50.68300 23.00600 45.27000
H  50.60100 24.56300 40.70900
H  50.78600 26.32200 40.94700
H  48.60500 26.79200 41.06900
H  48.21900 25.20900 41.61700
H  52.79000 19.40300 42.82500
H  53.82900 18.58600 43.95100
H  54.18700 18.60200 42.07200
H  58.71900 19.67800 42.99700
H  58.66200 18.41600 44.30400
H  58.63300 20.11200 44.70300
H  59.66800 24.26100 43.06100
H  59.39400 25.81500 45.62000
H  61.23200 23.00400 44.39800
H  59.83700 22.68000 45.41000
H  60.86800 24.11200 45.65500
H  59.55200 27.48600 43.12100
H  60.79800 26.36600 43.46100
H  61.57700 28.20100 44.25200
H  60.93100 27.69000 45.85700
H  59.96300 28.78400 44.86600
H  56.81500 29.85300 45.37300
H  55.14900 30.38800 45.84500
H  55.75700 30.77400 44.17700
H  50.59900 28.25000 43.66800
H  50.85900 29.97800 39.70900
H  49.34200 30.67600 40.32900
H  49.24600 29.06200 39.76500

