79

Mg 25.47300 1.65400 29.46300
C  27.68400 1.31600 32.37100
C  22.86400 1.70700 31.56100
C  23.59800 2.06400 26.80100
C  28.21500 0.96600 27.52600
N  25.33000 1.41000 31.73400
C  26.30500 1.48000 32.70700
C  25.69600 1.69000 34.05600
C  24.12100 1.59300 33.84900
C  24.10400 1.56100 32.28000
C  23.37800 0.35600 34.45300
C  26.18100 2.87200 34.87300
C  26.76900 2.68700 36.26300
H  26.59300 3.80800 37.31900
N  23.44700 1.93900 29.27700
C  22.50400 1.85500 30.21900
C  21.19900 2.06500 29.76200
C  21.35900 2.20100 28.30300
C  22.85000 2.05300 28.06100
C  19.94800 2.06100 30.66100
C  20.29400 2.31800 27.19500
O  20.55800 2.49800 26.00400
C  18.82900 2.28000 27.65200
N  25.97600 1.72900 27.43100
C  24.96300 2.01800 26.52200
C  25.59000 2.09600 25.08700
C  27.06300 1.61800 25.33100
C  27.09200 1.34000 26.86900
C  24.85700 1.42800 23.86100
C  28.07200 2.68900 24.75300
C  28.29100 3.97700 25.64400
N  27.58600 1.31400 29.82400
C  28.55900 0.91900 28.92600
C  29.81500 0.67300 29.58200
C  29.55000 0.80400 30.93700
C  28.15800 1.20100 31.03600
C  31.15700 0.36600 28.83500
C  30.10700 0.77200 32.19400
O  31.19500 0.47200 32.62400
C  28.94000 1.16000 33.25800
C  28.94100 0.06700 34.18000
O  28.52400 -1.05500 33.92100
O  29.52200 0.43100 35.43500
C  29.35700 -0.65100 36.46000
H  22.14500 1.93400 32.35100
H  22.96800 2.09200 25.90900
H  29.09200 0.68600 26.93800
H  25.95600 0.84900 34.69800
H  23.65900 2.51500 34.20200
H  24.03000 -0.28500 35.04700
H  22.95700 -0.25900 33.65700
H  22.57600 0.75900 35.07100
H  25.55600 3.76400 34.90000
H  27.02700 3.24500 34.29500
H  27.83400 2.75400 36.04000
H  26.64800 1.66900 36.63600
H  20.21900 2.17500 31.71100
H  19.52200 1.06100 30.58800
H  19.20700 2.82400 30.42500
H  18.79000 1.28300 28.09200
H  18.14100 2.38700 26.81300
H  18.60700 3.11300 28.31900
H  25.53800 3.16900 24.90000
H  27.23900 0.68400 24.79600
H  24.00700 0.84900 24.21900
H  25.52900 0.71000 23.39200
H  24.59200 2.14700 23.08600
H  27.68900 3.06800 23.80600
H  28.97000 2.18400 24.39500
H  29.36900 4.11900 25.72200
H  27.80800 3.93200 26.62000
H  27.82900 4.79000 25.08400
H  31.25000 -0.68100 28.54700
H  32.01000 0.43600 29.51000
H  31.35300 0.98600 27.96000
H  29.17100 2.11900 33.72200
H  28.58900 -0.34800 37.17200
H  30.27700 -0.79700 37.02700
H  29.18000 -1.66100 36.09000

