79

Mg 29.41100 59.43000 41.77500
C  26.28300 58.08300 40.76600
C  30.95900 56.52600 40.45000
C  32.46400 60.82400 42.08900
C  27.79800 62.23100 42.79800
N  28.67600 57.60700 40.59100
C  27.40600 57.27200 40.37500
C  27.41500 55.99800 39.61900
C  28.82800 55.41300 39.75300
C  29.53800 56.52300 40.45100
C  28.98400 54.00600 40.26500
C  26.81300 56.07800 38.13500
C  26.11300 54.83300 37.70400
H  26.64600 54.26200 36.38300
N  31.44200 58.79600 41.23100
C  31.92800 57.51400 40.78600
C  33.27000 57.45400 40.63500
C  33.70000 58.77300 40.96600
C  32.52800 59.53600 41.48100
C  33.97300 56.22500 40.08100
C  35.07500 59.22100 40.87600
O  35.95200 58.41200 40.56700
C  35.56400 60.63200 41.14000
N  30.06700 61.29600 42.30100
C  31.38000 61.64300 42.44400
C  31.52700 63.08300 42.95000
C  29.98900 63.54000 43.10900
C  29.22200 62.32400 42.62500
C  32.29800 63.27600 44.29900
C  29.63000 64.85300 42.25400
C  29.10000 65.95700 43.20200
N  27.44000 59.99100 41.91200
C  26.93100 61.20900 42.41100
C  25.45300 61.03300 42.51900
C  25.19600 59.84800 41.82800
C  26.43400 59.30900 41.39900
C  24.54400 62.13100 42.90100
C  24.09800 58.97800 41.31300
O  22.89300 59.00100 41.42200
C  24.83100 57.78400 40.62200
C  24.38300 56.49200 41.17900
O  24.34300 56.26300 42.34900
O  24.00800 55.62300 40.20900
C  23.48400 54.42200 40.89600
H  31.47100 55.64400 40.05900
H  33.40000 61.28800 42.40500
H  27.43200 63.18700 43.17800
H  26.74800 55.40500 40.24500
H  29.24200 55.58800 38.76000
H  29.75800 54.14200 41.02000
H  29.31400 53.43700 39.39600
H  28.01200 53.62600 40.58100
H  27.63300 56.18500 37.42500
H  26.16900 56.93900 37.95400
H  25.06400 55.02100 37.47700
H  26.12100 54.05800 38.47000
H  34.03300 56.34400 39.00000
H  33.61300 55.21400 40.27500
H  34.92800 56.04800 40.57700
H  34.72200 61.28600 40.91600
H  36.44600 60.83100 40.53100
H  35.75300 60.59900 42.21400
H  32.10800 63.55500 42.15700
H  29.89800 63.72300 44.18000
H  31.95700 64.07900 44.95200
H  33.29500 63.44200 43.88900
H  32.27500 62.32800 44.83700
H  28.86100 64.60600 41.52200
H  30.49600 65.15100 41.66300
H  29.51900 66.94500 43.01400
H  29.15600 65.59200 44.22800
H  28.02200 66.07800 43.10000
H  23.62700 61.64500 43.23300
H  24.43100 62.72800 41.99600
H  24.85600 62.70000 43.77700
H  24.54200 57.75500 39.57200
H  24.36500 53.87600 41.23100
H  22.93100 53.80500 40.18800
H  22.75000 54.62200 41.67700

