79

Mg -0.13600 7.12300 26.93200
C  1.13500 9.33300 29.26300
C  -0.15500 4.62400 29.50600
C  -0.92600 4.90800 24.74900
C  0.80000 9.42100 24.41000
N  0.54800 6.95000 29.05500
C  0.97200 8.02300 29.77900
C  0.84100 7.69200 31.32400
C  0.73800 6.12100 31.33100
C  0.40000 5.82900 29.85200
C  2.00100 5.36100 31.80700
C  -0.32700 8.40000 32.09500
C  -0.22100 8.62500 33.66700
H  0.79800 7.94800 34.46800
N  -0.67800 5.02600 27.15400
C  -0.56500 4.18500 28.23000
C  -1.09100 2.87400 27.85200
C  -1.29000 2.89700 26.42600
C  -0.99400 4.28900 26.08900
C  -1.11400 1.68400 28.76200
C  -1.64800 1.83500 25.43700
O  -1.58000 2.02900 24.20600
C  -2.02400 0.51400 25.97500
N  0.03000 7.14200 24.91200
C  -0.47900 6.04700 24.22800
C  -0.89000 6.50200 22.79600
C  -0.19300 7.91800 22.64700
C  0.25500 8.22400 24.09000
C  -0.50900 5.46800 21.62900
C  -1.01100 9.00400 22.02000
C  -2.07600 9.69800 22.93200
N  0.75900 9.01700 26.80200
C  1.03300 9.88100 25.70400
C  1.36600 11.17700 26.17800
C  1.37000 11.07900 27.58200
C  1.04900 9.72800 27.88600
C  1.61200 12.36300 25.24900
C  1.66300 11.70800 28.83500
O  2.02200 12.85400 29.08400
C  1.48600 10.64200 29.97300
C  2.72100 10.72900 30.74900
O  3.79500 10.27500 30.40100
O  2.50700 11.51800 31.85700
C  3.62900 11.62300 32.73300
H  -0.32600 3.86400 30.27100
H  -1.48500 4.25300 24.07800
H  0.91500 10.24600 23.70400
H  1.76000 8.12800 31.71700
H  -0.07100 5.83500 32.00400
H  2.76000 6.06800 32.14300
H  2.46000 4.85100 30.96000
H  1.76100 4.53300 32.47400
H  -1.23100 7.79300 32.04700
H  -0.46900 9.31400 31.51800
H  -1.21600 8.42400 34.06300
H  -0.16600 9.70000 33.84200
H  -2.13500 1.34900 28.94000
H  -0.50200 1.85900 29.64700
H  -0.57900 0.95800 28.14900
H  -1.19100 -0.02800 26.42100
H  -2.43600 -0.10500 25.17700
H  -2.85000 0.53600 26.68600
H  -1.97200 6.57000 22.68800
H  0.64500 8.04600 21.96300
H  -0.19900 5.93900 20.69600
H  -1.28500 4.76400 21.32900
H  0.39400 4.92600 21.90900
H  -1.66900 8.56200 21.27200
H  -0.32400 9.68400 21.51700
H  -2.04500 10.78800 22.91200
H  -2.01700 9.48600 24.00000
H  -3.01000 9.48500 22.41200
H  1.25400 13.21800 25.82200
H  1.12000 12.34700 24.27600
H  2.70000 12.39200 25.19400
H  0.66800 11.01800 30.58700
H  4.54900 12.07200 32.35900
H  4.07900 10.69400 33.08400
H  3.25600 12.09900 33.64000

