79

Mg 6.08600 53.50600 40.68300
C  5.20200 50.10000 40.50800
C  9.34300 52.66700 39.83300
C  6.64300 56.76800 39.82400
C  2.67000 54.30700 41.17400
N  7.12900 51.56800 40.12900
C  6.60100 50.30100 40.17000
C  7.57400 49.27100 39.74700
C  8.94300 50.05500 39.83900
C  8.46700 51.53300 39.90500
C  9.83800 49.60900 41.07600
C  7.40000 48.58400 38.35500
C  6.98000 49.46500 37.12600
H  6.00200 48.89400 36.10600
N  7.70600 54.60300 39.96800
C  9.03900 54.06200 39.76400
C  9.95100 55.14600 39.32800
C  9.12800 56.35300 39.41800
C  7.75000 55.93700 39.76100
C  11.34600 55.08000 38.80500
C  9.58700 57.80000 39.00300
O  10.76200 57.99200 38.75400
C  8.65800 58.96300 38.94800
N  4.77200 55.28100 40.38600
C  5.28100 56.45700 40.18800
C  4.22300 57.59800 40.25200
C  2.99100 56.81800 40.74400
C  3.47600 55.35400 40.84200
C  4.64200 58.81100 41.22600
C  1.75500 56.97200 39.71200
C  0.46800 57.63300 40.26700
N  4.30900 52.44000 40.98300
C  2.99100 52.90300 41.12100
C  2.08700 51.75900 41.28100
C  2.89800 50.63400 41.05500
C  4.26100 51.13600 40.86100
C  0.61200 51.88300 41.52200
C  2.97000 49.20400 40.94300
O  2.09300 48.38600 41.17700
C  4.44300 48.78400 40.71000
C  4.38500 47.86200 39.55400
O  4.14200 48.21800 38.42700
O  4.75100 46.53400 39.88700
C  5.07300 45.71200 38.72200
H  10.38900 52.47800 39.58200
H  6.77800 57.83900 39.65700
H  1.67100 54.61300 41.49200
H  7.49900 48.53500 40.54800
H  9.55000 49.87600 38.95100
H  10.71100 49.07800 40.69600
H  9.28000 48.88900 41.67400
H  10.23400 50.42600 41.67900
H  6.62100 47.83800 38.51100
H  8.33200 48.07100 38.11700
H  7.87800 49.82000 36.62000
H  6.59300 50.42100 37.48100
H  11.50900 55.26100 37.74200
H  11.76900 54.10900 39.06500
H  12.01700 55.75100 39.34100
H  9.22100 59.87200 38.73500
H  8.35300 59.24900 39.95500
H  7.81900 58.93100 38.25300
H  4.10100 58.04300 39.26400
H  2.76300 57.11100 41.76900
H  3.89100 58.99800 41.99400
H  4.74100 59.78100 40.73800
H  5.56400 58.50000 41.71700
H  1.49700 55.96000 39.40100
H  1.97800 57.52000 38.79700
H  -0.24800 56.82400 40.41600
H  0.04800 58.40100 39.61900
H  0.68200 58.08100 41.23800
H  0.19100 51.50800 40.58900
H  0.23600 52.89900 41.63800
H  0.54900 51.24100 42.40100
H  4.80500 48.22700 41.57400
H  5.94900 46.02800 38.15500
H  4.17900 45.74500 38.09800
H  5.21400 44.66700 38.99900

