79

Mg 48.09400 34.15900 27.12400
C  46.25300 32.72000 29.75400
C  48.97200 36.64000 29.35600
C  49.90600 35.43200 24.69800
C  47.27000 31.33500 25.08900
N  47.65000 34.56100 29.24100
C  46.99100 33.80400 30.16200
C  47.34400 34.27000 31.62500
C  47.79300 35.71900 31.37200
C  48.11400 35.66600 29.84300
C  46.66600 36.71100 31.65100
C  48.39900 33.44700 32.29700
C  48.34900 33.41900 33.85400
H  47.36700 34.26500 34.78300
N  49.16200 35.89800 26.97800
C  49.42000 36.84200 28.06000
C  50.41500 37.77800 27.52300
C  50.73900 37.38500 26.20200
C  49.88700 36.19800 25.88800
C  50.99300 38.88600 28.48000
C  51.68100 38.07400 25.17200
O  51.94400 37.55300 24.07100
C  52.32100 39.46100 25.52500
N  48.36000 33.55900 25.09400
C  49.18300 34.29500 24.22800
C  49.54000 33.53100 22.93000
C  48.78800 32.11100 23.15500
C  48.03700 32.31000 24.51600
C  49.22800 34.29000 21.59100
C  49.75900 30.89900 23.16600
C  50.02900 30.23700 21.83200
N  46.84600 32.52600 27.30900
C  46.61200 31.48200 26.40900
C  45.67300 30.56000 26.98900
C  45.50800 31.01000 28.31400
C  46.25900 32.17600 28.45600
C  45.11200 29.34900 26.31600
C  44.84300 30.68300 29.55500
O  44.14700 29.69000 29.84000
C  45.26200 31.82200 30.57000
C  45.86500 31.07300 31.62900
O  46.85500 30.37200 31.51400
O  45.05800 31.03600 32.73600
C  45.62300 30.25300 33.83800
H  49.14500 37.51000 29.99200
H  50.57500 35.71100 23.88200
H  47.22000 30.43300 24.47500
H  46.50700 34.26600 32.32400
H  48.65300 36.01500 31.97300
H  45.95500 36.40100 32.41700
H  46.10000 36.82000 30.72500
H  47.09900 37.67400 31.91800
H  49.37600 33.86200 32.05300
H  48.45100 32.45700 31.84500
H  49.36400 33.71900 34.11500
H  48.30200 32.39600 34.22600
H  51.99100 38.57400 28.78700
H  50.27600 39.00600 29.29200
H  51.13200 39.85200 27.99300
H  51.56700 40.23500 25.66700
H  53.01000 39.65000 24.70300
H  52.88500 39.26600 26.43700
H  50.61500 33.36300 22.99100
H  48.01800 32.10700 22.38300
H  48.69900 35.23100 21.74400
H  48.62800 33.71900 20.88100
H  50.17500 34.23900 21.05500
H  49.62100 30.18400 23.97700
H  50.74300 31.32600 23.35800
H  49.54400 30.72000 20.98300
H  49.61300 29.22900 21.82400
H  51.09500 30.08500 21.66700
H  45.00000 29.59400 25.26000
H  44.14300 29.10400 26.75100
H  45.87300 28.58800 26.48600
H  44.40900 32.41600 30.90000
H  45.60500 29.24000 33.43500
H  44.96600 30.21700 34.70700
H  46.64800 30.47200 34.13700

