79

Mg 43.65900 2.90900 47.59400
C  41.51200 5.57700 47.25800
C  40.97900 0.72100 47.71000
C  45.88300 0.31000 47.56400
C  46.36800 5.06600 46.79200
N  41.46800 3.11100 47.22800
C  40.84000 4.34700 47.14200
C  39.37100 4.13000 47.03600
C  39.19400 2.57100 47.45000
C  40.62800 2.05900 47.48000
C  38.46900 2.46400 48.84100
C  38.95200 4.43800 45.55900
C  37.94200 5.65000 45.24300
H  38.24300 6.53100 43.95800
N  43.41600 0.72400 47.66200
C  42.28300 0.04200 47.80700
C  42.54100 -1.25500 47.97900
C  43.93900 -1.42300 47.79300
C  44.49400 -0.08600 47.66800
C  41.43700 -2.24600 48.20000
C  44.64400 -2.79300 47.78800
O  43.92500 -3.80000 47.71100
C  46.17200 -2.86800 47.91800
N  45.74400 2.69200 47.05100
C  46.47600 1.52900 47.10300
C  47.99400 1.82300 47.08800
C  48.10100 3.30900 46.61500
C  46.62500 3.68500 46.74000
C  48.76300 1.57400 48.43600
C  48.64000 3.45500 45.17300
C  50.10300 3.77700 45.14000
N  43.94600 4.92100 47.28000
C  45.09700 5.63700 47.04300
C  44.70700 7.11500 46.92200
C  43.29200 7.12400 47.18200
C  42.92000 5.75500 47.26800
C  45.55900 8.22400 46.64000
C  42.11600 7.93600 47.32900
O  41.97800 9.19300 47.17400
C  40.95200 6.97100 47.45800
C  40.41400 7.05800 48.85000
O  40.99000 6.62600 49.86700
O  39.19700 7.68600 48.85300
C  38.62000 8.11000 50.14800
H  40.04800 0.19900 47.94100
H  46.70400 -0.41000 47.56100
H  47.24100 5.72100 46.74900
H  38.82900 4.71800 47.77600
H  38.73600 1.86000 46.76200
H  38.21700 3.43200 49.27300
H  38.98800 1.87400 49.59700
H  37.53700 1.91500 48.70700
H  38.42700 3.57800 45.14200
H  39.85600 4.40100 44.95200
H  38.04100 6.39700 46.03100
H  36.88200 5.39300 45.25200
H  40.43500 -1.82300 48.13500
H  41.52900 -2.65700 49.20500
H  41.51300 -3.15800 47.60800
H  46.37500 -2.61100 48.95700
H  46.65800 -2.27000 47.14700
H  46.56600 -3.88400 47.93000
H  48.49800 1.11900 46.42600
H  48.67100 3.89500 47.33600
H  49.20000 0.57900 48.35900
H  48.07600 1.73900 49.26700
H  49.54500 2.32800 48.52400
H  48.15100 4.28600 44.66300
H  48.60800 2.50700 44.63700
H  50.67400 2.86000 44.99500
H  50.43000 4.28400 46.04800
H  50.38000 4.50800 44.38100
H  46.18800 8.02300 45.77300
H  46.29900 8.35400 47.43000
H  45.01300 9.16300 46.55500
H  40.20600 7.06900 46.67000
H  39.08500 7.67600 51.03400
H  37.56700 7.83200 50.10300
H  38.69700 9.19700 50.14300

