79

Mg 47.64000 26.43800 28.15800
C  48.87700 28.50700 30.82100
C  46.42000 24.27300 30.52300
C  47.08900 24.21100 25.74000
C  49.41700 28.52100 25.93600
N  47.72300 26.41600 30.46000
C  48.15700 27.36500 31.35200
C  47.70600 27.08500 32.80700
C  47.08400 25.65600 32.64400
C  47.02900 25.42400 31.10100
C  47.84600 24.54500 33.52500
C  46.64400 28.11700 33.25500
C  45.68200 27.64400 34.44300
H  45.50700 28.52100 35.64200
N  46.89000 24.46000 28.11900
C  46.45900 23.77700 29.23500
C  46.09800 22.44600 28.82200
C  46.30500 22.36200 27.39100
C  46.78200 23.68800 27.00500
C  45.61800 21.41100 29.84000
C  46.22300 21.13700 26.44400
O  46.55400 21.26400 25.26500
C  45.78700 19.79900 26.91800
N  48.07400 26.44300 26.11800
C  47.58600 25.46500 25.34500
C  47.83700 25.88400 23.83800
C  48.65700 27.24300 23.90500
C  48.71200 27.48000 25.37800
C  48.56300 24.91800 22.82500
C  47.99000 28.36500 23.14900
C  48.91600 29.44500 22.54800
N  48.85100 28.21200 28.30300
C  49.51500 28.87400 27.29300
C  50.30600 29.90500 27.84000
C  50.02400 29.89200 29.23000
C  49.16700 28.76200 29.48300
C  51.26500 30.81300 27.08900
C  50.29400 30.55900 30.42000
O  51.06900 31.50600 30.66700
C  49.40000 29.77300 31.48400
C  50.33300 29.35200 32.57900
O  51.23600 28.58500 32.42000
O  50.06500 30.06800 33.69000
C  51.13600 29.93200 34.73100
H  45.98200 23.64800 31.30500
H  46.91100 23.51500 24.91800
H  50.18900 28.95700 25.30000
H  48.61700 27.08400 33.40500
H  46.06300 25.72100 33.02100
H  48.58400 25.08600 34.11600
H  48.36500 23.82400 32.89400
H  47.12200 24.06000 34.18000
H  46.12900 28.41800 32.34300
H  47.20200 29.01700 33.51400
H  46.04000 26.72700 34.91000
H  44.65500 27.55500 34.08600
H  44.54000 21.29300 29.73700
H  45.81000 21.59600 30.89700
H  46.02500 20.42900 29.59600
H  46.60900 19.47000 27.55400
H  45.68900 19.23200 25.99200
H  44.87100 19.79400 27.50900
H  46.82000 26.16400 23.56100
H  49.68600 27.14400 23.55900
H  47.81600 24.56900 22.11200
H  48.95600 24.14300 23.48200
H  49.28500 25.44700 22.20300
H  47.36500 28.87700 23.88100
H  47.31500 27.95800 22.39600
H  48.70900 30.47400 22.84100
H  48.84800 29.38500 21.46200
H  49.96000 29.23000 22.77700
H  51.56500 31.51400 27.86900
H  50.83700 31.25000 26.18700
H  52.14400 30.21000 26.86200
H  48.61400 30.48000 31.75000
H  52.11800 29.89200 34.26000
H  51.00100 29.06800 35.38200
H  51.07500 30.75700 35.44100

