79

Mg -4.59900 25.72200 25.99500
C  -2.81200 27.02200 28.55600
C  -6.46800 23.89700 28.10200
C  -6.46700 24.43400 23.33400
C  -2.49000 27.17800 23.65500
N  -4.71100 25.60600 28.03400
C  -3.88500 26.18300 28.92400
C  -4.29500 25.92500 30.39600
C  -5.36300 24.80100 30.25700
C  -5.49300 24.69000 28.67100
C  -4.94000 23.36200 30.90400
C  -4.97500 27.19700 31.14600
C  -5.43500 26.94600 32.54300
H  -4.86700 25.82500 33.46300
N  -6.13600 24.23700 25.75000
C  -6.84400 23.68400 26.77800
C  -7.99000 22.86000 26.30200
C  -7.92400 22.90500 24.85400
C  -6.80700 23.87500 24.59700
C  -8.93600 22.09900 27.23000
C  -8.81000 22.34000 23.74900
O  -8.49500 22.36000 22.57000
C  -10.05900 21.65600 24.04700
N  -4.47800 25.74600 23.77600
C  -5.44000 25.23500 22.93900
C  -5.23800 25.72700 21.52300
C  -3.97300 26.60300 21.62900
C  -3.63800 26.54700 23.13800
C  -5.14200 24.58800 20.44900
C  -3.89500 28.02100 20.96900
C  -4.20800 29.29400 21.74700
N  -2.80600 26.72100 26.03800
C  -2.06100 27.30300 24.99500
C  -1.03000 28.13200 25.54800
C  -1.25300 28.00800 26.94100
C  -2.40400 27.20300 27.17900
C  -0.29700 29.10600 24.77700
C  -0.87700 28.62400 28.28100
O  -0.08300 29.48700 28.53000
C  -1.92500 28.00600 29.28500
C  -1.21300 27.32500 30.34800
O  -0.51100 26.35700 30.18100
O  -1.41400 28.02400 31.55400
C  -0.70700 27.49400 32.72100
H  -7.17200 23.37600 28.75400
H  -7.11800 24.25700 22.47500
H  -1.94300 27.70400 22.87000
H  -3.50400 25.51700 31.02500
H  -6.34500 25.04100 30.66400
H  -4.88800 22.64200 30.08700
H  -5.66900 23.01800 31.63800
H  -4.05000 23.54900 31.50400
H  -5.85100 27.44900 30.54700
H  -4.28200 28.03800 31.13900
H  -6.49400 26.75100 32.37300
H  -5.24700 27.87700 33.07800
H  -8.60800 22.33000 28.24300
H  -8.99300 21.04100 26.97500
H  -9.91700 22.53300 27.03400
H  -10.39700 21.08500 23.18300
H  -10.82200 22.41400 24.22300
H  -9.93300 21.05800 24.95000
H  -6.18900 26.24700 21.41000
H  -3.19500 26.11300 21.04200
H  -6.17700 24.47600 20.12500
H  -4.81100 23.59600 20.75500
H  -4.61000 24.92900 19.56100
H  -4.55500 28.04300 20.10100
H  -2.91500 28.09400 20.49700
H  -4.33400 29.07800 22.80800
H  -5.19700 29.61100 21.41800
H  -3.44900 30.07400 21.68500
H  -0.24800 29.99700 25.40300
H  -0.66300 29.47100 23.81800
H  0.73900 28.78200 24.67300
H  -2.58800 28.76000 29.70800
H  0.33900 27.24600 32.54100
H  -1.20800 26.60300 33.09600
H  -0.74200 28.14700 33.59300

