79

Mg 25.78800 0.46700 30.08600
C  27.57600 0.03100 32.97700
C  22.87800 0.62300 31.90400
C  24.16100 0.69500 27.07100
C  28.78900 -0.32300 28.18600
N  25.35400 0.31000 32.16500
C  26.19700 0.30100 33.19500
C  25.45600 0.61500 34.52300
C  23.91400 0.31100 34.16600
C  24.03400 0.36100 32.64300
C  23.35600 -1.03300 34.76900
C  25.72900 2.00700 35.05500
C  26.66500 2.09900 36.24300
H  26.21700 2.94700 37.42700
N  23.79900 0.78800 29.53500
C  22.75100 0.88800 30.45200
C  21.50400 1.16500 29.67800
C  21.85500 1.07900 28.29600
C  23.31700 0.85400 28.24300
C  20.27000 1.46300 30.55000
C  20.93900 1.30600 27.12100
O  21.29800 1.49800 25.94200
C  19.46300 1.42700 27.26800
N  26.37600 0.06500 27.84600
C  25.50700 0.37600 26.91300
C  26.20400 0.37200 25.55000
C  27.68600 0.05900 25.84400
C  27.67400 -0.05600 27.34800
C  25.64200 -0.68600 24.54800
C  28.63000 1.16300 25.39500
C  28.31900 2.62800 25.78100
N  27.77900 -0.15500 30.45000
C  28.88700 -0.31700 29.61500
C  30.04100 -0.63000 30.48700
C  29.60600 -0.47900 31.80600
C  28.18800 -0.20100 31.71300
C  31.41400 -0.97900 30.07500
C  30.02300 -0.42300 33.19900
O  31.13400 -0.52500 33.63900
C  28.66300 -0.27000 34.02600
C  28.45100 -1.53300 34.70300
O  27.47500 -2.25700 34.56200
O  29.52200 -1.77900 35.62000
C  29.12700 -2.70200 36.65400
H  21.96400 0.69000 32.49900
H  23.52000 0.67000 26.18700
H  29.68500 -0.55900 27.60900
H  25.89600 -0.12300 35.19400
H  23.40600 1.17000 34.60400
H  24.19100 -1.51200 35.28100
H  22.92700 -1.56200 33.91800
H  22.67300 -0.79300 35.58400
H  24.90000 2.64700 35.35800
H  26.21100 2.57500 34.25900
H  27.62500 2.50200 35.92100
H  26.97900 1.10200 36.55100
H  20.28400 1.75800 31.59900
H  19.53000 0.68900 30.34400
H  19.90800 2.39000 30.10500
H  19.32200 2.34100 27.84400
H  19.04500 0.54200 27.74800
H  19.03500 1.56700 26.27500
H  26.00800 1.37500 25.17100
H  27.96900 -0.81800 25.26100
H  24.89000 -0.16500 23.95500
H  25.22900 -1.52100 25.11500
H  26.37800 -1.13300 23.87900
H  28.62200 0.99900 24.31700
H  29.61200 0.88000 25.77200
H  27.63200 2.68400 26.62500
H  27.94000 3.17900 24.92000
H  29.25600 3.01800 26.17700
H  31.74400 -0.62100 29.09900
H  31.53400 -2.06100 30.02400
H  32.04500 -0.66700 30.90700
H  28.71800 0.50500 34.78900
H  29.95400 -2.92400 37.32800
H  28.95700 -3.68200 36.20700
H  28.18300 -2.51200 37.16500

