79

Mg 8.31100 2.77200 27.44500
C  9.45200 1.33800 30.32400
C  6.55400 5.06800 29.30000
C  6.62200 3.74700 24.61300
C  9.49800 -0.16600 25.67100
N  7.78700 2.93000 29.64400
C  8.58800 2.41400 30.68800
C  8.31900 3.05000 31.95300
C  7.41000 4.30300 31.58100
C  7.17500 4.11100 30.10900
C  6.21000 4.57400 32.47400
C  9.62900 3.38600 32.75200
C  9.47800 3.98300 34.21800
H  10.56600 3.51000 35.27400
N  7.05000 4.32000 26.96100
C  6.50900 5.18800 27.85300
C  5.89500 6.27600 27.14700
C  6.01600 6.02600 25.76600
C  6.59600 4.63900 25.77400
C  5.21600 7.53600 27.69200
C  5.47900 6.70500 24.50200
O  5.75100 6.31000 23.36600
C  4.55700 7.84100 24.65100
N  8.25200 1.95500 25.39500
C  7.40500 2.57200 24.47800
C  7.43200 1.76600 23.16100
C  8.43500 0.64400 23.42200
C  8.80000 0.82700 24.89300
C  6.03900 1.41700 22.55200
C  9.75100 0.46700 22.48100
C  9.39700 -0.39200 21.24800
N  9.30500 1.01200 27.85200
C  9.74100 -0.11400 27.07100
C  10.55300 -1.11600 27.94500
C  10.45300 -0.45700 29.18800
C  9.71300 0.74600 29.10200
C  11.38100 -2.26300 27.60400
C  10.91700 -0.67300 30.51900
O  11.69700 -1.54100 30.93500
C  10.34200 0.49300 31.32800
C  9.65500 -0.12800 32.48500
O  8.57300 -0.75800 32.44300
O  10.56700 -0.11800 33.58600
C  9.94300 -0.53400 34.78900
H  6.09800 5.97400 29.70500
H  6.12300 4.11400 23.71400
H  10.00100 -0.99100 25.16200
H  7.73700 2.36000 32.56400
H  8.13400 5.11600 31.53100
H  6.33700 5.63300 32.69700
H  6.10500 3.92000 33.34000
H  5.37000 4.33900 31.82000
H  10.21300 4.03500 32.10000
H  10.19200 2.47600 32.95900
H  8.54100 3.65600 34.66900
H  9.40800 5.07100 34.19500
H  4.20600 7.74400 27.33700
H  5.72000 8.36700 27.20000
H  5.29700 7.73200 28.76100
H  3.64800 7.55700 25.18100
H  4.19800 8.20300 23.68700
H  5.06000 8.71400 25.06600
H  7.78700 2.46500 22.40400
H  7.88800 -0.29700 23.46600
H  6.02300 0.37900 22.22100
H  5.85400 2.04900 21.68400
H  5.33400 1.64000 23.35300
H  10.62100 0.06000 22.99700
H  10.06900 1.45400 22.14800
H  8.32500 -0.58600 21.26400
H  9.96000 -1.32100 21.33200
H  9.59300 0.05000 20.27100
H  11.28100 -2.97300 28.42500
H  12.43100 -2.09600 27.36400
H  10.79300 -2.66300 26.77800
H  11.29100 0.96300 31.58400
H  9.24800 0.20900 35.18100
H  10.69500 -0.74000 35.55000
H  9.47900 -1.52000 34.75100

