79

Mg -12.83400 16.12200 41.58200
C  -9.96600 14.23700 40.98100
C  -11.53100 18.64200 39.50100
C  -15.78800 17.79200 41.66900
C  -14.43800 13.16700 42.47900
N  -11.07100 16.33100 40.31000
C  -9.98300 15.48800 40.26200
C  -8.80800 15.98900 39.40100
C  -9.32900 17.41600 39.07800
C  -10.76900 17.50500 39.60500
C  -8.32200 18.55800 39.77400
C  -8.40400 15.05500 38.12100
C  -6.93600 14.72600 37.96300
H  -6.25800 15.65900 36.95500
N  -13.48200 18.08000 40.89100
C  -12.80500 18.94000 40.06200
C  -13.54700 20.15500 39.86500
C  -14.81400 19.96000 40.61200
C  -14.74300 18.56200 41.12400
C  -13.11100 21.31100 38.89300
C  -15.95900 20.97400 40.66300
O  -15.79600 22.04500 40.06200
C  -17.10800 20.79300 41.52700
N  -14.94600 15.54200 41.95600
C  -15.90900 16.41300 42.11500
C  -17.24900 15.68500 42.22700
C  -16.80400 14.18300 42.47900
C  -15.29500 14.27700 42.22500
C  -18.01200 16.35800 43.38900
C  -17.50100 13.23900 41.43200
C  -18.05000 11.91900 42.07300
N  -12.30300 14.15100 41.85000
C  -13.04800 13.03700 42.23700
C  -12.19100 11.94400 42.57900
C  -10.90400 12.38900 42.18000
C  -11.05800 13.70600 41.60400
C  -12.58400 10.68100 43.20600
C  -9.42800 12.10500 42.13600
O  -8.84000 11.18500 42.66400
C  -8.80800 13.23800 41.10900
C  -7.52700 13.81600 41.63500
O  -7.46100 14.65600 42.53700
O  -6.38900 13.19700 41.04200
C  -5.11600 13.88600 41.28200
H  -11.09600 19.49700 38.97900
H  -16.73300 18.28000 41.42200
H  -14.87400 12.25900 42.90200
H  -8.08500 15.99000 40.21700
H  -9.45000 17.67200 38.02600
H  -8.86100 19.01900 40.60100
H  -7.96400 19.29800 39.05700
H  -7.37500 18.08100 40.02600
H  -9.00400 15.41100 37.28400
H  -8.83400 14.09000 38.38800
H  -6.85200 13.64900 37.81600
H  -6.56400 15.00800 38.94800
H  -13.48200 21.14200 37.88200
H  -12.02500 21.37600 38.82500
H  -13.41500 22.28600 39.27300
H  -17.37000 21.79900 41.85700
H  -16.89700 20.24600 42.44600
H  -18.00700 20.40900 41.04400
H  -17.90300 15.82400 41.36600
H  -17.04500 13.90900 43.50600
H  -17.86500 15.79300 44.31000
H  -19.05800 16.41900 43.09000
H  -17.81500 17.41100 43.59200
H  -16.69000 12.92400 40.77500
H  -18.18400 13.87100 40.86500
H  -19.09100 11.93400 41.75100
H  -18.03200 11.94400 43.16200
H  -17.61000 10.97900 41.74100
H  -12.92100 10.90000 44.21800
H  -11.77800 9.94800 43.23800
H  -13.38400 10.22200 42.62500
H  -8.67200 12.59800 40.23700
H  -4.73900 13.61800 42.26900
H  -5.25400 14.95900 41.14300
H  -4.41200 13.61800 40.49500

