79

Mg 2.72100 0.15300 44.70200
C  5.63100 2.19900 43.96700
C  0.84600 2.24300 42.80800
C  0.30400 -2.05300 45.00600
C  5.03800 -2.28500 45.92400
N  3.22100 1.91400 43.39100
C  4.40000 2.59800 43.28500
C  4.30300 3.77600 42.30300
C  2.76900 4.05200 42.30200
C  2.22900 2.65900 42.85700
C  2.44100 5.34400 43.14900
C  4.98500 3.43200 40.92300
C  6.16300 4.28000 40.37700
H  6.36500 4.39800 38.87700
N  0.82900 0.16600 44.07600
C  0.15800 1.13200 43.37800
C  -1.26600 0.73200 43.35600
C  -1.50200 -0.35200 44.12400
C  -0.05300 -0.80900 44.44200
C  -2.20700 1.62800 42.56300
C  -2.84700 -0.95800 44.57800
O  -3.90100 -0.44400 44.20300
C  -2.97300 -2.13200 45.50000
N  2.74100 -1.88800 45.27800
C  1.54000 -2.56100 45.37800
C  1.76700 -4.04000 45.83100
C  3.28000 -4.06900 46.14100
C  3.70400 -2.64200 45.76700
C  0.78800 -4.55700 46.97100
C  4.08800 -5.18200 45.41200
C  4.99300 -5.98000 46.40300
N  4.88100 -0.03700 44.99200
C  5.58500 -1.02900 45.64300
C  6.98700 -0.55200 45.86900
C  7.03400 0.74200 45.22100
C  5.73000 0.97700 44.75300
C  8.06200 -1.35300 46.52700
C  7.87500 1.92800 44.97600
O  9.03800 2.18700 45.35000
C  7.01200 2.87200 44.08600
C  7.01100 4.22300 44.71000
O  7.87900 5.03500 44.53900
O  5.78500 4.43800 45.41200
C  5.60500 5.87000 45.83000
H  0.26700 2.93200 42.18900
H  -0.51800 -2.77200 44.98900
H  5.72300 -3.01300 46.36200
H  4.86200 4.59500 42.75400
H  2.47600 4.12000 41.25400
H  1.58600 5.17600 43.80400
H  2.13900 6.07800 42.40200
H  3.30500 5.77100 43.65700
H  4.28800 3.39800 40.08500
H  5.34200 2.40200 40.95000
H  7.07600 3.83200 40.76800
H  6.10600 5.29200 40.77800
H  -3.24500 1.32700 42.70300
H  -1.90500 1.72900 41.52100
H  -2.10900 2.61800 43.00700
H  -2.17400 -2.09000 46.24100
H  -2.75500 -2.96700 44.83400
H  -4.01300 -2.23900 45.80700
H  1.65000 -4.65200 44.93600
H  3.47400 -4.10300 47.21300
H  0.16700 -3.79000 47.43300
H  1.43400 -5.07500 47.68000
H  0.07700 -5.23800 46.50200
H  4.76900 -4.65600 44.74200
H  3.37800 -5.75900 44.82000
H  4.30900 -6.33500 47.17400
H  5.73100 -5.34200 46.88700
H  5.41700 -6.82000 45.85300
H  7.92400 -1.71100 47.54800
H  8.85700 -0.60900 46.57800
H  8.37300 -2.25800 46.00700
H  7.42000 3.03700 43.08900
H  6.52900 6.44800 45.84700
H  5.14200 5.92700 46.81500
H  5.00000 6.32400 45.04500

