79

Mg -12.88400 38.42000 42.84900
C  -10.98600 35.90200 41.27300
C  -11.09900 40.76000 41.15200
C  -15.18800 40.78100 43.66200
C  -15.15200 35.83900 44.02500
N  -11.22900 38.26400 41.37800
C  -10.53300 37.14300 40.89900
C  -9.22700 37.54900 40.09300
C  -9.37500 39.11600 40.06200
C  -10.65700 39.42100 40.89000
C  -8.05600 39.92100 40.47800
C  -9.06600 36.80000 38.71100
C  -7.98100 35.76300 38.64300
H  -6.77900 36.01000 37.68300
N  -13.02300 40.48100 42.61700
C  -12.23600 41.26900 41.78600
C  -12.70100 42.66600 41.89400
C  -13.86400 42.76500 42.68400
C  -14.04300 41.26900 43.02800
C  -11.88200 43.83900 41.38800
C  -14.66600 43.99900 43.05500
O  -14.29900 45.03600 42.56400
C  -15.81600 43.94500 43.99300
N  -14.91500 38.33400 43.69600
C  -15.59500 39.44900 43.96300
C  -16.90600 39.14600 44.75400
C  -16.85500 37.61000 45.00200
C  -15.59000 37.21700 44.17100
C  -17.15300 40.05800 46.01800
C  -18.25300 36.99700 44.42100
C  -18.81600 35.87100 45.19900
N  -13.02800 36.37700 42.77400
C  -13.96500 35.51500 43.34400
C  -13.50700 34.13300 43.18200
C  -12.40800 34.25400 42.31100
C  -12.13600 35.62100 42.06700
C  -14.10800 32.93300 43.65100
C  -11.35900 33.48000 41.57100
O  -11.27000 32.30500 41.41500
C  -10.37900 34.50900 40.83900
C  -9.03100 34.27000 41.29700
O  -8.39100 33.35100 40.84200
O  -8.65300 35.16700 42.28100
C  -7.40700 34.80300 43.09200
H  -10.50800 41.58300 40.74500
H  -15.99400 41.46600 43.93300
H  -15.86300 35.04100 44.24900
H  -8.39700 37.24100 40.72900
H  -9.63800 39.42900 39.05200
H  -7.41700 39.12200 40.85600
H  -8.23700 40.69500 41.22400
H  -7.69200 40.24400 39.50300
H  -8.75600 37.57500 38.01000
H  -10.02600 36.34500 38.46700
H  -8.32900 34.75700 38.40800
H  -7.54600 35.56900 39.62400
H  -10.88000 43.42800 41.25900
H  -11.91400 44.76500 41.96300
H  -12.20100 44.17100 40.40100
H  -16.59900 43.69300 43.27900
H  -15.90700 44.96000 44.38000
H  -15.69600 43.30400 44.86700
H  -17.66500 39.40600 44.01700
H  -16.71800 37.41500 46.06600
H  -16.26100 40.48000 46.48100
H  -17.61000 39.36600 46.72400
H  -17.80300 40.90200 45.78600
H  -18.21000 36.79000 43.35200
H  -19.06300 37.71600 44.54800
H  -18.32800 35.67800 46.15400
H  -18.73300 34.95000 44.62300
H  -19.87600 35.97600 45.42800
H  -13.70600 32.01500 43.22100
H  -15.14000 32.99300 43.30800
H  -14.16600 32.80600 44.73200
H  -10.41200 34.28500 39.77300
H  -7.31300 35.33900 44.03700
H  -6.49600 35.06900 42.55700
H  -7.17200 33.78700 43.40800

