79

Mg -11.43400 16.00500 42.82000
C  -7.86400 16.03700 42.37000
C  -11.48900 19.21000 41.93300
C  -14.98300 15.90100 42.54800
C  -11.28200 12.51000 42.97000
N  -9.84000 17.37000 41.95000
C  -8.42900 17.23600 41.97300
C  -7.73700 18.62600 41.84700
C  -8.97700 19.57800 41.90800
C  -10.19500 18.63300 41.96500
C  -8.90700 20.58000 43.05800
C  -6.78300 18.82800 40.57500
C  -5.28200 19.16500 40.83500
H  -4.87600 20.26500 39.91600
N  -12.96200 17.34600 42.12600
C  -12.74200 18.68100 41.84800
C  -14.01700 19.33100 41.53300
C  -15.04600 18.35700 41.71400
C  -14.34100 17.08000 42.17500
C  -14.03000 20.80100 40.95900
C  -16.46700 18.66800 41.64500
O  -16.82800 19.83800 41.43100
C  -17.60500 17.62200 41.73200
N  -12.93400 14.44800 42.61500
C  -14.29100 14.71200 42.72100
C  -14.96300 13.42600 43.19000
C  -13.83400 12.33700 42.89600
C  -12.55800 13.17000 42.87400
C  -15.38700 13.60200 44.67000
C  -13.94900 11.57800 41.57800
C  -14.65300 10.20200 41.56700
N  -9.89200 14.52100 43.02000
C  -9.97400 13.15500 43.04100
C  -8.67600 12.57000 42.98100
C  -7.82500 13.67400 42.84700
C  -8.58800 14.86300 42.77400
C  -8.41100 11.17800 42.90300
C  -6.40900 14.06800 42.70300
O  -5.43100 13.33600 42.82500
C  -6.39700 15.68300 42.42600
C  -5.67800 16.33800 43.56500
O  -6.13700 16.90300 44.55800
O  -4.33100 16.11600 43.35300
C  -3.40500 16.74900 44.32800
H  -11.38800 20.28900 41.79900
H  -16.05700 15.95300 42.74000
H  -11.31800 11.42100 43.03500
H  -7.15000 18.81000 42.74700
H  -8.96400 20.18100 40.99900
H  -9.62300 20.18700 43.78000
H  -9.28100 21.52700 42.66800
H  -7.92500 20.67300 43.52200
H  -7.28700 19.44000 39.82800
H  -6.77400 17.85300 40.08800
H  -4.64100 18.30800 40.63100
H  -5.13200 19.36100 41.89700
H  -14.25800 20.65200 39.90300
H  -13.02000 21.20200 41.03300
H  -14.70700 21.49800 41.45300
H  -18.54300 18.01400 41.33700
H  -17.74500 17.33300 42.77300
H  -17.33100 16.80900 41.06000
H  -15.89700 13.24000 42.66000
H  -13.63100 11.65300 43.72000
H  -16.47600 13.62300 44.62200
H  -15.05400 14.51800 45.15600
H  -15.01900 12.75900 45.25400
H  -12.92800 11.53000 41.20000
H  -14.59600 12.17000 40.93100
H  -13.92700 9.43300 41.30100
H  -15.47600 10.07200 40.86400
H  -14.94300 10.22600 42.61700
H  -9.10500 10.86300 43.68300
H  -7.47300 10.77400 43.28400
H  -8.72500 10.76300 41.94600
H  -5.86500 15.74100 41.47700
H  -2.89500 15.91500 44.81100
H  -3.90400 17.36600 45.07500
H  -2.66000 17.31400 43.76800

