79

Mg 41.31800 7.77500 30.37100
C  43.08100 9.36800 33.00900
C  39.05400 6.48000 32.63400
C  39.71900 6.03100 27.88400
C  43.59800 8.88400 28.05800
N  41.21900 7.88700 32.55400
C  41.97200 8.57500 33.48000
C  41.54300 8.40400 34.89600
C  40.40300 7.30600 34.66500
C  40.20700 7.18500 33.19100
C  40.50600 5.93800 35.44800
C  41.00400 9.74900 35.33500
C  41.61500 10.41500 36.58500
H  40.69800 10.80800 37.76400
N  39.58900 6.53600 30.21400
C  38.77300 6.14800 31.27700
C  37.63000 5.33600 30.71500
C  37.82500 5.34600 29.32600
C  39.07900 5.96800 29.10100
C  36.50000 4.72500 31.49700
C  36.86400 4.68400 28.31500
O  37.27100 4.54900 27.16300
C  35.41800 4.25400 28.62000
N  41.68300 7.38000 28.28200
C  40.91200 6.60800 27.48300
C  41.45400 6.53300 25.99900
C  42.53700 7.70800 26.04300
C  42.63700 8.02100 27.58300
C  41.90100 5.17700 25.55300
C  42.27300 8.92500 25.09800
C  41.09700 9.82800 25.41200
N  43.02500 8.86200 30.42400
C  43.86500 9.23800 29.40200
C  44.92100 10.09700 29.96100
C  44.60300 10.17100 31.35100
C  43.52200 9.37700 31.59000
C  46.07600 10.70000 29.21100
C  45.10000 10.73100 32.59400
O  46.05800 11.49500 32.79800
C  44.07400 10.29900 33.67600
C  44.98200 9.47200 34.58800
O  45.58400 8.46300 34.26400
O  45.08600 10.00000 35.79100
C  45.99700 9.37500 36.78800
H  38.31000 6.01600 33.28400
H  39.29900 5.42900 27.07500
H  44.20800 9.31800 27.26300
H  42.39700 7.96000 35.40700
H  39.47300 7.82900 34.88900
H  40.33300 5.10800 34.76300
H  39.67700 5.90700 36.15600
H  41.44900 5.78000 35.97100
H  39.94500 9.68400 35.58900
H  41.05400 10.53800 34.58500
H  41.97200 11.40300 36.29200
H  42.55400 9.90300 36.79700
H  35.58600 5.31500 31.42500
H  36.68400 4.83900 32.56500
H  36.55400 3.65500 31.30100
H  35.29600 3.52600 29.42200
H  34.99300 3.89200 27.68400
H  34.89600 5.17400 28.88600
H  40.61200 6.76600 25.34700
H  43.52200 7.31500 25.79300
H  42.80300 4.84200 26.06500
H  42.08100 5.20400 24.47800
H  41.21800 4.33600 25.67400
H  42.11300 8.41100 24.15000
H  43.19600 9.50200 25.03900
H  40.67500 9.59500 26.39000
H  40.31200 9.71000 24.66500
H  41.36700 10.87600 25.54500
H  46.20000 11.75900 29.43900
H  45.93200 10.52100 28.14600
H  47.05500 10.31800 29.50300
H  43.72100 11.18800 34.19900
H  46.05100 8.28700 36.83800
H  45.68000 9.63600 37.79700
H  47.03100 9.66400 36.60000

