79

Mg 35.59600 1.43400 29.62100
C  33.11600 2.04100 32.06500
C  37.81900 1.00100 32.06800
C  37.90400 1.00600 27.21500
C  33.13500 2.03200 27.18900
N  35.42300 1.43000 31.85400
C  34.36800 1.73000 32.63900
C  34.75100 1.76300 34.15200
C  36.33300 1.49700 34.08300
C  36.55200 1.20100 32.62300
C  37.25600 2.68600 34.61000
C  34.00700 0.83000 35.12300
C  33.35900 1.37700 36.35800
H  34.24400 2.41900 37.15200
N  37.56800 1.02700 29.59700
C  38.31500 0.92400 30.70600
C  39.65600 0.52700 30.31500
C  39.66900 0.40200 28.93700
C  38.35400 0.88100 28.50000
C  40.66300 0.21800 31.31600
C  40.79300 -0.11900 28.01300
O  40.57000 -0.33300 26.80200
C  42.11600 -0.46400 28.52800
N  35.50800 1.32900 27.56000
C  36.61200 1.26500 26.75200
C  36.25000 1.19200 25.27400
C  34.68600 1.37600 25.27800
C  34.36300 1.51600 26.73500
C  37.06100 2.26700 24.44200
C  33.93800 0.18200 24.62300
C  33.99400 -1.12100 25.35700
N  33.54600 1.98300 29.52300
C  32.72000 2.25600 28.44500
C  31.35200 2.60500 28.94200
C  31.48600 2.53800 30.32800
C  32.83700 2.10300 30.67500
C  30.31000 2.91100 27.97500
C  30.77300 2.72000 31.59800
O  29.60200 3.12400 31.78700
C  31.73100 2.38200 32.70300
C  31.76600 3.71000 33.52100
O  32.23500 4.72000 33.10200
O  31.02700 3.61500 34.67000
C  30.80700 4.72000 35.52800
H  38.53500 0.83800 32.87600
H  38.62700 1.12300 26.40600
H  32.50200 2.30700 26.34200
H  34.58200 2.79800 34.45000
H  36.66800 0.64600 34.67700
H  36.65200 3.53900 34.91800
H  37.90000 3.17500 33.87900
H  37.89400 2.30300 35.40600
H  34.66200 0.03500 35.48100
H  33.19200 0.43700 34.51500
H  33.11000 0.62400 37.10500
H  32.46200 1.82900 35.93400
H  41.62700 -0.16900 30.98500
H  40.28800 -0.51300 32.03200
H  40.80700 1.12300 31.90700
H  42.55200 0.37300 29.07400
H  42.84500 -0.70700 27.75400
H  42.06600 -1.32500 29.19500
H  36.45400 0.16800 24.96300
H  34.37900 2.28600 24.76400
H  36.39200 2.78500 23.75500
H  37.81900 1.76300 23.84200
H  37.48500 3.03400 25.09000
H  34.44300 0.03500 23.66900
H  32.87900 0.37900 24.45600
H  34.33000 -1.82200 24.59200
H  32.97800 -1.30100 25.70700
H  34.74000 -1.16200 26.15100
H  29.48500 3.37500 28.51500
H  30.15200 1.95800 27.47000
H  30.71400 3.67800 27.31400
H  31.44100 1.52600 33.31200
H  31.42400 4.39200 36.36400
H  29.78700 4.66600 35.91000
H  31.11300 5.73100 35.26000

