79

Mg 16.71500 51.41900 26.23700
C  18.68500 50.50800 28.95900
C  14.02700 52.04000 28.40800
C  14.77200 52.04000 23.56300
C  19.33900 50.29400 24.09000
N  16.34900 51.22200 28.41200
C  17.36600 50.97200 29.32200
C  16.91900 51.18900 30.72600
C  15.42100 51.52200 30.59900
C  15.23500 51.61800 29.04800
C  14.50200 50.38700 31.16600
C  17.74000 52.28900 31.45800
C  18.45600 51.94100 32.75900
H  17.82300 52.63700 33.95200
N  14.70100 51.98800 26.05300
C  13.78800 52.26100 27.03700
C  12.67500 53.00300 26.43500
C  12.88100 53.05200 25.05700
C  14.18000 52.33600 24.79000
C  11.49000 53.46100 27.26500
C  12.00200 53.64900 24.02600
O  12.27300 53.55800 22.79700
C  10.74500 54.41000 24.36100
N  17.02600 51.35400 24.14300
C  16.08100 51.59800 23.25000
C  16.52900 51.57900 21.73900
C  18.01600 51.06800 21.90000
C  18.13600 50.83900 23.46200
C  15.66100 50.65300 20.82600
C  19.04600 52.01600 21.44800
C  19.80500 51.75100 20.16400
N  18.75700 50.52200 26.40000
C  19.64200 50.14500 25.47800
C  20.75400 49.50200 26.20100
C  20.44700 49.72300 27.60700
C  19.20700 50.28800 27.67900
C  21.97100 48.82600 25.62700
C  20.93000 49.50000 28.96300
O  21.98100 48.95800 29.31800
C  19.84400 50.05400 29.91400
C  19.47800 48.91400 30.78400
O  18.60500 48.10500 30.52700
O  20.20300 48.98600 31.97300
C  20.05500 48.02700 33.05700
H  13.22400 52.39000 29.06200
H  14.04300 52.19600 22.76500
H  20.16600 49.92100 23.48200
H  17.05900 50.26700 31.29200
H  15.08800 52.45600 31.05200
H  14.90600 49.40500 30.91800
H  13.45600 50.43600 30.86400
H  14.44300 50.44900 32.25200
H  17.07300 53.13100 31.64600
H  18.51200 52.65100 30.78000
H  19.51600 52.19400 32.71000
H  18.46900 50.87000 32.96100
H  10.56400 53.17700 26.76500
H  11.62700 54.53800 27.36300
H  11.35300 52.98300 28.23400
H  10.41600 54.86300 23.42500
H  10.99200 55.18400 25.08700
H  10.15300 53.61800 24.81900
H  16.47200 52.57100 21.29000
H  18.22200 50.05400 21.55900
H  15.28400 51.23500 19.98600
H  14.87200 50.19000 21.41800
H  16.34000 49.84800 20.54400
H  19.74200 52.04400 22.28600
H  18.71600 53.05400 21.45500
H  19.80800 52.69300 19.61600
H  19.33800 50.87100 19.72200
H  20.78300 51.34700 20.42700
H  22.83900 49.25600 26.12700
H  22.16700 49.00800 24.57000
H  21.89900 47.73900 25.65200
H  20.32600 50.84600 30.48800
H  19.14700 48.29300 33.59700
H  20.93700 48.13900 33.68800
H  19.88500 47.08900 32.52800

