79

Mg -5.66900 26.30400 25.81000
C  -4.14700 27.38500 28.53200
C  -7.09600 23.72100 27.62200
C  -6.67000 24.72700 22.87600
C  -3.73400 28.40100 23.79400
N  -5.48400 25.46500 27.86300
C  -4.91700 26.26600 28.81900
C  -5.35000 25.81800 30.24700
C  -6.09100 24.47300 29.92000
C  -6.23700 24.49700 28.37500
C  -5.41800 23.15300 30.43100
C  -6.16500 26.92300 31.02500
C  -6.18700 26.94400 32.61600
H  -6.08700 25.59200 33.36100
N  -6.83700 24.54400 25.34900
C  -7.42100 23.71500 26.29600
C  -8.34900 22.81200 25.62900
C  -8.20500 23.03000 24.21900
C  -7.15700 24.13600 24.10900
C  -9.19500 21.61100 26.29600
C  -8.81400 22.37600 23.15000
O  -8.53600 22.57400 21.97400
C  -9.96700 21.39200 23.37700
N  -5.24000 26.47700 23.64500
C  -5.90600 25.84400 22.66800
C  -5.51700 26.40900 21.25600
C  -4.77000 27.70900 21.57600
C  -4.57000 27.51500 23.11100
C  -4.80600 25.33900 20.39400
C  -5.61000 28.90900 21.42100
C  -4.85600 30.12200 20.77400
N  -4.33400 27.66100 26.08200
C  -3.71900 28.56100 25.21300
C  -3.03000 29.52400 25.99800
C  -3.09700 29.11300 27.33000
C  -3.94400 27.99100 27.30900
C  -2.17800 30.65900 25.52600
C  -2.64800 29.35700 28.64300
O  -1.85700 30.17900 29.06200
C  -3.34100 28.23900 29.50300
C  -2.32500 27.48900 30.16200
O  -1.62000 26.64800 29.70500
O  -2.42000 27.84300 31.52300
C  -1.84100 27.01100 32.48200
H  -7.68000 22.93700 28.10900
H  -7.10400 24.35400 21.94600
H  -3.24400 29.15500 23.17400
H  -4.50300 25.44200 30.82200
H  -7.05800 24.49700 30.42300
H  -6.09900 22.75700 31.18300
H  -4.41500 23.19100 30.85600
H  -5.32600 22.47100 29.58600
H  -7.16300 26.81300 30.60000
H  -5.82300 27.90700 30.70300
H  -7.18200 27.28400 32.90400
H  -5.41500 27.54800 33.09300
H  -8.93500 20.67900 25.79500
H  -10.25500 21.86200 26.28800
H  -8.97200 21.46100 27.35200
H  -9.64600 20.43200 23.78000
H  -10.44300 21.23800 22.40900
H  -10.67700 21.85000 24.06500
H  -6.43700 26.61300 20.70900
H  -3.76400 27.70800 21.15700
H  -4.61100 24.46500 21.01500
H  -3.84600 25.73900 20.06700
H  -5.33900 25.08200 19.47900
H  -6.16700 29.24200 22.29700
H  -6.46400 28.78800 20.75400
H  -4.69300 30.85700 21.56300
H  -5.30700 30.60600 19.90800
H  -3.83400 29.85100 20.50800
H  -2.23200 31.45700 26.26700
H  -2.53600 30.86600 24.51800
H  -1.16400 30.28900 25.37400
H  -3.96200 28.81900 30.18600
H  -0.76000 27.00200 32.62600
H  -2.20500 25.98700 32.39800
H  -2.28600 27.38000 33.40600

