79

Mg -2.42900 17.35700 27.07700
C  -3.11600 15.24000 29.72900
C  -3.09200 20.12800 29.22000
C  -2.19000 19.43400 24.47300
C  -2.50900 14.64900 24.81500
N  -2.93100 17.55500 29.20800
C  -3.03400 16.55200 30.15000
C  -3.36000 17.06300 31.56100
C  -3.36600 18.58700 31.32100
C  -3.09400 18.82500 29.83600
C  -4.76700 19.22500 31.79800
C  -2.51100 16.59500 32.72200
C  -2.29100 17.50800 33.94800
H  -1.66700 16.83600 35.19300
N  -2.53800 19.47500 26.89000
C  -2.84400 20.44200 27.88200
C  -2.66100 21.73200 27.32300
C  -2.29900 21.56500 25.94300
C  -2.35300 20.09700 25.69700
C  -3.00000 23.05300 28.04200
C  -2.09100 22.66000 24.85700
O  -1.81800 22.39900 23.71200
C  -2.09900 24.02400 25.24900
N  -2.59700 17.06000 24.90000
C  -2.27100 18.11800 24.11100
C  -1.98600 17.61000 22.62400
C  -1.97800 16.09400 22.84900
C  -2.31500 15.90800 24.27800
C  -3.05000 18.07500 21.64500
C  -0.73300 15.34000 22.40400
C  0.48600 15.30800 23.30900
N  -2.72500 15.32500 27.18100
C  -2.67700 14.32500 26.19700
C  -2.81400 13.04400 26.84300
C  -3.02000 13.41800 28.19700
C  -2.96200 14.73800 28.34200
C  -2.64600 11.68800 26.38100
C  -3.22000 12.77600 29.39600
O  -3.28100 11.58900 29.60700
C  -3.34300 13.92900 30.48300
C  -2.38600 13.68700 31.58700
O  -1.21300 14.03100 31.49100
O  -3.10300 13.15500 32.58000
C  -2.32200 12.87400 33.84200
H  -3.12800 20.99100 29.88900
H  -1.94000 20.00200 23.57400
H  -2.48300 13.81800 24.10700
H  -4.33000 16.70600 31.90500
H  -2.50700 18.99100 31.85800
H  -4.86100 19.14800 32.88200
H  -5.64900 18.76800 31.35100
H  -4.82100 20.26500 31.47800
H  -1.56400 16.21200 32.34100
H  -3.06200 15.76700 33.16600
H  -3.26000 17.86800 34.29400
H  -1.70200 18.40300 33.74900
H  -3.57800 22.90500 28.95400
H  -3.59400 23.61700 27.32300
H  -2.11200 23.66100 28.21500
H  -1.47800 24.14800 26.13600
H  -3.10900 24.38400 25.44000
H  -1.63200 24.63300 24.47500
H  -1.00300 17.95800 22.30600
H  -2.79300 15.56000 22.36000
H  -3.71100 17.21700 21.52100
H  -2.67000 18.56700 20.75000
H  -3.55000 18.88900 22.16900
H  -0.35300 15.80900 21.49600
H  -0.98400 14.30600 22.17000
H  0.37100 15.66800 24.33100
H  1.33300 15.82000 22.85200
H  0.82200 14.30200 23.56100
H  -1.88200 11.09200 26.88000
H  -2.36900 11.74400 25.32800
H  -3.63700 11.24600 26.48200
H  -4.35100 14.05300 30.87900
H  -2.22500 13.89700 34.20600
H  -1.32300 12.52700 33.57400
H  -2.75500 12.12100 34.50000

