79

Mg 35.88400 48.93900 24.54500
C  36.32700 47.08200 27.56400
C  34.47500 51.46700 26.38300
C  35.31100 50.58000 21.64200
C  37.09000 46.08600 22.68100
N  35.31700 49.18500 26.69400
C  35.72200 48.38900 27.74800
C  35.35300 49.06000 29.12800
C  34.62500 50.38500 28.63000
C  34.85700 50.40600 27.14900
C  33.12100 50.50100 29.07800
C  36.61700 49.37400 30.06000
C  36.20700 49.05900 31.52200
H  35.01500 49.85800 32.20000
N  35.10500 50.71400 24.07300
C  34.49200 51.57900 24.98900
C  34.15700 52.82000 24.30400
C  34.40900 52.64500 22.92200
C  34.95200 51.31600 22.83600
C  33.74500 54.10900 25.00000
C  34.22700 53.66500 21.72200
O  34.50500 53.35300 20.53100
C  33.96200 55.13300 22.00800
N  36.13300 48.41300 22.47500
C  35.85100 49.30200 21.46600
C  35.83900 48.56700 20.11300
C  36.78600 47.31900 20.47600
C  36.64000 47.21000 21.99800
C  34.37700 48.26300 19.61100
C  38.24800 47.51000 20.26900
C  38.92500 46.59200 19.24300
N  36.41200 46.94700 24.94600
C  37.03900 45.94400 24.13000
C  37.48900 44.79300 24.94500
C  37.21200 45.25300 26.25200
C  36.63400 46.58200 26.23400
C  38.18600 43.48100 24.56600
C  37.32100 44.78000 27.58800
O  37.83200 43.72200 28.05700
C  36.78200 45.98800 28.47400
C  35.65100 45.52400 29.31200
O  34.62700 45.13600 28.86800
O  35.99100 45.46800 30.61700
C  35.03000 44.84300 31.56100
H  34.08900 52.27100 27.01300
H  35.14900 51.13300 20.71400
H  37.51700 45.19900 22.20800
H  34.67200 48.38500 29.64800
H  35.18400 51.26100 28.95900
H  32.99200 50.18700 30.11300
H  32.57800 49.94000 28.31800
H  32.87600 51.56300 29.05500
H  36.98100 50.38900 29.90000
H  37.44500 48.72000 29.78500
H  37.17100 49.09100 32.03100
H  35.78800 48.05400 31.48100
H  33.36000 53.82300 25.97900
H  32.97900 54.74900 24.56400
H  34.64800 54.69300 25.17900
H  32.92300 55.29000 22.29800
H  34.22100 55.71900 21.12600
H  34.57500 55.31700 22.89100
H  36.30200 49.21600 19.37000
H  36.28400 46.40600 20.15500
H  33.63700 48.54300 20.36000
H  34.32700 47.23000 19.26600
H  34.26400 48.79900 18.66900
H  38.84000 47.37200 21.17400
H  38.36100 48.52300 19.88200
H  38.18500 46.03300 18.66900
H  39.58100 45.85800 19.71000
H  39.41700 47.27300 18.54800
H  39.20100 43.60900 24.18800
H  37.59400 43.04100 23.76400
H  38.16900 42.83000 25.43900
H  37.56100 46.40300 29.11300
H  35.72400 44.32900 32.22500
H  34.46100 44.09600 31.00600
H  34.36500 45.59300 31.98800

