79

Mg 48.81000 34.43800 26.44000
C  46.74700 33.24500 29.04900
C  49.10700 37.43800 28.03400
C  50.00700 35.81700 23.48800
C  47.70000 31.74100 24.48400
N  47.96800 35.21800 28.25800
C  47.28700 34.53700 29.27600
C  47.21700 35.42000 30.59500
C  47.64100 36.83000 30.08100
C  48.30400 36.46900 28.70400
C  46.50600 37.91900 30.00000
C  48.20400 34.88800 31.67200
C  47.53900 34.57300 33.09200
H  46.69800 35.71300 33.70700
N  49.62200 36.28800 25.89300
C  49.76900 37.30900 26.74500
C  50.62900 38.27200 26.07000
C  50.83900 37.81700 24.70700
C  50.12000 36.59300 24.61200
C  50.94200 39.51100 26.75600
C  51.63500 38.52900 23.51200
O  51.57800 38.12200 22.36900
C  52.39400 39.89700 23.62600
N  48.87500 33.83800 24.23200
C  49.38200 34.60800 23.25600
C  49.57100 33.77900 21.86700
C  48.65700 32.58000 22.20900
C  48.42500 32.65500 23.75600
C  49.07700 34.74800 20.71000
C  49.13900 31.20800 21.73000
C  48.94900 31.17200 20.19500
N  47.64300 32.70900 26.74400
C  47.20000 31.72700 25.83100
C  46.39900 30.76600 26.59200
C  46.11100 31.33900 27.82500
C  46.90200 32.52700 27.89000
C  45.83500 29.57400 25.91100
C  45.34300 31.20500 29.12100
O  44.62700 30.31900 29.56000
C  45.68100 32.46200 29.86900
C  46.22000 31.97200 31.10400
O  47.40900 31.65100 31.23500
O  45.26900 31.85800 32.17500
C  45.65000 31.20000 33.43300
H  49.24500 38.36700 28.59100
H  50.45400 36.17300 22.55800
H  47.40100 31.01800 23.72200
H  46.18200 35.28300 30.91000
H  48.30200 37.41300 30.72300
H  46.39200 38.23600 31.03700
H  45.59600 37.49200 29.57800
H  46.90700 38.76100 29.43600
H  48.93200 35.68800 31.80500
H  48.77300 33.99600 31.41200
H  48.28200 34.03300 33.68000
H  46.88800 33.71300 32.93200
H  50.11500 40.20500 26.60600
H  51.84000 39.98900 26.36600
H  51.16200 39.23400 27.78700
H  52.58200 40.36000 22.65700
H  53.27200 39.76300 24.25800
H  51.72400 40.50700 24.23300
H  50.63900 33.57600 21.78100
H  47.69700 32.86500 21.77800
H  48.06200 34.61300 20.33700
H  49.69700 34.68100 19.81600
H  49.11900 35.78500 21.04400
H  48.53200 30.37800 22.09100
H  50.15500 31.11300 22.11100
H  48.66700 32.13700 19.77200
H  48.21200 30.39700 19.98800
H  49.87000 30.82500 19.72500
H  45.20000 29.03000 26.60900
H  46.60800 28.95400 25.45600
H  45.18600 29.91800 25.10600
H  44.76300 33.01900 30.05600
H  44.90000 31.31300 34.21600
H  46.63400 31.44000 33.83500
H  45.73000 30.14200 33.18300

