79

Mg 0.54800 7.53000 25.26700
C  0.99600 9.40600 28.21000
C  1.19100 4.75600 27.21500
C  0.38300 5.74400 22.54300
C  0.74300 10.53100 23.43100
N  1.02600 7.15100 27.54200
C  0.96200 8.05500 28.52300
C  1.03800 7.36000 29.91300
C  1.29600 5.87700 29.55300
C  1.17000 5.93100 28.02300
C  2.63700 5.22500 30.05500
C  -0.24700 7.69200 30.71000
C  -0.14800 7.55100 32.25200
H  1.17700 7.01000 32.82700
N  0.37600 5.49700 24.96500
C  0.79500 4.57700 25.85100
C  0.51200 3.31900 25.17700
C  0.26600 3.59200 23.77500
C  0.37900 4.99400 23.69400
C  0.60300 1.97400 25.90400
C  -0.11900 2.62600 22.58500
O  -0.23500 2.96500 21.44300
C  -0.53700 1.20300 22.99300
N  0.72500 8.07200 23.22900
C  0.40700 7.14200 22.38400
C  0.32800 7.76300 20.98900
C  -0.01900 9.27000 21.38500
C  0.46200 9.32500 22.77800
C  1.49400 7.63900 20.03600
C  -1.47800 9.65300 21.26900
C  -1.82700 11.10000 20.70600
N  0.87800 9.61200 25.72000
C  0.98900 10.66400 24.85600
C  1.33800 11.87300 25.62600
C  1.40100 11.38500 26.95500
C  1.04300 10.05000 26.93600
C  1.35500 13.26100 25.07900
C  1.59600 11.83000 28.29800
O  1.93600 12.90700 28.72900
C  1.21400 10.59000 29.21900
C  2.44900 10.44200 30.16100
O  3.51700 9.85400 29.78800
O  2.24100 11.08300 31.32600
C  3.46800 11.03400 32.14300
H  1.45100 3.86100 27.78500
H  0.18000 5.26300 21.58400
H  0.81100 11.42000 22.80100
H  1.88900 7.85500 30.38200
H  0.52600 5.19400 29.91000
H  3.24900 5.99300 30.52700
H  3.21800 4.83900 29.21700
H  2.40500 4.32400 30.62400
H  -0.97300 6.96100 30.35600
H  -0.62400 8.67500 30.42500
H  -0.89200 6.83000 32.59200
H  -0.30000 8.47200 32.81300
H  1.09100 2.01900 26.87700
H  1.04800 1.20300 25.27500
H  -0.41900 1.65600 26.10900
H  0.34800 0.60400 23.20600
H  -0.95400 0.80300 22.06900
H  -1.28800 1.30500 23.77600
H  -0.51800 7.30000 20.48100
H  0.52500 9.86900 20.65400
H  2.26000 7.12900 20.62000
H  2.02700 8.56900 19.83900
H  1.18300 7.16000 19.10800
H  -2.03200 9.59100 22.20500
H  -1.98200 8.92100 20.63800
H  -2.17500 10.96200 19.68200
H  -0.95000 11.73500 20.83200
H  -2.66000 11.42200 21.33000
H  0.56000 13.26300 24.33300
H  2.31900 13.43000 24.59900
H  1.33900 13.92500 25.94300
H  0.29600 10.82100 29.76000
H  3.38000 11.73400 32.97300
H  4.36000 11.25600 31.55800
H  3.49400 10.02700 32.55900

