79

Mg 36.53000 49.66000 25.51200
C  36.73700 47.86000 28.37800
C  35.60000 52.48000 27.38100
C  36.12900 51.37000 22.61900
C  37.76800 46.97900 23.69400
N  36.08400 50.13100 27.66600
C  36.37600 49.18000 28.70500
C  36.59200 49.86800 30.01800
C  36.10100 51.31700 29.68600
C  35.80400 51.35700 28.19500
C  34.75300 51.68200 30.51300
C  38.08300 49.77400 30.50800
C  38.36300 49.70600 32.00600
H  37.17700 49.55300 32.96700
N  35.92600 51.69000 25.06700
C  35.61300 52.63900 25.99600
C  35.18500 53.85900 25.26800
C  35.31300 53.62400 23.89600
C  35.73800 52.17700 23.80800
C  34.80100 55.15600 25.97800
C  35.07400 54.49500 22.73000
O  35.31000 54.12100 21.55200
C  34.77300 55.93300 22.85800
N  36.78600 49.19300 23.42500
C  36.58100 50.05500 22.42900
C  36.90800 49.44800 21.06800
C  37.67800 48.26000 21.46600
C  37.39400 48.12100 22.93700
C  35.64800 49.15700 20.23000
C  39.16500 48.29800 21.10100
C  40.15800 47.09100 21.35700
N  36.99000 47.69800 25.87200
C  37.43100 46.75600 25.05300
C  37.65300 45.53500 25.81800
C  37.48000 45.88800 27.19400
C  36.99400 47.25400 27.13300
C  37.97800 44.30900 25.18900
C  37.48300 45.46000 28.61000
O  37.64400 44.39100 29.17200
C  37.00700 46.71900 29.40600
C  35.79900 46.37300 30.22900
O  34.63200 46.63500 29.92700
O  36.17000 45.73400 31.33800
C  35.19400 45.39900 32.38000
H  35.44400 53.42200 27.91200
H  36.04400 51.80300 21.62100
H  38.20700 46.19800 23.06900
H  35.86200 49.38500 30.66800
H  36.83000 52.03800 30.05800
H  34.50000 50.96600 31.29400
H  33.94300 51.83400 29.80000
H  34.76100 52.57300 31.14000
H  38.58100 50.64300 30.07800
H  38.52100 48.94100 29.95700
H  39.03900 50.48000 32.36700
H  38.88800 48.78600 32.26300
H  35.51600 55.94300 25.74100
H  34.76300 55.08700 27.06500
H  33.83200 55.54300 25.66100
H  34.59800 56.37700 21.87800
H  35.64100 56.42200 23.30000
H  33.89600 56.04100 23.49600
H  37.46400 50.15300 20.44900
H  37.25100 47.30400 21.16300
H  34.85100 48.63800 20.76400
H  35.90900 48.61300 19.32200
H  35.30200 50.14400 19.92200
H  39.42100 49.18600 21.67900
H  39.27000 48.67200 20.08300
H  40.84800 47.00500 20.51800
H  39.58600 46.16400 21.41200
H  40.73400 47.27600 22.26400
H  37.61400 44.28200 24.16200
H  37.36000 43.52900 25.63200
H  39.06400 44.25500 25.10900
H  37.70600 47.01300 30.18900
H  35.66300 45.68000 33.32300
H  34.86000 44.36200 32.40900
H  34.26000 45.95100 32.26700

