79

Mg -1.87900 34.65100 27.41700
C  -3.81300 33.00100 29.76200
C  -0.51900 36.53900 29.57500
C  -0.50100 36.45400 24.81500
C  -3.48200 32.74300 24.80100
N  -2.14900 34.62600 29.43600
C  -3.02500 34.00900 30.26000
C  -2.89400 34.39100 31.69500
C  -2.00800 35.70700 31.58000
C  -1.52000 35.62700 30.09700
C  -2.76400 37.02100 31.93000
C  -2.31100 33.23500 32.62200
C  -3.03800 32.76000 33.84500
H  -2.27300 32.62900 35.12300
N  -0.61600 36.25800 27.23900
C  -0.05600 36.82500 28.33200
C  0.97300 37.77000 27.92800
C  0.94100 37.81900 26.49700
C  -0.05800 36.77700 26.09500
C  1.82000 38.60900 28.91500
C  1.75900 38.64200 25.54100
O  1.38200 38.87200 24.43700
C  2.85100 39.52400 25.96900
N  -2.05400 34.72900 25.14100
C  -1.42600 35.60200 24.36200
C  -1.88800 35.44800 22.86600
C  -2.57600 33.96600 22.80500
C  -2.70100 33.80400 24.36600
C  -2.78200 36.67700 22.52000
C  -1.95800 32.92200 22.01500
C  -1.00400 33.26900 20.87000
N  -3.26200 33.12100 27.22800
C  -3.73600 32.39200 26.14900
C  -4.69500 31.37600 26.57200
C  -4.69100 31.51700 27.93700
C  -3.84000 32.61000 28.38000
C  -5.62900 30.50000 25.81100
C  -5.40100 31.12400 29.17600
O  -6.29900 30.29000 29.32400
C  -4.69600 32.02300 30.41500
C  -5.75300 32.60200 31.30500
O  -6.45700 33.59400 31.07600
O  -5.89400 31.83500 32.50400
C  -6.89400 32.35200 33.48500
H  0.01400 37.00700 30.40400
H  -0.03300 37.06800 24.04300
H  -4.08900 32.30400 24.00700
H  -3.89600 34.54100 32.09900
H  -1.15500 35.71600 32.25800
H  -3.22200 36.95200 32.91700
H  -3.51600 37.19500 31.16000
H  -1.99000 37.78700 31.96600
H  -1.28700 33.51400 32.87000
H  -2.14400 32.29500 32.09500
H  -3.68500 31.89200 33.71500
H  -3.85300 33.47900 33.92600
H  1.59400 38.46700 29.97200
H  1.61800 39.63100 28.59400
H  2.88500 38.44000 28.75900
H  3.36700 39.08000 26.82000
H  2.25700 40.34100 26.37700
H  3.53400 39.83800 25.17900
H  -0.97500 35.50000 22.27300
H  -3.60500 34.06600 22.46100
H  -3.12000 37.25000 23.38300
H  -3.74900 36.39400 22.10200
H  -2.25900 37.39000 21.88300
H  -2.78600 32.38100 21.55700
H  -1.42800 32.19900 22.63300
H  -1.16300 32.58000 20.04000
H  0.03600 33.06800 21.12800
H  -1.10700 34.27000 20.45200
H  -5.64100 29.48700 26.21200
H  -5.31600 30.48500 24.76700
H  -6.63100 30.92900 25.84000
H  -4.09300 31.35000 31.02400
H  -7.39500 31.42500 33.76600
H  -7.61900 33.05100 33.06800
H  -6.36900 32.79600 34.33100

