79

Mg 9.15600 46.85400 25.64900
C  6.82300 47.04500 28.25100
C  11.61400 47.88900 27.69500
C  11.34200 47.25500 22.91600
C  6.52000 46.60300 23.42800
N  9.11000 47.57400 27.70300
C  8.14100 47.34800 28.62900
C  8.60500 47.68100 30.06600
C  10.09400 48.22100 29.78100
C  10.36800 47.87100 28.25300
C  10.37800 49.73300 30.05500
C  8.50100 46.42500 31.02300
C  9.55100 46.29200 32.25700
H  8.96000 45.88900 33.59100
N  11.23700 47.25700 25.38800
C  12.12800 47.57500 26.38200
C  13.49000 47.76700 25.85300
C  13.42500 47.47500 24.45400
C  11.97700 47.33400 24.20600
C  14.64000 48.12900 26.77700
C  14.50000 47.34700 23.43900
O  14.25100 46.94200 22.28800
C  15.92100 47.56000 23.81800
N  8.91500 46.97800 23.48200
C  9.95200 47.11400 22.58100
C  9.47900 47.04000 21.16200
C  7.94700 46.77600 21.35500
C  7.77300 46.76300 22.83200
C  9.99800 48.09000 20.21400
C  7.39700 45.49400 20.65900
C  6.20600 45.78500 19.72700
N  7.03700 46.77600 25.75900
C  6.15700 46.61200 24.77300
C  4.84100 46.61600 25.38100
C  5.06900 46.71800 26.74600
C  6.42300 46.88300 26.92300
C  3.50300 46.46600 24.72700
C  4.39500 46.74100 28.00200
O  3.20900 46.57500 28.23400
C  5.52600 47.01700 29.13400
C  5.50000 45.75800 30.05000
O  5.94000 44.64400 29.68500
O  4.91000 46.05700 31.24600
C  4.98900 45.05100 32.36500
H  12.33900 48.23100 28.43700
H  11.96200 47.44000 22.03700
H  5.76200 46.28300 22.70900
H  7.95200 48.40800 30.54900
H  10.79200 47.61500 30.35800
H  11.21500 49.68900 30.75100
H  9.47400 50.06800 30.56500
H  10.67100 50.49600 29.33400
H  8.55700 45.47500 30.49200
H  7.46900 46.46800 31.37300
H  10.09200 47.22000 32.44300
H  10.29600 45.55800 31.95000
H  15.28300 48.90400 26.35900
H  15.30700 47.27400 26.88200
H  14.27700 48.31000 27.78900
H  16.55500 47.27000 22.98000
H  16.11300 47.11400 24.79400
H  15.99100 48.63100 24.00900
H  9.93100 46.11600 20.80400
H  7.50600 47.73100 21.06600
H  11.02000 48.38500 20.45400
H  9.54000 49.04900 20.45600
H  9.92500 47.86600 19.15000
H  7.01300 44.85000 21.45000
H  8.17900 44.90100 20.18500
H  5.32200 45.60200 20.33900
H  6.26600 45.18200 18.82100
H  6.24000 46.86800 19.61000
H  3.11200 45.51500 25.09000
H  3.60900 46.67600 23.66300
H  2.71000 47.11400 25.09800
H  5.44800 47.92700 29.72800
H  5.97900 44.63000 32.54400
H  4.18400 44.31800 32.30900
H  4.93900 45.55800 33.32800

