79

Mg 47.40000 25.75500 29.18800
C  48.24100 28.04600 31.67500
C  46.12000 23.77000 31.67400
C  46.85300 23.48100 26.85500
C  49.06300 27.65300 26.78500
N  47.01800 26.09200 31.40100
C  47.45400 27.08400 32.21400
C  47.13300 26.92100 33.69900
C  46.81500 25.35900 33.67500
C  46.57900 25.07700 32.16100
C  47.67400 24.40300 34.52800
C  45.91600 27.77300 34.25000
C  46.21400 28.50400 35.47700
H  45.35300 28.19100 36.76300
N  46.49200 23.91600 29.22600
C  46.05900 23.32300 30.31100
C  45.47200 22.06700 29.91900
C  45.58000 21.96600 28.50800
C  46.33100 23.12900 28.12800
C  44.80700 21.16200 30.92700
C  45.08000 20.94200 27.53200
O  45.24900 20.95100 26.30200
C  44.34700 19.85800 28.13500
N  47.98100 25.54500 27.12800
C  47.63400 24.48700 26.43300
C  48.08700 24.53800 25.00100
C  48.41800 26.04400 24.85500
C  48.47800 26.45500 26.33000
C  49.21000 23.51500 24.63200
C  47.26100 26.82500 24.14700
C  47.72300 28.33800 23.88200
N  48.60200 27.45400 29.22000
C  49.24300 28.07500 28.20000
C  49.81800 29.29200 28.69900
C  49.47000 29.32200 30.06400
C  48.71000 28.16000 30.32600
C  50.56000 30.27300 27.89900
C  49.65600 30.01300 31.30700
O  50.20300 31.05700 31.45200
C  48.79700 29.25700 32.35400
C  49.61600 29.05600 33.58000
O  50.31800 28.07800 33.74800
O  49.47500 30.10300 34.46200
C  50.09400 29.93300 35.75300
H  45.95500 22.98100 32.41000
H  46.53000 22.89900 25.98900
H  49.37800 28.27600 25.94500
H  47.96700 27.02500 34.39300
H  45.84500 25.16700 34.13200
H  48.05400 23.63100 33.85800
H  47.04600 23.84800 35.22600
H  48.41200 24.89500 35.16200
H  45.06000 27.15600 34.52300
H  45.51600 28.47200 33.51500
H  46.07800 29.51400 35.09100
H  47.26400 28.38800 35.74700
H  43.89300 20.74600 30.50400
H  44.51400 21.49300 31.92300
H  45.36000 20.22600 31.01200
H  44.98200 19.55300 28.96700
H  44.19900 19.08000 27.38600
H  43.36500 20.20000 28.46300
H  47.30100 24.44100 24.25200
H  49.43200 26.20800 24.49000
H  49.22600 22.96900 25.57600
H  50.20200 23.94800 24.51000
H  48.98000 22.86900 23.78500
H  46.45200 26.88600 24.87600
H  46.89800 26.49000 23.17500
H  47.37700 28.86200 24.77300
H  47.15400 28.84800 23.10500
H  48.78100 28.31500 23.62100
H  51.43200 29.75400 27.50000
H  50.89800 31.03300 28.60300
H  49.95300 30.64000 27.07200
H  47.94700 29.91700 32.53100
H  51.16600 29.90000 35.55800
H  49.90000 28.99300 36.27000
H  50.02300 30.82500 36.37500

