79

Mg 17.61800 -1.91300 27.09200
C  16.64600 0.11900 29.73500
C  19.30200 -3.83900 29.28500
C  18.67700 -3.62500 24.50800
C  16.01300 0.30000 24.85900
N  18.27900 -1.52500 29.30700
C  17.42200 -0.95100 30.18000
C  17.85600 -1.32400 31.68100
C  18.95700 -2.40400 31.45000
C  18.92800 -2.58300 29.91900
C  20.45500 -2.13200 31.95200
C  16.62900 -1.57400 32.58200
C  16.46300 -0.70500 33.80300
H  17.77300 -0.49500 34.55000
N  18.78900 -3.55800 26.94500
C  19.36600 -4.27500 27.93900
C  19.97800 -5.46500 27.46000
C  19.76300 -5.47800 26.07500
C  19.09400 -4.16500 25.77300
C  20.64900 -6.49800 28.33400
C  19.98000 -6.55500 25.01100
O  19.45400 -6.55800 23.90800
C  20.72800 -7.80700 25.21100
N  17.36400 -1.67800 24.96400
C  17.92000 -2.53300 24.11800
C  17.79300 -2.06900 22.58300
C  16.73600 -0.88200 22.76800
C  16.67100 -0.75600 24.26800
C  19.18700 -1.71900 22.03500
C  15.30900 -0.83700 22.10100
C  15.18800 0.25600 21.05900
N  16.54100 -0.11200 27.21800
C  15.95400 0.66500 26.22600
C  15.15400 1.67500 26.82400
C  15.41200 1.54200 28.21400
C  16.32900 0.49400 28.37600
C  14.17700 2.67500 26.12800
C  15.07500 2.04000 29.45300
O  14.44800 3.02700 29.76600
C  15.94100 1.17400 30.55600
C  16.83900 2.00900 31.45400
O  17.99200 2.29900 31.16400
O  16.14400 2.51500 32.57100
C  17.06800 3.23100 33.45500
H  19.76200 -4.63100 29.87900
H  19.02000 -4.19200 23.64100
H  15.62600 0.97200 24.09000
H  18.35900 -0.46600 32.12600
H  18.65400 -3.29900 31.99300
H  20.48100 -1.14400 32.41100
H  21.18700 -2.06600 31.14700
H  20.78200 -2.87000 32.68500
H  16.70900 -2.60100 32.93800
H  15.74600 -1.43700 31.95600
H  15.72300 -1.18200 34.44500
H  16.04100 0.29000 33.66100
H  21.19500 -7.23200 27.74100
H  19.85800 -6.99100 28.89800
H  21.32400 -6.12700 29.10500
H  21.64700 -7.65600 25.77800
H  21.08400 -8.16100 24.24400
H  20.05800 -8.46200 25.76800
H  17.36400 -2.91100 22.03900
H  17.27100 0.03500 22.52000
H  19.23300 -0.69300 21.67000
H  19.43500 -2.29500 21.14300
H  20.00000 -1.86800 22.74600
H  14.51400 -0.57100 22.79700
H  15.11200 -1.79200 21.61300
H  16.09400 0.83500 20.87300
H  14.35300 0.94000 21.21200
H  15.07300 -0.24700 20.09800
H  14.61000 3.04100 25.19700
H  13.73400 3.40900 26.80100
H  13.34000 2.04500 25.82600
H  15.18400 0.67300 31.15900
H  17.65600 3.95000 32.88500
H  17.85000 2.56900 33.82800
H  16.60000 3.70600 34.31700

