79

Mg -3.08000 34.90400 27.04400
C  -4.89200 33.19900 29.56500
C  -2.19000 37.28300 29.35300
C  -1.61000 36.66900 24.55500
C  -4.25500 32.64200 24.71600
N  -3.74800 35.30300 29.18900
C  -4.29300 34.40700 30.05000
C  -4.10200 34.79400 31.49200
C  -3.32200 36.14400 31.42100
C  -3.04800 36.23600 29.92800
C  -4.04200 37.46900 31.88900
C  -3.46900 33.68900 32.40600
C  -3.84600 33.56800 33.90700
H  -2.76100 33.40500 34.95900
N  -1.95100 36.64400 26.99000
C  -1.74300 37.50000 28.03100
C  -1.07500 38.60700 27.54000
C  -0.83300 38.47900 26.15000
C  -1.44600 37.23600 25.85100
C  -0.66000 39.70400 28.45100
C  -0.15100 39.31900 25.14400
O  -0.18400 39.05500 23.97200
C  0.55400 40.56900 25.56700
N  -2.77600 34.62200 24.96000
C  -2.19200 35.48900 24.13800
C  -2.07600 34.92800 22.67400
C  -2.94800 33.68300 22.74000
C  -3.36400 33.60800 24.23300
C  -2.47800 35.95600 21.51200
C  -2.28300 32.39300 22.24000
C  -3.07700 31.60100 21.26000
N  -4.31100 33.26400 27.05700
C  -4.73000 32.49100 26.01600
C  -5.63500 31.49900 26.53100
C  -5.65100 31.68900 27.94100
C  -4.90900 32.83200 28.21900
C  -6.29100 30.45800 25.74900
C  -6.24200 31.23500 29.12700
O  -7.09800 30.36000 29.29400
C  -5.65500 32.10700 30.33100
C  -6.91900 32.64600 31.02500
O  -7.69700 33.54600 30.72000
O  -7.03100 31.85200 32.13000
C  -7.74300 32.47800 33.26200
H  -1.94000 37.99400 30.14300
H  -1.21600 37.22500 23.70200
H  -4.59400 31.87300 24.01900
H  -5.09800 35.03400 31.86400
H  -2.37800 36.10900 31.96400
H  -4.24400 38.16700 31.07700
H  -3.48700 38.04600 32.62900
H  -5.00200 37.24000 32.35300
H  -2.38700 33.82300 32.39200
H  -3.60300 32.67900 32.01900
H  -4.55500 32.74000 33.88600
H  -4.35700 34.50500 34.12800
H  -0.88800 40.62400 27.91200
H  0.41200 39.64900 28.63700
H  -1.37700 39.76100 29.27000
H  -0.22300 41.32700 25.46900
H  1.35300 40.75600 24.85000
H  1.08100 40.63400 26.51900
H  -1.01100 34.75400 22.52300
H  -3.80900 33.82500 22.08700
H  -2.75500 36.91600 21.95000
H  -3.36800 35.57500 21.01200
H  -1.65600 36.09500 20.81000
H  -2.21600 31.77600 23.13600
H  -1.36300 32.46500 21.65900
H  -2.53800 30.69100 20.99800
H  -3.25700 32.20500 20.37000
H  -4.06300 31.23800 21.55200
H  -6.86900 29.82800 26.42500
H  -5.69300 29.77700 25.14200
H  -7.03800 30.97500 25.14700
H  -5.02800 31.52800 31.00800
H  -8.80600 32.62500 33.07300
H  -7.23400 33.31300 33.74200
H  -7.65000 31.70400 34.02500

