79

Mg -12.20900 40.01600 41.98200
C  -10.81000 36.90200 41.20000
C  -9.61000 41.56300 40.10300
C  -13.87800 42.97100 42.19800
C  -14.99900 38.37500 43.26600
N  -10.48600 39.25700 40.70000
C  -10.07800 37.95000 40.65600
C  -8.71800 37.89200 39.87600
C  -8.34200 39.34900 39.65200
C  -9.52300 40.11900 40.17700
C  -6.96400 39.75900 40.23300
C  -8.70400 36.92900 38.69900
C  -7.63900 35.82500 38.63900
H  -7.07800 35.33800 37.28300
N  -11.82500 42.04300 41.24700
C  -10.67900 42.38000 40.54800
C  -10.67400 43.82800 40.39800
C  -11.87100 44.30500 40.98500
C  -12.62400 43.11600 41.53600
C  -9.57800 44.65700 39.75400
C  -12.37100 45.66200 41.12200
O  -11.57800 46.61300 40.81600
C  -13.62400 46.01300 41.73800
N  -14.30300 40.53100 42.48300
C  -14.71000 41.82600 42.54100
C  -16.15300 41.93800 42.98500
C  -16.56500 40.39500 43.29200
C  -15.17600 39.70200 42.94500
C  -16.54600 42.92000 44.19200
C  -17.72800 39.81700 42.41100
C  -19.07900 39.69600 43.09500
N  -12.80700 38.07000 42.25600
C  -13.89400 37.57300 42.89200
C  -13.71300 36.09600 43.07900
C  -12.43900 35.81300 42.38600
C  -12.02700 37.00200 41.85900
C  -14.57500 35.18600 43.86700
C  -11.54700 34.74400 42.16200
O  -11.63300 33.60900 42.56800
C  -10.42700 35.39500 41.19300
C  -9.17700 35.04200 41.84700
O  -8.59800 33.95600 41.73100
O  -8.59300 36.08300 42.41600
C  -7.37900 35.90800 43.18700
H  -8.63000 41.87700 39.73700
H  -14.43600 43.82100 42.59600
H  -15.81800 37.84300 43.75500
H  -7.97000 37.47000 40.54700
H  -8.39800 39.66700 38.61100
H  -6.74900 38.99900 40.98400
H  -6.87800 40.69800 40.77900
H  -6.09800 39.73400 39.57100
H  -8.37500 37.41700 37.78200
H  -9.70000 36.51200 38.55200
H  -8.20400 34.98700 39.04700
H  -6.83100 35.91700 39.36500
H  -9.89700 45.06700 38.79500
H  -8.78800 43.97700 39.43500
H  -9.05100 45.39300 40.36100
H  -14.40400 45.62800 41.08100
H  -13.65300 47.10100 41.79200
H  -13.60200 45.71800 42.78700
H  -16.74600 42.18100 42.10300
H  -16.88500 40.23400 44.32200
H  -17.08000 43.80200 43.84100
H  -15.64400 43.16500 44.75300
H  -17.19300 42.41200 44.90700
H  -17.47000 38.80600 42.09800
H  -17.85000 40.38300 41.48800
H  -19.48200 38.68400 43.05700
H  -19.86400 40.17800 42.51300
H  -19.02700 40.12100 44.09700
H  -14.30600 34.15900 43.62300
H  -15.57100 35.28900 43.43600
H  -14.42800 35.48500 44.90500
H  -10.41800 34.87400 40.23600
H  -6.86400 36.86800 43.14700
H  -6.66300 35.23600 42.71400
H  -7.44900 35.67300 44.24900

