79

Mg 0.86000 7.79800 27.09400
C  1.26200 9.81300 29.84000
C  1.04400 4.97700 29.16100
C  0.90300 5.91900 24.29600
C  0.72200 10.64700 25.08000
N  1.09600 7.49800 29.26600
C  1.07900 8.47300 30.20200
C  1.15800 7.87700 31.64100
C  1.24600 6.35900 31.43600
C  1.08600 6.23500 29.87100
C  2.44900 5.54200 32.02800
C  -0.14000 8.33200 32.36800
C  -0.03600 8.38500 33.92800
H  1.12700 7.70900 34.67200
N  1.12000 5.70000 26.80300
C  1.12200 4.72300 27.73200
C  0.89600 3.43500 27.01000
C  0.94700 3.66600 25.56500
C  0.98100 5.18200 25.52400
C  0.79500 2.07600 27.73200
C  1.05600 2.72800 24.39400
O  1.16300 3.08400 23.22700
C  1.17000 1.30000 24.70100
N  0.88600 8.22000 24.98200
C  0.88200 7.26000 24.05000
C  0.67500 7.77100 22.62600
C  0.57900 9.27500 22.83900
C  0.72100 9.45800 24.42500
C  1.70800 7.20800 21.66200
C  -0.69000 9.87400 22.23200
C  -1.88800 9.83700 23.13300
N  0.94500 9.87200 27.34600
C  0.88200 10.94800 26.46500
C  1.23000 12.17000 27.08600
C  1.34100 11.80900 28.45600
C  1.28300 10.38300 28.53000
C  1.44800 13.50700 26.46600
C  1.65200 12.28000 29.79600
O  1.98900 13.40800 30.06600
C  1.58200 11.02300 30.75500
C  2.76800 10.98000 31.68400
O  3.89600 10.59300 31.39800
O  2.40900 11.36900 32.94800
C  3.32000 11.43500 34.06500
H  0.98700 4.05100 29.73700
H  0.77200 5.42100 23.33300
H  0.60100 11.55400 24.48400
H  2.11800 8.26500 31.98100
H  0.37900 5.85100 31.85900
H  3.15200 6.24600 32.47400
H  3.00000 4.98700 31.26900
H  2.09000 4.82400 32.76500
H  -1.00400 7.79300 31.98000
H  -0.34400 9.33900 32.00300
H  -0.99000 7.96000 34.24000
H  -0.11700 9.44100 34.18400
H  1.67800 1.44700 27.83600
H  -0.05400 1.50300 27.35700
H  0.60100 2.27100 28.78700
H  1.86000 1.14000 25.52900
H  1.45700 0.74800 23.80600
H  0.15800 0.94100 24.89300
H  -0.36100 7.55400 22.36400
H  1.38200 9.91500 22.47100
H  2.47400 7.93500 21.39100
H  1.15400 6.83800 20.80000
H  2.18700 6.31000 22.05200
H  -1.02000 9.40600 21.30400
H  -0.58100 10.94000 22.03200
H  -2.28600 10.82000 23.38600
H  -1.75400 9.20100 24.00900
H  -2.58700 9.38300 22.43100
H  2.27600 13.92700 27.03700
H  0.54300 14.11300 26.50700
H  1.76700 13.28800 25.44800
H  0.75100 11.38100 31.36300
H  4.31300 11.37200 33.62100
H  3.15500 10.63800 34.79000
H  3.27400 12.38600 34.59600

