79

Mg 0.32700 41.78700 25.16500
C  1.35200 41.98900 28.51300
C  -2.49800 40.17500 26.26300
C  -0.59900 41.46600 21.96100
C  3.56500 42.72300 24.13800
N  -0.48800 41.29600 27.16700
C  0.07500 41.47200 28.35300
C  -0.80800 41.03600 29.50700
C  -1.99200 40.28800 28.82000
C  -1.64400 40.57700 27.29300
C  -2.13700 38.82700 29.21900
C  -1.31600 42.22600 30.45500
C  -1.00000 41.96400 31.92900
H  -1.64800 40.66300 32.64100
N  -1.36900 41.04100 24.25600
C  -2.35800 40.37200 24.88100
C  -3.46400 40.17900 23.90300
C  -2.88500 40.49500 22.65500
C  -1.57800 41.08400 22.92400
C  -4.84900 39.76300 24.25400
C  -3.57000 40.39300 21.28700
O  -3.11200 40.86800 20.29100
C  -4.92000 39.59000 21.21500
N  1.38100 41.96900 23.35500
C  0.72100 41.67400 22.15100
C  1.72000 41.79400 20.96500
C  3.03800 42.21000 21.58400
C  2.63300 42.37700 23.07700
C  1.69900 40.37200 20.24000
C  3.55600 43.49000 21.06600
C  2.73700 44.76100 21.21500
N  2.13000 42.27700 26.10900
C  3.31000 42.76500 25.52300
C  4.19100 43.04200 26.65900
C  3.46300 42.73200 27.87100
C  2.21300 42.32400 27.45400
C  5.60100 43.68800 26.60000
C  3.47900 42.68400 29.31800
O  4.35900 42.96900 30.11500
C  2.17500 42.10700 29.76700
C  2.53300 40.75300 30.24700
O  3.08900 39.90800 29.58900
O  2.37800 40.76300 31.55900
C  2.48700 39.52600 32.32900
H  -3.34000 39.54300 26.55400
H  -0.78800 41.35500 20.89100
H  4.58600 42.94500 23.82100
H  -0.26300 40.32600 30.12900
H  -2.90200 40.81100 29.11300
H  -1.48500 38.55600 30.04900
H  -1.75900 38.19000 28.41900
H  -3.19800 38.67300 29.41100
H  -2.37900 42.45600 30.38600
H  -0.85200 43.17500 30.18800
H  -1.33600 42.80000 32.54200
H  0.07900 41.86200 32.05000
H  -5.45000 40.65900 24.10400
H  -4.91500 39.58100 25.32600
H  -5.22200 38.92200 23.66900
H  -5.61600 40.10700 21.87600
H  -4.56100 38.57600 21.39100
H  -5.25900 39.70000 20.18500
H  1.31600 42.51100 20.25000
H  3.77900 41.41200 21.53300
H  1.38100 40.65700 19.23700
H  0.93600 39.68900 20.61400
H  2.71300 39.97300 20.22700
H  3.71100 43.29900 20.00400
H  4.57100 43.49000 21.46500
H  2.71600 45.29100 20.26300
H  3.34600 45.40800 21.84700
H  1.76900 44.61900 21.69400
H  5.67400 44.12600 25.60400
H  6.34400 42.89200 26.66000
H  5.56600 44.45500 27.37300
H  1.73000 42.76900 30.51100
H  3.46400 39.32700 32.77000
H  2.33400 38.63100 31.72600
H  1.76500 39.57000 33.14400

