79

Mg -10.05200 39.22700 40.89700
C  -8.81300 35.96800 40.20900
C  -7.25000 40.44100 39.59900
C  -11.61100 42.10900 40.70700
C  -13.02800 37.59000 42.02000
N  -8.21200 38.28200 40.10900
C  -7.94900 36.96300 39.83000
C  -6.63800 36.83200 38.94700
C  -5.96400 38.15400 39.54100
C  -7.19800 39.05400 39.76000
C  -5.10600 38.02900 40.68400
C  -7.01000 36.92700 37.42200
C  -6.73400 35.61500 36.69000
H  -6.02000 36.01900 35.36200
N  -9.56600 41.05000 40.10700
C  -8.32700 41.37500 39.70200
C  -8.23600 42.78500 39.38300
C  -9.48100 43.36500 39.78400
C  -10.32500 42.13100 40.19500
C  -7.00400 43.42400 38.74100
C  -9.84500 44.71600 39.63500
O  -9.04700 45.57100 39.44800
C  -11.22500 45.19800 39.80500
N  -12.02700 39.71300 41.30100
C  -12.40400 41.07600 41.17500
C  -13.98500 41.24200 41.36200
C  -14.35700 39.76100 41.91000
C  -13.09300 38.94100 41.64300
C  -14.27700 42.34200 42.39800
C  -15.56000 39.11700 41.26900
C  -16.39800 38.25700 42.29400
N  -10.74500 37.15700 41.33700
C  -11.97400 36.71200 41.76600
C  -11.97300 35.31900 41.76700
C  -10.77900 34.93000 41.12600
C  -10.09600 36.05400 40.90900
C  -12.99700 34.46900 42.37600
C  -9.97500 33.80500 40.71100
O  -10.23000 32.63100 40.61800
C  -8.66800 34.46900 39.95700
C  -7.44500 33.80900 40.46300
O  -6.58800 33.19800 39.84700
O  -7.28700 34.13700 41.79900
C  -6.19100 33.49300 42.60300
H  -6.27900 40.77600 39.22700
H  -12.11300 43.07700 40.65700
H  -13.89100 37.07400 42.44700
H  -6.18200 35.87900 39.21700
H  -5.48500 38.54700 38.64300
H  -5.01500 37.04300 41.14000
H  -5.36300 38.82000 41.38800
H  -4.12200 38.17000 40.23600
H  -6.40400 37.71400 36.97200
H  -8.08500 37.08500 37.32800
H  -7.63900 35.01000 36.64300
H  -5.94300 35.05200 37.18500
H  -6.68600 42.90600 37.83600
H  -6.17900 43.64400 39.41900
H  -7.29500 44.43000 38.44000
H  -11.78300 44.57700 39.10300
H  -11.25900 46.23000 39.45500
H  -11.59300 45.17600 40.83000
H  -14.30200 41.43800 40.33800
H  -14.54500 39.81300 42.98300
H  -14.76500 41.84800 43.23800
H  -14.88500 43.19100 42.08700
H  -13.30100 42.68100 42.74700
H  -15.14500 38.51200 40.46400
H  -16.32300 39.81900 40.93300
H  -16.54900 37.26400 41.86800
H  -17.33600 38.80300 42.39700
H  -15.91800 38.18400 43.26900
H  -12.82300 33.46000 42.00200
H  -14.00900 34.83900 42.21400
H  -12.88000 34.56600 43.45600
H  -8.84600 34.33000 38.89100
H  -6.72400 33.11000 43.47300
H  -5.38500 34.12900 42.97100
H  -5.73400 32.62600 42.12600

