79

Mg 7.59900 3.27800 27.60500
C  9.12600 2.00800 30.52200
C  5.65700 5.37500 29.65600
C  6.19600 4.36900 24.87400
C  9.07800 0.60200 25.82900
N  7.44100 3.66000 29.82200
C  8.18700 3.04500 30.80000
C  7.89300 3.62500 32.18900
C  6.78500 4.65000 31.94000
C  6.57600 4.54700 30.36700
C  5.46200 4.33500 32.69800
C  9.12700 4.17500 32.95600
C  8.79700 4.85200 34.25700
H  9.90300 4.87100 35.38200
N  6.18100 4.74300 27.34200
C  5.45900 5.46100 28.27600
C  4.54300 6.28600 27.58000
C  4.82800 6.10100 26.20800
C  5.80600 4.99700 26.06900
C  3.51100 7.13600 28.24700
C  4.27000 6.90400 25.07800
O  4.63500 6.69900 23.93000
C  3.31100 7.97900 25.37700
N  7.49700 2.46200 25.66400
C  6.89800 3.20300 24.71900
C  6.94700 2.48700 23.37200
C  7.88500 1.26700 23.64900
C  8.20500 1.41300 25.08400
C  5.64800 2.12100 22.66200
C  9.15500 1.11700 22.73500
C  9.30300 -0.15900 21.95900
N  8.87300 1.72800 28.00100
C  9.38700 0.69900 27.20900
C  10.22400 -0.15800 27.90900
C  10.09400 0.28700 29.25500
C  9.33200 1.47300 29.23400
C  11.02900 -1.28300 27.33100
C  10.60100 0.04700 30.61600
O  11.34400 -0.81000 31.05500
C  9.92000 1.17700 31.50000
C  9.06300 0.57200 32.55600
O  7.96000 0.10100 32.27900
O  9.61900 0.59000 33.84500
C  8.80700 0.22800 35.06500
H  5.13600 6.11100 30.27200
H  5.66300 4.75700 24.00300
H  9.42400 -0.21800 25.19600
H  7.48800 2.85600 32.84700
H  7.01600 5.64200 32.32800
H  5.67600 3.76300 33.60100
H  4.79400 3.72700 32.08800
H  5.02300 5.30200 32.94500
H  9.55600 5.01200 32.40400
H  9.92600 3.47500 33.20100
H  7.84800 4.56500 34.71000
H  8.69400 5.89700 33.96500
H  3.50600 8.19100 27.97000
H  3.63200 7.14900 29.33000
H  2.53600 6.78300 27.91100
H  3.79900 8.78000 25.93200
H  2.36900 7.58000 25.75300
H  3.06100 8.38200 24.39500
H  7.41700 3.25800 22.76200
H  7.40500 0.29300 23.55500
H  5.46000 2.76600 21.80400
H  4.74700 2.40100 23.20600
H  5.61400 1.09400 22.29700
H  10.06800 1.42500 23.24400
H  9.02300 1.91500 22.00500
H  9.15900 -0.18000 20.87900
H  8.76500 -0.97400 22.44400
H  10.33400 -0.51300 21.95700
H  11.40500 -0.94800 26.36400
H  10.39500 -2.16800 27.30100
H  11.92300 -1.35600 27.95000
H  10.75500 1.79400 31.83400
H  8.60900 -0.84400 35.07200
H  7.88700 0.81200 35.04400
H  9.48400 0.42900 35.89500

