79

Mg 1.41400 -0.56400 43.79600
C  4.92100 0.03200 43.12600
C  0.68400 2.53100 42.76500
C  -1.70000 -1.63900 43.59300
C  2.38300 -3.98500 44.41600
N  2.72600 0.93200 42.95900
C  4.05300 1.05700 42.83500
C  4.44000 2.48900 42.42800
C  3.14600 3.27200 42.55900
C  2.04000 2.19500 42.81600
C  3.10500 4.38700 43.64500
C  5.04700 2.50100 40.97200
C  6.21800 3.51300 40.65600
H  6.66600 3.71800 39.21700
N  -0.29900 0.30600 43.12500
C  -0.40400 1.64900 42.70400
C  -1.84500 1.91300 42.44800
C  -2.50600 0.67000 42.64800
C  -1.48000 -0.37200 43.13400
C  -2.37300 3.28200 42.11200
C  -4.04900 0.58100 42.51400
O  -4.66600 1.64000 42.30600
C  -4.71900 -0.75500 42.74400
N  0.50600 -2.65200 43.58200
C  -0.84000 -2.67800 43.83800
C  -1.27700 -3.98400 44.41400
C  0.02600 -4.78900 44.44200
C  1.08700 -3.74100 44.18000
C  -2.04200 -3.91200 45.86100
C  -0.03100 -6.08600 43.52000
C  0.22700 -7.44000 44.13700
N  3.18600 -1.74400 43.91000
C  3.45300 -3.02700 44.28700
C  4.87900 -3.20000 44.51200
C  5.45700 -2.03600 43.95300
C  4.46600 -1.21300 43.60500
C  5.55200 -4.44100 45.05000
C  6.72000 -1.44700 43.64900
O  7.80800 -1.93500 43.70800
C  6.44800 -0.03200 43.05900
C  7.14500 0.96900 43.96300
O  6.67400 1.32200 45.03300
O  8.26600 1.52000 43.37800
C  8.71700 2.70900 44.16000
H  0.54200 3.59900 42.58200
H  -2.73500 -1.91600 43.80200
H  2.59200 -4.99900 44.76400
H  5.13700 2.90700 43.15400
H  2.97700 3.76700 41.60200
H  2.23100 4.28500 44.28800
H  2.92300 5.28500 43.05500
H  4.09300 4.31700 44.10100
H  4.34300 2.67100 40.15700
H  5.27400 1.46200 40.73400
H  6.99000 3.27200 41.38600
H  5.90900 4.43800 41.14400
H  -2.99400 3.11000 41.23300
H  -1.61500 3.93500 41.67900
H  -2.76100 3.80400 42.98700
H  -5.78500 -0.65500 42.53900
H  -4.69000 -1.14900 43.76000
H  -4.24900 -1.47600 42.07500
H  -2.01000 -4.44500 43.75100
H  0.32700 -5.08200 45.44800
H  -1.99200 -2.86300 46.15300
H  -1.49200 -4.50400 46.59300
H  -3.05900 -4.25500 45.67400
H  0.79600 -5.90300 42.83400
H  -0.90500 -6.09600 42.86800
H  -0.44300 -8.09600 43.58200
H  -0.04300 -7.49800 45.19200
H  1.26200 -7.77100 44.05800
H  5.43100 -5.36200 44.48000
H  5.09800 -4.80500 45.97200
H  6.56900 -4.32800 45.42500
H  6.89900 0.04300 42.07000
H  8.61000 2.54100 45.23100
H  8.26600 3.66300 43.88600
H  9.79900 2.65700 44.03400

