79

Mg 17.18400 -1.33800 27.25500
C  16.26500 0.98500 29.62900
C  19.21000 -2.78000 29.61700
C  18.47600 -3.42000 24.79300
C  15.71000 0.59200 24.76300
N  17.80300 -0.84700 29.30700
C  17.13900 0.02600 30.20100
C  17.57600 -0.15700 31.62300
C  18.73100 -1.24000 31.49400
C  18.55700 -1.69000 30.02500
C  20.20700 -0.83300 31.90400
C  16.46200 -0.54700 32.58600
C  16.71600 -0.91700 34.06700
H  17.99400 -0.43200 34.76500
N  18.53300 -2.99100 27.25100
C  19.22500 -3.44300 28.33300
C  19.98700 -4.58600 27.87900
C  19.76400 -4.79500 26.51900
C  18.90800 -3.73100 26.10000
C  20.78800 -5.39100 28.93900
C  20.34000 -5.86300 25.56500
O  20.06800 -5.88800 24.34100
C  21.32800 -6.91900 26.06700
N  17.07100 -1.37800 25.09900
C  17.68100 -2.37500 24.36600
C  17.35700 -2.06300 22.88500
C  16.38100 -0.93500 22.87200
C  16.35900 -0.54700 24.33800
C  18.63800 -1.66000 22.10400
C  14.92800 -1.32900 22.43700
C  14.58600 -0.97800 20.94800
N  16.14700 0.43300 27.11800
C  15.61500 1.08900 26.07200
C  14.89500 2.20400 26.60200
C  15.09500 2.17600 28.02700
C  15.92200 1.10700 28.27100
C  14.09700 3.19700 25.76500
C  14.88400 2.91000 29.28700
O  14.23600 3.91200 29.47800
C  15.58900 2.11600 30.43600
C  16.46100 3.12000 31.14600
O  17.41000 3.70600 30.67900
O  15.95900 3.18900 32.48200
C  16.74100 4.11400 33.28800
H  19.78100 -3.15400 30.46900
H  18.87100 -4.14000 24.07300
H  15.28900 1.16800 23.93600
H  17.98900 0.76200 32.03700
H  18.49500 -2.11900 32.09400
H  20.12700 -0.03300 32.64000
H  20.73000 -0.49900 31.00800
H  20.79200 -1.60900 32.39800
H  15.95000 -1.34400 32.04600
H  15.74500 0.27200 32.64100
H  16.67600 -2.00300 34.14300
H  15.80600 -0.61400 34.58400
H  21.85100 -5.36500 28.70000
H  20.33700 -6.37200 28.78900
H  20.50200 -4.97700 29.90600
H  21.42500 -7.62500 25.24200
H  20.91300 -7.57100 26.83500
H  22.20100 -6.47500 26.54500
H  17.00400 -2.98500 22.42400
H  16.85500 -0.13800 22.30000
H  19.21100 -1.03700 22.79200
H  18.37000 -1.10200 21.20700
H  19.26400 -2.53100 21.91100
H  14.13600 -0.99100 23.10600
H  14.87300 -2.41600 22.50200
H  13.84900 -0.17700 21.00000
H  14.32500 -1.87300 20.38400
H  15.45000 -0.41500 20.59400
H  14.75200 3.89200 25.23800
H  13.56300 3.87400 26.43100
H  13.47800 2.65600 25.04900
H  14.93900 1.62400 31.15900
H  16.60700 5.15000 32.97700
H  17.76400 3.82800 33.04600
H  16.53700 3.96400 34.34800

