79

Mg 25.97800 52.55200 26.21500
C  23.92000 53.19900 29.00200
C  28.52900 51.91200 28.26200
C  27.92500 52.33500 23.57800
C  23.41400 53.84800 24.23600
N  26.18200 52.58200 28.40700
C  25.17000 52.71300 29.41600
C  25.81500 52.38600 30.83100
C  27.29400 51.99500 30.43900
C  27.31900 52.11200 28.92300
C  28.27900 52.81200 31.19700
C  25.18400 51.25200 31.63300
C  24.47000 51.59400 32.93200
H  25.21400 52.12600 34.14200
N  27.92200 52.06700 25.96000
C  28.83100 51.83300 26.91600
C  30.14100 51.55500 26.34600
C  30.03600 51.75100 24.97100
C  28.56500 52.06900 24.78600
C  31.36000 51.11000 27.11900
C  31.11900 51.61800 23.88400
O  30.85900 51.95500 22.73500
C  32.53100 51.26600 24.33100
N  25.66200 52.89100 24.10700
C  26.61100 52.68400 23.22400
C  26.20400 53.14700 21.71800
C  24.68900 53.47700 21.95900
C  24.51000 53.41300 23.54700
C  27.12000 54.21700 21.05300
C  23.62700 52.59600 21.29300
C  23.65700 52.72000 19.70300
N  23.97000 53.28800 26.51300
C  23.10600 53.79300 25.59700
C  21.87300 54.13100 26.27200
C  22.12800 53.93500 27.60500
C  23.41900 53.43400 27.70600
C  20.54300 54.55400 25.57500
C  21.54200 54.02900 28.98500
O  20.36800 54.31600 29.35700
C  22.72700 53.57200 29.88500
C  23.09900 54.78900 30.78400
O  23.85100 55.66900 30.42700
O  22.44100 54.66800 31.94600
C  22.30000 55.98300 32.58300
H  29.28900 51.61900 28.98900
H  28.59400 52.37000 22.71600
H  22.65900 54.26800 23.56800
H  25.83200 53.28500 31.44700
H  27.40400 50.92700 30.62400
H  27.83900 53.22600 32.10500
H  28.54000 53.67200 30.57900
H  29.05500 52.10400 31.48900
H  25.95500 50.56000 31.97200
H  24.44500 50.73500 31.02000
H  23.82000 50.76000 33.19800
H  23.77200 52.38200 32.64900
H  31.27400 51.05300 28.20400
H  32.12000 51.88400 27.01600
H  31.81400 50.14800 26.88100
H  32.92700 52.18100 24.77100
H  33.04400 51.12400 23.38000
H  32.66000 50.39300 24.97100
H  26.27700 52.26400 21.08200
H  24.49500 54.46300 21.53600
H  27.75500 54.72300 21.78000
H  26.42900 54.99100 20.71600
H  27.68000 53.80200 20.21500
H  22.64100 52.84200 21.68500
H  23.91100 51.61800 21.68200
H  24.50100 53.37800 19.49500
H  22.75700 53.24900 19.38800
H  23.84300 51.76600 19.20900
H  19.89000 53.74200 25.25600
H  20.77200 55.14700 24.69000
H  20.03200 55.16100 26.32300
H  22.60100 52.71700 30.54900
H  22.29800 56.77600 31.83500
H  23.12400 56.20800 33.26100
H  21.34200 55.90800 33.09600

