79

Mg 1.35700 42.04600 24.83800
C  2.93500 41.78100 27.98500
C  -1.50300 40.75200 26.29200
C  0.19700 41.58000 21.72600
C  4.52000 42.66200 23.44600
N  0.79200 41.46500 26.87800
C  1.60700 41.52500 28.06400
C  0.74800 41.25800 29.34700
C  -0.65000 40.91900 28.74500
C  -0.46700 41.05700 27.20100
C  -1.12100 39.54000 29.13500
C  0.70700 42.50600 30.30800
C  1.17100 42.23900 31.76900
H  0.22300 42.56800 32.92600
N  -0.51800 41.48000 24.10600
C  -1.49800 40.89700 24.87200
C  -2.60500 40.44800 24.00100
C  -2.24600 40.92000 22.73100
C  -0.77600 41.39300 22.80000
C  -3.77200 39.72800 24.54400
C  -3.10200 40.89400 21.44800
O  -2.61900 41.23200 20.37500
C  -4.48900 40.36100 21.41600
N  2.23700 42.15600 22.84000
C  1.55400 41.95500 21.76100
C  2.32700 42.44100 20.48600
C  3.64000 42.99200 21.09700
C  3.47700 42.65600 22.58000
C  2.52100 41.37200 19.34400
C  3.84800 44.49800 20.92200
C  3.93200 45.07300 19.51900
N  3.36000 42.23000 25.49700
C  4.50200 42.47900 24.82200
C  5.63500 42.59000 25.79600
C  4.99600 42.35800 27.00100
C  3.63600 42.13000 26.79700
C  7.14800 42.95400 25.49500
C  5.36200 42.19700 28.45900
O  6.38400 42.30900 29.11100
C  3.96700 41.84900 29.12000
C  4.02900 40.65500 30.01400
O  3.80800 39.50000 29.76600
O  4.37900 41.05800 31.25900
C  4.63000 40.08700 32.31500
H  -2.40600 40.38900 26.78700
H  -0.19600 41.40200 20.72300
H  5.48800 42.86500 22.98300
H  1.25800 40.39300 29.77000
H  -1.39600 41.63100 29.09800
H  -2.06400 39.60600 29.67800
H  -0.45100 39.04900 29.84000
H  -1.22400 38.89800 28.25900
H  -0.28300 42.96000 30.35400
H  1.22200 43.35400 29.85700
H  1.96100 42.97000 31.94000
H  1.70000 41.29100 31.85800
H  -4.26600 39.12800 23.78100
H  -4.43700 40.46700 24.99000
H  -3.39200 38.91000 25.15600
H  -4.45700 39.29200 21.20800
H  -5.05200 40.95600 20.69700
H  -4.95400 40.60700 22.37200
H  1.81100 43.28000 20.01900
H  4.48100 42.38900 20.75500
H  2.09800 40.36700 19.37700
H  3.57900 41.29100 19.09700
H  2.15500 41.74500 18.38800
H  4.63900 44.81900 21.60100
H  2.96300 44.93900 21.38000
H  3.05100 45.68300 19.31600
H  4.14500 44.45000 18.65000
H  4.63600 45.90500 19.51300
H  7.66700 41.99600 25.47100
H  7.52200 43.54900 26.32900
H  7.32500 43.59800 24.63400
H  3.76400 42.71000 29.75700
H  3.74800 39.61900 32.75100
H  4.93700 40.63000 33.20900
H  5.43800 39.39600 32.07500

