79

Mg -4.59700 25.42500 25.52400
C  -3.24900 26.57500 28.48800
C  -6.70600 23.32500 27.45100
C  -5.73800 24.05000 22.66400
C  -2.35700 27.29200 23.76800
N  -4.96500 25.06600 27.78500
C  -4.33900 25.66700 28.77500
C  -4.83200 25.28000 30.18000
C  -5.58300 24.00200 29.81000
C  -5.83100 24.14300 28.22500
C  -4.85500 22.69200 30.23000
C  -5.58900 26.44700 30.90500
C  -5.04300 26.73600 32.28600
H  -5.16700 25.70800 33.37900
N  -6.07500 23.92500 25.10100
C  -6.91600 23.26400 26.04300
C  -7.83500 22.42400 25.30500
C  -7.58300 22.64000 23.89900
C  -6.43000 23.55900 23.80700
C  -8.77200 21.47100 25.99000
C  -8.36700 22.11200 22.68200
O  -7.99800 22.40300 21.54100
C  -9.63700 21.34200 23.00200
N  -4.28600 25.82900 23.59400
C  -4.71900 24.96500 22.56700
C  -3.97400 25.16800 21.22100
C  -3.11800 26.36800 21.51300
C  -3.26600 26.52100 23.03200
C  -3.34400 23.86600 20.77300
C  -3.42100 27.69600 20.68600
C  -2.46000 28.06300 19.58600
N  -2.96800 26.70100 26.01700
C  -2.13100 27.42100 25.15800
C  -1.25000 28.27800 25.97200
C  -1.66100 27.92000 27.30200
C  -2.68900 26.94900 27.25400
C  -0.19000 29.23500 25.58100
C  -1.37400 28.22700 28.65800
O  -0.53100 28.98000 29.09800
C  -2.44100 27.34000 29.50000
C  -1.66700 26.34600 30.33400
O  -1.45900 25.19300 30.13600
O  -1.23500 26.99600 31.47700
C  -0.70800 26.17300 32.63700
H  -7.37500 22.69300 28.03800
H  -5.84800 23.54500 21.70200
H  -1.64700 27.72100 23.05800
H  -3.93100 25.00400 30.72800
H  -6.62100 24.06800 30.13600
H  -3.97200 22.79100 30.86100
H  -4.53300 22.26400 29.28100
H  -5.59400 22.13800 30.81000
H  -6.64500 26.20300 31.01500
H  -5.50900 27.40000 30.38200
H  -5.53800 27.63900 32.64300
H  -4.00600 27.04600 32.15800
H  -9.76300 21.92300 25.94200
H  -8.50600 21.44400 27.04700
H  -8.60900 20.49400 25.53500
H  -10.02000 21.11400 22.00700
H  -10.39300 22.02300 23.39100
H  -9.47300 20.48000 23.64900
H  -4.75900 25.38500 20.49700
H  -2.07800 26.05900 21.41200
H  -3.52300 23.03500 21.45500
H  -2.27000 23.95100 20.60800
H  -3.76400 23.57700 19.80900
H  -3.38500 28.61600 21.27000
H  -4.45400 27.65200 20.34100
H  -2.66300 27.61300 18.61400
H  -1.52400 27.63100 19.93900
H  -2.34500 29.13100 19.40000
H  0.37800 28.84200 24.73800
H  0.39100 29.40300 26.48800
H  -0.63900 30.17000 25.24400
H  -3.04700 28.05200 30.06100
H  -0.92400 25.10900 32.54500
H  -1.08300 26.43200 33.62700
H  0.36000 26.37900 32.56200

