79

Mg 48.87200 35.62100 28.31800
C  46.96700 33.73700 30.64500
C  48.91000 38.13600 30.66000
C  50.49400 37.39100 26.10000
C  48.70000 32.93200 26.20400
N  48.25100 35.84500 30.56400
C  47.54100 34.87400 31.24100
C  47.33900 35.33300 32.72800
C  47.70000 36.90300 32.58500
C  48.36300 36.96400 31.19800
C  46.55400 37.87200 32.80000
C  48.31600 34.45000 33.45800
C  47.97300 34.11000 34.92600
H  47.04200 35.10500 35.70300
N  49.67100 37.48900 28.35700
C  49.55000 38.37700 29.39200
C  50.19100 39.58900 29.06600
C  50.72400 39.45500 27.73100
C  50.25800 38.07600 27.28400
C  50.26000 40.72400 29.98700
C  51.62900 40.37800 26.95900
O  52.08200 40.09000 25.84000
C  52.15800 41.63800 27.61900
N  49.24800 35.27400 26.33100
C  50.11400 36.14500 25.65200
C  50.51600 35.52700 24.29800
C  50.16100 34.06500 24.46900
C  49.31300 34.03200 25.74500
C  49.94800 36.22000 23.05900
C  51.32500 33.02700 24.51300
C  51.87400 32.50900 23.17600
N  47.77100 33.81200 28.23000
C  47.88700 32.79800 27.31400
C  47.06600 31.68200 27.69500
C  46.58900 32.07400 29.01100
C  47.10600 33.31400 29.31600
C  46.94900 30.48200 27.00500
C  45.76400 31.68600 30.08600
O  45.09800 30.65300 30.21500
C  45.88200 32.79300 31.14700
C  46.04500 32.16600 32.51400
O  46.88600 31.31200 32.75400
O  44.99100 32.58400 33.37700
C  44.85700 31.92000 34.73200
H  48.80100 38.94900 31.38200
H  51.13600 37.87400 25.36000
H  48.82100 32.02300 25.61000
H  46.32400 35.18500 33.09800
H  48.53600 37.25900 33.18600
H  46.38400 38.45000 31.89200
H  46.79500 38.53200 33.63300
H  45.69500 37.22700 32.98600
H  49.23700 35.03000 33.39500
H  48.51300 33.55000 32.87500
H  48.96300 34.34100 35.32000
H  47.85500 33.05100 35.15900
H  51.21000 41.25100 30.07500
H  50.14300 40.39900 31.02100
H  49.53800 41.46000 29.63300
H  51.48100 42.37700 28.04900
H  52.67500 42.05100 26.75200
H  52.96700 41.33000 28.28100
H  51.59300 35.69600 24.30600
H  49.48600 33.77900 23.66300
H  49.70300 37.22700 23.39800
H  49.07600 35.72700 22.63000
H  50.67000 36.31600 22.24800
H  50.88900 32.17600 25.03600
H  52.13300 33.43800 25.11900
H  51.22600 32.87300 22.37800
H  51.79300 31.42400 23.24400
H  52.93700 32.73200 23.07500
H  47.70600 30.36300 26.22900
H  46.01300 30.42000 26.45000
H  47.04900 29.64400 27.69300
H  45.00800 33.43300 31.26300
H  45.73100 31.35200 35.04900
H  44.06000 31.17800 34.77200
H  44.77300 32.60100 35.57900

