79

Mg 2.87800 -0.98800 44.00200
C  6.28700 -0.46100 43.72400
C  2.34400 1.78200 42.00900
C  -0.29800 -1.99300 43.58900
C  3.57800 -4.22900 45.25300
N  4.17000 0.46900 43.01600
C  5.55400 0.48500 42.98500
C  6.05700 1.65000 42.15400
C  4.76100 2.54600 41.94100
C  3.68300 1.57000 42.38000
C  4.59600 3.96900 42.60200
C  6.75800 1.12700 40.83800
C  7.75500 2.14500 40.21600
H  7.43500 2.71900 38.78700
N  1.28000 -0.10700 43.17300
C  1.19500 1.00800 42.37800
C  -0.22300 1.29800 42.00000
C  -1.03500 0.22700 42.52700
C  -0.02000 -0.71400 43.15200
C  -0.62800 2.58700 41.31500
C  -2.56900 0.04000 42.38700
O  -3.28600 0.73900 41.67300
C  -3.19300 -0.99900 43.22500
N  1.78900 -2.88800 44.29800
C  0.49300 -3.06100 43.99600
C  -0.03900 -4.48700 44.45200
C  1.25700 -5.14600 45.02900
C  2.29100 -4.02800 44.83900
C  -1.17400 -4.30100 45.40900
C  1.71000 -6.45400 44.33400
C  1.87100 -7.74100 45.20100
N  4.52000 -2.11600 44.45800
C  4.67600 -3.34300 45.04500
C  6.08100 -3.62300 45.40800
C  6.74900 -2.53200 44.86500
C  5.79100 -1.64400 44.35600
C  6.71000 -4.96200 46.00200
C  8.08800 -1.87200 44.76800
O  9.18800 -2.17800 45.16600
C  7.74700 -0.57800 43.93400
C  8.37600 0.53000 44.60100
O  8.22300 0.79400 45.78800
O  9.24300 1.15500 43.73400
C  10.09000 2.11900 44.39800
H  2.20600 2.63000 41.33600
H  -1.28900 -2.38900 43.36000
H  3.89400 -5.12900 45.78500
H  6.77100 2.13700 42.81900
H  4.65300 2.69200 40.86600
H  5.58500 4.42500 42.57400
H  4.19100 3.88000 43.61000
H  3.92800 4.60600 42.02100
H  5.91700 0.92400 40.17500
H  7.30900 0.21000 41.04600
H  8.71500 1.64500 40.33900
H  7.68300 3.02700 40.85400
H  -0.77300 2.47900 40.24000
H  0.27900 3.19100 41.27800
H  -1.49400 3.10700 41.72500
H  -4.19700 -0.61500 43.40800
H  -2.72800 -1.09700 44.20600
H  -3.34600 -1.89900 42.63000
H  -0.41900 -5.02300 43.58200
H  1.25000 -5.35500 46.09900
H  -2.11500 -4.39700 44.86700
H  -1.09800 -3.31600 45.87000
H  -1.15200 -5.12200 46.12500
H  2.64700 -6.31500 43.79300
H  1.03900 -6.70300 43.51200
H  2.95400 -7.79800 45.31100
H  1.45100 -8.61500 44.70300
H  1.57500 -7.64300 46.24500
H  6.82800 -5.67100 45.18300
H  5.95700 -5.41200 46.64900
H  7.65500 -4.73400 46.49400
H  8.26500 -0.72700 42.98700
H  9.46000 2.99600 44.54400
H  11.05000 2.44900 44.00000
H  10.38800 1.69300 45.35600

