79

Mg -2.95600 17.58100 25.85300
C  -3.18600 15.06500 28.26800
C  -3.47300 19.91800 28.15800
C  -2.84500 19.70800 23.34500
C  -3.08300 14.92700 23.41200
N  -3.14100 17.44400 28.01200
C  -3.39600 16.37300 28.74700
C  -3.69700 16.79200 30.20700
C  -3.84900 18.35200 30.04000
C  -3.38200 18.61400 28.66200
C  -5.28300 18.98700 30.38800
C  -2.76600 16.41800 31.38300
C  -2.72500 17.29500 32.64300
H  -2.73500 16.51200 33.95300
N  -3.04900 19.52600 25.77500
C  -3.12600 20.36100 26.87800
C  -3.12500 21.69400 26.48200
C  -2.95100 21.72900 25.06700
C  -2.91700 20.29900 24.64500
C  -3.07100 22.85000 27.40800
C  -2.86000 22.92900 24.13200
O  -2.90100 22.74800 22.91500
C  -2.80900 24.28900 24.63300
N  -3.21900 17.33500 23.69400
C  -3.00100 18.39200 22.96200
C  -2.80700 18.03700 21.51100
C  -3.04400 16.51600 21.45900
C  -3.10600 16.19900 22.93600
C  -3.60000 18.93100 20.46600
C  -1.96700 15.71200 20.66300
C  -2.40900 15.21600 19.29400
N  -2.92800 15.35400 25.78600
C  -2.94400 14.48500 24.74700
C  -2.87700 13.14700 25.26100
C  -2.94800 13.31500 26.68800
C  -2.92600 14.68500 26.94600
C  -2.82400 11.95700 24.39600
C  -3.05200 12.61700 27.95800
O  -2.99000 11.37000 28.17800
C  -3.16400 13.75800 29.06400
C  -2.00900 13.57600 29.85900
O  -0.89600 14.01900 29.64500
O  -2.43000 12.79900 30.92300
C  -1.34800 12.70600 31.90000
H  -3.82700 20.58200 28.95000
H  -2.43200 20.35300 22.56600
H  -3.20700 14.10700 22.70200
H  -4.59900 16.24600 30.48200
H  -3.04800 18.80200 30.62700
H  -5.95300 18.12700 30.38400
H  -5.70400 19.72900 29.70900
H  -5.11500 19.42100 31.37300
H  -1.80800 16.42500 30.86300
H  -2.84800 15.39600 31.75200
H  -3.53700 18.01600 32.73800
H  -1.80000 17.86700 32.57100
H  -4.00200 23.41500 27.37000
H  -2.28400 23.56400 27.16700
H  -2.85300 22.68300 28.46300
H  -2.59400 25.06000 23.89400
H  -2.01300 24.43500 25.36300
H  -3.79300 24.46100 25.07100
H  -1.76800 18.23900 21.24700
H  -4.03700 16.22000 21.12200
H  -4.49700 19.37300 20.89900
H  -3.92000 18.31900 19.62300
H  -3.01400 19.72300 20.00000
H  -1.58000 14.99200 21.38400
H  -1.08700 16.32100 20.45700
H  -3.38700 15.64100 19.07200
H  -2.47000 14.13100 19.20100
H  -1.71200 15.63700 18.56900
H  -2.53000 11.07300 24.96300
H  -2.24400 12.10500 23.48500
H  -3.78200 11.93700 23.87700
H  -3.95800 13.71000 29.80900
H  -1.65000 12.11900 32.76800
H  -1.12900 13.68600 32.32400
H  -0.45600 12.22800 31.49600

