79

Mg -13.22000 38.00600 43.38000
C  -11.17500 35.62800 41.87100
C  -11.50400 40.50000 41.73500
C  -15.83300 40.07500 43.98000
C  -14.87900 35.41300 45.01000
N  -11.51800 38.07100 41.97600
C  -10.83800 36.94100 41.57100
C  -9.61400 37.34200 40.67800
C  -9.50600 38.93800 40.95800
C  -10.92500 39.18600 41.53800
C  -8.29700 39.36200 41.94800
C  -9.83100 37.00700 39.17900
C  -8.81500 35.99500 38.60800
H  -7.97000 36.43500 37.37200
N  -13.60200 39.99600 42.88800
C  -12.77100 40.90200 42.25800
C  -13.43600 42.17300 42.06100
C  -14.77700 41.95900 42.50800
C  -14.81100 40.57800 43.17400
C  -12.86000 43.41800 41.51600
C  -15.93900 42.90800 42.39600
O  -15.77400 44.06800 42.03600
C  -17.35400 42.50200 42.56600
N  -15.18200 37.73800 44.24700
C  -15.98200 38.79200 44.51100
C  -17.15000 38.40400 45.41500
C  -16.77700 36.87700 45.80000
C  -15.50300 36.63100 45.01900
C  -17.56900 39.28700 46.64100
C  -17.88600 35.87200 45.46900
C  -18.04300 34.77700 46.52500
N  -13.21000 35.85900 43.42700
C  -13.82800 34.97100 44.19900
C  -13.23600 33.68100 44.08500
C  -12.28300 33.84700 43.08300
C  -12.25900 35.26100 42.72600
C  -13.54800 32.45000 44.99100
C  -11.25600 33.21700 42.35900
O  -10.96200 31.99600 42.17900
C  -10.44200 34.35600 41.55900
C  -9.00800 34.35500 42.09200
O  -8.02200 34.01300 41.41900
O  -8.92500 34.78800 43.41800
C  -7.61600 34.83600 44.04300
H  -10.75500 41.25800 41.49900
H  -16.57000 40.80100 44.33200
H  -15.26000 34.59400 45.62400
H  -8.71600 36.83900 41.03700
H  -9.43600 39.40900 39.97700
H  -7.59100 40.03300 41.45900
H  -7.73000 38.62800 42.51900
H  -8.87000 39.91200 42.69500
H  -9.76000 37.90100 38.55900
H  -10.80800 36.53000 39.11100
H  -9.42900 35.18400 38.21600
H  -8.12300 35.65800 39.38000
H  -13.38000 44.34300 41.76300
H  -12.91200 43.34700 40.42900
H  -11.79900 43.59200 41.69500
H  -17.50300 41.47800 42.22500
H  -17.97500 43.15600 41.95400
H  -17.62000 42.65000 43.61300
H  -17.99500 38.35500 44.72700
H  -16.63700 36.83900 46.88000
H  -16.95600 40.18800 46.67000
H  -17.59000 38.74200 47.58500
H  -18.58500 39.61800 46.42900
H  -17.54600 35.45600 44.52100
H  -18.86500 36.31000 45.27200
H  -18.95100 34.89900 47.11500
H  -17.24700 34.78600 47.26900
H  -17.88600 33.77900 46.11600
H  -14.61000 32.42900 45.23700
H  -13.03000 32.51600 45.94800
H  -13.25200 31.54700 44.45800
H  -10.47600 34.06800 40.50900
H  -7.42400 35.86100 44.35800
H  -6.69100 34.58600 43.52300
H  -7.59600 34.22000 44.94200

