79

Mg -11.56500 38.45300 41.15700
C  -9.76500 35.57600 40.25800
C  -9.10400 40.41900 39.71800
C  -13.73700 40.97700 41.17100
C  -13.93500 36.31300 42.57900
N  -9.65400 37.96900 39.98000
C  -9.12600 36.77100 39.82800
C  -7.70800 36.82100 39.20600
C  -7.49600 38.42100 39.11600
C  -8.77900 39.01300 39.74300
C  -6.37000 38.88600 40.11100
C  -7.55300 36.10400 37.87100
C  -6.31300 35.18600 37.67500
H  -5.16000 35.60500 36.78700
N  -11.43300 40.44700 40.51200
C  -10.33100 41.06800 40.00300
C  -10.58600 42.49100 39.75400
C  -11.95600 42.68600 40.02700
C  -12.45300 41.37000 40.64300
C  -9.57200 43.30300 38.99400
C  -12.75400 43.93800 39.69600
O  -12.25500 44.84600 39.14400
C  -14.18600 43.95700 39.85800
N  -13.57800 38.56600 41.67100
C  -14.20400 39.74900 41.67300
C  -15.59700 39.64500 42.26300
C  -15.58900 38.23600 42.88200
C  -14.26900 37.62500 42.33400
C  -16.08600 40.70000 43.35000
C  -16.85800 37.39500 42.47000
C  -16.66400 36.47500 41.21100
N  -11.83400 36.33800 41.46000
C  -12.79500 35.62000 42.12500
C  -12.43900 34.21900 42.07100
C  -11.30200 34.16800 41.29100
C  -10.98300 35.46800 40.95600
C  -13.25100 33.15900 42.70000
C  -10.33600 33.31400 40.66000
O  -10.25000 32.12100 40.58900
C  -9.22900 34.18400 40.03200
C  -7.91800 33.81600 40.74900
O  -7.26600 32.86400 40.44000
O  -7.68800 34.69700 41.79300
C  -6.47800 34.40400 42.55400
H  -8.16700 40.86100 39.37100
H  -14.53900 41.71200 41.27100
H  -14.64100 35.65300 43.08700
H  -7.01500 36.27300 39.84500
H  -7.35700 38.74700 38.08500
H  -5.54900 38.19000 39.94100
H  -6.74900 38.96400 41.13000
H  -5.95600 39.86700 39.87600
H  -7.57800 36.86600 37.09200
H  -8.44100 35.53800 37.59200
H  -6.68900 34.21300 37.36000
H  -5.83600 35.00500 38.63800
H  -9.98800 43.59200 38.02900
H  -8.68500 42.69000 38.83500
H  -9.24500 44.19600 39.52800
H  -14.67500 43.26500 39.17300
H  -14.55100 44.88900 39.42600
H  -14.44400 43.83900 40.91000
H  -16.24100 39.63900 41.38400
H  -15.39900 38.15200 43.95200
H  -17.03000 41.15600 43.05300
H  -15.32400 41.47800 43.39500
H  -16.21200 40.28800 44.35100
H  -17.70800 38.06300 42.33000
H  -17.15100 36.75400 43.30100
H  -15.91100 36.77100 40.48100
H  -17.62800 36.22400 40.77000
H  -16.33900 35.52400 41.63300
H  -12.71800 32.21400 42.80100
H  -14.22600 32.97500 42.25000
H  -13.55200 33.51900 43.68300
H  -9.06500 34.01100 38.96800
H  -6.80100 33.69600 43.31800
H  -6.13700 35.35100 42.97200
H  -5.63500 33.98800 42.00200

