79

Mg 43.75800 3.75800 47.50100
C  41.44500 6.39800 47.19100
C  41.18500 1.54500 47.49400
C  46.01200 1.19300 47.05700
C  46.35800 5.98700 46.71900
N  41.47500 4.00200 47.06500
C  40.79400 5.16700 47.34900
C  39.23600 4.84700 47.53000
C  39.27300 3.28200 47.63100
C  40.72300 2.87100 47.40600
C  38.62700 2.65900 48.97000
C  38.32100 5.44300 46.39400
C  38.41900 4.77100 44.96500
H  38.36400 5.88200 43.85900
N  43.69000 1.74000 47.45100
C  42.49100 0.99500 47.47300
C  42.80200 -0.37500 47.29400
C  44.17700 -0.51600 47.01100
C  44.73400 0.83900 47.19700
C  41.81700 -1.46900 47.25100
C  44.94300 -1.77300 46.62100
O  44.29100 -2.73800 46.17200
C  46.46600 -1.90400 46.56600
N  45.95700 3.58800 47.31700
C  46.62900 2.46200 47.25300
C  48.13300 2.71500 46.99200
C  48.22800 4.23400 46.70800
C  46.80400 4.65600 46.90300
C  49.01300 2.22300 48.12400
C  48.98700 4.60400 45.33300
C  50.42800 5.04000 45.52700
N  43.89000 5.78800 47.11800
C  45.02600 6.55800 46.82200
C  44.56600 7.97600 46.56100
C  43.21100 7.89100 46.73100
C  42.83700 6.59000 47.05300
C  45.46100 9.18100 46.23600
C  41.95500 8.74000 46.74100
O  41.78600 9.93700 46.65600
C  40.73700 7.73100 46.95100
C  39.91200 8.28700 48.10900
O  39.90400 7.75800 49.21800
O  39.17600 9.33700 47.72800
C  38.24900 9.81800 48.70700
H  40.35700 0.85100 47.65200
H  46.75800 0.46400 46.73300
H  47.02000 6.66600 46.17700
H  38.89500 5.17000 48.51300
H  38.62600 2.79500 46.90200
H  37.99400 1.79100 48.78600
H  37.93000 3.34500 49.45300
H  39.40300 2.26600 49.62600
H  38.26800 6.53100 46.43500
H  37.32600 5.09600 46.67200
H  37.57800 4.10500 44.77000
H  39.32700 4.18300 44.83100
H  41.96300 -2.17600 48.06700
H  42.00300 -1.93600 46.28300
H  40.77100 -1.17400 47.16700
H  46.96300 -1.48200 47.44000
H  46.98300 -1.56900 45.66700
H  46.61600 -2.98300 46.62200
H  48.44100 2.06600 46.17300
H  48.71000 4.70000 47.56800
H  49.64200 1.43200 47.71500
H  48.42900 1.77300 48.92700
H  49.60400 3.04800 48.52100
H  48.34900 5.35000 44.85900
H  49.00500 3.68500 44.74800
H  50.51400 6.00800 45.03300
H  51.07900 4.21700 45.23000
H  50.56000 5.15000 46.60300
H  44.92600 9.86300 45.57400
H  46.26300 8.79000 45.61000
H  45.85000 9.69000 47.11800
H  40.14900 7.65600 46.03700
H  38.78700 9.99200 49.63900
H  37.40000 9.18500 48.96300
H  37.91000 10.80700 48.39700

