79

Mg -10.62700 38.75600 41.46500
C  -8.56100 35.92400 40.74100
C  -8.40700 40.59000 39.59800
C  -12.91600 41.22600 41.39800
C  -13.05700 36.58600 42.62200
N  -8.62300 38.28600 40.49500
C  -8.02800 37.10000 40.20600
C  -6.79900 37.26000 39.34100
C  -6.72600 38.76300 39.15400
C  -7.98000 39.26300 39.77900
C  -5.50100 39.49400 39.72500
C  -6.96700 36.48700 37.92200
C  -5.75800 35.76600 37.47600
H  -5.10500 36.14000 36.14900
N  -10.64800 40.67400 40.71600
C  -9.61100 41.26400 40.01700
C  -10.04600 42.66900 39.75800
C  -11.32400 42.87100 40.20100
C  -11.68800 41.55900 40.79900
C  -9.15100 43.61100 38.93000
C  -12.19400 44.13100 39.91000
O  -11.72900 45.14000 39.43400
C  -13.72500 44.21100 40.26600
N  -12.65800 38.91200 41.89200
C  -13.46400 39.99600 41.82600
C  -14.87600 39.79400 42.39000
C  -14.82100 38.26300 42.78700
C  -13.39900 37.91300 42.45500
C  -15.09600 40.77600 43.55600
C  -15.86400 37.26400 42.09700
C  -16.67100 36.33000 42.99700
N  -10.74100 36.67600 41.72900
C  -11.75800 35.96700 42.27600
C  -11.38900 34.61000 42.33200
C  -10.13500 34.56900 41.79100
C  -9.77300 35.84600 41.34800
C  -12.17200 33.48000 42.94000
C  -9.09900 33.64400 41.40400
O  -8.98800 32.40600 41.53500
C  -7.99000 34.54200 40.69100
C  -6.69900 34.44100 41.50700
O  -5.88200 33.54600 41.30600
O  -6.63200 35.40700 42.47700
C  -5.50700 35.28300 43.38600
H  -7.69100 41.23700 39.08700
H  -13.66200 42.01200 41.53600
H  -13.86600 35.95500 42.99500
H  -6.04200 36.85500 40.01200
H  -6.72200 39.07100 38.10900
H  -5.72900 40.25500 40.47100
H  -4.87900 39.88400 38.91900
H  -4.83600 38.74100 40.14900
H  -7.39800 37.20100 37.21900
H  -7.81000 35.79500 37.91400
H  -5.89500 34.69700 37.63400
H  -4.96100 36.02400 38.17300
H  -8.88500 44.35200 39.68300
H  -9.60900 44.03900 38.03700
H  -8.34200 43.01200 38.51200
H  -13.71400 44.38800 41.34100
H  -14.23300 43.29200 39.97200
H  -14.26400 45.02000 39.77100
H  -15.61600 40.02700 41.62400
H  -15.07300 38.12900 43.83900
H  -14.11600 40.95900 43.99700
H  -15.75800 40.52200 44.38300
H  -15.41200 41.75900 43.20700
H  -15.41000 36.65300 41.31700
H  -16.63700 37.91000 41.67900
H  -16.88600 36.86000 43.92500
H  -16.10200 35.42900 43.22300
H  -17.62200 36.22300 42.47500
H  -12.24500 33.57300 44.02400
H  -11.70300 32.53600 42.66300
H  -13.16700 33.41800 42.50100
H  -7.67500 34.07900 39.75600
H  -5.28200 36.22300 43.88900
H  -4.61800 34.92000 42.86900
H  -5.82300 34.55000 44.12900

