79

Mg -12.12000 38.56600 41.82600
C  -9.75400 36.05800 40.97900
C  -10.14300 40.79700 40.09400
C  -14.71200 40.70800 41.89700
C  -14.13400 36.02800 43.15400
N  -10.27100 38.41300 40.43700
C  -9.52900 37.24200 40.30500
C  -8.24200 37.47300 39.57200
C  -8.27700 39.07500 39.45500
C  -9.60100 39.49600 40.02800
C  -7.12600 39.76300 40.17800
C  -8.02100 36.68200 38.24000
C  -6.70600 35.89900 38.09500
H  -6.05300 36.14100 36.73300
N  -12.42500 40.44800 41.12000
C  -11.46600 41.15800 40.48200
C  -12.01700 42.48800 40.14500
C  -13.35700 42.50600 40.61600
C  -13.55900 41.18600 41.25700
C  -11.20700 43.57700 39.36600
C  -14.34300 43.74500 40.45400
O  -14.00100 44.74900 39.89500
C  -15.81100 43.70200 40.95600
N  -14.08500 38.42200 42.54000
C  -14.91200 39.44600 42.54100
C  -16.32100 38.96600 43.10500
C  -16.10400 37.52800 43.52700
C  -14.69000 37.26000 43.02700
C  -16.95800 39.94600 44.13600
C  -17.08000 36.43200 42.98600
C  -17.74800 35.53700 44.04700
N  -11.99000 36.43300 42.05200
C  -12.87000 35.53400 42.66100
C  -12.22100 34.21200 42.75800
C  -10.99000 34.37300 42.17200
C  -10.87100 35.71800 41.74200
C  -12.82000 33.06600 43.48300
C  -9.72700 33.70300 41.76700
O  -9.35900 32.56000 41.95800
C  -8.89900 34.80800 41.02300
C  -7.66300 34.90900 41.79200
O  -6.60700 34.32800 41.53900
O  -7.74200 35.84600 42.77900
C  -6.51700 36.21300 43.52100
H  -9.52000 41.61900 39.73600
H  -15.66700 41.23700 41.90700
H  -14.74000 35.29700 43.69500
H  -7.53700 37.12800 40.32800
H  -8.06500 39.34100 38.41900
H  -7.46400 40.58200 40.81200
H  -6.37500 40.06200 39.44700
H  -6.58400 39.07000 40.82100
H  -8.09100 37.38200 37.40800
H  -8.85400 36.00100 38.06300
H  -6.88800 34.85900 38.36500
H  -6.11100 36.23800 38.94400
H  -10.60200 43.06000 38.62100
H  -10.68200 44.26700 40.02700
H  -11.89700 44.17700 38.77300
H  -15.94300 43.54800 42.02700
H  -16.34400 42.89100 40.45800
H  -16.30500 44.63000 40.66800
H  -16.93000 39.04100 42.20400
H  -16.23100 37.51000 44.60900
H  -16.90400 39.56700 45.15600
H  -18.01000 40.17200 43.96200
H  -16.26500 40.78700 44.14200
H  -16.59300 35.83400 42.21500
H  -17.90400 36.85500 42.41100
H  -17.52800 35.82600 45.07500
H  -17.51600 34.48400 43.88500
H  -18.82700 35.54100 43.89200
H  -12.69500 32.18400 42.85600
H  -13.88200 33.27300 43.61300
H  -12.28900 32.73400 44.37500
H  -8.68100 34.45000 40.01700
H  -6.89600 36.70500 44.41600
H  -5.88500 36.89000 42.94500
H  -5.91900 35.35400 43.82700

