79

Mg 48.60500 36.02600 28.26500
C  46.73400 34.29600 30.60100
C  48.64400 38.73900 30.25300
C  49.94600 37.78700 25.77000
C  48.29500 33.30200 26.07100
N  47.67300 36.44800 30.17700
C  47.12500 35.54300 31.07200
C  46.88100 36.19200 32.45600
C  47.25200 37.69000 32.24300
C  47.86900 37.61900 30.80100
C  46.15300 38.83000 32.38500
C  47.78500 35.47900 33.62000
C  49.08800 36.01200 34.17400
H  49.11500 36.73200 35.54700
N  49.33900 37.95100 28.08200
C  49.29100 38.90900 29.00400
C  50.04400 40.14500 28.61100
C  50.47400 39.85500 27.26400
C  49.91800 38.52500 26.96200
C  50.25700 41.34000 29.41600
C  51.29800 40.65100 26.27000
O  51.71900 40.19300 25.25600
C  51.67400 42.03800 26.65600
N  48.93600 35.59900 26.25400
C  49.44600 36.55000 25.46800
C  49.65100 36.03100 24.02000
C  49.42900 34.44900 24.11100
C  48.81700 34.45600 25.51600
C  48.67600 36.68400 22.99800
C  50.81800 33.73600 23.96500
C  51.50500 33.82500 22.61600
N  47.72400 34.13800 28.25900
C  47.71800 33.14700 27.30900
C  46.98700 32.00200 27.82100
C  46.57500 32.42800 29.09100
C  46.97000 33.75600 29.27600
C  46.84300 30.71000 27.17700
C  45.81800 32.07900 30.26200
O  45.23200 31.01300 30.50000
C  45.77400 33.27500 31.25400
C  46.16500 32.75800 32.58800
O  47.08300 31.98100 32.80100
O  45.19300 33.16900 33.44400
C  45.25200 32.51000 34.79200
H  48.68600 39.58500 30.94200
H  50.41900 38.34400 24.95800
H  48.23600 32.46000 25.37900
H  45.87300 36.06000 32.84800
H  48.06300 37.95400 32.92200
H  46.54200 39.84800 32.34700
H  45.56600 38.66900 33.28900
H  45.50000 38.74000 31.51700
H  48.06600 34.50900 33.21000
H  47.02200 35.25900 34.36700
H  49.55000 36.64900 33.41800
H  49.78000 35.17400 34.09600
H  49.39500 41.99100 29.27200
H  51.22800 41.81600 29.28000
H  50.22200 41.05000 30.46700
H  52.00600 42.45800 25.70700
H  52.38400 42.05400 27.48300
H  50.75200 42.54500 26.94200
H  50.67700 36.29200 23.76000
H  48.62100 34.00100 23.53200
H  49.17900 37.50600 22.48800
H  47.86300 37.07900 23.60600
H  48.30500 35.92900 22.30500
H  50.57300 32.67900 23.85600
H  51.56100 33.73700 24.76300
H  51.66600 34.79700 22.15000
H  50.89600 33.25100 21.91700
H  52.47200 33.32400 22.64300
H  47.59700 30.11200 27.68900
H  47.00300 30.73100 26.09900
H  45.83900 30.36000 27.41700
H  44.71000 33.50600 31.30400
H  45.54700 31.48500 34.56600
H  44.23700 32.45000 35.18400
H  45.92100 32.86800 35.57500

