79

Mg 9.43700 47.90900 26.07400
C  7.42700 47.69900 28.90100
C  11.92500 49.01800 28.09500
C  11.15300 48.48200 23.40300
C  6.61700 46.92300 24.02400
N  9.54500 48.58600 28.27000
C  8.67500 48.26900 29.26000
C  9.23700 48.81400 30.69100
C  10.78200 49.01500 30.41500
C  10.73400 48.92900 28.78100
C  11.23000 50.50400 30.88200
C  8.94800 47.91700 31.89600
C  9.64600 48.17900 33.31200
H  8.84300 47.91100 34.56500
N  11.32600 48.58000 25.78500
C  12.23100 48.86600 26.70800
C  13.48600 49.08500 26.09700
C  13.29400 49.01200 24.70500
C  11.84600 48.72800 24.58100
C  14.78100 49.36100 26.91800
C  14.29700 49.07300 23.60500
O  13.99900 48.92600 22.45100
C  15.76200 49.16500 23.90500
N  8.89800 47.88000 24.04300
C  9.88700 48.00000 23.14700
C  9.36900 47.94000 21.71300
C  8.02600 47.14800 21.95100
C  7.85900 47.29000 23.43100
C  9.27300 49.30500 21.03700
C  7.98000 45.66300 21.49100
C  9.22600 44.68300 21.75600
N  7.44500 47.35100 26.37700
C  6.46800 46.91700 25.51000
C  5.33200 46.45600 26.22700
C  5.62100 46.80100 27.60300
C  6.97500 47.29200 27.61200
C  4.07200 46.02200 25.58300
C  5.10800 46.87500 28.96100
O  3.96400 46.73400 29.39500
C  6.30700 47.24400 29.86800
C  6.77100 46.00200 30.56600
O  7.51100 45.13900 30.10800
O  6.21800 46.01900 31.83900
C  6.61000 44.89900 32.71400
H  12.84800 49.17000 28.65800
H  11.70200 48.57900 22.46400
H  5.70600 46.57400 23.53400
H  8.75000 49.77300 30.87000
H  11.40300 48.18000 30.73700
H  10.44900 51.00000 31.45900
H  11.23200 51.15200 30.00500
H  12.21400 50.54000 31.35000
H  9.08800 46.86500 31.64700
H  7.89100 48.04800 32.12600
H  9.99300 49.20800 33.41100
H  10.59000 47.64100 33.40000
H  14.59200 48.98700 27.92400
H  15.06600 50.40900 27.00800
H  15.62500 48.77200 26.56100
H  16.01000 49.85500 24.71100
H  16.24900 49.39900 22.95900
H  15.97500 48.12600 24.15500
H  10.15100 47.37800 21.20300
H  7.19500 47.73100 21.55500
H  9.53700 50.11700 21.71400
H  8.27500 49.57900 20.69700
H  10.02200 49.22800 20.24800
H  7.82200 45.72300 20.41500
H  7.19200 45.12100 22.01500
H  10.05900 45.34700 21.98800
H  9.49200 44.13500 20.85200
H  9.00300 44.06200 22.62300
H  4.40400 45.56200 24.65200
H  3.48300 46.92500 25.42200
H  3.43700 45.36700 26.17900
H  5.94800 47.94800 30.61900
H  7.61600 45.08700 33.08800
H  6.49500 43.95100 32.18900
H  6.00500 44.88500 33.62100

