79

Mg 1.92400 -3.11600 45.08200
C  5.14900 -2.27700 44.35400
C  0.80400 -0.79800 42.76600
C  -1.18500 -4.64900 45.04200
C  3.20800 -6.28100 46.38300
N  2.89200 -1.81700 43.66100
C  4.20200 -1.46500 43.71000
C  4.60000 -0.45200 42.65000
C  3.21500 0.27800 42.44900
C  2.21900 -0.82000 42.94600
C  3.02800 1.65100 43.20500
C  5.23700 -1.02200 41.31900
C  6.47100 -0.28000 40.74600
H  6.18800 0.60300 39.54900
N  0.04700 -2.67500 44.15300
C  -0.20800 -1.61500 43.31100
C  -1.65200 -1.59000 43.00000
C  -2.22900 -2.61700 43.81600
C  -1.07000 -3.38800 44.32400
C  -2.29200 -0.47200 42.19700
C  -3.70000 -2.87300 43.95100
O  -4.50200 -2.10300 43.52700
C  -4.32800 -4.08300 44.55600
N  1.19300 -5.16800 45.48700
C  -0.15400 -5.40300 45.64300
C  -0.43000 -6.52600 46.53700
C  0.92600 -7.33000 46.63600
C  1.87400 -6.22000 46.13700
C  -1.09400 -5.92200 47.80100
C  0.93600 -8.60300 45.78200
C  1.70000 -9.77800 46.35800
N  3.76900 -4.02100 45.55200
C  4.14400 -5.24700 46.07700
C  5.54800 -5.26000 46.27300
C  5.99400 -4.13000 45.58700
C  4.86000 -3.44600 45.11200
C  6.28000 -6.33800 47.03700
C  7.21300 -3.30800 45.30100
O  8.32500 -3.42200 45.77300
C  6.64400 -2.22500 44.35300
C  7.07000 -0.90500 44.75600
O  6.54300 -0.23600 45.61400
O  8.10900 -0.43900 43.98700
C  8.41400 0.97000 44.25900
H  0.55600 -0.03000 42.03100
H  -2.19300 -4.97500 45.30500
H  3.53200 -7.21400 46.84900
H  5.26500 0.25500 43.14500
H  3.04800 0.49400 41.39400
H  2.67800 2.42200 42.51900
H  3.80800 2.01000 43.87700
H  2.21700 1.49600 43.91600
H  4.44300 -0.90800 40.58100
H  5.50900 -2.06200 41.49800
H  7.32200 -0.94500 40.60100
H  6.68300 0.52900 41.44600
H  -2.26500 -0.90300 41.19600
H  -1.82500 0.51200 42.22200
H  -3.37000 -0.44100 42.35300
H  -3.96800 -4.97200 44.03800
H  -5.37500 -4.11000 44.25600
H  -4.21600 -4.12400 45.64000
H  -1.20700 -7.13000 46.06900
H  1.10800 -7.55300 47.68700
H  -2.10100 -6.29900 47.97700
H  -1.19800 -4.84800 47.95900
H  -0.50100 -6.29800 48.63600
H  1.20400 -8.37500 44.75000
H  -0.10700 -8.88400 45.92900
H  0.96700 -10.36300 46.91400
H  2.45800 -9.44800 47.06700
H  2.26500 -10.45700 45.71900
H  6.70400 -7.18300 46.49500
H  5.63500 -6.70000 47.83600
H  7.11400 -5.85600 47.54800
H  7.01700 -2.30500 43.33200
H  8.80200 0.99200 45.27800
H  7.53400 1.57100 44.02900
H  9.16600 1.24700 43.52000

