79

Mg -10.40000 38.80600 40.61300
C  -8.77300 35.71200 39.90400
C  -7.60800 40.35700 39.27400
C  -11.98100 41.74400 40.59000
C  -13.23000 37.12400 41.49700
N  -8.47000 38.13100 39.73300
C  -8.06800 36.81300 39.54100
C  -6.67700 36.71500 38.74600
C  -6.18200 38.20900 39.02600
C  -7.50900 38.94500 39.37000
C  -5.09300 38.44600 40.08800
C  -6.88200 36.23400 37.25300
C  -6.18300 36.88300 36.00500
H  -7.12500 37.60700 35.00100
N  -9.86000 40.75400 40.02900
C  -8.68300 41.22100 39.54800
C  -8.67200 42.69500 39.58200
C  -9.98200 43.08800 39.83600
C  -10.66700 41.85400 40.13100
C  -7.41900 43.54800 39.13000
C  -10.44000 44.50000 39.99600
O  -9.57400 45.36400 39.88100
C  -11.82800 44.91000 40.43100
N  -12.40100 39.28200 40.89600
C  -12.78300 40.60500 40.90400
C  -14.33900 40.62900 41.10900
C  -14.68100 39.20100 41.49200
C  -13.35200 38.46500 41.36300
C  -14.94800 41.62200 42.16400
C  -15.87300 38.56600 40.69700
C  -16.72800 37.51100 41.41400
N  -10.91500 36.87100 40.68000
C  -12.10800 36.36000 41.10000
C  -11.96400 34.86100 41.15800
C  -10.73400 34.59000 40.57900
C  -10.10200 35.86400 40.38900
C  -12.87000 33.87700 41.86000
C  -9.82000 33.52400 40.23000
O  -10.01400 32.32600 40.25900
C  -8.56800 34.19800 39.69300
C  -7.43700 33.67900 40.39700
O  -7.15000 33.87300 41.57400
O  -6.59900 32.98400 39.52100
C  -5.22200 32.69000 39.92600
H  -6.64200 40.80100 39.02300
H  -12.58600 42.65300 40.59500
H  -14.04100 36.51900 41.90700
H  -6.14100 35.92600 39.27200
H  -5.83100 38.72000 38.12900
H  -4.33400 39.10400 39.66500
H  -4.71800 37.48000 40.42600
H  -5.55600 38.86100 40.98200
H  -7.92900 36.31900 36.96400
H  -6.60300 35.18100 37.27100
H  -5.63400 36.02700 35.61100
H  -5.47600 37.64700 36.33100
H  -7.63200 44.19700 38.28000
H  -6.62400 42.87000 38.82000
H  -7.04300 44.15400 39.95400
H  -12.45100 44.73100 39.55500
H  -11.89100 45.98200 40.61700
H  -12.00400 44.40400 41.38000
H  -14.83800 40.94800 40.19400
H  -14.83800 39.13100 42.56800
H  -14.94500 41.13900 43.14100
H  -15.95600 41.94200 41.90100
H  -14.37000 42.54500 42.16600
H  -15.46800 38.14800 39.77500
H  -16.58700 39.31500 40.35600
H  -16.72900 36.55600 40.88900
H  -17.75000 37.88600 41.36700
H  -16.43000 37.38000 42.45500
H  -12.90800 33.88900 42.94900
H  -12.59200 32.89200 41.48600
H  -13.88600 34.04900 41.50300
H  -8.37400 33.95400 38.64900
H  -4.72900 33.65500 39.81200
H  -4.85600 31.88700 39.28600
H  -5.10800 32.40600 40.97200

