79

Mg 47.68200 24.70400 28.15800
C  48.67500 27.03000 30.73600
C  47.03600 22.48500 30.73200
C  46.88800 22.49000 25.88300
C  49.00700 26.79400 25.86000
N  47.81200 24.81900 30.49100
C  48.08500 25.90300 31.31200
C  47.88600 25.51000 32.75200
C  47.57300 24.00000 32.74500
C  47.57500 23.72300 31.20100
C  48.64600 23.12000 33.46000
C  46.76600 26.37600 33.46100
C  47.30800 27.39600 34.49000
H  46.63400 27.64300 35.85700
N  46.97700 22.77900 28.28500
C  46.82900 22.00600 29.45300
C  46.22800 20.68900 29.01600
C  46.16400 20.68400 27.61000
C  46.65700 22.03500 27.19200
C  45.79300 19.53400 29.99700
C  45.82800 19.62200 26.55600
O  45.96000 19.72100 25.35900
C  45.24100 18.34100 27.09500
N  48.08100 24.60700 26.06800
C  47.44300 23.67600 25.33700
C  47.52300 24.05900 23.82300
C  47.96600 25.54000 23.87600
C  48.28200 25.67200 25.38600
C  48.47700 23.07800 23.06500
C  46.92000 26.56800 23.38200
C  47.31000 27.66900 22.35500
N  48.72600 26.53000 28.24600
C  49.23600 27.20600 27.18500
C  49.66900 28.47200 27.71300
C  49.44700 28.45700 29.07700
C  48.90000 27.24300 29.35000
C  50.19800 29.68600 27.02000
C  49.72900 29.19200 30.34100
O  50.24600 30.28400 30.51500
C  49.12100 28.22900 31.48900
C  50.31000 27.97700 32.35900
O  51.21100 27.24500 32.18200
O  50.20200 28.72200 33.41700
C  51.11200 28.53300 34.52400
H  46.88800 21.84400 31.60300
H  46.59300 21.88200 25.02500
H  49.31800 27.51600 25.10300
H  48.78300 25.73600 33.32800
H  46.59000 23.70300 33.11100
H  48.99000 22.36600 32.75200
H  48.08300 22.58200 34.22300
H  49.47900 23.72200 33.82400
H  45.97700 25.81600 33.96300
H  46.35000 26.90300 32.60100
H  47.36700 28.37000 34.00400
H  48.35700 27.22600 34.73200
H  46.20300 18.55600 29.74600
H  44.71100 19.42800 30.08500
H  46.14200 19.85100 30.98000
H  45.93300 17.76400 27.70800
H  44.91700 17.72700 26.25400
H  44.41000 18.58600 27.75700
H  46.54300 23.89000 23.37600
H  48.90300 25.73300 23.35300
H  48.86500 22.43600 23.85600
H  49.34600 23.56000 22.61700
H  47.92800 22.60800 22.24800
H  46.43200 26.93700 24.28400
H  46.16100 26.06800 22.78100
H  48.37100 27.81400 22.15100
H  46.97200 28.64700 22.69700
H  46.82100 27.45100 21.40500
H  50.47800 29.43500 25.99700
H  51.01700 30.07900 27.62300
H  49.43400 30.46100 26.96100
H  48.32100 28.78600 31.97600
H  51.98800 29.17500 34.42400
H  51.51100 27.52000 34.58000
H  50.55400 28.81100 35.41700

