79

Mg 24.41900 -4.41200 45.99200
C  25.63200 -1.60000 44.26300
C  21.28200 -3.63900 44.70400
C  23.35200 -7.57400 46.78500
C  27.63800 -5.08900 46.99500
N  23.64400 -2.83400 44.62300
C  24.27500 -1.79700 44.06100
C  23.30400 -0.99000 43.14700
C  21.94700 -1.25900 43.90700
C  22.31400 -2.67400 44.45400
C  21.47400 -0.18900 44.95400
C  23.32500 -1.46400 41.69100
C  23.74800 -0.54000 40.54800
H  24.95300 -0.93900 39.76800
N  22.66400 -5.47700 45.59500
C  21.48300 -4.93300 45.15700
C  20.46100 -5.92200 45.14600
C  21.07200 -7.15500 45.68100
C  22.38000 -6.72000 46.11000
C  18.98200 -5.61900 44.66700
C  20.37000 -8.56100 45.79200
O  19.20300 -8.65000 45.45200
C  21.00600 -9.80200 46.34900
N  25.37700 -6.09600 46.76500
C  24.66800 -7.26700 47.08900
C  25.68800 -8.36800 47.58900
C  27.02400 -7.54500 47.76100
C  26.66000 -6.15800 47.15000
C  25.26600 -9.25100 48.76700
C  28.32700 -8.23100 47.29200
C  28.59600 -8.18200 45.87000
N  26.28900 -3.46200 45.86100
C  27.51400 -3.89100 46.28200
C  28.43800 -2.84800 45.96200
C  27.80900 -1.98200 45.06600
C  26.48000 -2.36200 45.13000
C  29.87000 -2.98100 46.35000
C  27.95000 -0.83100 44.19900
O  28.94600 -0.28300 43.84800
C  26.53300 -0.47100 43.67400
C  26.16600 0.90700 44.17300
O  25.30200 1.14700 44.98600
O  26.90000 1.91100 43.63500
C  26.76000 3.28600 44.16100
H  20.28500 -3.22100 44.55000
H  23.20000 -8.64200 46.95700
H  28.58900 -5.32700 47.47700
H  23.40700 0.09400 43.09100
H  21.15400 -1.37800 43.16800
H  21.35900 -0.62900 45.94500
H  20.54100 0.25500 44.60700
H  22.29000 0.51900 45.09800
H  22.31900 -1.80900 41.45300
H  24.00300 -2.31400 41.62100
H  23.81600 0.48600 40.90900
H  22.94000 -0.51600 39.81600
H  18.57100 -6.60000 44.42600
H  19.10700 -4.93800 43.82500
H  18.46300 -5.01700 45.41200
H  20.23500 -10.57200 46.34400
H  21.19700 -9.67200 47.41500
H  21.84500 -10.15800 45.75100
H  25.86400 -9.01300 46.72800
H  27.20700 -7.37800 48.82200
H  25.76600 -10.20700 48.60600
H  24.20200 -9.38400 48.57000
H  25.52400 -8.84300 49.74400
H  28.30200 -9.24000 47.70300
H  29.12800 -7.70900 47.81500
H  29.61600 -7.80100 45.82000
H  27.95200 -7.70900 45.12900
H  28.69400 -9.19700 45.48600
H  30.52300 -2.11100 46.28200
H  30.29400 -3.83200 45.81600
H  29.84100 -3.18000 47.42100
H  26.47200 -0.37800 42.58900
H  27.36500 3.51000 45.04000
H  25.76900 3.59800 44.49000
H  27.09300 3.99100 43.39900

