79

Mg 47.14900 24.77800 28.84900
C  47.76100 26.97600 31.49000
C  45.66600 22.62400 31.17300
C  46.43400 22.56400 26.38500
C  48.84500 26.80700 26.72600
N  46.89400 24.75200 31.13300
C  47.11100 25.84900 31.94500
C  46.73800 25.58300 33.38100
C  46.14000 24.18100 33.26200
C  46.17600 23.84200 31.79700
C  46.91700 23.12700 34.16300
C  45.64800 26.64800 33.91100
C  46.03200 27.48600 35.13900
H  45.11500 27.48800 36.43000
N  46.17000 22.84500 28.79000
C  45.65400 22.12500 29.80900
C  45.02600 20.89200 29.31300
C  45.21200 20.91200 27.89700
C  45.99000 22.14000 27.61600
C  44.18400 19.92300 30.21800
C  44.72000 19.98300 26.80800
O  44.93600 20.09700 25.56300
C  43.70700 18.91300 27.18900
N  47.46400 24.73600 26.90600
C  47.18800 23.72600 26.04800
C  47.69900 23.94900 24.63600
C  48.13600 25.41100 24.72800
C  48.19900 25.64100 26.21400
C  48.77600 22.94400 24.06600
C  47.19200 26.45300 23.96700
C  45.79200 26.53200 24.55600
N  48.10200 26.50600 29.00500
C  48.77500 27.28300 28.05400
C  49.29400 28.51600 28.64800
C  48.93600 28.41200 30.01200
C  48.22100 27.12600 30.21200
C  50.00600 29.65100 27.91100
C  48.92200 29.09700 31.23800
O  49.26400 30.19000 31.44200
C  48.19500 28.19600 32.29200
C  49.22100 27.96100 33.34100
O  50.09700 27.09500 33.32200
O  49.12500 28.95800 34.30200
C  50.05500 28.82600 35.44200
H  45.22000 21.91100 31.87000
H  46.33200 21.91100 25.51600
H  49.41100 27.42100 26.02300
H  47.65900 25.61400 33.96500
H  45.10300 24.20300 33.59800
H  46.92200 22.16400 33.65200
H  46.35400 23.02700 35.09000
H  47.91300 23.49200 34.41400
H  44.64400 26.23800 34.01800
H  45.64900 27.33200 33.06200
H  45.92200 28.51800 34.80500
H  47.08000 27.29400 35.37200
H  43.23900 19.75000 29.70400
H  43.90300 20.36900 31.17300
H  44.71900 18.98500 30.36400
H  42.84100 19.24900 27.75900
H  44.18400 18.04100 27.63700
H  43.26100 18.55800 26.26000
H  46.83200 23.83700 23.98500
H  49.16800 25.43800 24.37700
H  48.56200 21.94900 24.45700
H  49.82000 23.23200 24.18700
H  48.57900 22.94500 22.99400
H  47.01100 26.01100 22.98700
H  47.71100 27.41100 23.96700
H  45.82600 27.30600 25.32300
H  45.44100 25.55500 24.88900
H  45.10800 26.88700 23.78500
H  49.78000 29.67700 26.84500
H  51.08600 29.56800 28.03400
H  49.70600 30.61900 28.31100
H  47.38000 28.79400 32.69800
H  49.67600 28.06800 36.12800
H  50.19000 29.78500 35.94200
H  51.05700 28.51700 35.14500

