79

Mg 7.15400 54.30200 40.94900
C  6.87100 50.69700 41.00300
C  10.43700 53.75600 40.11300
C  7.30500 57.50300 40.08900
C  3.86900 54.45000 41.87700
N  8.46800 52.38600 40.55200
C  8.12900 51.06600 40.65600
C  9.39600 50.15900 40.47400
C  10.59200 51.16800 40.65300
C  9.84000 52.55800 40.50100
C  11.53500 51.04900 41.84200
C  9.39300 49.38600 39.08200
C  9.12000 50.30100 37.85000
H  7.72100 50.36400 37.20500
N  8.67400 55.52000 40.20800
C  9.89600 55.09100 39.83200
C  10.58300 56.14900 39.18200
C  9.80900 57.32100 39.21100
C  8.53000 56.83600 39.85900
C  11.99300 56.01200 38.55900
C  10.11800 58.79700 38.75900
O  11.27300 59.05200 38.41100
C  9.07700 59.92700 38.73300
N  5.81000 55.68900 40.83600
C  6.13000 57.03300 40.59900
C  4.95200 57.93400 40.99100
C  3.82500 56.94400 41.49800
C  4.51000 55.62800 41.36500
C  5.33000 59.09000 41.96400
C  2.47900 57.12800 40.70900
C  1.31400 57.84400 41.39500
N  5.58400 52.93900 41.28900
C  4.28300 53.12100 41.74300
C  3.69100 51.82700 42.18700
C  4.66700 50.90400 41.89100
C  5.80300 51.62500 41.32500
C  2.41000 51.68600 42.90200
C  4.93800 49.50500 41.95800
O  4.31600 48.68500 42.54000
C  6.33700 49.27600 41.30100
C  6.07900 48.47700 40.06100
O  5.92400 48.83400 38.90400
O  5.93700 47.19800 40.41500
C  5.36500 46.25700 39.45700
H  11.45300 53.46700 39.83600
H  7.29300 58.58600 39.94400
H  2.92300 54.70900 42.35500
H  9.35900 49.47200 41.31900
H  11.25700 51.11000 39.79100
H  12.57700 50.94600 41.54000
H  11.27300 50.33900 42.62700
H  11.44700 51.98200 42.39900
H  8.79300 48.47900 39.16100
H  10.43000 49.08500 38.92700
H  9.91900 49.97000 37.18600
H  9.22400 51.34100 38.16100
H  12.15700 54.96100 38.31800
H  12.81300 56.36000 39.18700
H  11.85200 56.61900 37.66400
H  8.17400 59.68000 38.17600
H  9.43800 60.83700 38.25400
H  8.73500 60.21600 39.72700
H  4.55600 58.37000 40.07400
H  3.61900 57.14500 42.54900
H  6.36100 59.40200 41.79700
H  5.04300 58.84800 42.98800
H  4.61500 59.89800 41.81300
H  2.11900 56.15500 40.37600
H  2.63400 57.69300 39.78900
H  1.58700 58.23000 42.37600
H  0.45600 57.18400 41.52200
H  0.92900 58.69200 40.82800
H  2.49600 52.21000 43.85400
H  2.00900 50.72500 43.22500
H  1.59200 52.17000 42.36900
H  7.08100 48.74300 41.89400
H  4.94700 45.40700 39.99700
H  6.11800 45.91400 38.74700
H  4.49400 46.65700 38.93900

