79

Mg 54.96900 24.84300 45.80500
C  52.19600 26.49900 44.24600
C  53.37300 21.84700 44.67100
C  57.73600 23.37800 46.34400
C  56.14500 27.83000 46.66600
N  53.02400 24.26200 44.46800
C  52.05200 25.09900 44.06900
C  50.78500 24.40500 43.55000
C  51.15600 22.87600 43.84000
C  52.58600 22.98100 44.45200
C  50.13000 22.00400 44.62000
C  50.32700 24.59800 42.11000
C  48.82200 24.67100 41.82600
H  48.29600 23.97400 40.52700
N  55.47900 22.90000 45.61900
C  54.75200 21.80200 45.13400
C  55.59100 20.63600 45.14000
C  56.83800 20.99300 45.53300
C  56.76300 22.47300 45.85400
C  55.10200 19.28300 44.61000
C  58.01700 20.07500 45.51400
O  57.78200 18.91600 45.18800
C  59.43800 20.52600 45.92000
N  56.81100 25.52300 46.23900
C  57.73900 24.74200 46.63600
C  58.86600 25.48900 47.37000
C  58.46400 26.97300 47.16000
C  57.02000 26.77600 46.73500
C  59.26900 25.01700 48.83000
C  59.25400 27.63000 45.97300
C  59.18100 29.17600 45.98900
N  54.35000 26.83800 45.58600
C  54.90500 27.92700 46.06100
C  54.08700 29.08700 45.79300
C  52.92500 28.60200 45.22300
C  53.21300 27.20400 44.96700
C  54.59900 30.46700 46.08400
C  51.65900 28.91600 44.55800
O  51.14200 30.04900 44.41500
C  51.13200 27.57800 43.97800
C  50.97800 27.83600 42.50600
O  51.90600 28.01700 41.67800
O  49.65800 27.92200 42.18900
C  49.30600 28.23800 40.79900
H  52.85600 20.89800 44.51000
H  58.70500 22.92900 46.57000
H  56.60400 28.80200 46.85700
H  49.99600 24.76500 44.21000
H  51.26100 22.38000 42.87500
H  50.60100 21.73600 45.56600
H  49.81700 21.14900 44.02100
H  49.18200 22.51300 44.79600
H  50.65400 23.84900 41.38900
H  50.75000 25.51400 41.69800
H  48.45800 25.69700 41.87400
H  48.32300 24.17400 42.65800
H  54.03000 19.11700 44.50300
H  55.42600 18.49100 45.28600
H  55.61600 18.91900 43.72100
H  59.82300 21.47200 45.54000
H  60.09100 19.66200 45.79300
H  59.44100 20.71600 46.99300
H  59.81300 25.38800 46.83900
H  58.45700 27.53200 48.09500
H  60.34600 24.86100 48.89300
H  58.75100 24.08500 49.05600
H  59.05100 25.77900 49.57800
H  58.91900 27.26000 45.00500
H  60.30600 27.38500 46.11500
H  58.69100 29.56400 45.09700
H  60.15900 29.65900 45.97100
H  58.69700 29.67800 46.82700
H  55.68800 30.52100 46.07500
H  54.34400 30.74200 47.10800
H  54.07500 31.13300 45.39900
H  50.13600 27.34500 44.35600
H  48.45600 28.90800 40.67600
H  48.97900 27.34800 40.26200
H  50.12100 28.68100 40.22600

