79

Mg 26.74900 50.43900 26.73000
C  25.07500 51.73700 29.51700
C  29.37800 49.69800 28.97000
C  28.42100 49.26100 24.16200
C  24.25000 51.60000 24.64200
N  27.17000 50.82500 28.94600
C  26.29900 51.26900 29.83700
C  26.79600 50.88500 31.21500
C  28.33300 50.63900 31.04400
C  28.30300 50.42600 29.53100
C  29.10000 51.81600 31.63100
C  25.95900 49.70800 31.81200
C  25.09300 50.03100 33.04200
H  25.88400 50.04700 34.34400
N  28.57500 49.55200 26.54800
C  29.42300 49.23400 27.60900
C  30.54700 48.57300 27.07400
C  30.43900 48.54400 25.64100
C  29.13800 49.12500 25.36500
C  31.69300 48.00400 27.92100
C  31.36900 47.89000 24.59500
O  31.10300 47.85100 23.41100
C  32.62600 47.21800 24.97700
N  26.44900 50.58600 24.60000
C  27.20800 49.77200 23.81200
C  26.60600 49.57700 22.43200
C  25.19300 50.28700 22.62000
C  25.24900 50.79200 24.07100
C  27.48700 50.19200 21.23600
C  23.98900 49.37200 22.40100
C  22.95600 49.78200 21.34300
N  25.14500 51.61600 26.93100
C  24.15600 51.87300 26.04200
C  22.96100 52.51700 26.69000
C  23.30400 52.44800 28.03400
C  24.67100 51.87500 28.15100
C  21.68200 52.97600 26.01000
C  22.76200 52.68600 29.34000
O  21.67000 53.11700 29.71500
C  23.96300 52.23700 30.37400
C  24.45000 53.32800 31.26300
O  25.22800 54.20500 30.92900
O  23.86400 53.24500 32.45500
C  23.94300 54.36100 33.36800
H  30.11300 49.31800 29.68300
H  28.93000 48.75300 23.34000
H  23.35900 51.87400 24.07200
H  26.70100 51.73600 31.88800
H  28.57700 49.74500 31.61700
H  28.63900 51.96800 32.60700
H  28.82800 52.69600 31.04900
H  30.18800 51.76300 31.60200
H  26.56500 48.84900 32.10100
H  25.35000 49.27200 31.01900
H  24.43000 49.20900 33.31000
H  24.41100 50.87800 32.96800
H  32.59900 48.57800 27.72600
H  31.91000 46.95000 27.75100
H  31.47300 47.95700 28.98700
H  33.28800 47.82000 25.59900
H  33.16000 47.01300 24.04900
H  32.35400 46.28000 25.46200
H  26.54000 48.50600 22.24000
H  25.14000 51.17500 21.99000
H  27.18500 51.19000 20.91700
H  27.42700 49.51300 20.38600
H  28.50200 50.38400 21.58500
H  23.42700 49.37600 23.33500
H  24.28000 48.33200 22.25900
H  23.38200 50.61200 20.77800
H  21.94900 50.04800 21.66400
H  22.96100 48.89800 20.70500
H  21.86300 53.92400 25.50300
H  20.82100 53.05600 26.67300
H  21.36400 52.27400 25.23900
H  23.70000 51.36300 30.97000
H  23.98400 53.99200 34.39300
H  23.07300 55.00300 33.22400
H  24.76800 54.99900 33.05100

