79

Mg 0.29200 7.99700 25.46300
C  0.86800 9.76100 28.45000
C  0.13500 5.11800 27.42200
C  -0.12100 6.22500 22.68200
C  0.82800 10.87100 23.60100
N  0.39200 7.51300 27.68000
C  0.48500 8.43700 28.67800
C  0.43900 7.83100 30.03200
C  0.36600 6.26200 29.75200
C  0.27100 6.26500 28.24500
C  1.46900 5.28800 30.37400
C  -0.70300 8.41500 30.86300
C  -0.53500 8.17400 32.40700
H  -0.53400 6.66100 32.80400
N  0.04200 5.97500 25.07600
C  0.07400 4.94800 25.99100
C  0.03600 3.61900 25.25400
C  -0.02800 3.97300 23.84000
C  -0.00600 5.48300 23.84300
C  0.27300 2.24000 25.90100
C  -0.10400 3.03000 22.61600
O  -0.05400 3.45800 21.44900
C  -0.12900 1.55300 22.82900
N  0.34300 8.49700 23.40200
C  0.06600 7.57200 22.45700
C  -0.10200 8.22700 21.06600
C  0.03500 9.79400 21.45700
C  0.46700 9.71600 22.88500
C  0.93300 7.75100 19.95100
C  -1.24100 10.67500 21.23400
C  -2.18500 10.98800 22.41200
N  0.81100 9.86300 25.86600
C  1.00000 10.94800 25.01700
C  1.42800 12.02200 25.75800
C  1.43200 11.66900 27.13900
C  0.99700 10.27000 27.12800
C  1.64300 13.51800 25.23600
C  1.64200 12.14100 28.54000
O  2.14600 13.16500 28.92600
C  1.14100 10.88400 29.42200
C  2.22400 10.46800 30.32400
O  3.24600 9.89600 30.03500
O  1.89200 10.89900 31.59500
C  2.86600 10.49400 32.64500
H  0.25000 4.26300 28.09200
H  -0.19600 5.71000 21.72100
H  0.97600 11.74500 22.96300
H  1.41000 7.98500 30.50200
H  -0.59700 5.82400 30.01300
H  1.01400 4.52900 31.01000
H  2.14100 5.87700 30.99900
H  2.04900 4.87400 29.54900
H  -1.60000 7.84600 30.62100
H  -0.75200 9.50000 30.77100
H  -1.26400 8.73500 32.99200
H  0.32100 8.68200 32.85200
H  -0.69200 1.78900 25.66800
H  0.36700 2.27000 26.98700
H  1.14700 1.70200 25.53300
H  -1.09400 1.43500 23.32200
H  0.74000 1.25800 23.41600
H  -0.04900 1.07800 21.85200
H  -1.09100 7.94600 20.70400
H  0.87600 10.25000 20.93500
H  1.21900 8.57900 19.30200
H  0.56700 6.93600 19.32600
H  1.79100 7.28300 20.43400
H  -1.81800 10.18300 20.45100
H  -0.89200 11.62500 20.83000
H  -1.72600 10.58900 23.31700
H  -3.06200 10.37800 22.19600
H  -2.42700 12.03500 22.59800
H  1.13500 13.64900 24.28100
H  2.68100 13.81400 25.38700
H  1.18900 14.21700 25.93800
H  0.24500 11.17100 29.97300
H  3.50100 11.25500 33.10000
H  3.50700 9.63700 32.43500
H  2.23900 10.23200 33.49700

