79

Mg 55.01500 25.01300 45.59000
C  52.23000 26.81300 44.50400
C  53.99600 22.36400 43.71100
C  58.02800 23.50500 46.14200
C  56.27200 27.92700 46.99000
N  53.45300 24.73400 44.02900
C  52.34900 25.57500 43.74500
C  51.53500 24.87200 42.59800
C  51.84900 23.36600 42.75700
C  53.21600 23.46700 43.51300
C  50.87800 22.56200 43.66400
C  51.85900 25.45900 41.19800
C  50.68100 25.82100 40.33500
H  51.13200 26.28000 38.93400
N  55.86300 23.15400 45.00300
C  55.22700 22.18800 44.35100
C  56.05900 21.04600 44.17900
C  57.21900 21.26500 45.00300
C  57.07800 22.69500 45.43600
C  55.64300 19.69100 43.51400
C  58.21900 20.16500 45.35700
O  58.25200 19.01900 44.88200
C  59.21600 20.47100 46.39900
N  56.95800 25.62900 46.20000
C  57.98500 24.79600 46.48600
C  59.06200 25.49000 47.24700
C  58.64300 27.01600 47.22500
C  57.16300 26.82800 46.84300
C  59.29900 24.98400 48.71600
C  59.28800 28.00400 46.14500
C  59.62500 29.47800 46.56800
N  54.36500 26.97900 45.83400
C  54.94500 28.00700 46.52800
C  53.98500 29.08600 46.62600
C  52.88900 28.62300 45.87100
C  53.17700 27.36900 45.37400
C  54.14300 30.22000 47.53600
C  51.54000 28.94700 45.38600
O  50.89000 29.95200 45.54000
C  50.99600 27.75300 44.52600
C  50.39900 28.21500 43.25400
O  50.98900 28.57900 42.25500
O  49.01600 28.01200 43.37600
C  48.16500 28.45000 42.29400
H  53.55000 21.45700 43.29700
H  59.03100 23.12100 46.33800
H  56.78300 28.79200 47.41600
H  50.46900 25.02700 42.76200
H  51.97100 22.81900 41.82200
H  49.90900 22.96900 43.95100
H  51.33300 22.09900 44.54000
H  50.63300 21.66600 43.09300
H  52.49400 24.75000 40.66700
H  52.41900 26.39400 41.20100
H  50.19300 26.69400 40.76900
H  50.08500 24.90900 40.30000
H  54.71800 19.64100 42.94000
H  55.48800 19.03200 44.36900
H  56.57400 19.34000 43.06900
H  58.74900 20.90500 47.28300
H  59.86900 21.17600 45.88400
H  59.82200 19.62400 46.72100
H  59.97000 25.29600 46.67600
H  58.75500 27.47200 48.20900
H  60.16600 24.32600 48.65800
H  58.45300 24.34700 48.97200
H  59.50400 25.73300 49.48100
H  58.63400 28.07700 45.27600
H  60.22200 27.57900 45.77800
H  60.71100 29.53600 46.64500
H  59.26800 29.71300 47.57100
H  59.34300 30.08700 45.70900
H  54.50800 31.04500 46.92500
H  54.87000 30.06600 48.33400
H  53.17100 30.49500 47.94600
H  50.34800 27.05000 45.04900
H  47.14500 28.55400 42.66300
H  48.31400 27.76300 41.46100
H  48.38500 29.47400 41.99200

