79

Mg -11.11400 40.40700 42.43700
C  -9.51400 37.65400 41.09600
C  -8.75900 42.43500 40.85100
C  -12.89100 43.11000 43.32200
C  -13.81500 38.37900 43.24400
N  -9.38600 40.06700 40.97200
C  -8.89100 38.81700 40.62100
C  -7.70400 38.91700 39.59200
C  -7.40800 40.43000 39.71600
C  -8.56300 41.06900 40.59600
C  -5.98100 40.79100 40.30800
C  -7.84000 38.20600 38.23600
C  -7.09400 36.84000 38.05400
H  -5.94200 36.75800 37.05900
N  -10.73700 42.56900 42.34800
C  -9.72000 43.10900 41.65500
C  -9.82700 44.51800 41.81300
C  -11.04600 44.77700 42.58800
C  -11.62400 43.50500 42.75300
C  -8.85200 45.45700 41.25500
C  -11.57300 46.18200 43.02600
O  -10.88300 47.17500 42.84900
C  -12.87400 46.26500 43.91300
N  -13.10300 40.69400 43.19500
C  -13.57700 41.89700 43.49400
C  -14.88700 41.77600 44.16800
C  -15.27000 40.27500 44.01600
C  -13.98600 39.73300 43.49800
C  -14.91400 42.20700 45.64100
C  -16.48700 40.04400 43.04500
C  -17.39000 38.80700 43.37200
N  -11.61000 38.46100 42.33900
C  -12.68100 37.73000 42.82600
C  -12.41500 36.33600 42.71600
C  -11.18900 36.28300 42.06100
C  -10.73100 37.61100 41.84100
C  -13.38000 35.21800 43.06500
C  -10.18100 35.36500 41.53900
O  -10.17700 34.12900 41.67800
C  -9.00600 36.23700 40.91300
C  -7.80100 35.89100 41.70200
O  -7.37300 36.49000 42.68800
O  -7.12300 34.92600 41.03600
C  -5.71200 34.83100 41.25500
H  -7.97000 43.04000 40.39900
H  -13.68400 43.82700 43.54200
H  -14.64800 37.69900 43.43100
H  -6.98300 38.38300 40.21100
H  -7.42700 40.89700 38.73100
H  -5.46100 39.88400 40.61600
H  -6.13700 41.52900 41.09400
H  -5.32800 41.27800 39.58400
H  -7.33400 38.78300 37.46200
H  -8.91300 38.10700 38.07100
H  -7.86600 36.11900 37.78800
H  -6.60100 36.55000 38.98200
H  -9.38800 45.95900 40.44900
H  -7.90800 44.96000 41.03200
H  -8.52200 46.21300 41.96700
H  -12.96100 45.48000 44.66400
H  -13.68200 46.11300 43.19800
H  -12.92600 47.26000 44.35600
H  -15.54200 42.42500 43.58700
H  -15.61400 39.71700 44.88800
H  -15.61800 43.02400 45.79900
H  -13.92900 42.55800 45.94800
H  -15.21200 41.37200 46.27500
H  -15.90800 39.83200 42.14600
H  -16.96200 41.02500 43.01300
H  -18.45300 39.04700 43.38200
H  -17.23300 38.40100 44.37100
H  -17.13200 38.01100 42.67300
H  -13.61500 35.15200 44.12700
H  -13.19900 34.22400 42.65600
H  -14.30800 35.55100 42.60000
H  -8.85500 35.91900 39.88200
H  -5.77400 34.31500 42.21300
H  -5.24300 35.81000 41.35400
H  -5.24700 34.14700 40.54500

