79

Mg -12.92900 38.38600 42.23300
C  -11.68700 35.41100 40.85300
C  -10.32200 40.15000 40.64900
C  -14.48500 41.47500 42.79000
C  -15.49600 36.73800 43.56900
N  -11.22200 37.80700 40.79500
C  -10.89200 36.52000 40.46200
C  -9.56100 36.50100 39.66500
C  -9.04700 37.99100 39.78100
C  -10.19400 38.71500 40.56000
C  -7.69500 38.07700 40.48400
C  -9.84700 35.96800 38.18400
C  -8.79400 34.94200 37.84600
H  -7.64200 35.53900 36.89700
N  -12.47500 40.53700 41.79500
C  -11.36300 40.99000 41.15300
C  -11.36100 42.38700 41.16700
C  -12.56900 42.80400 41.68200
C  -13.28300 41.59600 42.13500
C  -10.23200 43.25800 40.60900
C  -13.07200 44.30900 41.79100
O  -12.40300 45.22900 41.38700
C  -14.29900 44.67300 42.50800
N  -14.78400 39.02300 42.81200
C  -15.02600 40.27200 43.24800
C  -16.30400 40.30700 44.16700
C  -16.49700 38.80200 44.51000
C  -15.49700 38.10700 43.59500
C  -16.24500 41.29100 45.37700
C  -17.93100 38.26200 44.25000
C  -19.11800 39.04800 44.94300
N  -13.58800 36.43800 42.23300
C  -14.60900 35.88300 42.90500
C  -14.62700 34.40200 42.66600
C  -13.39100 34.24800 41.96300
C  -12.88300 35.47600 41.63200
C  -15.69000 33.40600 42.92700
C  -12.51800 33.25600 41.38200
O  -12.62000 32.05200 41.53900
C  -11.38400 33.95700 40.52000
C  -10.10200 33.43800 41.01200
O  -9.48900 32.51400 40.48500
O  -9.73700 33.98000 42.26300
C  -8.73600 33.13500 42.94400
H  -9.43800 40.59800 40.19100
H  -15.08600 42.29100 43.19600
H  -16.28100 36.15600 44.05600
H  -8.93600 35.82800 40.25100
H  -8.94100 38.40300 38.77700
H  -7.11100 37.16600 40.35300
H  -7.83800 38.16200 41.56100
H  -7.14700 38.93600 40.09600
H  -9.72200 36.76200 37.44800
H  -10.83400 35.50800 38.14000
H  -9.31800 34.18300 37.26500
H  -8.29000 34.53600 38.72300
H  -9.28700 42.72900 40.48700
H  -9.96000 43.95900 41.39800
H  -10.51200 43.86500 39.74700
H  -15.11100 44.05300 42.12800
H  -14.54900 45.72900 42.40200
H  -14.23000 44.46400 43.57600
H  -17.06500 40.80400 43.56500
H  -16.23700 38.65000 45.55700
H  -16.58200 42.29200 45.10600
H  -15.25300 41.25200 45.82700
H  -16.89800 40.99700 46.19900
H  -17.99600 37.26300 44.68100
H  -18.02100 38.14900 43.17000
H  -18.72400 39.78400 45.64500
H  -19.78300 38.43200 45.54800
H  -19.76200 39.45300 44.16200
H  -16.39100 33.52900 42.10200
H  -16.02600 33.67600 43.92800
H  -15.25100 32.41000 42.86600
H  -11.32600 33.64000 39.47800
H  -8.55800 33.75700 43.82000
H  -7.80600 32.96100 42.40300
H  -9.19800 32.17100 43.15900

