79

Mg -5.27000 24.59100 26.55900
C  -3.64600 26.29900 29.22500
C  -6.39900 22.33300 28.84000
C  -6.58000 23.34900 23.97500
C  -3.32200 27.03200 24.40700
N  -5.10900 24.27100 28.74700
C  -4.49500 25.22800 29.61400
C  -4.82100 24.91700 31.07600
C  -5.37300 23.46000 30.93300
C  -5.69400 23.33300 29.43800
C  -4.41400 22.25600 31.36000
C  -5.76000 25.89600 31.72800
C  -5.48600 26.25000 33.19600
H  -5.53300 25.00600 34.03400
N  -6.41500 23.00500 26.43800
C  -6.81200 22.17600 27.43700
C  -7.55500 21.11100 26.76500
C  -7.62300 21.44600 25.41100
C  -6.87000 22.70100 25.21300
C  -7.94500 19.84900 27.54500
C  -8.29400 20.69900 24.25600
O  -8.34400 21.03100 23.02300
C  -9.18600 19.54900 24.64100
N  -4.87100 25.07400 24.51900
C  -5.64800 24.32600 23.65100
C  -5.45300 24.81000 22.22700
C  -4.51500 26.06500 22.37400
C  -4.22100 26.07200 23.87100
C  -4.94100 23.75200 21.21800
C  -5.14900 27.34100 21.77600
C  -4.30400 28.17500 20.83900
N  -3.66500 26.17600 26.76600
C  -3.08300 27.05400 25.80600
C  -2.26100 28.10100 26.42600
C  -2.51100 27.81700 27.79300
C  -3.27800 26.67200 27.92400
C  -1.58000 29.20600 25.78300
C  -2.20200 28.31600 29.05100
O  -1.51600 29.32100 29.33600
C  -2.83500 27.27600 30.05300
C  -1.74200 26.63300 30.72700
O  -0.96700 25.87900 30.21500
O  -1.80000 26.93900 32.03600
C  -0.80600 26.34800 33.03300
H  -6.86100 21.56800 29.46900
H  -7.06700 22.92900 23.09300
H  -2.90300 27.78000 23.73000
H  -3.85800 24.93900 31.58600
H  -6.25800 23.30400 31.55000
H  -4.50800 22.16400 32.44200
H  -3.36500 22.47200 31.15700
H  -4.66900 21.39600 30.74000
H  -6.77000 25.48900 31.74500
H  -5.86900 26.68500 30.98500
H  -6.22100 26.93700 33.61600
H  -4.48800 26.68300 33.25100
H  -9.02000 19.88200 27.72400
H  -7.42700 19.88500 28.50300
H  -7.57300 18.94800 27.05800
H  -8.53100 18.74300 24.97100
H  -9.71100 19.20800 23.74800
H  -9.83800 19.76700 25.48600
H  -6.41000 25.10400 21.79700
H  -3.57000 25.85700 21.87100
H  -3.94400 24.01800 20.86700
H  -5.70000 23.51400 20.47300
H  -4.81500 22.79300 21.72000
H  -5.37500 28.04200 22.58000
H  -6.12800 27.08600 21.36900
H  -3.28700 27.79800 20.95600
H  -4.34100 29.22000 21.14700
H  -4.69500 28.04500 19.83000
H  -2.10800 29.39600 24.84900
H  -0.55400 28.89500 25.58100
H  -1.48000 30.16700 26.28700
H  -3.50600 27.81600 30.72100
H  -0.13500 27.06200 33.51100
H  -0.24500 25.53000 32.58200
H  -1.43200 25.98900 33.85000

