79

Mg 1.12600 7.78400 26.10500
C  1.78500 9.76700 28.79500
C  1.41800 4.99400 28.18500
C  0.49500 5.91300 23.36700
C  1.56800 10.68100 23.92500
N  1.52400 7.46500 28.25200
C  1.76800 8.45100 29.18200
C  1.90600 7.87400 30.60200
C  1.97000 6.31900 30.32900
C  1.59200 6.23400 28.82500
C  3.24200 5.52500 30.69500
C  0.76300 8.27300 31.50400
C  1.06000 8.25400 32.99900
H  2.20200 7.41200 33.59100
N  0.90600 5.71600 25.80200
C  1.23200 4.76500 26.77500
C  0.87500 3.47700 26.16800
C  0.53400 3.71700 24.78900
C  0.68100 5.16000 24.58800
C  1.08400 2.13900 26.87700
C  -0.03900 2.85800 23.76800
O  -0.42800 3.19200 22.63900
C  -0.08900 1.37800 24.12500
N  0.99700 8.26600 23.96500
C  0.61800 7.25600 23.07400
C  0.27300 7.87200 21.65400
C  0.89700 9.35700 21.82000
C  1.19200 9.43700 23.29100
C  0.94900 7.14300 20.49600
C  0.00100 10.46200 21.18300
C  -1.19200 10.80900 22.02900
N  1.62600 9.79500 26.24700
C  1.73200 10.77600 25.26100
C  2.17500 11.98400 25.92900
C  2.15700 11.74600 27.34000
C  1.75100 10.35100 27.46000
C  2.64100 13.22900 25.21600
C  2.34500 12.22100 28.72000
O  2.70700 13.30800 29.06800
C  2.05800 10.98900 29.70800
C  3.18600 10.86900 30.64300
O  4.37400 10.68600 30.26900
O  2.75300 10.91200 31.96600
C  3.78600 10.82200 32.98600
H  1.54300 4.11400 28.82000
H  0.14700 5.39700 22.47000
H  1.67400 11.62000 23.37800
H  2.83700 8.25400 31.02400
H  1.16900 5.78700 30.84300
H  3.05600 4.62900 31.28700
H  3.92900 6.00900 31.38900
H  3.72900 5.18400 29.78100
H  -0.08300 7.64000 31.23500
H  0.31100 9.24900 31.32400
H  0.12500 7.95000 33.46900
H  1.26100 9.25100 33.39000
H  1.71100 2.23200 27.76500
H  1.54800 1.36200 26.27000
H  0.19300 1.75000 27.37100
H  -0.55800 1.17300 25.08700
H  0.95200 1.06600 24.05300
H  -0.77900 0.81100 23.49900
H  -0.80900 7.93500 21.53900
H  1.87600 9.23300 21.35700
H  0.81300 7.76300 19.60900
H  0.53600 6.14000 20.39000
H  1.99900 6.91800 20.68300
H  -0.26800 10.13500 20.17800
H  0.67200 11.31200 21.06100
H  -2.15000 10.85300 21.51100
H  -1.00600 11.82800 22.36700
H  -1.28600 10.31600 22.99700
H  3.61100 12.97400 24.78900
H  2.58900 14.06100 25.91800
H  2.10300 13.43400 24.29100
H  1.13100 11.01500 30.28000
H  4.00300 11.85100 33.27300
H  4.66500 10.23700 32.71500
H  3.29500 10.42000 33.87200

