79

Mg -2.41700 16.94300 26.58700
C  -2.82900 14.90000 29.55900
C  -3.54700 19.59200 28.48900
C  -2.51100 18.63400 23.80900
C  -2.34300 13.78700 24.77600
N  -3.23100 17.19200 28.78300
C  -3.19100 16.26400 29.82000
C  -3.74500 16.92200 31.10400
C  -3.96400 18.43700 30.68900
C  -3.52900 18.43400 29.22500
C  -5.43700 18.93400 30.91700
C  -2.94600 16.63200 32.40200
C  -3.01400 17.52800 33.69000
H  -2.65800 16.92300 35.07000
N  -2.88500 18.91300 26.26100
C  -3.21300 19.90100 27.12400
C  -3.24800 21.11900 26.49200
C  -3.03300 20.87400 25.07600
C  -2.75500 19.47200 24.98900
C  -3.42500 22.40300 27.13200
C  -2.94700 21.88700 23.87000
O  -2.63900 21.54900 22.73800
C  -3.19200 23.31200 24.14400
N  -2.39800 16.30500 24.61000
C  -2.26100 17.24800 23.59500
C  -2.23400 16.56300 22.20800
C  -1.90300 15.06400 22.59600
C  -2.28200 15.01700 24.08000
C  -3.70900 16.74500 21.61300
C  -0.39200 14.74100 22.35100
C  0.72600 15.42100 23.16300
N  -2.45300 14.80600 26.99000
C  -2.37800 13.75700 26.15700
C  -2.34600 12.59800 26.98000
C  -2.58700 12.99700 28.26500
C  -2.67400 14.33200 28.26500
C  -2.31800 11.22300 26.52800
C  -2.71000 12.49500 29.58100
O  -2.65300 11.35000 29.94400
C  -2.97600 13.71600 30.52200
C  -1.99000 13.60700 31.59600
O  -0.92900 14.20200 31.56400
O  -2.49000 12.97000 32.72100
C  -1.62700 12.90900 33.91800
H  -3.88000 20.43800 29.09300
H  -2.37100 19.27700 22.93700
H  -2.29200 12.91700 24.11800
H  -4.67800 16.36900 31.21300
H  -3.31200 19.15500 31.18600
H  -5.88800 18.37300 31.73500
H  -6.04200 18.71000 30.03800
H  -5.42100 20.02300 30.95500
H  -1.90800 16.58400 32.07300
H  -3.28400 15.64300 32.71000
H  -4.05800 17.83900 33.74000
H  -2.32200 18.33900 33.46200
H  -3.63700 22.23800 28.18800
H  -4.15900 23.08600 26.70300
H  -2.49100 22.96400 27.08900
H  -3.18600 23.86600 23.20500
H  -2.44600 23.70900 24.83300
H  -4.15700 23.60200 24.55900
H  -1.42000 16.99500 21.62800
H  -2.52700 14.35300 22.05500
H  -3.51500 17.18200 20.63300
H  -4.44900 17.38900 22.08900
H  -4.23200 15.80200 21.45500
H  -0.18200 14.96800 21.30600
H  -0.21100 13.66800 22.41600
H  1.31000 16.11900 22.56400
H  1.43400 14.66800 23.51000
H  0.20500 15.86300 24.01200
H  -1.67600 11.05100 25.66400
H  -3.31300 10.79300 26.41500
H  -1.82500 10.63100 27.30000
H  -3.97100 13.67300 30.96300
H  -0.66800 12.45800 33.66500
H  -2.08900 12.28800 34.68500
H  -1.38800 13.91700 34.25700

