79

Mg 9.12100 3.66400 27.89200
C  10.62700 2.23700 30.77500
C  7.35000 5.74000 29.97900
C  7.82100 4.98700 25.28000
C  10.77400 1.22900 25.93100
N  8.84000 3.72800 30.18200
C  9.63400 3.17200 31.18100
C  9.46100 3.86000 32.56200
C  8.30400 4.86900 32.22200
C  8.17900 4.80100 30.68200
C  6.92500 4.77600 32.97800
C  10.75500 4.65300 33.08100
C  11.33800 4.09300 34.47400
H  11.71400 5.20900 35.49200
N  7.74000 5.19900 27.65600
C  7.10000 5.93300 28.61100
C  6.18800 6.86200 27.96700
C  6.28100 6.68400 26.57200
C  7.34000 5.59300 26.45000
C  5.32500 7.78500 28.82400
C  5.62200 7.30500 25.35200
O  5.95900 6.97000 24.20700
C  4.45200 8.28000 25.58800
N  9.43300 3.22500 25.81600
C  8.59500 3.89400 24.96700
C  8.82600 3.32300 23.49100
C  9.75400 2.08000 23.76800
C  10.04800 2.21300 25.26900
C  7.46300 2.88700 22.79400
C  11.04300 2.20200 22.97100
C  11.26100 1.03200 21.94900
N  10.32700 2.00200 28.18800
C  10.96100 1.14100 27.29100
C  11.85800 0.35100 28.04300
C  11.71600 0.78900 29.35800
C  10.79500 1.76000 29.45300
C  12.56500 -0.82800 27.48400
C  12.30000 0.48800 30.67200
O  13.05000 -0.36600 31.08100
C  11.57300 1.49100 31.65700
C  10.77400 0.64000 32.65700
O  9.80600 -0.08400 32.52100
O  11.37900 0.96300 33.86700
C  10.63300 0.42400 35.00100
H  6.95800 6.55600 30.59000
H  7.40300 5.42800 24.37300
H  11.27500 0.50700 25.28400
H  9.24800 3.04200 33.25100
H  8.51400 5.90600 32.48400
H  6.03600 4.80100 32.34700
H  6.88600 5.53700 33.75700
H  6.99200 3.80600 33.47200
H  10.64800 5.72500 33.24900
H  11.56200 4.44100 32.38000
H  12.20200 3.46000 34.27500
H  10.56900 3.47600 34.94100
H  5.80000 8.76600 28.82900
H  5.23800 7.41500 29.84600
H  4.35900 7.85100 28.32300
H  3.63900 7.94500 26.23200
H  4.05800 8.56800 24.61300
H  4.91500 9.12200 26.10300
H  9.26200 4.06800 22.82500
H  9.17500 1.17600 23.58300
H  6.61000 2.93100 23.47200
H  7.53300 1.85400 22.45200
H  7.24400 3.48200 21.90800
H  11.87600 2.32300 23.66400
H  10.94900 3.10500 22.36800
H  11.39200 1.45300 20.95200
H  10.32600 0.48600 21.82400
H  11.98100 0.23300 22.12600
H  13.61200 -0.83100 27.78700
H  12.44900 -0.93200 26.40600
H  12.14000 -1.75600 27.86700
H  12.26600 2.10600 32.23200
H  10.27900 -0.59000 34.81700
H  9.76700 1.03100 35.26400
H  11.31300 0.32500 35.84800

