79

Mg 48.18500 34.55000 26.87500
C  45.92600 33.68500 29.45000
C  48.62900 37.58100 28.55100
C  49.38600 35.91700 23.97800
C  47.22400 31.75600 25.10500
N  47.48800 35.48500 28.93500
C  46.65100 34.87800 29.78500
C  46.64100 35.54000 31.17600
C  47.35300 36.93200 30.85100
C  47.83300 36.66400 29.38600
C  46.36000 38.11000 30.80300
C  47.58500 34.74600 32.14400
C  47.04600 34.62100 33.55200
H  47.74400 35.50900 34.59900
N  49.13600 36.42000 26.34300
C  49.15600 37.49300 27.24600
C  49.84300 38.52500 26.56000
C  50.08600 38.11100 25.24100
C  49.57700 36.77500 25.11600
C  50.09800 39.95700 27.15700
C  50.69100 38.93500 24.02600
O  50.72200 38.40900 22.87300
C  51.30100 40.34400 24.28900
N  48.28000 33.96000 24.87300
C  48.75200 34.66800 23.86600
C  48.60400 33.89900 22.50700
C  48.14800 32.44700 22.85400
C  47.85300 32.71200 24.37600
C  47.58300 34.57200 21.54200
C  49.15600 31.26100 22.67500
C  50.03700 30.83400 23.90300
N  46.93500 32.92900 27.21500
C  46.71800 31.83100 26.45700
C  45.73000 31.03300 27.08800
C  45.32200 31.78100 28.26000
C  46.13500 32.89400 28.29500
C  45.16300 29.82100 26.51600
C  44.38100 31.79500 29.42700
O  43.53200 31.01700 29.78500
C  44.74700 33.07300 30.23300
C  45.01900 32.64400 31.57100
O  45.94300 31.88000 31.77400
O  44.01900 33.02700 32.45300
C  44.02800 32.29300 33.77700
H  48.70500 38.52500 29.09400
H  49.74100 36.28600 23.01400
H  46.82000 30.94100 24.50000
H  45.69100 35.73200 31.67500
H  48.06100 37.23500 31.62200
H  46.66600 38.86900 31.52300
H  45.32900 37.79500 30.96000
H  46.39100 38.56800 29.81400
H  48.54000 35.26700 32.20500
H  47.81400 33.74200 31.78600
H  47.32400 33.61500 33.86600
H  45.96600 34.76400 33.51900
H  49.59300 40.18300 28.09700
H  49.79200 40.73200 26.45400
H  51.16500 40.13700 27.28900
H  50.50100 41.08200 24.35800
H  51.85200 40.52900 23.36800
H  51.89300 40.33800 25.20400
H  49.56400 33.85500 21.99200
H  47.18000 32.16500 22.44000
H  47.25500 35.54700 21.90400
H  46.68100 33.97600 21.40700
H  48.03900 34.58900 20.55200
H  49.72300 31.42800 21.75900
H  48.51500 30.38800 22.55000
H  49.57300 29.98000 24.39600
H  50.09500 31.54600 24.72600
H  51.02900 30.56000 23.54300
H  45.04100 29.88500 25.43500
H  44.21100 29.56800 26.98400
H  45.81200 28.96800 26.71500
H  43.88200 33.73200 30.16200
H  44.38600 31.26900 33.67500
H  42.99500 32.13500 34.08800
H  44.63300 32.88500 34.46300

