79

Mg -2.20600 34.79300 26.34600
C  -3.72600 33.61200 29.32800
C  -0.36900 36.92500 28.40400
C  -0.97000 36.12500 23.67000
C  -4.10800 32.61000 24.41500
N  -2.20900 35.31200 28.57000
C  -2.78500 34.58600 29.60000
C  -2.28800 34.99900 31.01100
C  -1.34000 36.25300 30.68100
C  -1.28400 36.13300 29.12900
C  -2.00400 37.61800 31.13000
C  -1.60300 33.87500 31.82000
C  -1.59800 33.95700 33.34200
H  -2.52700 33.10300 34.15800
N  -0.78100 36.30900 26.02200
C  -0.11200 36.99200 27.02700
C  0.91200 37.81100 26.35800
C  0.78000 37.61900 24.93600
C  -0.40200 36.66500 24.82700
C  1.94100 38.62500 27.09400
C  1.76900 37.97700 23.85700
O  1.67700 37.49900 22.77000
C  3.05500 38.71800 24.24400
N  -2.53600 34.51700 24.36400
C  -1.95100 35.24500 23.37600
C  -2.19500 34.62400 22.03100
C  -2.88400 33.25000 22.25200
C  -3.18200 33.41700 23.76700
C  -2.87100 35.48800 20.94600
C  -2.00100 32.01800 22.00200
C  -2.68600 30.83400 21.18600
N  -3.66600 33.43900 26.72300
C  -4.29000 32.57500 25.86000
C  -5.12000 31.66500 26.63400
C  -4.93200 32.01100 27.95400
C  -4.04000 33.14200 27.99900
C  -6.01200 30.62900 26.07300
C  -5.28200 31.59300 29.32300
O  -5.96600 30.68400 29.78900
C  -4.56400 32.68500 30.21600
C  -5.70000 33.29000 30.88500
O  -6.68000 33.84800 30.41800
O  -5.58200 32.96600 32.19600
C  -6.70000 33.47100 33.08600
H  0.26800 37.47900 29.09600
H  -0.51300 36.53300 22.76600
H  -4.61400 31.84100 23.82800
H  -3.20100 35.22100 31.56300
H  -0.35800 36.13400 31.14000
H  -1.43600 38.00000 31.97800
H  -3.07000 37.47800 31.30900
H  -1.94900 38.39400 30.36600
H  -0.54900 33.87800 31.54000
H  -1.91300 32.87400 31.51900
H  -1.69500 34.97200 33.72700
H  -0.59100 33.68500 33.65800
H  1.80300 38.60400 28.17500
H  1.81400 39.69400 26.92300
H  3.00000 38.42400 26.93000
H  2.87100 39.57600 24.89100
H  3.56300 38.97900 23.31500
H  3.54300 37.92300 24.80800
H  -1.17200 34.45000 21.69800
H  -3.85500 33.29300 21.75800
H  -2.14900 35.83900 20.20900
H  -3.31200 36.38600 21.37800
H  -3.72600 34.95700 20.52600
H  -1.80900 31.58500 22.98300
H  -1.01900 32.22700 21.57800
H  -1.95400 30.03000 21.10900
H  -3.02200 31.19600 20.21500
H  -3.52900 30.49200 21.78600
H  -6.88900 31.20500 25.77800
H  -6.31600 29.89200 26.81700
H  -5.56900 30.17100 25.18900
H  -3.84700 32.24200 30.90700
H  -6.83400 34.53300 32.88200
H  -6.29100 33.48800 34.09700
H  -7.67100 32.98100 33.01300

