79

Mg 49.55500 45.74900 41.86800
C  46.20100 46.26300 41.11900
C  49.42000 42.75800 40.56300
C  52.96800 45.62100 42.32100
C  49.75800 49.22000 42.76900
N  48.09000 44.80000 40.67100
C  46.79500 45.15900 40.48500
C  45.97300 44.07300 39.72300
C  46.93900 42.84400 39.85200
C  48.20600 43.46300 40.48800
C  46.30000 41.70200 40.64600
C  45.59100 44.57100 38.31800
C  44.20100 44.25400 37.66400
H  44.13200 43.21000 36.64300
N  50.97700 44.35100 41.51000
C  50.70600 43.12300 40.99500
C  52.00900 42.31600 40.84000
C  53.05600 43.07000 41.47100
C  52.38600 44.41700 41.86100
C  52.13400 41.04300 40.14900
C  54.46600 42.61600 41.61100
O  54.80300 41.48200 41.21900
C  55.52000 43.48300 42.23500
N  51.14100 47.28600 42.36400
C  52.44000 46.89000 42.58200
C  53.29600 48.06800 43.05800
C  52.27900 49.28900 42.99900
C  50.97300 48.58100 42.67100
C  54.01500 47.95000 44.44200
C  52.61600 50.49600 42.16400
C  51.92400 51.88900 42.61400
N  48.29500 47.39700 42.02400
C  48.48800 48.72200 42.53700
C  47.18400 49.31200 42.66000
C  46.27300 48.37900 42.21800
C  46.98100 47.23500 41.76800
C  46.87300 50.71300 43.12000
C  44.84600 48.05300 42.01100
O  43.87100 48.62900 42.50000
C  44.76200 46.76300 41.18000
C  43.76000 45.76700 41.79600
O  42.86200 45.17800 41.16600
O  43.88900 45.78500 43.20200
C  42.88200 44.91600 43.81200
H  49.20700 41.76300 40.16600
H  54.05700 45.66000 42.39000
H  49.65800 50.25200 43.11100
H  45.07400 43.94300 40.32600
H  47.19900 42.50800 38.84800
H  46.41100 41.69500 41.73100
H  46.62500 40.74800 40.23100
H  45.21300 41.77700 40.65300
H  46.29700 44.20100 37.57400
H  45.78700 45.64200 38.26300
H  43.68400 45.18600 37.43700
H  43.62800 43.85100 38.49900
H  52.90600 40.99700 39.38000
H  51.20100 40.75300 39.66500
H  52.36800 40.25400 40.86300
H  55.12800 43.95500 43.13600
H  55.93800 44.18500 41.51300
H  56.29100 42.77200 42.53100
H  54.10400 48.16000 42.33300
H  52.10200 49.61700 44.02400
H  53.76600 48.82800 45.03700
H  55.09400 47.84000 44.33300
H  53.74900 47.01100 44.92800
H  52.29800 50.23500 41.15500
H  53.68400 50.71100 42.11700
H  52.70600 52.64700 42.65700
H  51.53500 51.76200 43.62400
H  51.13800 52.21200 41.93200
H  47.17400 51.54600 42.48400
H  47.41400 50.81500 44.06100
H  45.80300 50.68200 43.32400
H  44.31900 47.13300 40.25500
H  42.99800 43.93300 43.35500
H  41.88300 45.27200 43.56000
H  43.14600 44.85000 44.86700

