79

Mg 24.34000 -5.47600 46.00700
C  26.59000 -3.17400 44.41300
C  21.96400 -4.41900 43.67800
C  22.24800 -7.82000 47.02400
C  26.97100 -6.88000 47.72100
N  24.38600 -4.12400 44.08300
C  25.33500 -3.16900 43.84700
C  24.85700 -2.18700 42.76600
C  23.30700 -2.34500 42.89600
C  23.18600 -3.71700 43.65200
C  22.58600 -1.13200 43.60800
C  25.49100 -2.44600 41.32800
C  26.10300 -1.29300 40.50700
H  25.78200 -1.39200 38.99900
N  22.44400 -6.13400 45.37900
C  21.65800 -5.58600 44.43900
C  20.39000 -6.36700 44.30700
C  20.35900 -7.28700 45.30800
C  21.73200 -7.17000 45.88700
C  19.38600 -5.88600 43.34100
C  19.18400 -8.25400 45.69700
O  18.15300 -8.24900 45.02300
C  19.21300 -9.05800 46.91800
N  24.52400 -7.15700 47.16500
C  23.50500 -7.94000 47.58800
C  24.03400 -9.07100 48.49000
C  25.47000 -8.66400 48.81800
C  25.69700 -7.51800 47.83900
C  23.22200 -9.47300 49.77000
C  26.53800 -9.84000 48.82900
C  27.35700 -9.84800 50.14000
N  26.32700 -5.13600 46.10200
C  27.27900 -5.74300 46.89500
C  28.57600 -5.04100 46.75700
C  28.29900 -3.97400 45.78600
C  26.97800 -4.15400 45.41600
C  29.78300 -5.43000 47.46000
C  28.88700 -2.76600 45.15600
O  29.99900 -2.24200 45.31400
C  27.76500 -2.22500 44.08100
C  27.45400 -0.82700 44.36900
O  26.68800 -0.32000 45.16200
O  28.28700 -0.03700 43.56100
C  28.29300 1.36100 43.92400
H  21.12600 -3.95400 43.15400
H  21.60700 -8.53500 47.54400
H  27.74900 -7.42000 48.26500
H  25.18100 -1.20800 43.11700
H  22.81100 -2.51200 41.94000
H  23.32000 -0.33200 43.70600
H  22.23300 -1.49500 44.57300
H  21.73800 -0.71400 43.06500
H  24.75900 -2.96700 40.71100
H  26.35100 -3.08700 41.51900
H  27.18900 -1.34200 40.42400
H  25.76700 -0.33600 40.90700
H  18.68400 -5.21100 43.83100
H  18.83400 -6.77100 43.02600
H  19.75200 -5.48000 42.39900
H  18.27200 -9.56700 47.12700
H  19.39600 -8.36900 47.74200
H  20.04000 -9.75800 46.79500
H  24.09000 -9.91200 47.79900
H  25.38900 -8.24400 49.82000
H  22.35600 -8.81100 49.77700
H  23.83000 -9.49600 50.67400
H  22.73800 -10.41500 49.51100
H  27.23500 -9.81200 47.99100
H  25.98400 -10.77600 48.89000
H  28.43200 -9.81900 49.96300
H  27.12000 -10.62100 50.87100
H  27.27300 -8.85400 50.57900
H  29.57000 -5.44800 48.52900
H  30.53400 -4.71500 47.12500
H  30.02700 -6.47400 47.26100
H  28.15300 -2.35800 43.07100
H  28.30000 1.56500 44.99500
H  27.42100 1.91200 43.57300
H  29.20200 1.81200 43.52600

