79

Mg -5.26000 25.15900 26.29500
C  -3.63800 26.75600 28.93300
C  -7.24900 23.56300 28.66900
C  -6.57300 23.32500 23.85600
C  -2.90500 26.58500 24.13800
N  -5.40700 25.23300 28.50800
C  -4.63200 25.89400 29.39700
C  -4.91700 25.59500 30.81800
C  -6.04500 24.59500 30.68100
C  -6.26000 24.46800 29.18700
C  -5.76300 23.24800 31.52800
C  -5.17000 26.86000 31.70200
C  -6.08300 26.71200 32.91800
H  -5.68400 25.62600 33.91600
N  -6.67100 23.62700 26.22200
C  -7.42100 23.12700 27.34900
C  -8.47800 22.34600 26.83400
C  -8.40100 22.32900 25.43000
C  -7.24600 23.10400 25.07400
C  -9.47700 21.69900 27.76300
C  -9.32900 21.69500 24.42100
O  -9.20700 21.76700 23.20400
C  -10.52900 20.93200 24.86800
N  -4.92400 25.07300 24.19700
C  -5.52300 24.19300 23.40400
C  -4.85800 24.21100 22.00900
C  -3.66200 25.21300 22.19700
C  -3.85000 25.70200 23.60100
C  -4.48500 22.90500 21.34100
C  -3.61800 26.36400 21.14200
C  -2.48100 26.25400 20.06500
N  -3.68200 26.51100 26.41200
C  -2.82400 27.01500 25.44300
C  -1.86500 27.82300 26.10200
C  -2.09100 27.74700 27.46800
C  -3.22400 27.00900 27.59400
C  -0.79400 28.66500 25.47600
C  -1.64200 28.13700 28.80800
O  -0.61600 28.77300 29.03200
C  -2.55700 27.39200 29.88200
C  -1.82100 26.44800 30.78000
O  -1.39400 25.35900 30.46300
O  -1.69900 27.05800 32.02600
C  -1.20900 26.38700 33.27000
H  -7.81700 23.17400 29.51600
H  -6.98000 22.76600 23.01000
H  -2.06600 26.96400 23.55100
H  -4.08100 24.97000 31.12900
H  -6.95200 25.14500 30.93300
H  -5.82500 22.44400 30.79600
H  -6.53600 23.15100 32.29100
H  -4.83700 23.22300 32.10300
H  -5.30400 27.76100 31.10200
H  -4.20600 27.04300 32.17600
H  -7.13300 26.68600 32.62500
H  -6.06000 27.68000 33.41800
H  -9.52900 20.61100 27.72600
H  -10.42500 22.23200 27.68200
H  -9.29500 21.88200 28.82200
H  -11.04600 21.67000 25.48100
H  -10.21300 20.07500 25.46300
H  -11.09300 20.74800 23.95400
H  -5.56000 24.76900 21.38900
H  -2.70400 24.70300 22.30500
H  -3.58700 22.96300 20.72600
H  -5.21700 22.47100 20.66000
H  -4.30500 22.20800 22.15900
H  -3.47400 27.30000 21.68300
H  -4.59100 26.50200 20.67100
H  -2.14300 25.22200 20.15900
H  -1.67700 26.99000 20.09600
H  -2.93800 26.39700 19.08600
H  -0.81500 28.70000 24.38700
H  0.14300 28.18000 25.74600
H  -0.88900 29.73100 25.68600
H  -3.08800 28.10300 30.51600
H  -0.33600 26.89600 33.67800
H  -1.00500 25.33400 33.07900
H  -1.89500 26.52500 34.10600

