79

Mg 16.68300 -1.95700 28.79300
C  15.25700 0.25300 31.15500
C  18.57200 -3.31400 31.43100
C  18.16800 -3.90200 26.63000
C  15.22400 -0.03400 26.32200
N  16.83300 -1.53400 31.02100
C  16.23600 -0.62900 31.75900
C  16.63000 -0.73200 33.22000
C  17.86400 -1.69700 33.20600
C  17.72900 -2.19200 31.81700
C  19.23900 -1.11800 33.69100
C  15.36900 -1.18900 34.16100
C  15.28000 -0.87600 35.71400
H  16.51000 -0.36800 36.46600
N  18.10300 -3.40200 29.00400
C  18.69500 -3.90100 30.13900
C  19.45900 -5.11600 29.81800
C  19.29200 -5.32000 28.45600
C  18.41000 -4.23300 27.99300
C  20.31800 -5.77500 30.91600
C  19.85800 -6.50300 27.60300
O  19.48100 -6.73000 26.46300
C  20.83400 -7.55700 28.16500
N  16.82600 -1.81800 26.77600
C  17.43500 -2.79200 26.06300
C  17.19500 -2.60000 24.55000
C  16.34800 -1.41600 24.46700
C  16.06300 -1.05400 25.92500
C  18.52000 -2.47800 23.84000
C  15.01100 -1.70000 23.79400
C  14.27700 -0.50200 23.21900
N  15.41900 -0.32300 28.73000
C  14.91200 0.35000 27.58000
C  14.12600 1.48700 27.93800
C  14.11900 1.37600 29.41300
C  14.98800 0.29600 29.77400
C  13.49200 2.46700 27.10400
C  13.68400 1.98800 30.59600
O  12.90700 2.96800 30.73800
C  14.37600 1.25000 31.75500
C  15.10800 2.33700 32.52300
O  15.97400 3.06600 32.07200
O  14.76600 2.37600 33.84100
C  15.50500 3.33000 34.62700
H  19.05200 -3.65800 32.34900
H  18.52300 -4.67000 25.94000
H  14.84400 0.64700 25.55700
H  16.89900 0.26000 33.58200
H  17.63300 -2.60700 33.75900
H  19.12800 -0.31700 34.42200
H  19.84800 -0.73700 32.87200
H  19.75200 -1.96800 34.14300
H  15.30300 -2.27700 34.15300
H  14.39900 -0.85700 33.79200
H  14.97700 -1.85100 36.09700
H  14.52800 -0.11200 35.91200
H  19.73900 -6.56400 31.39600
H  20.79400 -5.10700 31.63400
H  21.15100 -6.32800 30.48200
H  21.78400 -7.05200 28.33800
H  20.96000 -8.36000 27.43900
H  20.55700 -8.02000 29.11200
H  16.76700 -3.57400 24.31200
H  16.80800 -0.49000 24.12300
H  18.63400 -3.40100 23.27200
H  19.31500 -2.35100 24.57500
H  18.46500 -1.62700 23.16000
H  14.25900 -2.17100 24.42700
H  15.20500 -2.38700 22.97100
H  13.41100 -0.32500 23.85700
H  13.97600 -0.87000 22.23900
H  14.95500 0.34500 23.10800
H  12.47500 2.57900 27.47800
H  13.35600 1.89300 26.18800
H  13.90100 3.45000 26.87000
H  13.71400 0.58200 32.30600
H  16.59100 3.30900 34.53900
H  15.19300 3.10300 35.64600
H  15.24100 4.37500 34.46400

