79

Mg -0.41900 7.58300 26.59900
C  0.72700 9.14200 29.43900
C  -0.55100 4.58000 28.40900
C  -1.13400 5.83100 23.78700
C  0.27500 10.47000 24.73100
N  0.15100 6.92000 28.74000
C  0.41800 7.78000 29.76300
C  0.37000 7.09100 31.12300
C  0.24600 5.57400 30.70400
C  -0.07400 5.69600 29.14900
C  1.55900 4.70000 30.92200
C  -0.95000 7.64000 31.79900
C  -0.65500 8.22800 33.18700
H  -0.36200 7.27700 34.32300
N  -0.90400 5.49600 26.18000
C  -0.85100 4.46600 27.06500
C  -1.15500 3.18300 26.45500
C  -1.26200 3.55300 25.07100
C  -1.13000 5.00400 24.95100
C  -1.40300 1.83500 27.08700
C  -1.41000 2.56400 23.86100
O  -1.33400 2.94100 22.75500
C  -1.45600 1.04900 24.05200
N  -0.25200 8.07300 24.49900
C  -0.76600 7.18900 23.55600
C  -1.01200 7.91600 22.20000
C  -0.76400 9.44100 22.56800
C  -0.13500 9.34900 23.98300
C  -0.26300 7.28900 21.02600
C  -2.08000 10.26500 22.56800
C  -2.61800 10.74100 21.18700
N  0.32400 9.41100 26.90800
C  0.55900 10.50600 26.12100
C  1.10900 11.58400 26.88800
C  1.17000 11.12300 28.16900
C  0.67100 9.76600 28.15300
C  1.40600 12.95700 26.35500
C  1.45300 11.54100 29.57800
O  1.76100 12.65000 29.94900
C  1.04000 10.27300 30.43400
C  2.25300 10.05400 31.22400
O  3.12600 9.21900 30.98400
O  2.28000 10.94400 32.23700
C  3.37900 10.84800 33.18600
H  -0.48500 3.64100 28.96100
H  -1.56100 5.29000 22.94000
H  0.34500 11.21200 23.93300
H  1.32200 7.27300 31.62300
H  -0.52400 5.07500 31.29300
H  1.35000 3.75300 31.41900
H  2.33200 5.11200 31.57000
H  1.91700 4.36200 29.94900
H  -1.67300 6.84200 31.96900
H  -1.33900 8.40700 31.12900
H  -1.62200 8.64400 33.47000
H  0.09000 9.02400 33.21100
H  -2.37200 1.49200 26.72400
H  -1.38600 1.87000 28.17600
H  -0.64500 1.15400 26.70100
H  -1.87700 0.62400 23.14100
H  -2.24200 0.81900 24.77200
H  -0.47900 0.59200 24.20600
H  -2.07600 7.93700 21.96500
H  0.00400 9.83000 21.90000
H  0.41100 7.99400 20.53900
H  -0.94000 6.82300 20.31000
H  0.42500 6.54300 21.42500
H  -1.84200 11.14900 23.16000
H  -2.76200 9.59400 23.09000
H  -2.36600 10.08000 20.35800
H  -2.27200 11.76400 21.03600
H  -3.70200 10.77700 21.30100
H  0.46800 13.32600 25.94200
H  2.27700 12.84100 25.71000
H  1.50800 13.67900 27.16500
H  0.31200 10.56400 31.19200
H  4.36500 10.65300 32.76400
H  3.22000 9.98300 33.82900
H  3.34200 11.67900 33.89000

