79

Mg 24.86600 -4.18400 46.52800
C  26.64300 -1.61400 45.01300
C  22.20800 -3.48600 44.38900
C  23.36100 -7.07500 47.46900
C  27.74700 -5.27400 48.19000
N  24.45400 -2.78600 44.87000
C  25.34600 -1.74900 44.49600
C  24.70200 -0.86500 43.50700
C  23.19100 -1.23200 43.71700
C  23.26900 -2.55100 44.38900
C  22.41400 -0.15900 44.48900
C  25.28800 -0.97300 42.02600
C  25.49600 0.37300 41.28800
H  25.14000 0.46500 39.77800
N  23.02700 -5.12100 46.04100
C  22.08700 -4.65800 45.12200
C  20.96100 -5.57000 45.12300
C  21.22900 -6.67000 46.00800
C  22.58900 -6.30000 46.61700
C  19.73000 -5.39000 44.34300
C  20.35900 -7.86200 46.24800
O  19.30500 -7.97000 45.63800
C  20.77700 -8.99600 47.08900
N  25.45300 -5.89200 47.67900
C  24.65700 -6.93900 47.97100
C  25.41000 -8.04000 48.63500
C  26.79800 -7.46000 48.97700
C  26.70500 -6.14200 48.14900
C  24.63400 -8.58600 49.85400
C  27.91400 -8.40900 48.63700
C  28.61800 -8.26000 47.24800
N  26.77500 -3.50400 46.78300
C  27.85200 -3.96300 47.53800
C  28.88300 -2.98900 47.45700
C  28.53300 -2.10600 46.39900
C  27.20000 -2.42700 46.02400
C  30.20800 -3.10900 48.14600
C  28.96200 -0.95600 45.56400
O  30.04800 -0.39100 45.56400
C  27.71200 -0.62200 44.63100
C  27.33500 0.80000 44.90200
O  27.18200 1.26200 45.98400
O  27.35100 1.49900 43.77300
C  27.22600 2.89800 43.79700
H  21.32400 -3.42700 43.75100
H  22.97500 -8.04900 47.77600
H  28.57900 -5.59700 48.81900
H  24.90800 0.08200 44.00500
H  22.56300 -1.39200 42.84100
H  22.73200 0.82500 44.14300
H  22.46700 -0.34300 45.56200
H  21.38100 -0.26400 44.15800
H  24.57500 -1.45600 41.35800
H  26.09200 -1.70700 41.96900
H  26.55300 0.62200 41.37400
H  24.90900 1.14800 41.78100
H  19.63400 -6.08600 43.50900
H  19.63100 -4.35800 44.00700
H  18.92400 -5.66100 45.02500
H  20.85500 -8.53900 48.07600
H  21.75000 -9.33600 46.73500
H  19.97900 -9.73500 47.15800
H  25.47700 -8.87000 47.93200
H  26.79100 -7.06100 49.99100
H  25.16800 -8.64800 50.80300
H  24.37600 -9.58500 49.50500
H  23.67800 -8.06400 49.88800
H  27.51600 -9.42200 48.56400
H  28.65100 -8.32700 49.43500
H  28.50900 -9.19800 46.70200
H  29.65700 -7.94300 47.32900
H  28.14700 -7.55700 46.56000
H  30.95200 -2.68700 47.47000
H  30.43100 -4.13900 48.42300
H  30.22300 -2.60900 49.11500
H  28.00100 -0.70000 43.58300
H  26.48100 3.32600 44.46800
H  26.97500 3.28100 42.80700
H  28.15600 3.38800 44.08100

