79

Mg 51.38300 44.95300 41.56800
C  48.21500 45.79800 40.35600
C  50.75300 41.72000 40.95200
C  54.65800 44.51500 41.99300
C  51.98100 48.59200 41.94600
N  49.74300 43.95500 40.40500
C  48.48300 44.45100 40.21800
C  47.58400 43.38100 39.62700
C  48.32200 42.11300 40.12600
C  49.69400 42.57100 40.57600
C  47.50100 41.32400 41.20300
C  47.52600 43.54900 38.14300
C  46.08600 43.63200 37.56300
H  45.71100 42.49800 36.62400
N  52.54700 43.40200 41.38300
C  52.10400 42.13000 41.19600
C  53.26300 41.21100 41.08100
C  54.41000 42.01300 41.32800
C  53.90500 43.38500 41.55700
C  53.07600 39.73500 40.77100
C  55.84900 41.58400 41.30100
O  56.06300 40.34200 41.13900
C  57.02000 42.47100 41.18800
N  53.03400 46.35200 42.19900
C  54.25700 45.79900 42.35100
C  55.28400 46.95800 42.63500
C  54.41000 48.24100 42.82300
C  53.06400 47.71100 42.17700
C  56.28900 46.71100 43.76800
C  54.89100 49.50900 42.02600
C  54.62700 50.77500 42.74000
N  50.31300 46.82000 41.24500
C  50.64300 48.19400 41.52500
C  49.56600 49.01400 41.22800
C  48.55800 48.13000 40.80600
C  49.09400 46.80300 40.81500
C  49.36000 50.52200 41.36400
C  47.19700 47.98300 40.35500
O  46.36000 48.86400 40.07600
C  46.88700 46.47900 40.08100
C  45.80400 46.09900 40.99100
O  45.91400 45.75000 42.14200
O  44.61900 46.57900 40.42400
C  43.54900 46.72600 41.40300
H  50.61400 40.64700 40.80700
H  55.71400 44.31900 42.18600
H  52.04600 49.67300 42.08400
H  46.64600 43.52600 40.16400
H  48.57200 41.45100 39.29600
H  47.66800 40.26700 40.99500
H  46.42700 41.35900 41.02100
H  47.79400 41.60300 42.21500
H  47.98500 42.66300 37.70500
H  48.08000 44.37300 37.69400
H  45.97600 44.60100 37.07600
H  45.38100 43.84300 38.36600
H  53.83600 39.41300 40.06000
H  52.09800 39.36300 40.46300
H  53.20800 39.25400 41.74100
H  57.26500 42.70400 42.22400
H  56.73300 43.34800 40.60700
H  57.68300 41.85900 40.57700
H  55.88400 46.83500 41.73300
H  54.20200 48.46500 43.86900
H  57.30400 46.95500 43.45400
H  56.39200 45.66100 44.04100
H  56.11700 47.27900 44.68200
H  54.35300 49.45800 41.07900
H  55.95100 49.48300 41.77200
H  55.59500 51.18100 43.03600
H  54.01000 50.77300 43.63800
H  54.06800 51.49400 42.14200
H  49.36800 51.02700 40.39800
H  50.21200 50.96700 41.87700
H  48.43500 50.79900 41.87000
H  46.56600 46.39000 39.04300
H  42.91500 47.53900 41.04900
H  43.86200 46.85900 42.43800
H  43.09200 45.73600 41.39700

