79

Mg -1.29100 34.40900 26.62300
C  -3.54100 32.78500 28.96600
C  -0.32000 36.53800 29.19400
C  0.61300 36.01200 24.46700
C  -2.61700 32.34900 24.06700
N  -1.89700 34.65200 28.81500
C  -2.69700 33.77700 29.51800
C  -2.72400 34.14400 31.01400
C  -1.76900 35.44800 31.08400
C  -1.33900 35.61100 29.61300
C  -2.46700 36.69000 31.68500
C  -2.36800 32.96200 31.95200
C  -1.62500 33.25300 33.26500
H  -2.20500 32.80700 34.62500
N  0.12900 36.00300 26.80400
C  0.39700 36.71300 27.93500
C  1.25900 37.85000 27.58200
C  1.40300 37.80000 26.19800
C  0.76500 36.54300 25.75500
C  1.58300 38.91500 28.60400
C  2.04200 38.79000 25.34100
O  2.14500 38.60400 24.11200
C  2.64200 40.02700 25.89000
N  -1.01600 34.20000 24.61300
C  -0.12200 34.96000 23.95000
C  -0.13400 34.49600 22.44200
C  -0.96000 33.12900 22.47900
C  -1.58100 33.23800 23.80600
C  -0.77800 35.61400 21.45100
C  -0.14600 31.84900 22.30100
C  -0.85800 30.63300 21.80900
N  -2.82100 32.90100 26.46300
C  -3.28800 32.22500 25.35000
C  -4.29700 31.27500 25.73200
C  -4.45700 31.51600 27.09700
C  -3.54000 32.49200 27.50400
C  -5.10900 30.27800 24.80500
C  -5.23100 31.15300 28.21000
O  -6.22400 30.46900 28.33100
C  -4.65600 31.89200 29.48400
C  -5.67800 32.75600 30.19400
O  -6.32000 33.74700 29.76200
O  -6.00100 32.27000 31.42300
C  -7.21100 32.65300 32.17200
H  -0.08200 37.32200 29.91600
H  1.09100 36.42100 23.57400
H  -2.91400 31.61900 23.31100
H  -3.77000 34.38600 31.20400
H  -0.80900 35.23300 31.55400
H  -3.55000 36.58200 31.75000
H  -2.38500 37.47000 30.92800
H  -2.15900 37.01700 32.67800
H  -1.91700 32.12500 31.41900
H  -3.35100 32.64200 32.29800
H  -1.60300 34.33900 33.35600
H  -0.62400 32.82900 33.19600
H  1.53600 38.55900 29.63300
H  0.92400 39.76900 28.45100
H  2.65600 39.09400 28.52700
H  1.96300 40.58500 26.53500
H  2.90500 40.68200 25.05900
H  3.57200 39.80800 26.41400
H  0.86500 34.33200 22.03800
H  -1.69100 33.11600 21.67000
H  -1.33100 36.46200 21.85500
H  -1.37800 35.20700 20.63700
H  0.11500 36.09400 21.05200
H  0.44500 31.69700 23.20400
H  0.66200 32.07100 21.60400
H  -0.20300 30.36900 20.97800
H  -1.78300 30.87800 21.28800
H  -0.98400 29.88500 22.59100
H  -4.57400 30.09100 23.87400
H  -6.14200 30.58800 24.64600
H  -5.16800 29.36200 25.39200
H  -4.26700 31.15400 30.18500
H  -7.98900 33.05700 31.52400
H  -6.89400 33.33000 32.96600
H  -7.55800 31.72600 32.62800

