79

Mg 29.40400 59.08500 40.48200
C  26.78800 56.94200 39.30100
C  31.64300 56.92500 38.95400
C  31.70100 61.48600 41.12600
C  26.91300 61.28000 41.63300
N  29.16400 57.18900 39.21800
C  28.00400 56.56100 38.82800
C  28.38500 55.29700 37.98200
C  29.96700 55.19900 38.20800
C  30.31700 56.50800 38.84900
C  30.25100 54.04200 39.11000
C  27.93100 55.54700 36.48800
C  26.99900 54.52600 35.82000
H  27.24200 54.35100 34.31200
N  31.41100 59.14100 40.15800
C  32.13700 58.14600 39.50500
C  33.50900 58.53300 39.41400
C  33.55500 59.90600 40.00100
C  32.21000 60.23800 40.50600
C  34.55300 57.76500 38.80500
C  34.84900 60.58800 40.12100
O  35.93600 60.13400 39.66000
C  34.89900 61.90000 41.03100
N  29.33600 61.08200 41.39100
C  30.43100 61.86400 41.53500
C  30.04600 63.32100 41.93700
C  28.48400 63.15500 42.30900
C  28.20800 61.78800 41.69400
C  30.69900 63.84000 43.25600
C  27.66600 64.31300 41.75900
C  26.69300 65.01300 42.74500
N  27.29200 59.14400 40.48400
C  26.43700 60.10200 41.03200
C  25.06300 59.66800 40.96900
C  25.13500 58.41300 40.19300
C  26.54000 58.16200 39.97700
C  24.02100 60.37800 41.53300
C  24.34600 57.38300 39.50200
O  23.13400 57.23000 39.40400
C  25.43700 56.36400 38.92100
C  25.26700 54.96200 39.49800
O  25.72400 54.66900 40.57800
O  24.65600 54.06300 38.68700
C  24.46900 52.72400 39.19200
H  32.39600 56.25200 38.53800
H  32.38000 62.30900 41.35700
H  26.11500 61.95600 41.94600
H  27.80300 54.46600 38.38000
H  30.41500 55.12000 37.21800
H  30.24700 54.42900 40.12900
H  31.25900 53.65300 38.96500
H  29.61700 53.16900 38.95300
H  28.83200 55.71600 35.89900
H  27.44400 56.51200 36.34700
H  25.95300 54.81200 35.92400
H  27.14500 53.52700 36.23100
H  35.54600 57.94300 39.21900
H  34.54200 57.91800 37.72500
H  34.42200 56.68300 38.82400
H  34.26200 61.89900 41.91600
H  34.60500 62.79700 40.48700
H  35.93400 62.04500 41.34100
H  30.23500 64.02300 41.12500
H  28.31700 62.99300 43.37400
H  30.19300 63.75500 44.21800
H  30.97800 64.88900 43.14800
H  31.68700 63.38000 43.27200
H  27.05900 63.91500 40.94600
H  28.28900 65.11500 41.36400
H  26.71700 64.36600 43.62200
H  25.66200 64.99700 42.39100
H  26.95000 66.04900 42.96200
H  24.14900 60.58300 42.59500
H  23.12300 59.76600 41.45800
H  23.88600 61.28600 40.94500
H  25.33500 56.21200 37.84600
H  24.22200 52.69600 40.25300
H  25.37000 52.18000 38.90600
H  23.67100 52.14300 38.73100

