79

Mg 7.26600 2.33700 27.86000
C  8.70700 1.19300 30.79500
C  5.02700 4.24900 29.78200
C  5.83400 3.35600 25.01000
C  9.24500 0.10900 25.92600
N  6.96000 2.73500 30.03100
C  7.75900 2.16800 31.07800
C  7.27600 2.65600 32.48200
C  6.14200 3.76500 32.04500
C  5.94800 3.53100 30.54800
C  4.84200 3.91800 32.86400
C  8.41800 3.29000 33.37700
C  7.99500 4.10000 34.58200
H  8.59300 3.70600 35.90400
N  5.70800 3.71600 27.39600
C  4.85800 4.34500 28.39100
C  3.95000 5.13500 27.64900
C  4.23400 5.01900 26.23000
C  5.28100 3.94700 26.13800
C  3.08200 6.18700 28.35000
C  3.61700 5.87200 25.10900
O  4.08100 5.81900 23.98900
C  2.54500 6.81200 25.32200
N  7.28200 1.60100 25.78700
C  6.73100 2.29500 24.83000
C  7.14300 1.74500 23.44400
C  8.46000 1.02600 23.77800
C  8.38500 0.91500 25.25400
C  6.07100 0.80200 22.81700
C  9.82700 1.58200 23.21600
C  10.61000 2.64400 23.98900
N  8.59500 0.88300 28.21800
C  9.35400 0.02000 27.33700
C  10.27800 -0.64200 28.14300
C  10.09300 -0.22500 29.49000
C  8.99200 0.64500 29.52300
C  11.24200 -1.72900 27.64900
C  10.51700 -0.47900 30.87400
O  11.36700 -1.28900 31.20700
C  9.62000 0.48000 31.81400
C  8.78600 -0.33100 32.81200
O  7.74600 -0.89900 32.46400
O  9.22000 -0.29600 34.10400
C  8.26100 -0.67300 35.19000
H  4.43900 4.83800 30.48800
H  5.50000 3.71500 24.03400
H  9.99300 -0.35300 25.27900
H  6.83400 1.79000 32.97400
H  6.62400 4.73600 32.15300
H  4.86900 4.84000 33.44500
H  4.79900 3.04800 33.52100
H  3.92500 3.76800 32.29400
H  8.90200 4.07700 32.79900
H  9.12700 2.56700 33.78000
H  6.93100 4.01500 34.80500
H  8.08200 5.16500 34.36700
H  3.51200 7.18700 28.30400
H  3.06100 6.03800 29.43000
H  2.06300 6.16500 27.96500
H  1.73200 6.44100 25.94600
H  2.08900 6.91900 24.33700
H  2.97900 7.72300 25.73200
H  7.44200 2.56600 22.79300
H  8.47800 0.03000 23.33600
H  5.27800 0.65200 23.55000
H  6.59300 -0.11900 22.55900
H  5.77200 1.29100 21.89000
H  9.70400 1.94500 22.19500
H  10.48800 0.71500 23.21200
H  10.07400 2.99900 24.87000
H  10.82600 3.42300 23.25800
H  11.51700 2.24800 24.44700
H  11.57200 -1.64500 26.61300
H  10.89900 -2.75400 27.78700
H  12.14000 -1.58700 28.25100
H  10.27400 1.17000 32.34900
H  7.91700 -1.70600 35.13600
H  7.39800 -0.07200 34.90200
H  8.58800 -0.24800 36.13900

