79

Mg 42.46000 41.90600 26.85000
C  41.32600 44.09300 29.33700
C  43.15400 39.66300 29.25300
C  43.74400 39.92300 24.48600
C  42.09900 44.43000 24.47200
N  42.20000 41.83200 29.04400
C  41.63800 42.82900 29.81300
C  41.57400 42.38000 31.24500
C  42.22300 40.92400 31.22800
C  42.56400 40.81500 29.77900
C  43.37200 40.65200 32.28500
C  40.15100 42.39400 31.84900
C  39.80200 43.15800 33.07600
H  39.33700 42.27400 34.24800
N  43.33700 40.06600 26.85800
C  43.44200 39.20700 27.95000
C  44.10400 37.99400 27.63600
C  44.34900 38.14000 26.25700
C  43.85800 39.43900 25.79800
C  44.52700 36.92200 28.60800
C  44.95200 37.10600 25.27300
O  45.22400 37.24600 24.05700
C  45.30200 35.84700 25.79900
N  42.71100 42.07000 24.72400
C  43.21600 41.10300 23.96200
C  43.20400 41.54700 22.44100
C  42.58200 42.98100 22.51300
C  42.44600 43.15900 23.99300
C  44.56600 41.35800 21.66900
C  41.23100 43.06100 21.74700
C  41.22800 43.60700 20.25800
N  41.81400 43.84300 26.82700
C  41.79400 44.73100 25.79400
C  41.37600 45.98400 26.37900
C  41.12100 45.76500 27.70000
C  41.39500 44.45300 27.99700
C  41.23500 47.24700 25.70400
C  40.66400 46.36800 29.03800
O  40.30300 47.50500 29.34100
C  40.78800 45.31200 30.11900
C  41.82500 45.88600 31.05200
O  43.00600 46.11700 30.67300
O  41.21300 46.33400 32.18700
C  42.17100 46.83600 33.17700
H  43.19100 38.86400 29.99700
H  43.95600 39.21900 23.67700
H  42.08400 45.30900 23.82500
H  42.27500 42.97200 31.83400
H  41.45900 40.14900 31.28300
H  43.51700 41.43900 33.02500
H  44.28800 40.70700 31.69700
H  43.41000 39.67700 32.77000
H  39.76100 41.40000 32.06800
H  39.66400 42.99000 31.07700
H  39.02500 43.87400 32.80700
H  40.72600 43.57200 33.48000
H  43.97800 35.98800 28.48800
H  44.47800 37.33000 29.61700
H  45.57700 36.68300 28.43900
H  45.41100 35.09400 25.01900
H  44.56900 35.33200 26.42000
H  46.23200 35.98300 26.35100
H  42.48300 40.86500 21.98900
H  43.33700 43.67000 22.13400
H  45.14300 42.27500 21.78300
H  44.35400 41.35700 20.60000
H  45.24400 40.56800 21.99100
H  40.54500 43.64700 22.36000
H  40.76600 42.07600 21.74300
H  42.08100 44.25000 20.04100
H  40.28600 44.14500 20.15300
H  41.25700 42.72700 19.61600
H  41.77300 47.34200 24.76100
H  41.35400 48.10500 26.36600
H  40.16900 47.22500 25.47500
H  39.78700 45.28800 30.54900
H  42.89100 47.58500 32.84800
H  42.68400 45.95200 33.55600
H  41.82100 47.38000 34.05400

