79

Mg 54.83000 24.48500 44.71100
C  52.15700 26.62300 43.56300
C  52.94900 21.80400 43.82400
C  57.56700 22.56200 45.36400
C  56.64100 27.39000 45.37000
N  52.76300 24.24400 43.78900
C  51.85700 25.26400 43.51100
C  50.60000 24.63700 42.92800
C  50.73700 23.15600 43.42600
C  52.21600 23.00000 43.80800
C  49.86400 22.69800 44.62500
C  50.57700 24.79100 41.39800
C  49.13900 24.99000 40.75200
H  48.79300 24.48000 39.34700
N  55.23000 22.48200 44.54200
C  54.34200 21.52900 44.16100
C  54.96700 20.20600 44.20300
C  56.30100 20.48500 44.49900
C  56.41000 21.88300 44.87100
C  54.29600 18.96100 43.73700
C  57.39200 19.41600 44.37900
O  57.04500 18.26500 44.01900
C  58.94400 19.74300 44.56700
N  56.79900 24.94800 45.15900
C  57.72200 23.91700 45.53900
C  59.10800 24.55900 45.97000
C  58.86100 26.06200 45.64200
C  57.35700 26.15900 45.44400
C  59.65700 24.13300 47.46500
C  59.57800 26.65100 44.48800
C  60.97500 27.08200 44.60300
N  54.46900 26.59400 44.51700
C  55.31100 27.67100 44.84300
C  54.61200 28.97500 44.66700
C  53.33600 28.59900 44.18100
C  53.35000 27.18500 44.10100
C  55.13300 30.32300 45.09700
C  52.04100 29.02100 43.64100
O  51.58700 30.16000 43.54900
C  51.33900 27.78500 43.07800
C  51.33900 27.95100 41.63800
O  52.31700 27.78600 40.92400
O  50.11800 28.32700 41.12600
C  50.09500 28.43300 39.71200
H  52.38000 20.89600 43.61200
H  58.40600 21.98200 45.75500
H  57.21000 28.25700 45.71200
H  49.74000 25.09200 43.42000
H  50.56300 22.50100 42.57200
H  50.47300 22.52300 45.51200
H  49.32500 21.77700 44.40300
H  49.27100 23.56200 44.92500
H  50.88200 23.81100 41.03300
H  51.26900 25.55000 41.03300
H  49.07600 26.06800 40.60700
H  48.32600 24.86300 41.46600
H  54.61000 18.68200 42.73200
H  53.22100 19.09400 43.61600
H  54.40000 18.15700 44.46600
H  59.19200 20.76800 44.29200
H  59.44200 18.94800 44.01200
H  59.19700 19.62600 45.62100
H  59.80300 23.96500 45.37600
H  59.20100 26.62200 46.51300
H  60.00600 24.99300 48.03600
H  60.38600 23.32500 47.40400
H  58.88600 23.69700 48.10000
H  58.90300 27.38800 44.05300
H  59.57900 25.82200 43.78100
H  61.13100 28.07700 44.18600
H  61.59800 26.42800 43.99300
H  61.27900 27.24100 45.63800
H  56.18200 30.22400 45.37600
H  54.53400 30.73000 45.91100
H  55.11100 30.92500 44.18900
H  50.33300 27.72900 43.49400
H  49.03800 28.49700 39.45400
H  50.52900 27.59300 39.16900
H  50.46900 29.37600 39.31500

