79

Mg 47.59400 25.33200 29.51600
C  48.37400 27.74800 31.90200
C  46.07800 23.46700 32.05800
C  47.15500 22.90900 27.26900
C  49.34300 27.22500 27.05000
N  47.28100 25.54000 31.79200
C  47.73400 26.65400 32.48400
C  47.33000 26.45400 34.05500
C  46.87600 24.88500 34.04000
C  46.75000 24.59400 32.56600
C  47.88500 23.90000 34.69800
C  46.37800 27.52500 34.48000
C  46.35800 27.91800 35.93200
H  47.21500 27.18500 36.97100
N  46.71400 23.50800 29.63500
C  46.06800 22.91400 30.71300
C  45.49700 21.65600 30.30900
C  45.79500 21.52200 28.86600
C  46.64100 22.64000 28.54600
C  44.70600 20.74700 31.13300
C  45.28600 20.52900 27.82800
O  45.35200 20.66300 26.58900
C  44.59400 19.29900 28.42600
N  48.10800 25.15000 27.45900
C  47.78300 24.05800 26.74500
C  48.35200 24.09600 25.33200
C  48.81600 25.60700 25.23000
C  48.74900 26.05900 26.65500
C  49.51100 23.18200 25.11200
C  47.94000 26.49100 24.25400
C  48.65200 26.96400 22.95300
N  48.61500 27.05800 29.36800
C  49.24800 27.71300 28.34400
C  49.62900 29.05600 28.78500
C  49.28700 29.16400 30.16300
C  48.74500 27.87400 30.48200
C  50.22500 30.09000 27.81200
C  49.29300 30.04200 31.32500
O  49.65000 31.17400 31.50800
C  48.83300 29.09300 32.44200
C  49.96100 28.89800 33.40700
O  51.07300 28.63300 33.01900
O  49.48300 29.01500 34.69600
C  50.52300 28.68400 35.63000
H  45.57300 22.91100 32.85100
H  47.22100 22.06600 26.57900
H  49.87700 27.83600 26.32000
H  48.29000 26.67000 34.52400
H  45.86400 24.72900 34.41400
H  48.31100 23.27000 33.91700
H  47.33500 23.22000 35.34900
H  48.57100 24.54500 35.24700
H  45.45600 26.94500 34.43700
H  46.13700 28.34500 33.80400
H  45.30200 27.94400 36.19900
H  46.62000 28.97600 35.90200
H  45.01400 19.70200 31.15200
H  43.63100 20.74800 30.95500
H  44.76600 21.15500 32.14200
H  45.14500 18.76300 29.19800
H  44.33500 18.63000 27.60500
H  43.68600 19.74600 28.83200
H  47.54600 23.72500 24.69800
H  49.85000 25.71700 24.90400
H  50.24700 23.49700 24.37300
H  48.98700 22.36900 24.60900
H  49.94800 22.76200 26.01800
H  47.59200 27.39600 24.75100
H  47.08600 25.91200 23.90400
H  48.18600 26.39000 22.15200
H  49.72000 26.74900 22.95000
H  48.37000 28.00100 22.77000
H  51.31400 30.10400 27.77400
H  49.96100 31.07700 28.19300
H  49.83400 29.88600 26.81500
H  47.97900 29.50600 32.98000
H  50.82400 27.65500 35.43100
H  50.19300 28.69900 36.66900
H  51.37600 29.36300 35.63700

