79

Mg 35.07600 2.16200 30.42100
C  32.80300 3.10400 32.87600
C  37.60600 2.24800 32.77000
C  37.47900 1.77500 27.85200
C  32.62800 2.83600 27.93300
N  35.19900 2.59600 32.56800
C  34.11900 2.92700 33.40400
C  34.57000 2.86200 34.83600
C  36.09700 2.86900 34.76800
C  36.37900 2.59100 33.31000
C  36.79500 4.29500 35.22500
C  34.02900 1.54500 35.57000
C  33.41000 1.70000 36.98300
H  33.88100 2.70500 38.09200
N  37.17100 1.97100 30.36000
C  37.99500 2.02100 31.41400
C  39.38900 1.68700 30.97500
C  39.39200 1.40400 29.55300
C  37.96200 1.64900 29.20900
C  40.56700 1.61600 31.87700
C  40.47900 0.91800 28.62000
O  40.27000 0.99900 27.44800
C  41.84800 0.48800 29.04100
N  35.04400 2.21100 28.24500
C  36.16100 2.06200 27.37800
C  35.72800 2.43000 25.96000
C  34.16000 2.53500 25.97000
C  33.92200 2.59000 27.49400
C  36.48600 3.73500 25.43100
C  33.47000 1.29300 25.28100
C  32.52700 1.41700 24.05000
N  33.12900 2.77900 30.35300
C  32.24200 2.96500 29.28700
C  30.89100 3.31000 29.78900
C  31.10800 3.32600 31.20400
C  32.49700 3.09200 31.46000
C  29.65600 3.62900 28.98100
C  30.43800 3.66200 32.41300
O  29.31200 4.08100 32.64700
C  31.47400 3.38900 33.53600
C  31.63600 4.63700 34.41000
O  32.35100 5.60100 34.17300
O  30.70500 4.64800 35.44000
C  30.74500 5.80900 36.35800
H  38.41400 2.30300 33.50200
H  38.23500 1.75500 27.06400
H  31.93400 3.06800 27.12300
H  34.14500 3.69400 35.39800
H  36.54900 2.09700 35.39000
H  35.97400 4.91000 35.59400
H  37.43300 4.79300 34.49500
H  37.50000 4.01200 36.00700
H  34.91600 0.91800 35.65300
H  33.35700 0.99600 34.91100
H  33.41200 0.72500 37.47000
H  32.33800 1.80300 36.81000
H  40.77100 0.54700 31.82600
H  40.30400 1.90500 32.89500
H  41.44700 2.19400 31.59800
H  41.84400 -0.19800 29.88800
H  42.46700 1.36200 29.23900
H  42.46000 -0.02000 28.29500
H  36.10300 1.56600 25.41300
H  33.88500 3.47200 25.48700
H  37.27500 3.52500 24.70900
H  37.06000 4.17500 26.24500
H  35.76300 4.43700 25.01400
H  32.91200 0.72900 26.02800
H  34.23700 0.60400 24.92700
H  32.61500 2.41500 23.62100
H  31.54700 1.08900 24.39600
H  32.76200 0.60700 23.36000
H  29.71400 3.30900 27.94000
H  29.41700 4.69100 29.01200
H  28.80700 3.03600 29.32000
H  31.05900 2.63500 34.20500
H  30.52200 5.46100 37.36700
H  30.02100 6.50400 35.93200
H  31.64300 6.41800 36.24900

