79

Mg -1.97400 17.00300 27.47200
C  -2.31000 14.72000 30.09400
C  -2.36700 19.56300 29.56400
C  -1.93900 18.91500 24.73800
C  -2.17400 14.14400 25.18200
N  -2.34800 17.06700 29.55500
C  -2.46000 16.09700 30.45000
C  -3.05000 16.64700 31.80100
C  -2.89700 18.19300 31.65100
C  -2.58700 18.31100 30.15800
C  -4.09200 19.08500 32.18300
C  -2.22300 16.02400 32.91000
C  -2.04400 16.64600 34.28800
H  -2.24100 15.76800 35.52900
N  -2.03400 18.89900 27.19200
C  -2.17400 19.90500 28.19100
C  -2.14200 21.18300 27.56700
C  -1.88100 21.07100 26.16000
C  -1.94500 19.58600 26.01300
C  -2.34700 22.46600 28.43900
C  -1.58500 22.13500 25.09900
O  -1.41800 21.92600 23.89400
C  -1.42100 23.61600 25.55900
N  -2.00900 16.59700 25.20600
C  -2.05800 17.56400 24.35500
C  -2.07100 17.13400 22.89000
C  -2.12900 15.61400 23.05600
C  -2.06700 15.42200 24.60100
C  -3.22600 17.81000 22.02900
C  -1.16100 14.85800 22.12900
C  0.19900 14.43400 22.79200
N  -2.20000 14.87400 27.51600
C  -2.27300 13.84500 26.54200
C  -2.33700 12.55500 27.25800
C  -2.36100 12.90800 28.62500
C  -2.30600 14.27400 28.73500
C  -2.51900 11.14900 26.66100
C  -2.50400 12.29100 29.93800
O  -2.54200 11.08700 30.19600
C  -2.39000 13.42900 30.98100
C  -1.14700 13.22200 31.72500
O  -0.13000 13.79700 31.44900
O  -1.28000 12.31500 32.78400
C  -0.10900 12.19400 33.64500
H  -2.40600 20.48300 30.15200
H  -1.95900 19.64800 23.92900
H  -2.35100 13.26100 24.56400
H  -4.11100 16.39500 31.79000
H  -2.10500 18.64900 32.24500
H  -4.88200 18.55900 32.71800
H  -4.59500 19.63600 31.38800
H  -3.82100 19.81300 32.94700
H  -1.20500 15.88400 32.54600
H  -2.63000 15.05000 33.18200
H  -2.70700 17.51100 34.27300
H  -1.00100 16.96000 34.32200
H  -1.33500 22.70900 28.76300
H  -3.01700 22.32500 29.28700
H  -2.85900 23.23000 27.85400
H  -1.07700 24.25200 24.74300
H  -0.72700 23.67500 26.39700
H  -2.46500 23.91200 25.67000
H  -1.10300 17.46100 22.51100
H  -3.13300 15.22200 22.89700
H  -2.91700 18.76500 21.60400
H  -4.10800 18.16900 22.55900
H  -3.52300 17.17000 21.19800
H  -0.95900 15.59000 21.34600
H  -1.66000 13.95500 21.77900
H  1.04100 14.87700 22.26100
H  0.37900 13.36500 22.90700
H  0.27800 14.89900 23.77500
H  -2.18900 11.05700 25.62600
H  -3.58200 10.91000 26.67900
H  -1.84700 10.63600 27.34900
H  -3.21500 13.39800 31.69200
H  0.65800 12.96500 33.57700
H  0.38500 11.25900 33.37800
H  -0.43800 12.17200 34.68400

