79

Mg 17.45600 51.67600 26.43700
C  19.20100 50.32800 29.15800
C  14.86800 52.61200 28.62400
C  15.59500 52.57500 23.77900
C  19.86100 50.38800 24.33000
N  17.15000 51.49800 28.63100
C  18.03600 51.04000 29.53500
C  17.58800 51.36500 30.99200
C  16.05400 51.71500 30.76800
C  15.98600 51.93700 29.23300
C  15.10900 50.63500 31.15200
C  18.46400 52.44600 31.65300
C  19.06800 52.06500 33.05400
H  18.17400 51.26200 33.99500
N  15.52200 52.52700 26.22200
C  14.59100 52.79700 27.21600
C  13.42700 53.42100 26.60200
C  13.52300 53.28600 25.18600
C  14.88400 52.72200 24.99600
C  12.30200 54.04500 27.43200
C  12.60100 53.86200 24.06000
O  12.84000 53.73600 22.86200
C  11.29300 54.61700 24.46100
N  17.65600 51.41300 24.31200
C  16.82500 52.04400 23.47900
C  17.42500 52.14000 22.13000
C  18.92200 51.73800 22.34500
C  18.87400 51.22600 23.75900
C  16.61900 51.15300 21.12700
C  19.97400 52.90300 22.27200
C  21.09100 52.57500 21.33400
N  19.14700 50.59200 26.67600
C  20.00900 50.09400 25.75000
C  21.08700 49.31500 26.39100
C  20.81700 49.49500 27.75700
C  19.61500 50.17300 27.84000
C  22.08100 48.42700 25.76100
C  21.37800 49.17400 29.05000
O  22.43400 48.61200 29.37600
C  20.30600 49.68000 30.03300
C  19.75700 48.50900 30.81600
O  19.16200 47.57900 30.34800
O  20.12300 48.73900 32.12400
C  19.93400 47.59000 33.01800
H  14.08000 52.83600 29.34600
H  15.18900 53.02800 22.87200
H  20.63600 50.03400 23.64600
H  17.68200 50.48700 31.63100
H  15.82200 52.61800 31.33200
H  14.59800 50.21900 30.28400
H  14.29500 50.91800 31.81900
H  15.58300 49.81000 31.68300
H  17.96800 53.40700 31.79000
H  19.30400 52.72300 31.01600
H  19.30200 52.96600 33.62100
H  20.01000 51.51700 33.02900
H  11.83900 54.94500 27.02600
H  12.61300 54.06400 28.47700
H  11.62800 53.21600 27.64900
H  10.53500 54.74300 23.68800
H  11.54800 55.57400 24.91700
H  10.77300 53.97300 25.17000
H  17.23800 53.18700 21.89000
H  19.16500 50.98600 21.59500
H  15.63100 50.84700 21.47000
H  17.15800 50.22000 20.96700
H  16.51700 51.66500 20.17100
H  20.29600 53.28900 23.23900
H  19.36900 53.68700 21.81700
H  21.97900 52.98200 21.81700
H  21.00400 52.87600 20.29000
H  21.31400 51.50800 21.32800
H  23.02300 48.97300 25.71700
H  21.92700 47.91300 24.81300
H  22.20200 47.56400 26.41600
H  20.74600 50.48100 30.62700
H  19.31100 47.97000 33.82800
H  20.83000 47.18000 33.48300
H  19.35500 46.78500 32.56500

