79

Mg -9.71800 40.17200 42.54100
C  -8.48400 37.11500 41.37700
C  -7.02500 41.66100 41.03300
C  -11.24700 43.03300 42.91800
C  -12.76500 38.44100 43.10900
N  -7.89900 39.49400 41.30100
C  -7.65700 38.20400 41.05300
C  -6.25600 38.02700 40.34600
C  -5.62700 39.53700 40.37000
C  -6.91700 40.27000 40.87700
C  -4.53700 39.69000 41.44300
C  -6.39100 37.49600 38.91300
C  -5.66200 36.21100 38.57900
H  -4.77000 36.04800 37.36200
N  -9.10100 42.03100 42.29600
C  -7.95900 42.49500 41.67700
C  -7.99300 43.94800 41.57200
C  -9.19700 44.39800 42.23700
C  -9.95600 43.15700 42.49100
C  -7.01000 44.87200 40.87200
C  -9.56400 45.81200 42.49700
O  -8.77600 46.68700 42.10000
C  -10.90900 46.27200 43.13300
N  -11.69500 40.67400 42.91000
C  -12.08000 41.94100 43.04000
C  -13.59200 42.07700 43.12100
C  -14.09100 40.60900 43.31500
C  -12.78400 39.82100 43.10400
C  -14.05500 43.03800 44.30600
C  -15.16500 40.19000 42.19900
C  -16.40400 41.12100 42.13100
N  -10.50800 38.18200 42.42700
C  -11.73400 37.63700 42.73600
C  -11.64200 36.18100 42.63200
C  -10.44100 36.00000 42.11600
C  -9.74800 37.16200 41.97400
C  -12.61700 35.24400 43.15200
C  -9.47300 34.95700 41.72000
O  -9.57000 33.77800 41.78000
C  -8.21600 35.65800 41.19500
C  -7.11200 35.10200 41.91700
O  -6.77200 35.52200 43.01300
O  -6.33300 34.25700 41.17700
C  -5.04700 33.83300 41.70600
H  -6.10700 42.13100 40.67300
H  -11.78400 43.98100 42.84300
H  -13.68200 37.86600 43.25200
H  -5.78000 37.30000 41.00300
H  -5.39400 40.00100 39.41100
H  -3.61100 39.81600 40.88200
H  -4.59500 38.75700 42.00500
H  -4.55900 40.53500 42.13100
H  -6.04100 38.21900 38.17600
H  -7.44900 37.29800 38.74100
H  -6.40100 35.41500 38.48900
H  -4.95700 36.15000 39.40900
H  -7.52100 45.18800 39.96200
H  -6.20600 44.18500 40.60700
H  -6.48100 45.66400 41.40200
H  -11.05200 47.28600 43.50600
H  -11.23500 45.72100 44.01500
H  -11.67900 46.14500 42.37200
H  -13.86500 42.45600 42.13700
H  -14.50500 40.53400 44.32100
H  -13.25400 43.64800 44.72300
H  -14.50500 42.49600 45.13800
H  -14.81500 43.62900 43.79500
H  -15.42300 39.13800 42.32800
H  -14.51600 40.37900 41.34500
H  -16.48000 41.51200 41.11700
H  -16.40200 41.99600 42.78100
H  -17.24500 40.45100 42.30800
H  -13.64800 35.50200 42.91200
H  -12.54800 35.27400 44.24000
H  -12.49200 34.22700 42.78000
H  -7.98900 35.42400 40.15500
H  -4.51300 33.33900 40.89400
H  -5.25500 33.07000 42.45600
H  -4.44100 34.65800 42.08000

