79

Mg 49.31700 45.14900 43.22800
C  46.39600 46.35900 41.84200
C  49.04800 42.18600 41.28900
C  52.62800 44.29500 43.76700
C  50.00400 48.43900 44.27800
N  47.97100 44.36200 41.77200
C  46.78000 45.09000 41.35300
C  46.12300 44.22700 40.26600
C  46.94200 42.92700 40.18500
C  48.05800 43.18700 41.17400
C  46.12500 41.55100 40.49600
C  45.97700 45.02400 38.90300
C  44.53800 45.21700 38.41000
H  44.42600 44.55500 37.00500
N  50.62000 43.39100 42.81800
C  50.31000 42.33300 41.95200
C  51.39400 41.43100 41.97500
C  52.42000 41.99500 42.77600
C  51.88100 43.25800 43.26600
C  51.35900 40.14100 41.24200
C  53.84300 41.34000 43.06500
O  54.10900 40.22700 42.62700
C  54.78100 41.98600 43.91200
N  51.04100 46.21900 44.02800
C  52.30500 45.61100 44.08800
C  53.36400 46.70200 44.40300
C  52.41000 47.93900 44.74600
C  51.05300 47.48500 44.29000
C  54.34300 46.24000 45.48800
C  52.91200 49.36000 44.20400
C  52.92800 50.49700 45.16400
N  48.31000 46.95000 43.33300
C  48.64600 48.20500 43.88000
C  47.51000 49.07500 43.80300
C  46.63500 48.39000 43.02300
C  47.12800 47.11500 42.74100
C  47.40200 50.50500 44.35500
C  45.32100 48.45600 42.36800
O  44.42600 49.24800 42.44000
C  45.21300 47.15900 41.49200
C  44.00500 46.38500 41.89800
O  42.95700 46.40700 41.32700
O  44.18600 45.58300 43.02800
C  42.95600 44.85700 43.56700
H  48.98300 41.42100 40.51200
H  53.71300 44.22300 43.86700
H  50.26900 49.46400 44.54500
H  45.17300 44.01700 40.75700
H  47.40000 42.88800 39.19700
H  45.05000 41.71100 40.57500
H  46.41500 41.03700 41.41200
H  46.26000 40.98600 39.57400
H  46.56400 44.60700 38.08500
H  46.37800 46.03000 39.02500
H  44.20400 46.25400 38.38200
H  43.92200 44.68000 39.13100
H  50.34900 39.76500 41.07800
H  51.74100 39.31900 41.84800
H  51.85100 40.27800 40.28000
H  54.33800 42.50300 44.76300
H  55.41600 42.70800 43.39900
H  55.42200 41.16400 44.23100
H  53.98600 46.86000 43.52200
H  52.24900 47.93400 45.82400
H  54.06300 45.25600 45.86400
H  54.33100 46.87400 46.37500
H  55.35500 46.35000 45.10000
H  52.20500 49.68600 43.44100
H  53.89400 49.28600 43.73600
H  52.49400 51.37900 44.69400
H  53.94000 50.69300 45.51900
H  52.36200 50.38900 46.08900
H  47.78500 51.15500 43.56800
H  48.08000 50.60600 45.20200
H  46.39800 50.81100 44.65200
H  45.13200 47.46700 40.44900
H  42.22900 45.58700 43.92200
H  43.24100 44.19300 44.38300
H  42.52200 44.29400 42.74100

