79

Mg 10.43300 47.42200 26.29100
C  8.63700 47.62200 29.19100
C  13.11800 49.03300 27.96200
C  12.19700 47.34300 23.51400
C  7.48300 46.89000 24.43600
N  10.77000 48.27700 28.32800
C  9.89800 48.14500 29.34100
C  10.42200 48.80700 30.66500
C  11.73300 49.56800 30.19400
C  11.91200 48.95400 28.75900
C  11.54800 51.06600 30.01500
C  10.63000 47.70500 31.81100
C  10.12800 47.95100 33.21800
H  9.79700 46.77100 34.08000
N  12.40300 47.91600 25.85100
C  13.35800 48.57400 26.62900
C  14.60700 48.54900 25.83800
C  14.44000 47.90900 24.60900
C  12.96200 47.77600 24.57600
C  15.80500 49.16100 26.42100
C  15.42800 47.51700 23.50300
O  15.16500 47.15500 22.32100
C  16.86800 47.51400 23.97400
N  9.90900 47.31800 24.20200
C  10.80100 47.10300 23.26600
C  10.31100 46.74600 21.86900
C  8.79600 46.58500 22.21100
C  8.68500 46.89700 23.73200
C  10.54300 47.73000 20.66000
C  8.19900 45.21900 21.93300
C  8.84200 44.02200 22.64400
N  8.45600 47.18300 26.69700
C  7.36300 46.97600 25.87500
C  6.18600 46.99300 26.74400
C  6.55400 47.25400 28.03000
C  7.97700 47.26700 27.92000
C  4.83400 46.91500 26.12900
C  6.11800 47.48800 29.38900
O  5.03900 47.54800 29.92200
C  7.50000 47.60400 30.19600
C  7.56600 46.38400 30.96900
O  8.16800 45.35600 30.64000
O  6.83800 46.62800 32.10400
C  6.56100 45.38300 32.88500
H  13.99500 49.54800 28.36100
H  12.76900 47.02500 22.64100
H  6.62500 46.57200 23.84000
H  9.64100 49.44500 31.07800
H  12.55200 49.32500 30.87200
H  10.51300 51.31200 30.25200
H  11.59800 51.41600 28.98400
H  12.26100 51.55600 30.67800
H  11.69800 47.52300 31.92400
H  10.23200 46.78200 31.39000
H  9.28200 48.63900 33.23000
H  10.91500 48.54900 33.67600
H  16.58200 48.40000 26.49300
H  15.78900 49.47300 27.46500
H  16.16500 50.03100 25.87200
H  16.87100 46.90100 24.87500
H  17.20700 48.48100 24.34400
H  17.53200 47.12000 23.20400
H  10.65700 45.74600 21.60600
H  8.14600 47.21400 21.60300
H  11.16300 47.19900 19.93800
H  11.08400 48.63300 20.94300
H  9.57400 47.92900 20.20200
H  8.14000 45.09000 20.85200
H  7.16600 45.18500 22.27900
H  9.70100 44.23800 23.27900
H  9.20200 43.45700 21.78400
H  8.08100 43.40100 23.11800
H  4.68600 45.87900 25.82500
H  4.60700 47.68700 25.39300
H  4.17400 47.17100 26.95800
H  7.38600 48.44100 30.88600
H  6.83100 45.52300 33.93200
H  7.03900 44.44700 32.59500
H  5.51300 45.13500 32.71700

