79

Mg 16.47900 52.63100 26.76000
C  18.05400 50.73000 29.35000
C  14.08000 53.60100 29.10800
C  14.82100 54.08200 24.27500
C  18.84800 51.28100 24.52000
N  16.12100 52.16300 29.01300
C  16.94500 51.48500 29.83500
C  16.57300 51.67700 31.33200
C  15.18700 52.36400 31.17300
C  15.11800 52.77300 29.62500
C  13.88700 51.49300 31.51700
C  17.68000 52.62600 32.03700
C  18.08500 52.12300 33.50700
H  17.21600 52.57600 34.73500
N  14.64900 53.69000 26.75000
C  13.82700 53.97500 27.74900
C  12.84100 55.02000 27.23800
C  13.06200 55.13700 25.81800
C  14.24000 54.28500 25.51600
C  11.81600 55.63300 28.21000
C  12.27700 56.01600 24.85300
O  12.53900 56.00000 23.65100
C  11.09800 56.84600 25.36500
N  16.81100 52.80800 24.66900
C  15.96400 53.37500 23.84400
C  16.47200 53.31900 22.37400
C  17.87500 52.64000 22.55400
C  17.83300 52.09500 24.01200
C  15.47600 52.57800 21.36500
C  19.13700 53.56900 22.33900
C  20.01300 53.37300 21.06400
N  18.13600 51.26100 26.82000
C  18.94900 50.81600 25.84700
C  19.88700 49.86700 26.38800
C  19.60900 49.84600 27.77800
C  18.50000 50.68500 27.96200
C  21.01100 49.11900 25.66000
C  20.01000 49.38400 29.10700
O  20.91200 48.61300 29.36300
C  19.07700 49.86900 30.17400
C  18.43100 48.82400 30.98600
O  17.50400 48.14900 30.57300
O  19.14700 48.54400 32.13500
C  18.64000 47.60400 33.05200
H  13.33900 53.82500 29.87900
H  14.20800 54.49600 23.47200
H  19.62700 50.94000 23.83400
H  16.35800 50.70800 31.78200
H  15.22500 53.30400 31.72400
H  13.14400 52.07900 32.05800
H  14.24400 50.66600 32.13100
H  13.55300 51.11600 30.55100
H  17.34600 53.66100 32.11000
H  18.64900 52.71000 31.54500
H  19.00900 52.63100 33.78300
H  18.10200 51.03500 33.43900
H  10.82300 55.20200 28.07900
H  11.71600 56.70500 28.03900
H  12.10300 55.43900 29.24400
H  10.46700 56.15800 25.92800
H  10.53300 57.22300 24.51300
H  11.55300 57.51800 26.09300
H  16.53100 54.36400 22.07000
H  17.80800 51.74600 21.93300
H  14.45800 52.50800 21.75000
H  15.96700 51.64000 21.11000
H  15.26800 53.13800 20.45300
H  19.66700 53.50200 23.28900
H  18.70200 54.56300 22.23600
H  19.61900 52.48800 20.56400
H  20.96100 53.05000 21.49600
H  19.92800 54.25300 20.42600
H  21.29500 48.21900 26.20500
H  21.81600 49.82200 25.44600
H  20.74000 48.78300 24.65900
H  19.45000 50.56100 30.93000
H  19.26200 46.70900 33.03600
H  17.65600 47.20600 32.80500
H  18.48800 48.15900 33.97800

