79

Mg 24.24900 -5.98700 45.06200
C  26.58700 -3.74200 43.82700
C  21.73500 -4.61400 43.24200
C  22.40100 -8.84000 45.56000
C  27.05100 -7.75600 46.62300
N  24.20600 -4.36400 43.69600
C  25.24500 -3.53600 43.37100
C  24.77500 -2.43500 42.42800
C  23.22600 -2.58700 42.51700
C  22.99800 -3.99900 43.09800
C  22.42500 -1.48600 43.23400
C  25.42300 -2.60000 40.96300
C  25.72400 -1.28200 40.30100
H  25.05000 -1.10000 38.91900
N  22.26500 -6.51500 44.67400
C  21.38200 -5.80000 43.89000
C  20.13700 -6.51800 43.81700
C  20.27000 -7.72900 44.53800
C  21.66500 -7.73900 44.94700
C  19.03900 -6.09200 42.91200
C  19.17000 -8.75000 44.62500
O  17.98800 -8.48300 44.35600
C  19.37700 -10.20900 45.16000
N  24.70000 -7.98800 45.88200
C  23.69300 -8.91200 45.95700
C  24.19300 -10.23200 46.52500
C  25.57400 -9.83500 47.12800
C  25.80300 -8.43400 46.58900
C  23.28500 -10.95600 47.61000
C  26.77800 -10.77200 46.77800
C  27.70100 -11.14500 48.01900
N  26.34300 -5.87700 45.23800
C  27.33400 -6.56400 45.97900
C  28.62200 -5.86000 45.91100
C  28.35100 -4.75000 45.06700
C  26.95400 -4.82300 44.69000
C  29.87500 -6.38100 46.58300
C  28.99700 -3.63400 44.41900
O  30.13200 -3.17000 44.42400
C  27.86800 -2.87900 43.65000
C  27.79500 -1.50000 44.08400
O  27.61100 -1.09300 45.23900
O  27.97500 -0.61100 43.00200
C  27.92300 0.79700 43.35300
H  20.91500 -4.25100 42.61800
H  21.79300 -9.73500 45.70900
H  27.94100 -8.25700 47.01100
H  24.99900 -1.45800 42.85600
H  22.73300 -2.40500 41.56300
H  21.56300 -1.12400 42.67400
H  23.02300 -0.58200 43.35300
H  22.17000 -1.77200 44.25500
H  24.63900 -3.13000 40.42300
H  26.34100 -3.17800 41.06400
H  26.78000 -1.19200 40.04900
H  25.38800 -0.45200 40.92300
H  18.62100 -6.92300 42.34300
H  19.27300 -5.21900 42.30400
H  18.27200 -5.70700 43.58500
H  18.35200 -10.57800 45.16300
H  19.83100 -10.02800 46.13400
H  20.09200 -10.70400 44.50300
H  24.25100 -10.90500 45.66900
H  25.50100 -9.74200 48.21100
H  24.04000 -11.40300 48.25700
H  22.68200 -11.73300 47.14000
H  22.59400 -10.22700 48.03400
H  27.30700 -10.30300 45.94800
H  26.38400 -11.66900 46.29900
H  27.78700 -12.22600 47.90600
H  27.20400 -10.88900 48.95500
H  28.63800 -10.58900 48.00300
H  30.02000 -7.45300 46.45200
H  29.81200 -6.24900 47.66300
H  30.70800 -5.79300 46.19800
H  28.22800 -2.84400 42.62200
H  28.73300 1.05000 44.03700
H  26.92900 1.06200 43.71500
H  28.10400 1.46500 42.51000

