79

Mg -2.41500 17.53200 26.03700
C  -2.77900 15.18600 28.72500
C  -2.86000 20.12500 28.36800
C  -2.73000 19.76900 23.53200
C  -2.41700 14.93600 23.82900
N  -2.72800 17.60600 28.35100
C  -2.67600 16.52900 29.19300
C  -2.56800 17.05500 30.62600
C  -2.78300 18.65700 30.45600
C  -2.73000 18.82700 28.98300
C  -4.00300 19.20000 31.26600
C  -1.16700 16.63400 31.25800
C  -0.76200 17.53100 32.42900
H  -0.31900 16.83500 33.74200
N  -2.68300 19.56500 25.94600
C  -2.92600 20.40000 27.01000
C  -3.35700 21.67600 26.49400
C  -3.19700 21.72100 25.14400
C  -2.91000 20.28000 24.80200
C  -3.91600 22.72300 27.37700
C  -3.51100 22.85200 24.16100
O  -3.41600 22.71000 22.94500
C  -3.83400 24.29500 24.68900
N  -2.67800 17.36900 23.91900
C  -2.61700 18.49000 23.13400
C  -2.31800 18.01500 21.66500
C  -2.33000 16.44400 21.82200
C  -2.39200 16.27600 23.28000
C  -3.36300 18.66100 20.63900
C  -1.05500 15.80900 21.24300
C  0.28900 15.89500 21.93500
N  -2.55700 15.53100 26.17800
C  -2.52200 14.56300 25.16600
C  -2.56800 13.24600 25.76300
C  -2.59500 13.48200 27.07500
C  -2.67300 14.80900 27.36600
C  -2.39100 11.84000 25.16600
C  -2.66500 12.79900 28.38500
O  -2.66100 11.60500 28.58000
C  -2.71000 13.85400 29.51400
C  -1.49200 13.62300 30.30100
O  -0.37700 13.78900 29.96800
O  -1.93200 13.06300 31.52800
C  -0.80600 12.60300 32.34300
H  -2.97500 20.95400 29.07000
H  -2.53800 20.59200 22.84100
H  -2.26300 14.06300 23.19100
H  -3.38000 16.52800 31.12800
H  -1.85700 19.04800 30.87600
H  -3.77900 19.88400 32.08400
H  -4.66700 18.39600 31.58500
H  -4.65600 19.83800 30.67100
H  -0.42300 16.68400 30.46400
H  -1.26700 15.60400 31.60300
H  -1.66400 18.05300 32.74900
H  -0.09000 18.29600 32.03900
H  -3.24600 23.57600 27.48100
H  -4.15900 22.26800 28.33700
H  -4.81200 23.16500 26.94100
H  -4.87600 24.19600 24.99300
H  -3.68500 24.86900 23.77400
H  -3.17800 24.66100 25.48000
H  -1.27200 18.23500 21.45400
H  -3.25600 16.02900 21.42500
H  -4.08900 19.38800 21.00300
H  -4.04100 17.96800 20.14100
H  -2.78500 19.22300 19.90600
H  -0.77500 16.30800 20.31500
H  -1.23700 14.73600 21.17200
H  0.26300 16.62600 22.74200
H  0.94500 16.30200 21.16600
H  0.69100 14.94100 22.27800
H  -2.10800 11.90000 24.11500
H  -3.30000 11.24800 25.27100
H  -1.56000 11.41100 25.72600
H  -3.58700 13.63800 30.12500
H  -0.38500 13.48700 32.82400
H  -0.10200 12.00300 31.76600
H  -1.14300 11.99700 33.18400

