79

Mg -10.08100 39.78600 39.59700
C  -9.07900 36.57500 38.84600
C  -6.91800 40.86000 38.79100
C  -11.32500 43.10100 39.60400
C  -13.45100 38.60000 39.72900
N  -8.23700 38.82700 38.76900
C  -8.04300 37.48200 38.66300
C  -6.53200 37.15700 38.48700
C  -5.80100 38.48900 38.71600
C  -7.06000 39.46500 38.80600
C  -4.90400 38.63800 40.01400
C  -6.06500 36.39100 37.16200
C  -6.27500 37.05900 35.81200
H  -7.10700 36.34500 34.76900
N  -9.26200 41.79100 39.21000
C  -7.92500 41.92100 38.94700
C  -7.68000 43.38700 38.87600
C  -8.92400 44.04900 38.99000
C  -9.93100 43.00000 39.29100
C  -6.30800 43.92900 38.44900
C  -9.10400 45.56400 38.98500
O  -8.09100 46.19600 38.89600
C  -10.44800 46.12400 39.15500
N  -12.09200 40.71100 39.34900
C  -12.27800 42.04100 39.70600
C  -13.75800 42.26000 39.87700
C  -14.39200 40.90200 39.83300
C  -13.22300 39.96000 39.58200
C  -14.03000 43.01600 41.26000
C  -15.57600 40.62500 38.70400
C  -16.84400 39.92900 39.24800
N  -11.05100 38.01000 39.55600
C  -12.39000 37.67800 39.71800
C  -12.53800 36.22400 39.70100
C  -11.27900 35.77200 39.37100
C  -10.40400 36.89900 39.25600
C  -13.84900 35.44500 39.70500
C  -10.52700 34.61100 38.94600
O  -10.82700 33.44700 38.77500
C  -8.99400 35.08000 38.66300
C  -8.14800 34.39500 39.63900
O  -8.48200 34.30400 40.79800
O  -7.01000 33.81700 39.09800
C  -6.11900 33.28100 40.03800
H  -5.89400 41.23700 38.76300
H  -11.76700 44.05400 39.90100
H  -14.47500 38.23500 39.83900
H  -6.39500 36.39800 39.25700
H  -5.18400 38.60800 37.82500
H  -4.03300 39.03800 39.49600
H  -4.84800 37.63500 40.43800
H  -5.33500 39.30100 40.76500
H  -6.64900 35.47200 37.13400
H  -5.04400 36.02100 37.25600
H  -5.29700 37.12900 35.33500
H  -6.61300 38.09500 35.77700
H  -5.68500 43.15700 37.99600
H  -5.83400 44.36800 39.32700
H  -6.43500 44.73700 37.72900
H  -10.77100 46.31600 40.17800
H  -11.16700 45.49800 38.62700
H  -10.42100 46.97000 38.46700
H  -14.30900 42.92300 39.20900
H  -14.68200 40.50300 40.80600
H  -14.30600 44.06900 41.20300
H  -13.16000 42.95600 41.91300
H  -14.87000 42.61400 41.82700
H  -15.09400 39.94300 38.00300
H  -15.77500 41.53900 38.14400
H  -16.86500 39.96000 40.33800
H  -16.89800 38.89000 38.92300
H  -17.78600 40.40100 38.96800
H  -14.28300 35.40500 38.70600
H  -14.63200 35.92900 40.29000
H  -13.83200 34.48700 40.22400
H  -8.78200 34.96200 37.60000
H  -6.64700 32.59700 40.70200
H  -5.72400 34.08900 40.65300
H  -5.36300 32.79900 39.41700

