79

Mg 2.25300 -1.64900 44.06500
C  5.71900 -1.16400 43.63700
C  1.70000 1.22100 42.35500
C  -1.05400 -2.46600 43.85700
C  2.89800 -4.82900 45.33400
N  3.57200 -0.19500 43.05000
C  4.95300 -0.14000 43.09500
C  5.40900 1.16800 42.44200
C  4.09900 1.95100 42.09500
C  3.02300 0.96500 42.53600
C  4.05500 3.40300 42.59600
C  6.31800 0.76600 41.15800
C  7.62000 1.57500 40.91400
H  7.65900 2.38900 39.60500
N  0.55100 -0.75800 43.20100
C  0.56500 0.44900 42.59000
C  -0.80100 0.96600 42.38500
C  -1.65300 -0.09600 42.83900
C  -0.72200 -1.15600 43.36000
C  -1.12400 2.33800 41.80100
C  -3.23700 -0.13700 42.72500
O  -3.94600 0.87200 42.51100
C  -4.05100 -1.44100 42.86300
N  1.12500 -3.39700 44.45700
C  -0.21600 -3.50100 44.26800
C  -0.80000 -4.90300 44.63400
C  0.48700 -5.60700 45.06600
C  1.59700 -4.54600 44.94800
C  -1.98100 -4.91200 45.68500
C  0.87300 -6.94900 44.30000
C  0.81800 -8.28900 45.08700
N  3.95400 -2.77800 44.59700
C  4.07400 -4.02100 45.16500
C  5.48500 -4.28600 45.36400
C  6.17700 -3.15400 44.85800
C  5.21000 -2.29900 44.31900
C  6.09500 -5.53500 46.00300
C  7.51800 -2.57400 44.67900
O  8.61700 -2.94700 44.97900
C  7.18900 -1.24500 43.77800
C  7.77600 0.01200 44.45400
O  7.56600 0.34300 45.57800
O  8.68800 0.60400 43.64600
C  9.34400 1.88800 44.01600
H  1.39200 2.18200 41.93600
H  -2.11200 -2.73000 43.79300
H  3.04700 -5.85700 45.66800
H  6.06500 1.58900 43.20400
H  4.08400 2.08700 41.01400
H  3.35800 3.59300 43.41200
H  3.63800 3.98800 41.77700
H  5.02800 3.79300 42.89700
H  5.83000 0.87500 40.18900
H  6.39600 -0.32200 41.15900
H  8.34000 0.75700 40.89200
H  7.87400 2.16400 41.79600
H  -0.57400 2.31400 40.86000
H  -0.64700 3.10200 42.41400
H  -2.16000 2.67100 41.73300
H  -3.99700 -1.78200 43.89700
H  -3.61300 -2.24100 42.26600
H  -5.08000 -1.18500 42.61100
H  -1.24200 -5.36800 43.75200
H  0.38800 -5.91100 46.10800
H  -2.08500 -3.87800 46.01500
H  -1.90500 -5.56100 46.55800
H  -2.91400 -5.10100 45.15500
H  1.89500 -6.97900 43.92100
H  0.27800 -6.91100 43.38800
H  0.11000 -8.94900 44.58400
H  0.34200 -8.13800 46.05600
H  1.74500 -8.85300 45.18900
H  5.95200 -6.32200 45.26200
H  5.48000 -5.85700 46.84300
H  7.12000 -5.42700 46.35800
H  7.64500 -1.46200 42.81300
H  10.24900 1.61400 44.55800
H  8.71200 2.52200 44.63800
H  9.71400 2.45000 43.15900

