79

Mg 54.59200 25.01200 44.84600
C  51.93900 27.18900 43.83500
C  52.60400 22.43700 43.67300
C  57.27300 23.10400 44.71200
C  56.32000 27.72400 45.92000
N  52.56800 24.86800 43.61500
C  51.67500 25.87400 43.49700
C  50.27700 25.29500 42.95000
C  50.42600 23.88600 43.45900
C  51.93100 23.71400 43.51300
C  49.77200 23.52900 44.80500
C  50.12400 25.44200 41.46200
C  48.69500 25.27900 40.85100
H  48.56800 24.30300 39.64400
N  54.92800 23.00100 44.28700
C  53.98100 22.12500 43.85400
C  54.54600 20.85300 43.66900
C  55.98500 21.05900 43.73200
C  56.14600 22.45600 44.21100
C  53.71700 19.63500 43.28200
C  57.06400 20.03200 43.40300
O  56.78800 18.84800 43.31400
C  58.52800 20.45700 43.16000
N  56.48600 25.30900 45.38700
C  57.44800 24.35400 45.26800
C  58.81100 24.94700 45.67900
C  58.50700 26.37800 46.17000
C  57.03700 26.51400 45.83400
C  59.59500 24.03800 46.71000
C  59.25400 27.55900 45.37100
C  59.91700 28.61700 46.29900
N  54.22100 27.03900 44.99600
C  55.02600 27.97600 45.58900
C  54.30300 29.26500 45.53500
C  53.03500 28.96100 44.91400
C  53.08300 27.62100 44.57500
C  54.72200 30.71400 46.04200
C  51.87800 29.52800 44.44700
O  51.53300 30.70000 44.45800
C  51.05200 28.34100 43.76100
C  50.53100 28.65100 42.39600
O  51.19600 29.07900 41.49200
O  49.19000 28.41900 42.26800
C  48.62000 28.96100 40.99400
H  51.97700 21.54300 43.64600
H  58.19700 22.53200 44.60300
H  56.89800 28.62500 46.13600
H  49.42300 25.74700 43.45500
H  49.86400 23.28700 42.74300
H  50.48100 23.56600 45.63200
H  49.18400 22.61100 44.83300
H  49.14800 24.34500 45.16800
H  50.75100 24.61100 41.14000
H  50.70200 26.30100 41.11900
H  48.33200 26.27300 40.58800
H  48.04700 24.80000 41.58500
H  53.91100 19.59900 42.21000
H  52.66500 19.61900 43.56800
H  54.23800 18.75300 43.65400
H  58.78100 21.36900 42.61900
H  58.96000 19.55200 42.73100
H  58.94500 20.68400 44.14100
H  59.39600 24.96800 44.76000
H  58.67400 26.57700 47.22800
H  58.96400 23.19900 47.00300
H  59.68400 24.61800 47.62800
H  60.58500 23.74200 46.36100
H  58.56400 28.08500 44.71200
H  60.01000 27.01300 44.80600
H  60.99700 28.47100 46.26500
H  59.55000 28.44700 47.31100
H  59.71000 29.66700 46.09100
H  53.92000 31.40700 45.78700
H  55.58700 31.08300 45.49000
H  54.71700 30.79500 47.12900
H  50.11100 28.20900 44.29700
H  48.78800 30.02900 41.13000
H  47.54500 28.80700 41.08600
H  49.06500 28.45900 40.13500

