79

Mg -2.16200 17.14500 26.18900
C  -2.50300 14.60700 28.72000
C  -3.19900 19.44300 28.60100
C  -1.88300 19.65700 24.02700
C  -1.87800 14.61200 23.86100
N  -2.62700 17.03600 28.30000
C  -2.55900 15.91000 29.18900
C  -2.80800 16.25300 30.64300
C  -3.46700 17.66900 30.44400
C  -3.15700 18.07600 28.96100
C  -4.94700 17.74200 30.73500
C  -1.41700 16.37500 31.43200
C  -1.47400 17.24100 32.75800
H  -1.01600 16.63200 34.03600
N  -2.52000 19.31000 26.25600
C  -2.97300 20.04600 27.37500
C  -3.13400 21.46600 26.96900
C  -2.79200 21.47200 25.59800
C  -2.32500 20.13100 25.25400
C  -3.44400 22.66700 27.95600
C  -2.79100 22.57900 24.55500
O  -2.57500 22.38400 23.39300
C  -3.12300 23.96400 25.05000
N  -2.00600 17.16600 24.23700
C  -1.86500 18.30200 23.47400
C  -1.57400 17.93400 22.06100
C  -1.39300 16.35400 22.12700
C  -1.73100 16.00200 23.52300
C  -2.70600 18.45900 21.10900
C  0.12300 15.97400 21.83700
C  0.27600 15.00500 20.62800
N  -2.06100 15.01500 26.21900
C  -1.99400 14.12100 25.15000
C  -2.00700 12.77000 25.62000
C  -2.23200 12.91300 27.01100
C  -2.28200 14.32100 27.32500
C  -1.80800 11.54600 24.78800
C  -2.31400 12.18700 28.24700
O  -2.07000 10.99000 28.39400
C  -2.76300 13.25900 29.38600
C  -1.82500 12.99500 30.56200
O  -0.66500 12.85800 30.49600
O  -2.57700 12.96800 31.72500
C  -1.96100 12.44800 32.89200
H  -3.59700 19.95100 29.48200
H  -1.56000 20.39000 23.28500
H  -1.74700 13.90100 23.04300
H  -3.54200 15.64500 31.17200
H  -3.16200 18.46800 31.12000
H  -5.28900 18.73100 30.43100
H  -4.93800 17.71900 31.82500
H  -5.52700 16.94200 30.27600
H  -0.56200 16.67600 30.82500
H  -1.22000 15.33700 31.69700
H  -2.51400 17.53500 32.90500
H  -0.98700 18.21600 32.78400
H  -3.20900 22.42600 28.99300
H  -4.48900 22.97600 27.94400
H  -2.90900 23.57400 27.67400
H  -4.06600 23.81300 25.57700
H  -3.20700 24.59200 24.16300
H  -2.31600 24.24100 25.72800
H  -0.63800 18.37700 21.72100
H  -2.06300 15.85000 21.43200
H  -3.55700 18.51600 21.78700
H  -3.00800 17.74800 20.34000
H  -2.37600 19.43700 20.75700
H  0.62500 15.56000 22.71200
H  0.73800 16.85200 21.63700
H  -0.68500 14.55200 20.38600
H  1.08400 14.27500 20.68100
H  0.43300 15.74800 19.84600
H  -1.10800 11.74000 23.97600
H  -2.76400 11.25000 24.35500
H  -1.35700 10.87400 25.51900
H  -3.80700 13.10400 29.66000
H  -0.87400 12.48500 32.82400
H  -2.28600 11.42500 33.08100
H  -2.45600 12.97000 33.71100

