79

Mg 52.75000 23.71100 44.70100
C  49.93400 25.83700 44.02200
C  50.74200 21.11100 43.65000
C  55.44800 21.85400 44.67300
C  54.49900 26.58100 45.69000
N  50.64200 23.53700 43.80000
C  49.76100 24.52600 43.59300
C  48.51400 24.05000 42.86000
C  48.52500 22.53000 43.35600
C  50.07900 22.32900 43.49500
C  47.86300 22.12100 44.66200
C  48.67200 24.29600 41.33700
C  47.41700 24.82900 40.58400
H  46.94100 24.07100 39.36000
N  52.98400 21.71400 44.23000
C  52.06700 20.75900 43.91900
C  52.64500 19.45400 43.94600
C  54.07700 19.60400 44.19100
C  54.28500 21.07400 44.36300
C  51.70800 18.22700 43.98900
C  55.04100 18.48700 44.26000
O  54.64700 17.30600 44.14000
C  56.40500 18.63700 44.69100
N  54.75200 24.14800 45.00700
C  55.71200 23.20500 44.99900
C  57.01600 23.74700 45.57400
C  56.72900 25.31700 45.80000
C  55.23700 25.39000 45.40300
C  57.72500 22.96300 46.69500
C  57.58100 26.25600 44.88600
C  58.85700 26.82300 45.55800
N  52.34300 25.79700 44.87200
C  53.12500 26.81900 45.36600
C  52.36900 28.05800 45.43700
C  51.11000 27.71400 44.93400
C  51.15200 26.36300 44.57400
C  52.80400 29.36100 45.99200
C  49.73500 28.21000 44.64900
O  49.21700 29.30300 44.81400
C  48.98500 27.05800 43.92600
C  48.49900 27.43200 42.63100
O  49.22200 27.87000 41.70600
O  47.16800 27.43900 42.68000
C  46.46600 28.22900 41.73000
H  50.01200 20.30300 43.57500
H  56.39600 21.33400 44.51200
H  55.03000 27.43600 46.11400
H  47.65900 24.54300 43.32200
H  48.19200 21.87100 42.55400
H  48.62300 21.57500 45.22000
H  46.92900 21.62100 44.40300
H  47.62200 23.04800 45.18200
H  49.02800 23.41300 40.80500
H  49.34300 25.14400 41.20300
H  47.63800 25.83700 40.23500
H  46.57500 24.95600 41.26500
H  52.13100 17.23300 43.84500
H  50.89300 18.35900 43.27800
H  51.13400 18.28100 44.91500
H  56.84700 19.20700 43.87400
H  56.95100 17.70200 44.81400
H  56.36000 19.21400 45.61500
H  57.67000 23.54600 44.72500
H  56.91400 25.48300 46.86200
H  57.60300 23.49200 47.64000
H  58.73200 22.63000 46.44500
H  57.07200 22.10800 46.87000
H  56.89400 27.00600 44.49600
H  57.99700 25.66400 44.07000
H  58.88100 26.32900 46.53000
H  58.87600 27.87200 45.85400
H  59.74900 26.63500 44.96200
H  52.11900 30.09100 45.56000
H  53.82500 29.53900 45.65400
H  52.85400 29.52500 47.06900
H  48.10400 26.69200 44.45500
H  46.95800 29.18500 41.54800
H  45.45300 28.31600 42.12200
H  46.43800 27.63000 40.82000

