79

Mg 34.95800 2.58700 29.36400
C  32.81400 3.50900 31.96700
C  37.53500 2.15000 31.57500
C  36.94800 1.70600 26.74300
C  32.36100 3.40900 26.98200
N  35.11700 2.92700 31.51100
C  34.09000 3.24000 32.46100
C  34.68900 3.33900 33.94700
C  36.18300 3.03500 33.63100
C  36.31900 2.61000 32.16200
C  37.21000 4.22800 33.85300
C  34.03000 2.45300 34.95500
C  33.55400 3.07500 36.27900
H  34.56900 3.83400 37.03000
N  36.96300 1.97700 29.14300
C  37.84900 1.94200 30.14800
C  39.12500 1.48500 29.62800
C  39.02500 1.31100 28.23700
C  37.59000 1.59100 27.99300
C  40.33000 1.09100 30.56300
C  39.99600 0.79500 27.21200
O  39.66000 0.42500 26.10300
C  41.57300 0.57100 27.59100
N  34.69900 2.56800 27.20900
C  35.65300 2.11600 26.35600
C  35.09800 1.97400 24.89300
C  33.59300 2.34500 25.03300
C  33.54600 2.83700 26.48900
C  35.84600 2.80500 23.88700
C  32.68200 1.09400 24.78900
C  31.74200 1.21700 23.58100
N  33.01500 3.33600 29.37100
C  32.06400 3.59900 28.34700
C  30.80900 3.88300 29.01100
C  31.02800 3.88700 30.42000
C  32.39700 3.49400 30.59900
C  29.54300 3.92700 28.34500
C  30.38600 4.09500 31.76400
O  29.24300 4.43000 32.07000
C  31.53400 3.85100 32.82300
C  31.62000 5.06300 33.54600
O  32.33300 6.02800 33.28100
O  30.66700 5.02800 34.50100
C  30.54400 6.29100 35.22200
H  38.38500 1.98200 32.24100
H  37.57700 1.43200 25.89300
H  31.59200 3.68400 26.25800
H  34.56000 4.40200 34.15400
H  36.49300 2.20100 34.26100
H  37.80600 4.33900 32.94700
H  37.87100 4.01000 34.69200
H  36.74700 5.20900 33.96100
H  34.63600 1.56900 35.15300
H  33.08700 2.18200 34.48200
H  33.24100 2.23100 36.89300
H  32.65700 3.68700 36.18400
H  40.38400 0.07600 30.95700
H  40.36200 1.78300 31.40500
H  41.28000 1.33300 30.08700
H  41.66700 -0.14000 28.41300
H  42.11300 1.48500 27.83600
H  42.06700 0.20800 26.69000
H  35.26700 0.89900 24.83500
H  33.36500 3.10200 24.28200
H  36.47900 2.19300 23.24400
H  36.45100 3.58400 24.35100
H  35.26900 3.39100 23.17100
H  31.96100 0.95200 25.59400
H  33.25300 0.18800 24.58500
H  31.93300 0.45200 22.82800
H  31.91100 2.16000 23.06000
H  30.70600 1.10000 23.89700
H  29.37100 4.79700 27.71100
H  28.77100 3.91700 29.11500
H  29.34800 3.04200 27.73900
H  31.20600 3.05900 33.49500
H  30.16600 7.07700 34.56800
H  31.51600 6.68600 35.51800
H  29.95000 6.14000 36.12300

