79

Mg 25.21600 -8.58500 48.06600
C  27.46000 -6.21700 46.84100
C  23.05700 -7.66500 45.64700
C  23.10300 -10.99500 49.23700
C  27.68600 -9.73900 50.38600
N  25.31800 -7.23200 46.38900
C  26.27700 -6.31600 46.05900
C  25.88900 -5.34100 44.95300
C  24.40400 -5.83700 44.60400
C  24.25100 -7.00500 45.58100
C  23.35100 -4.69800 44.86000
C  26.80900 -5.37500 43.72600
C  27.46600 -3.97300 43.28600
H  27.30200 -3.60600 41.84800
N  23.36600 -9.35300 47.41100
C  22.66000 -8.80700 46.35300
C  21.49600 -9.62200 46.22000
C  21.39200 -10.49700 47.33500
C  22.64700 -10.35100 48.02900
C  20.58400 -9.43100 45.11600
C  20.17600 -11.33300 47.67700
O  19.14800 -11.41900 46.99700
C  20.16900 -12.11600 48.95500
N  25.39300 -10.24700 49.45700
C  24.29100 -10.94400 49.94200
C  24.61300 -11.81100 51.14000
C  26.14500 -11.64600 51.27600
C  26.47700 -10.47800 50.30900
C  23.74600 -11.44800 52.41400
C  27.08300 -12.88200 50.92400
C  28.08300 -13.45400 51.98900
N  27.08700 -8.06000 48.56900
C  27.98100 -8.66400 49.51200
C  29.23200 -7.90100 49.38900
C  29.03700 -6.89300 48.42300
C  27.73400 -7.08100 47.94400
C  30.52400 -8.30500 50.21600
C  29.58700 -5.71800 47.75300
O  30.57300 -5.14000 48.00400
C  28.55600 -5.19200 46.80300
C  28.08500 -3.92000 47.43400
O  27.37800 -3.84500 48.43000
O  28.51400 -2.97500 46.64100
C  28.14700 -1.60900 47.00300
H  22.23700 -7.42600 44.96700
H  22.38900 -11.65800 49.73100
H  28.44300 -10.24400 50.99000
H  25.87500 -4.35800 45.42400
H  24.33500 -6.21200 43.58200
H  23.84800 -3.76000 44.61400
H  22.89700 -4.81000 45.84400
H  22.52700 -4.84200 44.16100
H  26.34100 -5.71400 42.80200
H  27.54300 -6.13900 43.98600
H  28.54600 -3.95200 43.43300
H  27.15000 -3.15300 43.93200
H  19.79500 -10.17100 44.98500
H  21.08800 -9.44000 44.15000
H  19.96600 -8.54600 45.26600
H  20.96400 -12.85600 48.86400
H  19.19500 -12.59900 49.03400
H  20.30900 -11.39100 49.75600
H  24.40400 -12.82100 50.78700
H  26.40100 -11.21900 52.24500
H  24.32100 -10.75100 53.02400
H  23.58600 -12.41300 52.89500
H  22.82600 -10.98100 52.06300
H  27.61300 -12.55300 50.03000
H  26.44300 -13.73900 50.71500
H  27.87700 -14.44900 52.38400
H  28.35200 -12.75600 52.78300
H  28.99700 -13.56400 51.40500
H  30.37500 -8.21300 51.29200
H  31.41000 -7.71000 49.99600
H  30.84600 -9.32200 49.99100
H  28.93800 -5.12700 45.78400
H  28.80300 -1.17100 47.75600
H  27.13000 -1.42100 47.34800
H  28.21600 -0.96300 46.12800

