79

Mg 26.07000 49.51000 26.79000
C  24.23600 50.73600 29.45000
C  28.55400 48.62900 29.08800
C  28.24900 49.02900 24.25400
C  23.73600 50.75000 24.54000
N  26.24100 49.53000 29.08400
C  25.36600 50.03200 29.92800
C  25.79100 49.66300 31.38700
C  27.20000 49.11400 31.17100
C  27.39200 49.11700 29.67300
C  28.37400 49.75000 31.89500
C  24.68000 48.63800 31.97400
C  24.35800 48.94800 33.42900
H  25.30900 49.47400 34.48300
N  28.06700 48.86800 26.69600
C  28.92300 48.58100 27.72000
C  30.20000 48.12800 27.23000
C  30.13600 48.20300 25.81400
C  28.80500 48.71100 25.51700
C  31.30800 47.62000 28.13600
C  31.24800 47.95200 24.79900
O  30.99100 48.01500 23.60800
C  32.63900 47.64300 25.10600
N  25.96700 49.85900 24.60500
C  26.94400 49.48800 23.79800
C  26.46800 49.45900 22.39200
C  25.05700 50.06800 22.47200
C  24.86200 50.14700 23.91300
C  27.42500 49.93800 21.30500
C  23.99000 49.24500 21.71200
C  23.11300 49.88300 20.59600
N  24.39600 50.50600 26.91500
C  23.53800 50.93000 25.88700
C  22.46500 51.65000 26.47600
C  22.70200 51.62800 27.89200
C  23.92500 50.94500 28.11100
C  21.42100 52.26700 25.76100
C  22.12500 52.02400 29.18600
O  21.14900 52.66400 29.52800
C  23.05500 51.35800 30.35000
C  23.46400 52.47200 31.26800
O  24.30200 53.32900 31.13700
O  22.92700 52.13300 32.47700
C  23.36200 53.06100 33.55600
H  29.22800 48.17900 29.82000
H  28.93800 48.80400 23.43800
H  22.93000 51.06200 23.87300
H  25.83600 50.49700 32.08700
H  27.29800 48.05000 31.38600
H  27.82800 50.37100 32.60500
H  28.97600 50.39800 31.25900
H  28.91900 48.91700 32.33900
H  25.13600 47.65400 31.87200
H  23.80600 48.69900 31.32500
H  24.08300 47.92500 33.68400
H  23.45200 49.55000 33.50700
H  31.97800 47.11900 27.43700
H  31.09100 46.78300 28.80000
H  31.90100 48.37000 28.65900
H  33.07700 48.32600 25.83300
H  33.22300 47.71300 24.18800
H  32.72000 46.57500 25.30900
H  26.36600 48.38200 22.26100
H  25.15700 51.05800 22.02600
H  28.08100 50.72800 21.67100
H  26.88000 50.32700 20.44400
H  27.92100 49.06900 20.87300
H  23.36200 48.76800 22.46500
H  24.52100 48.37900 21.31700
H  23.62300 50.76500 20.20700
H  22.07400 50.07400 20.86600
H  23.14900 49.19300 19.75300
H  21.03000 51.67200 24.93600
H  21.78400 53.19000 25.30900
H  20.67400 52.45600 26.53100
H  22.59000 50.52400 30.87600
H  23.92600 52.52400 34.31800
H  22.46300 53.40600 34.06500
H  23.78700 54.01200 33.23600

