79

Mg -2.03500 34.50600 27.20200
C  -3.26400 32.06000 29.54800
C  -0.91100 36.27100 29.90500
C  -0.52800 36.63800 24.97700
C  -3.05600 32.52900 24.59100
N  -1.88800 34.07000 29.46500
C  -2.41700 33.01200 30.16800
C  -2.31700 33.21600 31.64600
C  -1.66900 34.61800 31.75200
C  -1.45900 35.05200 30.23700
C  -2.52400 35.68600 32.53900
C  -1.49800 32.11300 32.31600
C  -2.01500 31.47600 33.62500
H  -1.14800 31.71700 34.96200
N  -0.92100 36.23500 27.41300
C  -0.59300 36.80900 28.60300
C  0.32200 37.86700 28.30400
C  0.32400 38.08600 26.88900
C  -0.38300 36.94600 26.36500
C  1.10200 38.70500 29.36300
C  0.90800 39.24200 26.07900
O  0.79400 39.46700 24.90900
C  2.06500 40.11300 26.67300
N  -2.06900 34.69300 25.15500
C  -1.31800 35.63600 24.47600
C  -1.30800 35.40300 22.99000
C  -2.13000 34.08400 22.81100
C  -2.46800 33.74300 24.24900
C  -1.87700 36.62900 22.13000
C  -1.42200 32.89500 21.97000
C  -0.39400 31.92500 22.65800
N  -3.05500 32.73100 27.09300
C  -3.45800 32.10200 25.95600
C  -4.17300 30.85900 26.31900
C  -4.09700 30.80900 27.69800
C  -3.42400 31.95100 28.16600
C  -4.74200 29.88400 25.36400
C  -4.49600 30.07800 28.88900
O  -5.24100 29.12100 28.93200
C  -3.88100 30.73900 30.09300
C  -4.90800 31.06300 31.05600
O  -5.69600 32.02000 30.89600
O  -4.94900 30.19600 32.12500
C  -5.68100 30.83600 33.16100
H  -0.53500 36.76900 30.80100
H  0.05800 37.22700 24.26800
H  -3.34600 31.88800 23.75600
H  -3.31400 33.20900 32.08600
H  -0.64800 34.59600 32.13200
H  -2.77100 35.26900 33.51500
H  -3.41200 36.03300 32.01100
H  -1.93700 36.59300 32.68700
H  -0.53800 32.54200 32.60300
H  -1.15300 31.42100 31.54800
H  -2.14000 30.39400 33.58600
H  -2.91100 31.98500 33.98100
H  1.05900 38.29200 30.37100
H  0.63500 39.68500 29.27300
H  2.17300 38.76000 29.17000
H  1.59300 40.88800 27.27600
H  2.77400 40.47500 25.92800
H  2.68700 39.60800 27.41200
H  -0.29000 35.21800 22.64800
H  -3.05000 34.28800 22.26300
H  -2.94400 36.75300 21.94500
H  -1.36400 36.63700 21.16800
H  -1.36800 37.49400 22.55400
H  -0.93300 33.26000 21.06600
H  -2.24700 32.26600 21.63500
H  -0.14300 32.28100 23.65700
H  0.47100 31.93600 21.99400
H  -0.86100 30.94000 22.65700
H  -4.69700 28.87800 25.78200
H  -4.43700 29.87600 24.31800
H  -5.79100 30.17700 25.31900
H  -3.12200 30.16900 30.62900
H  -5.06300 31.62600 33.58800
H  -5.76500 30.05700 33.91800
H  -6.70100 31.09000 32.87100

