79

Mg -12.53700 17.35900 42.31100
C  -9.56800 15.63300 41.52200
C  -11.24700 19.89400 40.34300
C  -15.54200 18.81100 42.46500
C  -13.78200 14.45200 43.68000
N  -10.61800 17.64900 41.02900
C  -9.53800 16.89900 40.96900
C  -8.36600 17.62500 40.29100
C  -9.02800 18.91300 39.74900
C  -10.32200 18.91400 40.54700
C  -8.03300 20.11300 39.96600
C  -7.45800 16.87800 39.24700
C  -5.89800 16.96000 39.42000
H  -4.98800 17.34700 38.24400
N  -13.25200 19.18300 41.55400
C  -12.60100 20.01900 40.72800
C  -13.45500 21.10500 40.37900
C  -14.74100 20.79800 40.96600
C  -14.52700 19.58300 41.73800
C  -13.10300 22.31700 39.67600
C  -16.08400 21.58500 40.82400
O  -16.27200 22.55300 40.09600
C  -17.29000 21.24500 41.61600
N  -14.47600 16.72400 42.92700
C  -15.52100 17.49600 43.04800
C  -16.71100 16.76100 43.68600
C  -16.07900 15.38500 44.07800
C  -14.68200 15.51500 43.49700
C  -17.32600 17.46900 44.85000
C  -16.85000 14.17700 43.59400
C  -16.78000 13.86700 42.06700
N  -11.80400 15.41100 42.60500
C  -12.42100 14.33400 43.18500
C  -11.62700 13.16600 43.26200
C  -10.39100 13.62600 42.68500
C  -10.61200 15.01400 42.27800
C  -12.01900 11.87700 43.82300
C  -9.05600 13.28700 42.31000
O  -8.40100 12.23400 42.56500
C  -8.48100 14.53000 41.55700
C  -7.30000 14.95100 42.26900
O  -7.36500 15.87600 43.10700
O  -6.18300 14.12800 42.00000
C  -5.04500 14.44100 42.91800
H  -10.95900 20.77500 39.76600
H  -16.56800 19.13300 42.65200
H  -14.17100 13.54300 44.14400
H  -7.70300 17.91900 41.10500
H  -9.28400 18.92000 38.68900
H  -7.05400 19.63500 39.99100
H  -8.30200 20.67200 40.86300
H  -8.02100 20.86300 39.17400
H  -7.63400 17.36600 38.28900
H  -7.77800 15.83600 39.21800
H  -5.52100 15.97800 39.70400
H  -5.71300 17.74000 40.15900
H  -12.32500 22.18200 38.92500
H  -12.69900 23.04200 40.38300
H  -13.91700 22.80300 39.13900
H  -16.95200 21.30200 42.65100
H  -17.75500 20.32500 41.26200
H  -17.98600 22.04100 41.35300
H  -17.44700 16.60800 42.89600
H  -15.98500 15.26600 45.15700
H  -16.90800 18.47400 44.90200
H  -17.24100 16.93800 45.79700
H  -18.37800 17.58500 44.58800
H  -17.87700 14.48300 43.79200
H  -16.69100 13.35300 44.29000
H  -17.75000 14.08100 41.62000
H  -16.42500 12.85000 41.89900
H  -16.00600 14.34000 41.46200
H  -12.14700 11.98900 44.89900
H  -11.15700 11.24700 43.60400
H  -12.91300 11.39900 43.42300
H  -8.07000 14.23100 40.59200
H  -4.38100 13.57800 42.86100
H  -5.30700 14.61300 43.96200
H  -4.37300 15.27500 42.71400

