79

Mg 26.29700 49.98600 27.16900
C  24.47900 51.27700 29.80600
C  28.72000 49.15500 29.67300
C  28.37500 49.10800 24.74400
C  24.08100 51.35600 24.84300
N  26.54500 50.28900 29.57700
C  25.62800 50.78100 30.42700
C  25.97000 50.47700 31.83200
C  27.40500 49.99500 31.76900
C  27.59200 49.72800 30.24100
C  28.52700 51.01300 32.11300
C  24.92400 49.47100 32.45100
C  24.58300 49.83900 33.89000
H  25.54100 50.39000 34.92200
N  28.27400 49.22600 27.25300
C  29.11800 49.01300 28.29400
C  30.36700 48.46400 27.80200
C  30.32600 48.44200 26.36600
C  28.97000 48.98500 26.07100
C  31.58200 48.20600 28.70500
C  31.33600 47.96600 25.35400
O  31.14500 47.97200 24.16200
C  32.60600 47.57400 25.81800
N  26.22800 50.23000 25.13300
C  27.15000 49.65400 24.34100
C  26.72100 49.74700 22.87200
C  25.20400 50.17000 23.02300
C  25.15400 50.67600 24.43000
C  27.63200 50.84900 22.22400
C  24.11700 49.03000 22.79600
C  22.81500 49.46400 22.04500
N  24.54900 51.03600 27.28100
C  23.72900 51.48700 26.23200
C  22.62600 52.17400 26.79800
C  22.77000 52.07000 28.19400
C  24.05600 51.46300 28.46700
C  21.49900 52.76000 25.97500
C  22.18400 52.32500 29.52200
O  21.17000 52.78800 29.76000
C  23.19400 51.74900 30.56100
C  23.49300 52.75100 31.52700
O  24.22500 53.74500 31.40700
O  22.75900 52.49600 32.63700
C  22.80600 53.45300 33.73200
H  29.47700 48.79200 30.37100
H  29.03500 48.85500 23.91200
H  23.19900 51.47400 24.21100
H  25.99700 51.46800 32.28400
H  27.46900 49.13400 32.43400
H  28.90400 50.80900 33.11500
H  28.10500 52.01800 32.12000
H  29.30200 51.04300 31.34700
H  25.35600 48.47200 32.38600
H  24.01300 49.48600 31.85300
H  24.13000 48.98300 34.38900
H  23.65400 50.39800 33.78200
H  31.45700 48.66500 29.68600
H  32.43700 48.76500 28.32400
H  31.72800 47.14300 28.89300
H  33.11200 46.97500 25.06100
H  32.67600 46.91100 26.68000
H  33.21000 48.47500 25.92500
H  26.74700 48.75500 22.42000
H  24.98600 50.96200 22.30600
H  28.63800 50.92900 22.63600
H  27.14400 51.81300 22.36900
H  27.81300 50.66500 21.16500
H  23.77800 48.54700 23.71200
H  24.62200 48.25600 22.21900
H  22.86300 49.52600 20.95800
H  22.35300 50.42500 22.26800
H  22.15200 48.61800 22.23000
H  21.99800 53.48500 25.33300
H  20.83800 53.34500 26.61400
H  20.99900 52.02700 25.34200
H  22.67200 50.91700 31.03300
H  23.63400 53.36400 34.43600
H  21.87900 53.23700 34.26400
H  22.81600 54.42700 33.24300

