79

Mg 43.25400 4.25100 46.85000
C  40.73000 6.62800 46.46500
C  40.97000 1.81000 47.09600
C  45.80400 2.04900 46.54200
C  45.55600 7.03800 46.22300
N  41.11300 4.26100 46.78200
C  40.30300 5.30800 46.49900
C  38.92500 4.72200 46.29800
C  38.86900 3.36700 47.10200
C  40.35200 3.10400 46.91300
C  38.49900 3.56600 48.55900
C  38.55200 4.53500 44.71800
C  37.45600 5.53900 44.04100
H  37.85700 6.51400 42.94500
N  43.34500 2.18200 46.78300
C  42.31700 1.37100 46.96700
C  42.72000 0.02300 47.09600
C  44.18600 0.04700 46.89400
C  44.53000 1.42000 46.76400
C  41.88000 -1.20800 47.46400
C  45.10100 -1.14500 46.99700
O  44.70200 -2.23000 47.28800
C  46.58800 -0.91800 46.80800
N  45.31100 4.49500 46.29100
C  46.16500 3.41400 46.33700
C  47.53800 3.84900 45.79500
C  47.49100 5.41600 45.86400
C  46.05300 5.69700 46.12500
C  48.68200 3.23200 46.58000
C  48.15200 6.00200 44.65100
C  47.37100 6.17700 43.39900
N  43.23800 6.47300 46.69100
C  44.23600 7.39200 46.42900
C  43.59700 8.68000 46.39200
C  42.19800 8.50000 46.45700
C  42.06400 7.10500 46.53500
C  44.41500 9.91600 46.19100
C  40.91400 9.14300 46.49400
O  40.60000 10.32400 46.44500
C  39.92600 7.85900 46.44900
C  39.02600 7.78500 47.63100
O  39.36800 7.45100 48.76800
O  37.74100 8.10800 47.27000
C  36.94300 8.63200 48.34500
H  40.17800 1.10300 47.35300
H  46.75100 1.51900 46.42100
H  46.26300 7.85200 46.05000
H  38.17500 5.44300 46.62300
H  38.28300 2.63400 46.54800
H  37.86400 2.78700 48.98200
H  38.04500 4.55600 48.59500
H  39.43000 3.68900 49.11200
H  38.32000 3.50000 44.46900
H  39.46900 4.75800 44.17300
H  36.94500 6.12800 44.80200
H  36.73700 4.98500 43.43700
H  42.08200 -2.04200 46.79200
H  40.86900 -0.81400 47.36000
H  42.00700 -1.50300 48.50600
H  46.89400 -0.17100 47.54000
H  46.59200 -0.51400 45.79500
H  47.20200 -1.81700 46.75000
H  47.55000 3.55100 44.74700
H  47.95300 5.74500 46.79400
H  48.36300 2.55500 47.37300
H  49.25000 3.98100 47.13000
H  49.37900 2.67400 45.95400
H  48.98700 5.30400 44.59100
H  48.54500 6.98500 44.90800
H  47.80200 5.45600 42.70500
H  47.58100 7.14400 42.94300
H  46.29300 6.02200 43.42300
H  43.82300 10.78500 45.90600
H  45.16500 9.70000 45.42900
H  44.86900 10.22500 47.13200
H  39.32500 7.94300 45.54400
H  36.78000 7.74100 48.95100
H  35.97600 9.02500 48.03200
H  37.48800 9.21700 49.08700

