79

Mg 2.35800 -1.46800 44.29100
C  5.38200 -0.02700 43.26600
C  0.64200 0.83500 42.40700
C  -0.45600 -3.10200 44.97900
C  4.21300 -4.20200 45.57600
N  2.97500 0.22800 43.14500
C  4.25100 0.64900 42.80400
C  4.18300 1.85500 41.86000
C  2.62900 2.21500 41.76600
C  2.02400 0.97700 42.47800
C  2.16300 3.64700 42.40300
C  4.99100 1.72200 40.58000
C  6.03600 2.82600 40.23000
H  5.93800 3.52900 38.85700
N  0.26200 -1.17000 43.82400
C  -0.17900 -0.16900 42.99300
C  -1.59800 -0.32900 42.79400
C  -1.95100 -1.48600 43.51100
C  -0.70500 -1.97400 44.08900
C  -2.38700 0.64700 41.93000
C  -3.34500 -2.09100 43.49400
O  -4.24700 -1.68300 42.78900
C  -3.65200 -3.32800 44.33200
N  1.92900 -3.46400 45.10700
C  0.72300 -3.68200 45.55500
C  0.71500 -4.97000 46.38500
C  2.24000 -5.41600 46.37400
C  2.81300 -4.28600 45.70000
C  0.05800 -5.00300 47.87000
C  2.43400 -6.83700 45.74200
C  3.36400 -7.66600 46.57200
N  4.33300 -2.08800 44.35400
C  4.91300 -3.20500 44.93000
C  6.36800 -3.16900 44.68900
C  6.57200 -1.91000 44.08900
C  5.32600 -1.26100 43.96400
C  7.27600 -4.19300 45.29400
C  7.55600 -0.97900 43.65200
O  8.79500 -1.10100 43.70500
C  6.84700 0.29300 43.07100
C  7.27700 1.47300 43.85900
O  6.85800 1.68300 44.98100
O  8.27100 2.24500 43.25600
C  8.78500 3.38900 44.04500
H  0.02500 1.54700 41.85400
H  -1.36100 -3.53500 45.41200
H  4.71700 -5.03100 46.07800
H  4.65200 2.67700 42.40000
H  2.31200 2.24300 40.72300
H  1.44700 3.61100 43.22500
H  1.67300 4.17800 41.58800
H  2.99200 4.22400 42.81100
H  4.32700 1.68800 39.71600
H  5.42000 0.72400 40.66400
H  6.99000 2.30100 40.17100
H  5.96200 3.52200 41.06500
H  -2.64000 0.24100 40.95100
H  -1.96200 1.63500 41.75300
H  -3.34600 0.86200 42.40100
H  -4.68300 -3.54600 44.05300
H  -3.59100 -3.01800 45.37500
H  -2.98200 -4.12000 43.99900
H  0.12000 -5.69000 45.82300
H  2.53900 -5.41200 47.42200
H  0.09800 -4.12000 48.50700
H  0.68500 -5.63700 48.49700
H  -0.96100 -5.33200 47.66800
H  3.01500 -6.73500 44.82600
H  1.57300 -7.45800 45.49500
H  3.36300 -8.65300 46.11000
H  3.01700 -7.71800 47.60400
H  4.31800 -7.14000 46.60000
H  7.21900 -5.08900 44.67600
H  7.01700 -4.59100 46.27500
H  8.25900 -3.79700 45.03500
H  7.32100 0.58600 42.13500
H  9.49700 3.10400 44.81900
H  7.96600 3.86600 44.58400
H  9.14200 4.22100 43.43800

