79

Mg 54.63000 24.84300 44.07900
C  51.87900 26.97100 43.73300
C  52.44200 22.17500 43.62200
C  57.30300 22.95200 43.89100
C  56.75800 27.72400 43.95700
N  52.38200 24.63200 43.54900
C  51.46200 25.64400 43.64800
C  50.07900 25.05000 43.76400
C  50.32600 23.57100 43.95700
C  51.78000 23.42800 43.64100
C  49.90600 22.98500 45.35600
C  49.03500 25.45400 42.76500
C  49.31800 24.87700 41.33200
H  49.49100 25.88400 40.20100
N  54.85500 22.85200 43.69500
C  53.81500 21.89700 43.62600
C  54.39800 20.57700 43.36200
C  55.81400 20.80000 43.37900
C  56.04200 22.23100 43.61600
C  53.53400 19.33400 43.04000
C  56.80600 19.59300 43.30800
O  56.44600 18.43200 43.17000
C  58.30200 19.85900 43.36300
N  56.67500 25.23700 43.96200
C  57.61500 24.23800 44.00000
C  59.05800 24.73900 44.09300
C  58.88500 26.28000 44.14200
C  57.30900 26.44300 44.00600
C  59.84400 24.16400 45.34300
C  59.82000 26.95200 43.06800
C  60.77400 28.05000 43.61500
N  54.43900 26.92400 43.95900
C  55.38800 27.94400 44.08500
C  54.59900 29.17600 44.37000
C  53.24800 28.88000 44.25300
C  53.19500 27.49000 43.92800
C  55.24100 30.45700 44.81500
C  51.86700 29.38000 44.30100
O  51.46600 30.50200 44.55400
C  50.89500 28.16900 43.92000
C  50.24400 28.53000 42.68300
O  50.76200 28.44400 41.58400
O  48.94100 28.91500 43.00200
C  47.98800 29.13900 41.92100
H  51.71300 21.36200 43.62600
H  58.16800 22.28700 43.83400
H  57.52700 28.49700 44.01000
H  49.72200 25.35100 44.74900
H  49.75100 22.96900 43.25300
H  49.53800 23.64000 46.14600
H  50.75200 22.51300 45.85600
H  49.20600 22.16600 45.19200
H  48.86700 26.53000 42.74500
H  48.14200 25.01900 43.21500
H  48.52800 24.21000 40.98600
H  50.17900 24.21000 41.38700
H  54.09400 18.39900 43.03000
H  53.33000 19.32600 41.96900
H  52.61500 19.29100 43.62400
H  58.59000 20.44100 42.48800
H  58.78900 18.88600 43.30000
H  58.66900 20.30500 44.28700
H  59.60500 24.39900 43.21300
H  59.17800 26.63600 45.13000
H  59.13500 23.87000 46.11700
H  60.61500 24.76300 45.82700
H  60.28600 23.25500 44.93500
H  59.26000 27.47300 42.29200
H  60.49400 26.21200 42.63600
H  60.70800 28.03400 44.70300
H  60.43800 29.03100 43.27900
H  61.82300 27.93100 43.34400
H  54.53400 31.28100 44.72000
H  56.05100 30.64800 44.11000
H  55.65700 30.58300 45.81400
H  50.18700 28.05100 44.74000
H  47.24000 29.83000 42.31000
H  47.39100 28.28600 41.60000
H  48.54800 29.47700 41.04900

