79

Mg 2.34500 -1.94200 44.07200
C  5.83300 -0.98300 43.90400
C  1.77600 0.91500 42.00600
C  -0.73500 -2.92300 43.70300
C  3.47100 -5.08500 45.30300
N  3.71600 -0.27200 42.96400
C  5.10000 -0.04900 43.16200
C  5.53300 1.19600 42.34200
C  4.20100 1.89700 41.90100
C  3.17200 0.76700 42.23600
C  3.83100 3.22800 42.67400
C  6.50400 0.97200 41.13600
C  6.04900 -0.03400 40.10700
H  5.46800 0.44400 38.72000
N  0.69300 -1.17500 42.95000
C  0.64300 0.01100 42.27900
C  -0.69900 0.16000 41.81500
C  -1.52200 -0.90400 42.32100
C  -0.52400 -1.77300 43.05200
C  -1.07000 1.42400 41.14600
C  -2.97200 -1.10300 42.26600
O  -3.62200 -0.30900 41.60600
C  -3.73000 -2.16300 43.03900
N  1.51800 -3.83800 44.43500
C  0.12300 -3.89800 44.32500
C  -0.28600 -5.35300 44.76200
C  1.00700 -6.00100 45.34900
C  2.04500 -4.94000 45.01900
C  -1.49100 -5.57300 45.65200
C  1.31700 -7.32500 44.66700
C  0.79400 -8.56400 45.16900
N  4.20700 -2.88300 44.60200
C  4.44500 -4.12000 45.11100
C  5.89400 -4.28000 45.39900
C  6.46900 -3.00200 45.03500
C  5.43100 -2.25700 44.48700
C  6.53600 -5.52800 45.93800
C  7.67400 -2.30600 44.88300
O  8.81800 -2.66300 45.09600
C  7.34700 -0.96600 44.10200
C  7.76800 0.24100 44.86000
O  7.34500 0.49600 45.97800
O  8.69500 0.89200 44.17400
C  9.06000 2.19800 44.72600
H  1.73100 1.82900 41.41000
H  -1.72900 -3.34300 43.53300
H  3.88800 -5.94800 45.82400
H  6.08500 1.85800 43.00900
H  4.26100 2.12900 40.83800
H  2.84800 3.19300 43.14400
H  3.86300 4.11100 42.03600
H  4.63700 3.32200 43.40200
H  7.45100 0.67100 41.58400
H  6.58700 1.94600 40.65400
H  5.31900 -0.76500 40.45500
H  6.89900 -0.64500 39.80400
H  -2.12600 1.33300 40.88900
H  -0.66600 1.39000 40.13400
H  -0.81000 2.27900 41.76900
H  -4.78500 -1.91400 43.14500
H  -3.31700 -2.01000 44.03600
H  -3.53600 -3.13300 42.58000
H  -0.45400 -5.77500 43.77100
H  0.90300 -6.06100 46.43200
H  -1.48400 -6.54200 46.15000
H  -2.38000 -5.53500 45.02300
H  -1.61800 -4.70100 46.29300
H  2.36200 -7.62700 44.74800
H  1.06900 -7.33300 43.60600
H  1.60900 -9.11600 45.63700
H  0.29100 -9.09600 44.36200
H  0.05800 -8.53900 45.97300
H  6.22300 -6.44000 45.42900
H  6.10400 -5.74100 46.91600
H  7.62400 -5.57500 46.00200
H  7.94500 -0.98100 43.19100
H  8.33100 2.77100 45.29800
H  9.40400 2.83000 43.90800
H  9.89300 2.03900 45.41200

