79

Mg 49.10200 47.27600 42.19200
C  45.69800 47.65100 41.12900
C  49.15600 44.30300 40.43800
C  52.37300 47.22400 42.68400
C  49.06300 50.75100 42.79200
N  47.63000 46.20400 40.84800
C  46.32100 46.49700 40.58300
C  45.62300 45.65300 39.55300
C  46.57100 44.41400 39.66400
C  47.88300 44.97800 40.37500
C  45.94800 43.16300 40.46700
C  45.65200 46.28600 38.15000
C  44.40700 46.15400 37.41900
H  44.63500 45.67400 35.97600
N  50.57900 45.79800 41.86900
C  50.39200 44.63200 41.15600
C  51.62500 43.92500 41.20600
C  52.56700 44.74200 41.92900
C  51.89700 45.96300 42.27400
C  51.82600 42.49000 40.66800
C  53.99400 44.42400 42.31100
O  54.44000 43.31500 42.08800
C  54.95000 45.38800 43.01600
N  50.53200 48.75700 42.73100
C  51.81000 48.49300 42.84600
C  52.64400 49.75400 43.25200
C  51.64200 50.84400 42.95000
C  50.28000 50.07000 42.90400
C  53.24700 49.77000 44.71600
C  52.05500 51.58200 41.63900
C  52.53100 52.93300 41.91100
N  47.64900 48.82500 42.32400
C  47.78800 50.17000 42.59500
C  46.54100 50.90200 42.37300
C  45.60000 49.84800 41.98500
C  46.38000 48.69600 41.85200
C  46.39300 52.32700 42.46800
C  44.23200 49.54100 41.63200
O  43.16900 50.24200 41.65900
C  44.24500 48.09700 41.02200
C  43.14300 47.30400 41.70500
O  43.17000 46.97800 42.92500
O  42.22200 46.83200 40.81100
C  41.83000 45.41500 41.01800
H  49.24400 43.32900 39.95100
H  53.45700 47.21700 42.81100
H  49.13500 51.83300 42.91500
H  44.60900 45.38200 39.84900
H  46.74500 44.07200 38.64300
H  45.15400 42.72700 39.86000
H  45.41200 43.50400 41.35300
H  46.71000 42.43200 40.73800
H  46.42800 45.70200 37.65400
H  45.98700 47.32300 38.19100
H  43.83900 47.07900 37.51500
H  43.77700 45.40300 37.89400
H  51.36300 42.12900 39.75000
H  51.57000 41.76700 41.44300
H  52.88100 42.31400 40.45800
H  54.61200 45.81100 43.96200
H  55.04700 46.22200 42.32100
H  55.89200 44.85500 43.14700
H  53.47800 49.68800 42.55400
H  51.65400 51.59800 43.73700
H  52.72300 49.04100 45.33400
H  53.24700 50.77500 45.13600
H  54.30400 49.50500 44.76100
H  51.11200 51.65500 41.09800
H  52.69200 50.89300 41.08500
H  52.92700 53.39800 41.00900
H  53.19800 53.00100 42.77100
H  51.62000 53.45900 42.19900
H  46.82000 52.73700 43.38300
H  45.34500 52.53400 42.68800
H  46.58800 52.93700 41.58600
H  43.89800 48.26700 40.00300
H  42.53400 44.80600 41.58600
H  41.74700 44.96100 40.03000
H  40.90400 45.35900 41.59000

