79

Mg 9.41800 3.96800 28.04100
C  10.17800 2.16600 30.83200
C  7.44500 6.03400 29.75500
C  7.87600 5.14800 25.02200
C  10.91700 1.41800 25.95300
N  8.65500 3.85500 30.06800
C  9.41500 3.26700 31.07500
C  9.14000 3.93400 32.42800
C  8.18300 5.04700 32.01300
C  8.20300 5.04700 30.46000
C  6.80600 5.12000 32.73600
C  10.42100 4.30900 33.16100
C  10.55900 3.71000 34.61600
H  10.71600 4.67500 35.80800
N  7.97200 5.40500 27.50000
C  7.31100 6.14700 28.35800
C  6.33500 6.97300 27.66300
C  6.39200 6.71100 26.32700
C  7.50600 5.73400 26.22200
C  5.19700 7.71300 28.44200
C  5.56100 7.26200 25.12100
O  5.83700 7.04800 23.95300
C  4.38500 8.12800 25.41300
N  9.37500 3.36500 25.86800
C  8.71000 4.01100 24.91700
C  8.94700 3.36700 23.52600
C  10.25600 2.50500 23.77200
C  10.22500 2.38300 25.28900
C  7.73300 2.59800 22.96600
C  11.54100 3.15400 23.23700
C  12.47900 2.10600 22.60500
N  10.46400 2.26200 28.32400
C  11.03600 1.33700 27.41400
C  11.71600 0.31200 28.19800
C  11.46900 0.66200 29.58200
C  10.63400 1.76500 29.56100
C  12.60100 -0.72900 27.60000
C  11.75700 0.34800 31.01300
O  12.52600 -0.53200 31.42600
C  10.99400 1.39700 31.82800
C  10.14700 0.65300 32.83600
O  8.92600 0.43900 32.64400
O  10.80400 0.31500 33.96600
C  9.88300 -0.13600 35.04000
H  7.06000 6.88000 30.32900
H  7.36700 5.51700 24.12900
H  11.47600 0.68800 25.36300
H  8.53400 3.22400 32.99100
H  8.63200 5.99400 32.31100
H  6.07600 4.66100 32.06900
H  6.53800 6.13400 33.03200
H  6.78600 4.47400 33.61300
H  10.49700 5.39000 33.28200
H  11.28800 4.11200 32.52900
H  11.49100 3.15100 34.53200
H  9.71500 3.03300 34.74600
H  5.33400 8.79200 28.50400
H  5.19000 7.34900 29.47000
H  4.24700 7.52200 27.94300
H  4.79400 9.04700 25.83400
H  3.70200 7.53000 26.01600
H  3.82800 8.30700 24.49300
H  9.10400 4.13100 22.76400
H  10.09600 1.51300 23.35200
H  7.20500 2.26000 23.85800
H  7.90300 1.72600 22.33400
H  7.12100 3.35900 22.48100
H  12.00100 3.74500 24.02900
H  11.35200 3.83000 22.40300
H  12.42500 2.31500 21.53700
H  12.16100 1.09800 22.87300
H  13.47600 2.21000 23.03400
H  13.18500 -1.32800 28.29900
H  13.27100 -0.30500 26.85300
H  11.99700 -1.36400 26.95200
H  11.77100 2.00900 32.28700
H  9.13800 -0.89300 34.79900
H  9.38000 0.75000 35.42700
H  10.45100 -0.43800 35.92000

