79

Mg -11.79800 15.95700 42.71500
C  -8.68800 14.34200 42.04900
C  -10.47700 18.76800 41.08700
C  -14.86800 17.25200 42.72300
C  -13.09500 12.86200 43.66000
N  -9.74100 16.47900 41.77100
C  -8.68400 15.67000 41.55500
C  -7.60400 16.41200 40.72700
C  -8.23200 17.77600 40.45500
C  -9.58200 17.66900 41.15500
C  -7.45800 18.97900 41.06900
C  -7.11700 15.68900 39.38700
C  -5.67600 15.79600 39.20300
H  -5.13600 15.40300 37.83800
N  -12.53800 17.79200 42.04500
C  -11.88900 18.82000 41.41800
C  -12.83500 19.89100 41.06900
C  -14.06800 19.47700 41.57500
C  -13.91900 18.06000 42.17200
C  -12.49400 21.05400 40.31500
C  -15.32000 20.20700 41.39600
O  -15.36100 21.35300 40.91100
C  -16.55800 19.65100 41.78200
N  -13.71400 15.15300 43.16800
C  -14.86200 15.92400 43.12600
C  -16.07100 15.09300 43.63500
C  -15.50200 13.68200 43.75200
C  -13.99600 13.91600 43.64200
C  -16.70900 15.64200 44.90100
C  -15.99400 12.74900 42.61000
C  -17.03000 11.69000 42.88800
N  -11.07600 14.00800 42.96700
C  -11.74500 12.87100 43.40400
C  -10.76700 11.85100 43.47700
C  -9.56800 12.40000 42.97800
C  -9.81900 13.68100 42.63600
C  -11.17700 10.34800 43.83000
C  -8.06300 12.18400 42.75200
O  -7.39800 11.19800 43.00300
C  -7.52100 13.41700 42.05000
C  -6.32200 13.93100 42.85900
O  -6.38500 14.85500 43.65200
O  -5.16200 13.25800 42.55700
C  -3.92500 13.79300 43.10000
H  -10.16700 19.62700 40.48800
H  -15.91500 17.55400 42.66000
H  -13.66600 12.00400 44.02000
H  -6.82000 16.50200 41.48000
H  -8.36700 18.04400 39.40800
H  -6.43300 18.66200 40.87700
H  -7.64200 19.06600 42.14000
H  -7.48000 19.90000 40.48700
H  -7.55200 16.18200 38.51700
H  -7.52900 14.68000 39.35700
H  -5.24600 15.18700 39.99800
H  -5.37100 16.82000 39.41900
H  -12.72300 20.89000 39.26200
H  -11.41600 21.21000 40.30500
H  -12.98700 21.94100 40.71500
H  -16.73400 18.74300 41.20600
H  -17.31100 20.40200 41.54200
H  -16.70300 19.43400 42.84100
H  -16.82900 15.07900 42.85200
H  -15.67700 13.22400 44.72500
H  -16.35800 16.63600 45.17600
H  -16.62400 14.98600 45.76700
H  -17.76500 15.88000 44.77600
H  -15.18200 12.10900 42.26500
H  -16.21900 13.34800 41.72800
H  -17.83200 11.94600 43.58100
H  -16.63400 10.71200 43.16000
H  -17.57800 11.67300 41.94600
H  -11.57700 9.88800 42.92700
H  -11.99800 10.39800 44.54600
H  -10.35400 9.74200 44.21000
H  -7.25400 13.30900 40.99800
H  -3.62100 14.79800 42.80600
H  -3.10200 13.25700 42.62700
H  -3.89200 13.61700 44.17500

