79

Mg 7.27400 3.39800 27.14600
C  8.69100 1.79800 29.90500
C  5.59800 5.55200 29.30500
C  5.55700 4.51500 24.52300
C  8.53900 0.77300 25.07700
N  7.26100 3.68800 29.35600
C  7.87800 2.92300 30.24800
C  7.56100 3.38000 31.67000
C  6.52700 4.60600 31.57200
C  6.42600 4.61500 29.99100
C  5.25500 4.26300 32.31300
C  8.88600 3.82500 32.39100
C  8.73500 4.47400 33.75700
H  9.78100 4.23600 34.88900
N  5.89100 4.89100 26.95200
C  5.40600 5.71200 27.92300
C  4.47300 6.65400 27.30500
C  4.39500 6.31900 25.89800
C  5.32800 5.23600 25.72400
C  3.80500 7.72300 28.06200
C  3.42500 6.83600 24.79300
O  3.47200 6.37000 23.65300
C  2.45700 7.96300 25.12400
N  7.18800 2.77400 25.12800
C  6.34800 3.42400 24.22600
C  6.48500 2.84600 22.73000
C  7.55300 1.71900 22.97100
C  7.79800 1.76800 24.47100
C  5.08300 2.38100 22.15800
C  8.75800 1.93000 22.09300
C  9.24500 0.68700 21.34700
N  8.42100 1.64600 27.36900
C  8.91300 0.68400 26.44300
C  9.65300 -0.30800 27.16000
C  9.59100 0.13100 28.54700
C  8.81000 1.28200 28.56900
C  10.44000 -1.46100 26.54500
C  10.02900 -0.25100 29.82900
O  10.61600 -1.23700 30.24100
C  9.47100 0.85200 30.78300
C  8.55800 0.06400 31.65000
O  7.57900 -0.53300 31.33400
O  9.06100 0.10800 32.95000
C  8.35300 -0.54300 33.95900
H  5.09800 6.23000 30.00000
H  5.17700 4.86000 23.55900
H  9.12900 0.08100 24.47300
H  7.11600 2.54700 32.21500
H  6.98300 5.54000 31.90000
H  5.24400 3.24100 32.69200
H  4.39700 4.32600 31.64400
H  5.18100 4.93500 33.16800
H  9.28900 4.52300 31.65700
H  9.65400 3.05300 32.44500
H  7.74000 4.18900 34.09800
H  8.68600 5.54700 33.57100
H  3.89400 8.69200 27.57200
H  4.14600 7.96800 29.06800
H  2.76900 7.49600 28.31100
H  1.99100 8.35700 24.22100
H  3.01100 8.78900 25.57100
H  1.67700 7.73100 25.85000
H  6.95900 3.65000 22.16800
H  7.04700 0.85800 22.53400
H  4.39700 2.36800 23.00500
H  5.05500 1.44100 21.60700
H  4.63300 3.12500 21.49900
H  9.61300 2.15700 22.73000
H  8.73900 2.76700 21.39500
H  8.55600 -0.15800 21.35200
H  10.18100 0.30100 21.75200
H  9.43200 0.96400 20.31000
H  9.70300 -2.10500 26.06400
H  10.85600 -1.92100 27.44100
H  11.15000 -1.00300 25.85700
H  10.31400 1.28100 31.32500
H  7.62300 0.18600 34.31100
H  9.08900 -0.69200 34.75000
H  7.82100 -1.45300 33.68500

