79

Mg 16.96200 -2.57300 28.35000
C  15.62700 -0.77500 31.09400
C  18.86100 -4.43100 30.52600
C  18.37500 -4.05000 25.73300
C  15.14300 -0.47800 26.24700
N  17.24700 -2.53400 30.51000
C  16.57800 -1.77100 31.46600
C  17.08700 -2.06200 32.89900
C  18.22100 -3.10600 32.65100
C  18.12300 -3.38000 31.11400
C  19.59500 -2.76600 33.19800
C  15.96200 -2.59500 33.82100
C  15.77400 -1.78700 35.17800
H  16.91000 -0.96800 35.82000
N  18.32600 -4.12300 28.14100
C  18.91700 -4.81600 29.16400
C  19.87600 -5.86000 28.65100
C  19.69300 -5.75500 27.19200
C  18.73200 -4.59700 26.94900
C  20.62200 -6.76600 29.53700
C  20.35600 -6.58800 26.06900
O  20.18000 -6.35900 24.90400
C  21.13500 -7.81000 26.46000
N  16.69600 -2.44600 26.26600
C  17.47000 -3.08300 25.39400
C  17.46600 -2.42600 24.01600
C  16.21700 -1.45700 24.12300
C  15.88900 -1.52400 25.65600
C  18.75400 -1.68400 23.60300
C  15.10300 -1.97600 23.21400
C  13.93900 -1.08300 22.97200
N  15.62100 -1.00700 28.53100
C  14.94500 -0.27000 27.62500
C  14.07200 0.66300 28.28100
C  14.39900 0.51500 29.60600
C  15.32800 -0.50300 29.73300
C  13.11600 1.67900 27.61400
C  14.06000 1.05300 30.90300
O  13.34400 2.01200 31.23400
C  14.98600 0.25900 31.91400
C  15.86700 1.24500 32.41300
O  16.84000 1.73800 31.77400
O  15.38400 1.78900 33.56800
C  16.12000 3.01400 34.11100
H  19.61400 -4.84800 31.19900
H  18.78800 -4.45400 24.80600
H  14.78800 0.25800 25.52200
H  17.54400 -1.13200 33.23600
H  17.92800 -4.05400 33.10200
H  19.83200 -3.37300 34.07100
H  19.72200 -1.74400 33.55500
H  20.27700 -2.85000 32.35100
H  16.10700 -3.61800 34.16900
H  15.02600 -2.44900 33.28100
H  15.44700 -2.41200 36.01000
H  14.98300 -1.04800 35.05400
H  20.77900 -6.29800 30.50800
H  21.58900 -6.96500 29.07500
H  20.22500 -7.78100 29.57000
H  20.59000 -8.37200 27.21800
H  21.97700 -7.35700 26.98400
H  21.41200 -8.37800 25.57200
H  17.44400 -3.26400 23.32000
H  16.56700 -0.51700 23.69600
H  19.46900 -1.99200 24.36600
H  18.63500 -0.60300 23.68000
H  19.12200 -1.96700 22.61700
H  14.85100 -2.91900 23.70000
H  15.50200 -2.30800 22.25600
H  13.04500 -1.39300 23.51300
H  13.75200 -0.85800 21.92200
H  14.08600 -0.09500 23.40900
H  13.04500 2.54800 28.26800
H  12.16200 1.21100 27.37000
H  13.55100 2.03800 26.68100
H  14.34400 -0.13400 32.70300
H  16.68900 2.77000 35.00800
H  15.34600 3.68700 34.48000
H  16.81500 3.46200 33.40100

