79

Mg 16.35400 51.65400 25.64000
C  18.07800 50.65200 28.50100
C  13.64300 52.30400 27.59300
C  14.60100 51.81600 22.89400
C  19.08000 50.47100 23.67400
N  15.95300 51.52100 27.86900
C  16.84600 51.17800 28.83800
C  16.21500 51.30000 30.17900
C  14.69800 51.65100 29.91700
C  14.71800 51.83700 28.35100
C  13.65200 50.59200 30.43100
C  17.01100 52.26400 31.04200
C  16.94500 52.11900 32.56500
H  15.92900 51.28100 33.27700
N  14.49100 52.11900 25.33000
C  13.52000 52.39600 26.22400
C  12.28200 52.81000 25.60400
C  12.47900 52.52500 24.23300
C  13.91800 52.12500 24.12300
C  11.07600 53.33200 26.38800
C  11.47000 52.52700 23.09400
O  11.74200 52.19600 21.94700
C  10.09800 52.88300 23.42100
N  16.76000 51.08800 23.54900
C  15.85200 51.40800 22.59200
C  16.42700 51.19700 21.18300
C  17.91900 50.96400 21.48100
C  17.99800 50.89300 22.99100
C  15.72000 50.05300 20.40900
C  18.85200 52.08900 20.80200
C  20.18000 51.56300 20.14800
N  18.24500 50.82900 25.92800
C  19.20700 50.39700 25.09500
C  20.30900 49.71300 25.83500
C  19.87000 49.74900 27.13300
C  18.65400 50.48900 27.14300
C  21.46300 48.93500 25.26900
C  20.27500 49.43400 28.49500
O  21.33000 48.91900 28.93000
C  19.10500 49.93700 29.45400
C  18.61800 48.81300 30.32400
O  17.96000 47.88500 29.93300
O  19.03300 48.97200 31.61900
C  18.41300 48.05000 32.58000
H  12.79700 52.45500 28.26700
H  14.05400 52.01000 21.96900
H  19.95100 50.16200 23.09100
H  16.30100 50.34300 30.69400
H  14.45800 52.61400 30.36800
H  12.82800 51.15200 30.87300
H  14.07700 49.90400 31.16200
H  13.35700 50.02500 29.54900
H  16.65500 53.27000 30.81700
H  18.03400 52.32000 30.67100
H  16.62400 53.04900 33.03500
H  17.94100 51.86800 32.92900
H  10.75000 54.27800 25.95500
H  11.36500 53.50300 27.42500
H  10.21600 52.67800 26.52600
H  9.93300 53.82600 23.94200
H  9.60700 52.07300 23.96000
H  9.46800 53.03400 22.54500
H  16.36500 52.13800 20.63600
H  18.19500 49.98300 21.09400
H  16.46100 49.59600 19.75300
H  14.88300 50.47600 19.85300
H  15.14800 49.37900 21.04600
H  19.11700 52.94300 21.42500
H  18.33500 52.45300 19.91300
H  20.68400 50.70800 20.59700
H  20.93900 52.31700 20.35900
H  19.99600 51.31000 19.10400
H  22.36900 49.51800 25.10500
H  21.18200 48.40700 24.35800
H  21.78100 48.12700 25.92800
H  19.63500 50.65900 30.07500
H  17.32400 48.01700 32.58700
H  18.76400 48.31800 33.57600
H  18.84500 47.05800 32.44600

