79

Mg 1.00700 43.62600 25.69800
C  2.88500 43.41500 28.58800
C  -1.68400 42.50600 27.43400
C  -0.55600 42.95900 22.72100
C  3.99300 44.39900 24.01600
N  0.67300 43.13500 27.74200
C  1.51300 43.34400 28.71500
C  0.84400 43.20600 30.06900
C  -0.64900 42.73200 29.78000
C  -0.58500 42.79100 28.24900
C  -1.13000 41.36400 30.34900
C  0.97500 44.51500 30.92500
C  1.54200 44.37500 32.42300
H  1.29800 43.05800 33.16500
N  -0.89100 42.85500 25.12200
C  -1.80400 42.46800 26.02300
C  -2.99100 41.95900 25.27000
C  -2.73700 42.07300 23.93000
C  -1.32700 42.58200 23.85700
C  -4.13000 41.42000 25.96200
C  -3.53800 41.72600 22.65900
O  -3.12300 41.88000 21.49300
C  -4.94500 41.26700 22.72200
N  1.57100 43.85400 23.70800
C  0.69000 43.64100 22.70400
C  1.36700 43.99200 21.34100
C  2.74700 44.56300 21.77100
C  2.80400 44.37400 23.27900
C  1.44700 42.69400 20.50300
C  3.05100 46.09800 21.45300
C  3.76300 46.30600 20.10000
N  3.03500 43.91500 26.18900
C  4.14500 44.16700 25.39100
C  5.37200 44.04100 26.19500
C  4.88100 43.77500 27.46200
C  3.48800 43.71300 27.42500
C  6.75400 44.22500 25.65500
C  5.33700 43.56700 28.79300
O  6.44900 43.52900 29.29000
C  3.99100 43.46300 29.69100
C  4.13300 42.28900 30.54000
O  3.81200 41.16500 30.21700
O  4.90100 42.60500 31.64100
C  5.16300 41.50000 32.61300
H  -2.62300 42.31600 27.95900
H  -1.02600 42.80600 21.74700
H  4.81100 44.83000 23.43500
H  1.36600 42.36700 30.53100
H  -1.41200 43.49400 29.93700
H  -0.25200 40.82500 30.70600
H  -1.56400 40.70000 29.60100
H  -1.64000 41.56200 31.29200
H  -0.01800 44.95800 30.99900
H  1.62300 45.25700 30.45900
H  1.01700 45.18600 32.92800
H  2.56700 44.68100 32.63500
H  -4.39700 40.49900 25.44400
H  -4.98100 42.08300 26.12000
H  -3.91500 41.04800 26.96400
H  -5.65700 41.98100 23.13400
H  -5.07100 40.28000 23.16800
H  -5.30400 41.28200 21.69300
H  0.62300 44.69400 20.96400
H  3.62200 44.04500 21.37700
H  1.34900 41.81300 21.13800
H  2.45200 42.64800 20.08100
H  0.71100 42.78200 19.70500
H  3.63400 46.49300 22.28500
H  2.09400 46.62000 21.46300
H  3.86600 45.36300 19.56200
H  4.82300 46.54400 20.18300
H  3.18600 46.96400 19.44900
H  6.79100 44.65300 24.65300
H  7.35400 43.31500 25.63400
H  7.40900 44.87300 26.23600
H  3.90300 44.36700 30.29400
H  5.03400 42.06800 33.53400
H  6.15200 41.04200 32.60700
H  4.43300 40.69300 32.66500

