79

Mg 42.01400 41.39300 26.72300
C  41.58400 43.76300 29.19200
C  43.71500 39.41100 28.99000
C  42.81800 39.26800 24.15200
C  41.67000 43.96100 24.15200
N  42.47600 41.47100 28.92700
C  42.08600 42.55500 29.68300
C  42.33500 42.20100 31.19400
C  43.31300 40.89400 31.14200
C  43.22700 40.58500 29.60100
C  44.71800 41.16400 31.76000
C  40.95000 42.15800 31.99200
C  40.74700 42.90200 33.25800
H  40.23800 42.06300 34.40500
N  42.96600 39.52500 26.55800
C  43.58000 38.91800 27.63600
C  43.93300 37.53600 27.19200
C  43.73100 37.47900 25.77500
C  43.13100 38.80400 25.39900
C  44.42600 36.46200 28.19200
C  44.01000 36.35000 24.83500
O  43.82000 36.40200 23.58100
C  44.79600 35.15200 25.33200
N  42.35300 41.63900 24.44100
C  42.50400 40.51100 23.72400
C  42.25200 40.76100 22.27000
C  42.14700 42.34900 22.21000
C  42.05100 42.69000 23.64400
C  43.25200 40.06600 21.30100
C  40.89900 42.82600 21.30400
C  41.20500 43.97400 20.46200
N  41.48700 43.37500 26.60700
C  41.41400 44.29100 25.56100
C  40.94100 45.60000 26.11900
C  40.97300 45.37200 27.53900
C  41.33400 44.05600 27.82300
C  40.49500 46.86300 25.45500
C  40.73600 46.04900 28.85700
O  40.30900 47.12400 29.24400
C  41.05100 44.97000 29.98100
C  42.17300 45.59700 30.79500
O  43.31400 45.71500 30.50100
O  41.65100 45.86100 32.10600
C  42.58300 46.42200 33.09500
H  44.21700 38.82200 29.76100
H  42.85600 38.48000 23.39700
H  41.63100 44.75600 23.40400
H  42.98000 43.01300 31.53100
H  42.93000 39.99600 31.62800
H  45.35600 40.57200 31.10300
H  44.73800 40.89400 32.81600
H  45.05800 42.19300 31.64600
H  40.79600 41.08100 32.06900
H  40.13400 42.27300 31.28000
H  40.11400 43.76000 33.03300
H  41.66400 43.41000 33.55500
H  45.42800 36.33700 27.78000
H  43.90800 35.50400 28.17200
H  44.47000 36.84800 29.21100
H  44.27400 34.63200 26.13500
H  45.75600 35.53300 25.67800
H  44.97500 34.52800 24.45700
H  41.24900 40.47200 21.95700
H  43.08200 42.76500 21.83500
H  43.03600 38.99700 21.31600
H  44.26600 40.29300 21.63000
H  43.21400 40.57000 20.33600
H  40.02900 43.03300 21.92700
H  40.67400 41.98400 20.64900
H  40.50700 44.68600 20.90200
H  41.03500 43.82400 19.39600
H  42.25100 44.27100 20.52900
H  39.88300 46.57000 24.60200
H  41.30500 47.54500 25.19800
H  39.76500 47.30600 26.13300
H  40.26900 44.67300 30.67900
H  42.08400 47.34900 33.37700
H  43.56600 46.73800 32.74500
H  42.47700 45.79700 33.98200

