79

Mg 1.56200 -0.59400 43.81700
C  4.96700 -0.11200 43.26600
C  0.82200 2.42800 42.15600
C  -1.73500 -1.42100 43.71900
C  2.28900 -3.93500 44.92200
N  2.71400 1.00100 42.89100
C  4.07900 0.95500 42.82200
C  4.63000 2.25500 42.23200
C  3.34200 3.18500 42.16300
C  2.21900 2.19900 42.40400
C  3.42500 4.48300 43.04000
C  5.43300 2.01500 40.86700
C  6.50400 3.07100 40.47100
H  6.63500 3.34200 39.05700
N  -0.22400 0.42800 43.13600
C  -0.35100 1.62200 42.43300
C  -1.70700 1.90800 42.15700
C  -2.45500 0.83300 42.76800
C  -1.47100 -0.14100 43.28600
C  -2.09500 3.21600 41.62400
C  -3.97100 0.78100 42.86400
O  -4.56500 1.75300 42.32500
C  -4.82400 -0.23800 43.55400
N  0.41800 -2.49300 44.24300
C  -0.98100 -2.48200 44.20500
C  -1.54500 -3.88100 44.57800
C  -0.25200 -4.41200 45.33000
C  0.90900 -3.63500 44.83700
C  -2.89200 -3.88100 45.43000
C  -0.15900 -5.96500 45.19300
C  0.01300 -6.75900 46.49500
N  3.29900 -1.75100 44.19900
C  3.41400 -3.07100 44.60100
C  4.87300 -3.30100 44.82900
C  5.56300 -2.13200 44.36000
C  4.52500 -1.26300 43.88800
C  5.45000 -4.54400 45.36600
C  6.75500 -1.51500 44.06900
O  7.87500 -1.85200 44.40000
C  6.53400 -0.20500 43.37900
C  7.12200 0.86200 44.30000
O  6.61100 1.36900 45.32600
O  8.26000 1.40100 43.73400
C  8.95600 2.49500 44.48400
H  0.75800 3.46100 41.80700
H  -2.79100 -1.68100 43.61400
H  2.53600 -4.85600 45.45400
H  5.28200 2.62100 43.02500
H  3.26200 3.57900 41.15000
H  4.43700 4.88700 43.04400
H  3.11700 4.46600 44.08600
H  2.86100 5.27800 42.55100
H  4.68800 1.87900 40.08200
H  5.81700 0.99500 40.85300
H  7.38600 2.89900 41.08800
H  6.03200 3.94900 40.91200
H  -2.59600 3.00900 40.67800
H  -1.32300 3.89100 41.25400
H  -2.82100 3.67800 42.29300
H  -5.83800 0.07400 43.80600
H  -4.51500 -0.33000 44.59600
H  -4.91200 -1.24600 43.15100
H  -1.66700 -4.42900 43.64400
H  -0.24400 -4.16500 46.39200
H  -3.59000 -4.54300 44.91900
H  -3.37000 -2.91100 45.57400
H  -2.70400 -4.34800 46.39700
H  0.70800 -6.20800 44.57900
H  -0.98700 -6.38000 44.61900
H  0.99800 -7.22200 46.54400
H  -0.85300 -7.41600 46.56800
H  0.11500 -6.08900 47.34900
H  5.23900 -5.42700 44.76200
H  5.03800 -4.82000 46.33700
H  6.53600 -4.52100 45.45800
H  7.04000 -0.19400 42.41300
H  8.45700 3.45900 44.38400
H  9.85700 2.79700 43.94900
H  9.17900 2.20900 45.51200

