79

Mg 26.51800 50.71000 25.91700
C  24.68700 51.92900 28.64200
C  28.59300 49.06400 28.14000
C  28.65700 50.10900 23.36500
C  24.44700 52.54800 23.79600
N  26.53800 50.36700 28.13600
C  25.71800 51.06700 29.04800
C  26.16700 50.75600 30.44700
C  27.52900 50.02000 30.24600
C  27.56400 49.76100 28.78100
C  28.89900 50.65200 30.86100
C  24.98100 49.86300 31.10900
C  24.40000 50.38300 32.44100
H  24.62700 49.46000 33.70500
N  28.31600 49.64600 25.70200
C  28.91700 49.01200 26.74300
C  30.15200 48.45600 26.25800
C  30.25500 48.83700 24.86500
C  29.08500 49.63000 24.54500
C  31.18100 47.68900 27.00000
C  31.34200 48.41400 23.77000
O  31.29800 48.75200 22.58900
C  32.34000 47.42200 24.13200
N  26.52800 51.19200 23.91200
C  27.53400 50.84700 23.04900
C  27.34100 51.36700 21.67400
C  25.91400 52.03500 21.65300
C  25.51800 51.89200 23.21200
C  28.41300 52.32000 21.21100
C  24.84700 51.39900 20.73900
C  23.75600 52.30300 20.08200
N  24.89400 51.91900 26.15700
C  24.09500 52.64600 25.20300
C  22.98000 53.39900 25.83800
C  23.21200 53.08400 27.18000
C  24.29600 52.18000 27.31400
C  21.98600 54.14100 25.07700
C  22.75100 53.38400 28.51300
O  21.81100 54.05500 28.92100
C  23.70800 52.76400 29.54600
C  24.36700 53.77400 30.37100
O  25.46000 54.26000 30.12800
O  23.61500 54.05100 31.45500
C  24.21500 54.99200 32.37400
H  29.23900 48.57000 28.86900
H  29.28900 49.97300 22.48400
H  23.75600 53.01900 23.09400
H  26.34400 51.64800 31.04700
H  27.42800 49.09900 30.81900
H  29.41900 49.93000 31.49100
H  28.57900 51.47400 31.50200
H  29.44900 51.04700 30.00700
H  25.30800 48.85600 31.36600
H  24.18500 49.71100 30.38000
H  23.31900 50.49300 32.35000
H  24.78600 51.34700 32.77200
H  30.82000 47.37300 27.97900
H  32.03800 48.34500 27.15400
H  31.41500 46.86400 26.32700
H  32.99700 47.35000 23.26600
H  31.92100 46.42900 24.29900
H  32.83000 47.79600 25.03100
H  27.33400 50.50400 21.00900
H  25.98000 53.09000 21.38800
H  28.20700 53.35500 20.93900
H  28.84400 51.90800 20.29800
H  29.24900 52.42400 21.90200
H  24.35700 50.54000 21.19700
H  25.44300 50.90200 19.97300
H  23.85800 53.31300 20.47900
H  22.77000 51.91600 20.33900
H  23.92400 52.26300 19.00600
H  21.64700 53.47900 24.28000
H  22.65700 54.88000 24.64000
H  21.18700 54.65800 25.61000
H  23.19300 52.00800 30.13800
H  25.17000 54.55000 32.65900
H  23.45600 54.99500 33.15500
H  24.31800 55.99200 31.95400

