79

Mg 35.95800 49.26600 26.07400
C  36.19100 47.30500 29.12900
C  34.92500 51.94500 27.98800
C  35.62300 50.93800 23.34500
C  37.27400 46.42600 24.34500
N  35.56200 49.53000 28.25200
C  35.71200 48.62400 29.28200
C  35.49200 49.34500 30.60200
C  34.94700 50.75000 30.19100
C  35.11200 50.74800 28.68200
C  33.44700 51.22200 30.70300
C  36.87700 49.36600 31.34000
C  36.80700 49.27200 32.91200
H  35.48700 49.10500 33.63200
N  35.28700 51.17000 25.71700
C  34.95700 52.15200 26.61400
C  34.78600 53.41900 25.88700
C  34.94100 53.12900 24.53300
C  35.24500 51.68800 24.44900
C  34.61800 54.79700 26.60100
C  35.01500 54.04500 23.29400
O  35.41900 53.68200 22.16300
C  34.62600 55.50600 23.49500
N  36.31500 48.65700 24.15700
C  36.17600 49.64000 23.18300
C  36.80400 49.15800 21.83800
C  37.34100 47.70000 22.21800
C  36.99100 47.59800 23.64900
C  35.79800 49.27800 20.69800
C  38.83400 47.46500 21.95300
C  39.39100 47.92500 20.60400
N  36.58900 47.29300 26.62100
C  37.00900 46.28600 25.76900
C  37.45100 45.14100 26.54800
C  37.13300 45.48600 27.89400
C  36.62900 46.80200 27.87300
C  38.07000 43.86600 26.08000
C  37.14100 45.03100 29.31500
O  37.49400 43.96100 29.83600
C  36.50700 46.20200 30.19900
C  35.30700 45.52100 30.88500
O  34.19300 45.35800 30.48300
O  35.77600 45.02800 32.09900
C  34.93100 44.27900 32.99400
H  34.66800 52.85400 28.53600
H  35.59900 51.50500 22.41200
H  37.75100 45.67100 23.71600
H  34.72400 48.84900 31.19500
H  35.64700 51.47600 30.60600
H  33.07000 50.55500 31.47800
H  32.72200 51.10900 29.89700
H  33.52200 52.22200 31.13000
H  37.30600 50.35300 31.16600
H  37.61600 48.67800 30.93100
H  37.19300 50.24700 33.21200
H  37.43700 48.45700 33.26900
H  34.87200 54.88300 27.65700
H  33.54800 54.99100 26.51800
H  35.03700 55.68800 26.13200
H  35.48000 56.03900 23.91100
H  33.74400 55.59700 24.12900
H  34.33500 55.92100 22.53000
H  37.66800 49.76300 21.56200
H  36.86500 46.95400 21.58100
H  35.16400 48.39200 20.71100
H  36.36100 49.34000 19.76700
H  35.22600 50.19600 20.84000
H  39.12200 46.41900 22.04900
H  39.31100 48.00000 22.77400
H  38.58300 48.04400 19.88200
H  40.01000 47.22300 20.04400
H  40.02400 48.81200 20.62500
H  37.35600 43.04300 26.06200
H  38.82600 43.43500 26.73800
H  38.50100 43.98100 25.08600
H  37.15500 46.65900 30.94700
H  34.30300 44.97400 33.55200
H  35.35600 43.56200 33.69600
H  34.22400 43.66800 32.43200

