79

Mg 48.86300 45.74000 43.42100
C  45.39400 45.96900 42.29200
C  48.97000 42.72000 41.96100
C  52.28400 45.98400 43.50100
C  48.55300 49.17700 44.03000
N  47.27700 44.53600 42.19400
C  45.99400 44.76900 41.89500
C  45.30300 43.54900 41.27400
C  46.49000 42.57600 41.20700
C  47.68300 43.26800 41.89600
C  46.29100 41.17600 41.88000
C  44.40200 43.79900 39.93500
C  45.07800 44.43000 38.70600
H  45.69400 43.59300 37.64100
N  50.42400 44.37800 43.10600
C  50.26100 43.20500 42.49300
C  51.53200 42.51900 42.36300
C  52.51900 43.48700 42.74100
C  51.76100 44.73000 43.18200
C  51.61900 41.05000 41.97000
C  54.02800 43.13800 42.65000
O  54.40500 42.05700 42.19800
C  55.07500 44.12500 43.07000
N  50.22500 47.41500 43.62600
C  51.57000 47.16800 43.84900
C  52.33500 48.44200 44.19600
C  51.08200 49.49700 44.35400
C  49.82700 48.61600 43.96200
C  53.21900 48.33100 45.50300
C  51.21400 50.89000 43.79400
C  52.34800 51.76500 44.28700
N  47.31800 47.27400 43.41500
C  47.37400 48.60700 43.69900
C  46.02900 49.17500 43.75900
C  45.25800 48.24000 43.08800
C  46.10000 47.08200 42.96400
C  45.59800 50.60400 44.18200
C  43.95500 47.93100 42.64000
O  42.96800 48.66400 42.66800
C  44.00000 46.47700 42.13000
C  43.00800 45.72100 42.95700
O  41.85700 45.53000 42.58200
O  43.43900 45.36200 44.17300
C  42.42200 44.86300 45.15700
H  49.08800 41.76800 41.43900
H  53.36900 46.10200 43.52300
H  48.43500 50.25000 44.19600
H  44.63800 43.18600 42.05800
H  46.70800 42.44900 40.14700
H  46.44100 40.47700 41.05800
H  45.25600 41.08000 42.20800
H  46.90200 41.06800 42.77600
H  43.56100 44.43900 40.20000
H  43.98500 42.86300 39.56300
H  45.89100 45.06400 39.05900
H  44.31100 45.11000 38.33600
H  51.89100 41.00900 40.91500
H  50.65900 40.53600 42.01500
H  52.34900 40.52300 42.58400
H  54.99200 44.96800 42.38500
H  56.05100 43.71700 42.80900
H  55.12900 44.48600 44.09700
H  52.92800 48.81200 43.36000
H  50.97000 49.62200 45.43100
H  53.98500 49.10500 45.46300
H  53.63900 47.32500 45.50000
H  52.55600 48.40000 46.36600
H  50.30300 51.37200 44.15000
H  51.24100 50.87700 42.70500
H  52.71500 51.37600 45.23600
H  52.06200 52.81000 44.40800
H  53.13900 51.72700 43.53800
H  44.70700 50.88900 43.62500
H  46.42600 51.25200 43.89300
H  45.32800 50.68200 45.23500
H  43.58300 46.33200 41.13400
H  42.27400 43.79500 44.99300
H  41.50800 45.43400 44.99400
H  42.74500 45.06600 46.17800

