79

Mg 46.78100 24.74800 28.83900
C  47.64600 27.29500 31.02900
C  46.17500 22.67900 31.59600
C  46.45800 22.13400 26.76100
C  47.72200 26.64000 26.05900
N  46.76500 25.02500 31.02100
C  47.10800 26.15500 31.68800
C  46.75200 25.96600 33.13400
C  46.53200 24.46800 33.37300
C  46.49100 23.98300 31.89100
C  47.65000 23.76500 34.21500
C  45.52400 26.88100 33.59000
C  45.39900 27.22400 35.12600
H  46.32900 26.75300 36.13600
N  46.25300 22.75400 29.10800
C  46.12300 22.06600 30.32500
C  45.91900 20.67200 30.07200
C  45.91100 20.51600 28.63000
C  46.22000 21.84400 28.09200
C  45.82700 19.61000 31.16500
C  45.66500 19.24600 27.83700
O  45.53100 19.20300 26.62400
C  45.45300 17.99500 28.53000
N  47.06200 24.35300 26.73300
C  46.83200 23.26800 26.12100
C  47.12100 23.38200 24.60800
C  47.11100 24.95900 24.38300
C  47.26900 25.42400 25.82500
C  48.41000 22.64000 24.12100
C  45.85000 25.49900 23.72200
C  44.49600 25.15300 24.39100
N  47.53600 26.57300 28.57300
C  47.91500 27.16200 27.42200
C  48.59400 28.42200 27.81100
C  48.46900 28.52500 29.17100
C  47.82500 27.34200 29.60500
C  49.26500 29.35200 26.83200
C  48.82600 29.30100 30.35300
O  49.48700 30.33500 30.33000
C  48.21200 28.59900 31.56600
C  49.38900 28.35200 32.43800
O  50.40800 27.67800 32.23000
O  49.02800 28.94000 33.67900
C  50.09800 28.68900 34.72500
H  45.92700 22.08500 32.47900
H  46.16500 21.37500 26.03300
H  47.99300 27.37800 25.30100
H  47.63100 26.21300 33.73000
H  45.54000 24.19300 33.73100
H  47.39000 22.90900 34.83700
H  48.37000 24.42900 34.69300
H  48.20300 23.09700 33.55600
H  44.64200 26.30900 33.30000
H  45.43800 27.83800 33.07500
H  44.37200 26.99900 35.41500
H  45.26800 28.29100 35.30800
H  45.94800 19.89400 32.21000
H  46.60400 18.86700 30.98300
H  44.91300 19.05800 30.94400
H  46.29600 17.80000 29.19300
H  45.43700 17.28200 27.70600
H  44.55100 17.78500 29.10500
H  46.37000 22.94500 23.95000
H  47.98900 25.22700 23.79500
H  49.27300 23.05200 24.64400
H  48.49700 22.88000 23.06200
H  48.45100 21.56300 24.28900
H  45.88700 25.04800 22.73000
H  46.02700 26.55800 23.53700
H  44.61000 24.37100 25.14200
H  43.93400 24.65300 23.60100
H  44.02000 26.05800 24.76600
H  50.22500 28.98800 26.46400
H  49.42300 30.24000 27.44400
H  48.63700 29.57100 25.96800
H  47.55200 29.30800 32.06400
H  51.12100 28.54900 34.37800
H  49.75000 27.73400 35.11900
H  50.10800 29.49700 35.45700

