79

Mg 35.30200 2.65900 30.35300
C  32.91800 3.92700 32.50800
C  37.56200 2.72100 32.95900
C  37.79700 2.00200 28.16400
C  33.05900 3.05300 27.75300
N  35.24300 3.37100 32.42200
C  34.16400 3.65200 33.15000
C  34.42300 3.70000 34.64000
C  35.97400 3.55900 34.66500
C  36.32600 3.15000 33.24900
C  36.73500 4.87300 35.02700
C  33.54100 2.57500 35.34300
C  33.71100 2.31200 36.83400
H  34.41400 3.32300 37.73300
N  37.34900 2.42900 30.51500
C  38.07600 2.34500 31.69800
C  39.39600 1.85400 31.38000
C  39.53300 1.81400 29.92200
C  38.14900 2.01600 29.46900
C  40.35800 1.48200 32.46300
C  40.79900 1.51200 29.08900
O  40.86200 1.57700 27.83200
C  42.11600 1.16700 29.74400
N  35.43200 2.74700 28.21600
C  36.58300 2.27500 27.55400
C  36.39200 2.08200 26.05400
C  34.77000 2.16400 25.95700
C  34.32900 2.68500 27.40000
C  37.25800 3.10600 25.17800
C  34.07300 0.87000 25.47400
C  32.84600 1.09500 24.55600
N  33.41900 3.39000 30.09400
C  32.55400 3.35600 29.03500
C  31.26600 3.73000 29.43700
C  31.35600 4.04100 30.81400
C  32.64700 3.78600 31.15300
C  29.97900 3.66700 28.61400
C  30.57300 4.53000 31.90000
O  29.43200 4.93200 31.97500
C  31.52900 4.35600 33.13400
C  31.57200 5.70400 33.80200
O  32.09600 6.72200 33.34200
O  31.14600 5.60500 35.09300
C  31.40200 6.73800 35.91600
H  38.25400 2.63000 33.79800
H  38.44100 1.48900 27.44800
H  32.31500 3.00000 26.95500
H  34.14200 4.67900 35.03000
H  36.28400 2.79100 35.37500
H  36.14900 5.51500 35.68500
H  37.04200 5.46200 34.16400
H  37.63100 4.50600 35.52900
H  33.66300 1.63400 34.80600
H  32.50000 2.88900 35.26300
H  34.14000 1.31900 36.97100
H  32.69200 2.16300 37.18900
H  41.16400 2.20600 32.33400
H  40.96500 0.64600 32.11600
H  39.91100 1.24900 33.42900
H  42.17200 0.19300 30.22900
H  42.32400 1.88200 30.54000
H  42.95100 1.15100 29.04400
H  36.43900 1.00700 25.87800
H  34.54600 2.98800 25.27900
H  38.20300 2.65300 24.87900
H  37.44100 4.01700 25.74800
H  36.83100 3.50200 24.25600
H  33.72600 0.21800 26.27600
H  34.79500 0.30900 24.88100
H  32.19100 0.30200 24.91600
H  33.34100 0.95000 23.59600
H  32.38600 2.08200 24.50200
H  29.11400 3.29400 29.16200
H  30.06400 3.10300 27.68500
H  29.74100 4.69300 28.33200
H  31.17500 3.58600 33.81900
H  32.37100 7.23100 35.83200
H  31.39600 6.33000 36.92700
H  30.64700 7.52100 35.85400

