79

Mg 46.57300 44.65900 43.13200
C  43.10500 43.84300 43.22600
C  47.27100 41.32700 42.77300
C  49.72800 45.52300 42.63700
C  45.57000 48.00600 43.64500
N  45.26300 42.82900 42.91600
C  43.92200 42.72600 43.09200
C  43.47300 41.28800 42.85500
C  44.80200 40.50200 43.03000
C  45.89500 41.58100 42.97100
C  44.93600 39.65200 44.24900
C  42.72600 40.96500 41.50600
C  43.01500 41.89000 40.22500
H  42.99700 41.23300 38.89600
N  48.22500 43.60800 42.73000
C  48.35000 42.20900 42.67100
C  49.69100 41.80400 42.60900
C  50.48400 43.01000 42.48400
C  49.47800 44.14700 42.61200
C  50.18400 40.42100 42.40300
C  52.04700 43.04000 42.33500
O  52.65300 42.00000 42.31400
C  52.79100 44.35100 42.25900
N  47.51400 46.51600 43.12200
C  48.81900 46.64000 42.85500
C  49.23200 48.06300 42.88600
C  47.87800 48.90600 42.97400
C  46.94100 47.76400 43.27800
C  50.34500 48.44900 43.90500
C  47.53300 49.92400 41.83400
C  47.65400 51.37300 42.28400
N  44.76200 45.77100 43.45200
C  44.49200 47.10100 43.57400
C  43.10600 47.33000 43.53800
C  42.48900 46.09000 43.42300
C  43.53300 45.16800 43.40800
C  42.50700 48.70300 43.70800
C  41.26500 45.40500 43.27700
O  40.11900 45.84400 43.27500
C  41.65600 43.88100 43.21700
C  40.93400 42.97900 44.23000
O  40.43800 41.91100 44.01400
O  40.82200 43.62200 45.43500
C  39.85300 42.98700 46.37200
H  47.56400 40.27700 42.83900
H  50.74900 45.77500 42.34200
H  45.29300 49.06200 43.68000
H  42.82500 41.14400 43.71900
H  45.04500 39.90900 42.14800
H  45.24800 38.64100 43.98600
H  43.98400 39.57100 44.77300
H  45.57000 40.12300 45.00000
H  41.69800 41.17100 41.80500
H  43.01300 39.93600 41.28800
H  43.93400 42.45800 40.36200
H  42.17600 42.57700 40.10900
H  50.56500 40.12500 41.42600
H  49.29800 39.79000 42.47800
H  50.91000 40.06800 43.13500
H  52.70700 44.80300 43.24700
H  52.33300 45.04700 41.55600
H  53.85000 44.14600 42.10200
H  49.60800 48.22000 41.87500
H  47.87100 49.40600 43.94200
H  50.47900 47.59400 44.56700
H  50.15400 49.38200 44.43500
H  51.32900 48.43200 43.43700
H  46.55100 49.74200 41.39700
H  48.14500 49.78900 40.94300
H  47.74600 51.45100 43.36700
H  46.80700 51.94700 41.90900
H  48.48900 51.83600 41.75700
H  43.29100 49.40800 43.43200
H  42.12700 48.82400 44.72200
H  41.66200 48.77900 43.02300
H  41.28000 43.41700 42.30500
H  39.17700 43.65700 46.90400
H  40.38100 42.38300 47.11000
H  39.21000 42.25600 45.87900

