79

Mg 40.86400 9.53100 29.32700
C  42.81500 10.90900 32.12200
C  38.75700 8.25300 31.83900
C  39.14500 8.29700 26.95000
C  43.48500 10.45800 27.19300
N  40.82500 9.70900 31.75500
C  41.66000 10.29600 32.63700
C  41.19000 10.16600 34.15100
C  40.13100 8.94500 34.00500
C  39.85400 8.99500 32.47100
C  40.59600 7.47000 34.39600
C  40.71700 11.44000 34.87200
C  41.56400 11.95900 36.04700
H  40.80700 12.49100 37.33600
N  39.20400 8.37000 29.32800
C  38.42800 8.01500 30.46300
C  37.24700 7.35800 29.92600
C  37.28500 7.48400 28.54100
C  38.53800 8.06600 28.19300
C  36.12900 6.92200 30.87900
C  36.14700 7.14300 27.55400
O  36.32800 7.28500 26.33700
C  34.84100 6.69800 27.99300
N  41.17800 9.42400 27.37400
C  40.28500 8.85200 26.53900
C  40.90800 8.77500 25.08600
C  42.16100 9.63700 25.14900
C  42.28600 9.92700 26.62900
C  41.08800 7.33200 24.45400
C  42.10800 10.93700 24.28200
C  43.10400 10.95900 23.12000
N  42.79700 10.42400 29.56300
C  43.71800 10.71200 28.55100
C  44.88900 11.33400 29.16100
C  44.55800 11.50500 30.50600
C  43.30300 10.89900 30.74300
C  46.15700 11.76800 28.41200
C  44.91900 12.08700 31.85000
O  45.94300 12.66700 32.20000
C  43.88200 11.67100 32.86100
C  44.52200 10.90900 33.91500
O  44.97100 9.78600 33.83900
O  44.64800 11.70900 35.02100
C  45.47800 11.17700 36.05400
H  38.19100 7.72500 32.60900
H  38.50100 7.91600 26.15400
H  44.32200 10.80800 26.58600
H  42.01600 9.78900 34.75400
H  39.18500 9.10700 34.52200
H  41.60900 7.50600 34.79700
H  40.56900 6.70400 33.62200
H  39.96400 7.17700 35.23400
H  39.68400 11.27300 35.17700
H  40.65400 12.18000 34.07400
H  42.27400 12.64000 35.57900
H  42.10000 11.06500 36.36800
H  35.34000 7.67200 30.91000
H  36.50800 6.90000 31.90100
H  35.79400 5.91400 30.63400
H  34.52700 7.37100 28.79100
H  35.02200 5.73500 28.47000
H  34.25800 6.65800 27.07300
H  40.20500 9.15000 24.34300
H  43.02300 9.06100 24.81600
H  42.08900 6.92100 24.59100
H  40.82800 7.31000 23.39600
H  40.40300 6.63300 24.93400
H  42.17700 11.83100 24.90200
H  41.14500 11.00300 23.77700
H  43.86200 11.74200 23.14900
H  42.55500 11.15500 22.19900
H  43.66600 10.03700 22.96700
H  46.87600 12.18000 29.12000
H  45.95600 12.48900 27.61900
H  46.61300 10.88300 27.97000
H  43.69900 12.65000 33.30600
H  46.41600 10.84800 35.60800
H  44.92400 10.34900 36.49700
H  45.63400 11.94800 36.80900

