79

Mg -2.87000 17.82000 27.32100
C  -2.90000 15.61600 29.93900
C  -3.17200 20.42900 29.34900
C  -3.06100 19.72400 24.46600
C  -2.69300 14.84100 25.13000
N  -3.06700 17.95700 29.39400
C  -2.89000 16.99500 30.31800
C  -3.15500 17.53900 31.74900
C  -3.26600 19.06800 31.53700
C  -3.18800 19.16800 29.98500
C  -4.55900 19.71800 32.07700
C  -2.06100 17.09500 32.77800
C  -1.80500 17.91000 34.03400
H  -1.87400 17.20400 35.40000
N  -2.92200 19.81100 26.96100
C  -3.02600 20.73900 27.92800
C  -3.19800 22.09100 27.33100
C  -2.93000 21.85700 25.91200
C  -3.01900 20.38400 25.70600
C  -3.41200 23.41400 28.13200
C  -2.53400 22.86400 24.81900
O  -2.43800 22.53500 23.65700
C  -2.22300 24.31900 25.19100
N  -3.04000 17.31600 25.10500
C  -3.14700 18.31800 24.16000
C  -3.25500 17.67500 22.69700
C  -3.03800 16.17300 22.95200
C  -2.93300 16.07600 24.47000
C  -4.43000 18.08000 21.87700
C  -1.73300 15.52900 22.32000
C  -0.45300 15.92100 22.85600
N  -2.89700 15.63900 27.44800
C  -2.63600 14.61700 26.49800
C  -2.67800 13.33800 27.17600
C  -2.87900 13.68800 28.52400
C  -2.85500 15.07000 28.64200
C  -2.62200 11.99800 26.52100
C  -3.12800 13.14100 29.79900
O  -3.17300 11.91900 30.16800
C  -2.99200 14.39200 30.77600
C  -1.80100 14.25200 31.58900
O  -0.67800 14.66600 31.27200
O  -2.13900 13.29300 32.55400
C  -1.06600 12.93500 33.48700
H  -2.96200 21.30400 29.96800
H  -3.00800 20.25900 23.51600
H  -2.45100 13.91300 24.60800
H  -4.08100 17.08100 32.09600
H  -2.45300 19.62600 32.00000
H  -5.25800 20.02200 31.29800
H  -4.26200 20.47900 32.79800
H  -5.10700 19.03100 32.72100
H  -1.13600 17.05600 32.20200
H  -2.39100 16.11200 33.11300
H  -2.59500 18.66000 34.00200
H  -0.84700 18.35800 33.77100
H  -3.94800 24.10700 27.48300
H  -2.52600 24.01200 28.34500
H  -3.94600 23.23400 29.06500
H  -3.11300 24.86200 25.51000
H  -2.06700 24.70900 24.18500
H  -1.34800 24.58000 25.78700
H  -2.36900 18.18000 22.31100
H  -3.88100 15.67800 22.47000
H  -4.93500 17.19700 21.48600
H  -4.30000 18.58700 20.92100
H  -5.13300 18.68400 22.45000
H  -1.65000 15.70100 21.24700
H  -1.82200 14.45800 22.50100
H  -0.13000 14.94500 23.21700
H  -0.52400 16.68200 23.63300
H  0.24800 16.23100 22.08100
H  -3.46600 11.94100 25.83400
H  -2.71300 11.10500 27.13900
H  -1.66200 11.87700 26.01800
H  -3.96300 14.35600 31.26900
H  -0.09300 13.13400 33.03700
H  -1.15800 11.91900 33.87000
H  -1.14200 13.61300 34.33800

