79

Mg 47.25200 25.07200 27.99700
C  48.06700 27.25500 30.59800
C  46.45800 22.70500 30.34900
C  46.77900 22.84300 25.56400
C  48.71000 27.32100 25.78400
N  47.61500 24.96900 30.30000
C  47.47500 26.04100 31.06300
C  47.17800 25.68800 32.52900
C  46.69800 24.20500 32.39200
C  46.99200 23.91600 30.93100
C  47.35300 23.20200 33.40500
C  46.19600 26.70700 33.27400
C  45.65200 26.28200 34.67400
H  45.94700 27.25900 35.83700
N  46.59700 23.06800 27.96400
C  46.25400 22.26500 29.03500
C  45.90300 20.92100 28.51800
C  46.22800 20.92000 27.12700
C  46.54900 22.33400 26.85500
C  45.32900 19.89100 29.51000
C  46.49500 19.69300 26.22000
O  47.02300 19.76900 25.08200
C  46.07700 18.30100 26.65600
N  47.60100 25.12700 26.04400
C  47.23000 24.12500 25.23900
C  47.29400 24.61300 23.71300
C  47.90700 26.03000 23.78500
C  48.16500 26.15000 25.27400
C  47.97000 23.63200 22.63900
C  47.01600 27.15300 23.22000
C  47.86500 28.23400 22.42500
N  48.19000 26.89400 28.10300
C  48.76100 27.70300 27.15300
C  49.12900 28.94800 27.75500
C  48.83600 28.76700 29.06900
C  48.28100 27.54300 29.26300
C  49.78800 30.05100 27.02200
C  48.93100 29.51300 30.31800
O  49.34900 30.61300 30.53800
C  48.31300 28.56200 31.32900
C  49.28800 28.36400 32.49900
O  50.18900 27.53900 32.48900
O  48.87300 29.10100 33.60400
C  49.58000 28.71200 34.86200
H  46.14200 22.02200 31.14000
H  46.59100 22.16600 24.72800
H  49.08800 27.98800 25.00600
H  48.10500 25.63700 33.10000
H  45.60900 24.15200 32.39800
H  48.14700 22.64000 32.91300
H  46.66000 22.43600 33.75400
H  47.91300 23.65700 34.22200
H  45.33700 27.07300 32.71100
H  46.81100 27.58100 33.49200
H  45.95400 25.25300 34.86700
H  44.57800 26.21400 34.50400
H  45.87700 19.90600 30.45200
H  45.01300 18.92200 29.12400
H  44.35700 20.32600 29.74200
H  45.94800 17.67100 25.77500
H  45.08700 18.65400 26.94100
H  46.67400 17.95600 27.50000
H  46.24600 24.68700 23.42400
H  48.90200 26.06700 23.34200
H  47.38000 23.46400 21.73800
H  48.29400 22.63000 22.92300
H  48.82800 24.19900 22.27800
H  46.51800 27.78400 23.95600
H  46.34800 26.64100 22.52700
H  47.88000 29.21100 22.90700
H  47.45200 28.36200 21.42400
H  48.92300 27.98600 22.33900
H  49.70300 29.97400 25.93800
H  50.85400 30.08100 27.24500
H  49.30500 30.99800 27.26200
H  47.34200 28.90000 31.69000
H  50.66800 28.75300 34.80300
H  49.35800 27.73600 35.29300
H  49.19800 29.45100 35.56700

