79

Mg 16.70800 52.13900 24.65100
C  18.15900 50.81300 27.60600
C  13.99000 53.02500 26.62900
C  15.22200 52.98400 21.82400
C  19.48400 50.96700 22.94900
N  16.08000 51.87300 26.91300
C  16.93800 51.47500 27.91100
C  16.49400 52.00600 29.27500
C  15.03100 52.49900 28.89800
C  15.04900 52.54500 27.38000
C  13.88100 51.70800 29.60300
C  17.40300 53.14800 29.82900
C  17.75100 53.04100 31.34500
H  16.79100 52.36700 32.29900
N  14.82800 52.96500 24.23000
C  13.85000 53.27800 25.15800
C  12.74500 53.83900 24.48000
C  13.08900 53.93800 23.06900
C  14.43700 53.30300 22.97100
C  11.45000 54.22500 25.18100
C  12.39300 54.60900 21.87900
O  12.86600 54.66700 20.73400
C  11.14100 55.37500 22.15100
N  17.30900 52.14200 22.69700
C  16.47700 52.47300 21.69100
C  17.04400 51.88100 20.35400
C  18.61600 51.73100 20.76100
C  18.50200 51.61000 22.23900
C  16.46300 50.61400 19.88100
C  19.50200 52.86500 20.29000
C  20.37600 52.38100 19.11900
N  18.49200 51.19400 25.13700
C  19.39500 50.60800 24.28200
C  20.41900 49.89500 25.08500
C  19.92200 49.95400 26.37400
C  18.72200 50.70200 26.34000
C  21.66700 49.20300 24.58100
C  20.24400 49.54000 27.68200
O  21.13900 48.88700 28.21500
C  19.12900 50.16600 28.60200
C  18.53000 49.19600 29.44000
O  17.71000 48.39300 29.05900
O  19.05400 49.29800 30.63500
C  18.79200 48.15500 31.55100
H  13.20400 53.27600 27.34400
H  14.61300 52.93100 20.91900
H  20.32400 50.70200 22.30300
H  16.41300 51.12900 29.91700
H  14.84100 53.52900 29.20000
H  13.37500 52.41300 30.26200
H  14.24000 50.82600 30.13400
H  13.31300 51.24400 28.79600
H  16.95600 54.11800 29.61000
H  18.29400 53.05200 29.20900
H  17.73400 54.06400 31.72200
H  18.77400 52.68200 31.45700
H  11.43300 53.89300 26.21900
H  10.52900 53.84300 24.74100
H  11.29300 55.29700 25.06100
H  11.41600 56.38700 22.45000
H  10.58500 54.93600 22.98000
H  10.55700 55.42300 21.23200
H  16.91900 52.67700 19.62100
H  18.95900 50.73700 20.47200
H  17.12100 50.00400 19.26200
H  15.52800 50.92400 19.41500
H  16.15600 49.89900 20.64400
H  20.09000 53.10800 21.17400
H  18.92300 53.74400 20.00600
H  19.85100 52.57700 18.18400
H  20.62000 51.32100 19.18300
H  21.29200 52.95600 19.25400
H  21.34100 48.29000 24.08100
H  22.33600 48.95500 25.40500
H  22.08800 49.89200 23.84900
H  19.65300 50.88600 29.23100
H  18.97700 47.18800 31.08300
H  17.74600 48.27800 31.83200
H  19.43400 48.30500 32.41900

