79

Mg 54.22800 24.57600 44.21100
C  51.39000 26.82600 43.66900
C  52.16700 21.94700 43.56400
C  56.99500 22.80500 43.83200
C  56.16100 27.52400 44.12900
N  52.03900 24.47400 43.61500
C  51.06400 25.49000 43.49900
C  49.74100 24.79100 43.19800
C  50.00500 23.27200 43.49200
C  51.50900 23.20400 43.58700
C  49.40600 22.64000 44.78500
C  49.20900 25.19700 41.75800
C  50.30500 25.08900 40.67000
H  49.74200 24.63800 39.27000
N  54.49900 22.58100 43.92300
C  53.55500 21.67900 43.73200
C  54.24200 20.30400 43.77300
C  55.60200 20.58300 43.89600
C  55.78200 22.02800 43.89200
C  53.53600 19.01000 43.58100
C  56.62300 19.47300 43.99400
O  56.25200 18.32300 43.93300
C  58.01800 19.73000 44.13900
N  56.33700 25.07900 44.13200
C  57.25200 24.19400 43.93700
C  58.70500 24.75100 43.94700
C  58.45800 26.28300 43.83300
C  56.88100 26.32400 44.01700
C  59.57900 24.38500 45.27800
C  58.88500 26.84900 42.43600
C  60.41700 27.00900 42.20900
N  53.86300 26.74800 44.08600
C  54.79700 27.75100 44.19300
C  54.16500 28.95900 44.40100
C  52.78700 28.63500 44.13900
C  52.66100 27.30700 44.00900
C  54.75800 30.32700 44.65600
C  51.45500 29.19500 44.08400
O  51.03800 30.26300 44.35900
C  50.52100 28.00100 43.59800
C  50.18300 28.50700 42.18200
O  50.87300 28.56300 41.15800
O  48.89900 28.92000 42.21900
C  48.36500 29.42600 40.95000
H  51.55100 21.04900 43.48500
H  57.91400 22.29700 43.53500
H  56.79400 28.39800 44.29700
H  49.04900 25.11600 43.97500
H  49.68700 22.69700 42.62200
H  50.23300 22.38400 45.44800
H  48.85600 21.76500 44.43800
H  48.70300 23.31300 45.27500
H  48.89500 26.23900 41.80700
H  48.32300 24.59600 41.55100
H  51.10000 24.48400 41.10600
H  50.74800 26.06600 40.47400
H  53.64300 18.39800 44.47600
H  54.03500 18.39000 42.83600
H  52.45600 19.15400 43.53700
H  58.57100 18.85000 44.46700
H  58.18800 20.47000 44.92200
H  58.29300 20.11200 43.15600
H  59.21900 24.37400 43.06400
H  59.02900 26.74500 44.63800
H  60.55500 24.06600 44.91000
H  59.06200 23.65100 45.89600
H  59.78800 25.19400 45.97800
H  58.44500 27.83300 42.27200
H  58.47100 26.23200 41.63900
H  60.84300 27.96300 41.89900
H  60.95600 26.22900 41.67200
H  60.82400 26.90100 43.21400
H  54.05600 30.79900 45.34300
H  54.63300 30.92700 43.75500
H  55.79500 30.24900 44.98400
H  49.68600 27.85300 44.28200
H  47.31200 29.70600 40.94000
H  48.35800 28.78400 40.06900
H  48.94600 30.32700 40.75600

