79

Mg 41.52500 8.72900 29.92100
C  43.25700 10.07400 32.71500
C  39.04200 7.60600 32.11200
C  40.20200 6.94100 27.42700
C  44.40400 9.15600 28.04900
N  41.26000 8.70000 32.21500
C  42.04600 9.48700 33.11700
C  41.35700 9.48200 34.49100
C  40.14100 8.46600 34.32200
C  40.13900 8.20700 32.77100
C  40.27500 7.17900 35.06800
C  41.07800 10.94900 34.94900
C  40.71300 11.06100 36.46100
H  41.58900 11.93000 37.36500
N  39.80000 7.59400 29.76800
C  38.88100 7.33400 30.76600
C  37.68300 6.77100 30.06900
C  37.98200 6.71900 28.67700
C  39.38300 7.03800 28.57300
C  36.44700 6.23800 30.82000
C  37.02400 6.39300 27.50900
O  37.51700 6.17700 26.41800
C  35.47600 6.32100 27.66600
N  42.21400 8.04200 27.97900
C  41.49400 7.30200 27.10800
C  42.20500 6.94400 25.79100
C  43.49900 7.81300 26.03100
C  43.36900 8.42000 27.46100
C  42.53500 5.42500 25.71000
C  43.81100 8.86600 24.98800
C  42.69500 9.97400 24.75900
N  43.40100 9.59200 30.19000
C  44.49300 9.64800 29.35900
C  45.55900 10.39500 29.94600
C  45.14700 10.63400 31.28800
C  43.83900 10.04300 31.38500
C  46.82200 10.83800 29.17800
C  45.46400 11.19400 32.60000
O  46.50200 11.73300 32.99000
C  44.29800 10.84900 33.52200
C  44.80000 10.04500 34.71400
O  45.41700 8.98100 34.67500
O  44.59100 10.81800 35.85900
C  44.90600 10.13900 37.16300
H  38.14300 7.38400 32.69100
H  39.76700 6.51100 26.52300
H  45.27500 9.28900 27.40400
H  42.06600 8.96800 35.14000
H  39.31700 9.13100 34.58000
H  39.59400 7.24200 35.91700
H  41.25700 7.21000 35.54100
H  40.13800 6.31900 34.41300
H  40.13300 11.34100 34.57200
H  41.97400 11.56600 34.88800
H  40.69900 10.06800 36.91000
H  39.73000 11.52800 36.52800
H  36.65300 6.30000 31.88800
H  36.19800 5.25200 30.42900
H  35.56400 6.80700 30.52800
H  35.13600 7.33200 27.89000
H  35.22900 5.61000 28.45400
H  35.04500 5.92700 26.74600
H  41.69600 7.28600 24.89000
H  44.39800 7.19800 26.07800
H  41.75400 5.02800 26.35800
H  43.53800 5.23800 26.09400
H  42.20900 5.07600 24.73000
H  43.95200 8.29900 24.06800
H  44.66800 9.41700 25.37600
H  42.37300 9.75400 23.74100
H  43.20200 10.93600 24.83700
H  41.81100 9.86400 25.38700
H  46.52700 11.72300 28.61300
H  47.25900 10.06900 28.54100
H  47.74300 11.07500 29.71000
H  43.78000 11.75600 33.83400
H  44.49300 9.13000 37.19500
H  44.47800 10.51900 38.09100
H  45.98100 10.05400 37.32100

