79

Mg -1.92900 34.22800 27.42600
C  -3.72400 32.41000 29.76200
C  -1.03600 36.34900 30.01800
C  -0.63000 36.32600 25.15600
C  -3.57700 32.37600 24.94300
N  -2.64800 34.53500 29.58500
C  -3.21900 33.55800 30.31300
C  -2.96600 33.80700 31.77500
C  -2.38100 35.30800 31.80100
C  -1.97400 35.43800 30.38700
C  -3.29500 36.39800 32.34200
C  -1.99000 32.74200 32.39500
C  -2.46700 31.74100 33.55900
H  -1.66700 31.92000 34.90100
N  -0.91100 35.98500 27.59500
C  -0.50900 36.56000 28.76400
C  0.51400 37.50800 28.37700
C  0.63900 37.61000 26.95900
C  -0.28500 36.59100 26.47200
C  1.26800 38.21200 29.49400
C  1.46800 38.51200 26.05700
O  1.43300 38.50000 24.80500
C  2.49900 39.33100 26.65500
N  -1.97200 34.23000 25.35000
C  -1.49800 35.31100 24.63500
C  -2.17000 35.39900 23.24700
C  -2.91800 33.98100 23.12400
C  -2.77100 33.49300 24.55600
C  -3.17000 36.63000 23.06300
C  -2.42300 32.89200 22.14300
C  -1.39700 31.86200 22.47700
N  -3.21700 32.51800 27.35900
C  -3.80000 31.90900 26.26800
C  -4.67300 30.80900 26.66700
C  -4.71200 30.90100 28.08200
C  -3.79700 31.98200 28.38800
C  -5.45000 29.99600 25.66000
C  -5.19300 30.38800 29.31400
O  -5.94500 29.40400 29.56900
C  -4.50500 31.27700 30.46500
C  -5.64100 31.66200 31.21400
O  -6.34800 32.60400 30.93200
O  -5.79700 30.95700 32.33600
C  -7.08800 31.21200 33.09400
H  -0.69700 36.99100 30.83300
H  -0.22500 37.03100 24.42800
H  -4.14100 31.88100 24.14900
H  -3.94400 33.80100 32.25700
H  -1.47600 35.35900 32.40700
H  -2.90500 36.71400 33.31000
H  -4.32300 36.03900 32.40400
H  -3.30500 37.17300 31.57600
H  -1.11700 33.23000 32.83100
H  -1.62800 32.00100 31.68300
H  -2.25400 30.74900 33.16200
H  -3.53400 31.84600 33.75600
H  1.41300 37.60200 30.38600
H  0.72600 39.13800 29.68100
H  2.30000 38.34300 29.16700
H  1.88000 39.95000 27.30500
H  3.02700 39.99100 25.96700
H  3.23600 38.85400 27.30100
H  -1.38300 35.49900 22.50000
H  -3.97800 34.07100 22.88800
H  -2.95000 37.36600 23.83700
H  -4.20600 36.37400 23.28300
H  -3.19700 37.19200 22.12900
H  -2.00100 33.38500 21.26600
H  -3.31200 32.34700 21.82500
H  -1.04200 32.09100 23.48200
H  -0.55000 31.86300 21.79100
H  -1.83500 30.86400 22.47600
H  -5.98500 29.25800 26.25800
H  -4.74700 29.44200 25.03900
H  -6.24500 30.45000 25.06800
H  -3.98300 30.60800 31.14900
H  -7.96200 31.24600 32.44300
H  -6.97900 32.05400 33.77800
H  -7.18300 30.30100 33.68500

