79

Mg -2.36700 17.43500 26.54800
C  -3.18300 15.15400 29.17600
C  -2.45500 19.95700 28.79500
C  -2.20200 19.47800 23.92800
C  -2.92900 14.64100 24.22200
N  -2.77500 17.52700 28.76300
C  -3.03000 16.50500 29.62100
C  -3.00000 17.09200 31.03600
C  -2.82200 18.64800 30.83500
C  -2.75100 18.72100 29.40400
C  -3.98900 19.57300 31.40300
C  -1.96300 16.45400 31.99800
C  -1.57700 17.19100 33.23300
H  -1.11200 16.34100 34.43900
N  -2.23700 19.47400 26.38100
C  -2.28000 20.34300 27.42500
C  -2.06700 21.65500 26.85300
C  -1.99100 21.56700 25.39900
C  -2.17300 20.14000 25.20100
C  -1.97100 22.97200 27.75600
C  -1.77500 22.62200 24.42100
O  -1.71000 22.40800 23.22700
C  -1.72700 24.08200 24.79200
N  -2.73200 17.07100 24.36200
C  -2.48000 18.15700 23.55500
C  -2.53600 17.77300 22.05500
C  -2.67200 16.20800 22.13500
C  -2.76800 15.92400 23.69000
C  -3.70800 18.53200 21.32400
C  -1.50000 15.47500 21.54400
C  -0.16000 15.70000 22.30100
N  -2.97000 15.31900 26.61200
C  -3.04400 14.32000 25.59800
C  -3.33800 13.09400 26.25900
C  -3.41500 13.31500 27.66500
C  -3.20900 14.71300 27.82400
C  -3.46300 11.76700 25.55300
C  -3.56200 12.72800 28.97600
O  -3.78300 11.61300 29.36200
C  -3.54000 13.90700 30.01100
C  -2.34200 13.53400 30.85800
O  -1.17200 13.58100 30.50100
O  -2.72400 12.87400 32.01100
C  -1.70900 12.37800 32.90300
H  -2.35200 20.76000 29.52800
H  -2.00200 20.05600 23.02400
H  -2.98800 13.79900 23.53000
H  -4.00600 17.00900 31.44700
H  -1.96400 19.12000 31.31300
H  -4.51000 19.86000 30.48900
H  -3.55500 20.42300 31.92800
H  -4.69600 19.06900 32.06200
H  -1.00200 16.41600 31.48400
H  -2.35800 15.49200 32.32500
H  -2.33300 17.93500 33.48600
H  -0.71900 17.78900 32.92500
H  -1.04000 23.52900 27.64700
H  -1.93600 22.67100 28.80300
H  -2.80200 23.62800 27.49400
H  -2.60500 24.21700 25.42400
H  -1.79600 24.67300 23.87900
H  -0.80000 24.25500 25.33900
H  -1.55500 18.03300 21.65800
H  -3.53300 15.85900 21.56500
H  -4.51200 17.79600 21.32700
H  -3.51600 18.76000 20.27600
H  -4.03400 19.36400 21.94900
H  -1.36800 15.84000 20.52500
H  -1.75000 14.43400 21.34000
H  -0.06300 16.60900 22.89600
H  0.44800 15.93600 21.42800
H  0.26000 14.90200 22.91300
H  -4.12400 11.87300 24.69300
H  -3.79600 10.99200 26.24400
H  -2.62100 11.26700 25.07400
H  -4.44300 13.94200 30.62100
H  -2.11100 11.90000 33.79600
H  -1.20800 13.29900 33.20200
H  -0.97100 11.70600 32.46500

