79

Mg 2.26800 -1.94200 44.71100
C  5.47000 -1.00200 43.69900
C  0.88700 0.46100 42.73300
C  -0.76600 -3.35200 45.10700
C  3.68900 -4.84700 46.19000
N  3.14700 -0.33800 43.43300
C  4.46700 -0.26700 43.03100
C  4.68800 0.97000 42.14900
C  3.21100 1.44900 41.81500
C  2.29000 0.42800 42.69900
C  2.93800 2.93100 41.93800
C  5.54300 0.69700 40.85000
C  6.56100 1.72900 40.44000
H  6.28500 2.27800 38.95400
N  0.29100 -1.41500 44.04800
C  -0.03800 -0.30900 43.37300
C  -1.56000 -0.28300 43.34000
C  -2.04400 -1.39400 44.06900
C  -0.82500 -2.13400 44.47200
C  -2.29200 0.76500 42.49600
C  -3.49400 -1.60900 44.46500
O  -4.37000 -0.88500 44.03300
C  -3.88600 -2.64200 45.52000
N  1.53200 -3.91900 45.46900
C  0.27000 -4.18900 45.62400
C  0.05800 -5.59100 46.23300
C  1.50400 -6.12700 46.52400
C  2.30300 -4.91900 46.02100
C  -0.88800 -5.72100 47.46800
C  1.96400 -7.38800 45.74200
C  2.28900 -8.55100 46.62500
N  4.14100 -2.85200 44.89800
C  4.59400 -3.93200 45.65300
C  6.03600 -3.90900 45.71200
C  6.39200 -2.73300 45.02400
C  5.25900 -2.20500 44.49600
C  6.96300 -4.86300 46.40700
C  7.54300 -1.90300 44.61800
O  8.72400 -1.99300 45.00800
C  6.91100 -0.77700 43.72400
C  7.16500 0.56300 44.48000
O  6.71400 0.98400 45.55900
O  8.02500 1.38500 43.69600
C  8.21700 2.74000 44.14900
H  0.58900 1.26900 42.06300
H  -1.74000 -3.84700 45.12400
H  4.11200 -5.71500 46.70000
H  4.98900 1.80600 42.78000
H  3.18500 1.34500 40.73000
H  3.85500 3.51200 41.84100
H  2.55200 2.93700 42.95800
H  2.17200 3.23200 41.22300
H  4.90300 0.42100 40.01200
H  6.14200 -0.19700 41.02000
H  7.61300 1.44700 40.47600
H  6.51200 2.59200 41.10500
H  -3.10900 0.20600 42.04100
H  -1.69100 1.23600 41.71800
H  -2.90600 1.46000 43.06700
H  -4.86900 -2.40500 45.92700
H  -3.14000 -2.75400 46.30800
H  -3.90400 -3.62000 45.03800
H  -0.40500 -6.10800 45.39300
H  1.58800 -6.18600 47.60900
H  -0.23400 -5.76000 48.34000
H  -1.42300 -6.66400 47.35300
H  -1.48400 -4.80900 47.50400
H  2.82900 -7.14000 45.12700
H  1.18200 -7.66800 45.03600
H  1.54900 -8.62600 47.42200
H  3.27100 -8.37800 47.06700
H  2.26400 -9.49200 46.07600
H  7.85800 -4.78400 45.79000
H  6.60900 -5.88300 46.55100
H  7.16500 -4.39500 47.37100
H  7.42400 -0.81200 42.76200
H  7.58100 3.47400 43.65400
H  9.17000 3.09500 43.75600
H  8.17900 2.79700 45.23600

