79

Mg -0.02400 7.19600 26.29400
C  0.88900 9.15100 29.02800
C  0.11600 4.33200 28.22300
C  -0.32700 5.41400 23.47200
C  0.49600 10.03400 24.31700
N  0.49700 6.84100 28.32200
C  0.64600 7.77800 29.32500
C  0.59800 7.14900 30.66100
C  0.28200 5.65400 30.42500
C  0.25100 5.61000 28.89000
C  1.25100 4.54100 31.06200
C  -0.56300 7.84900 31.54500
C  -0.19200 8.13200 33.01700
H  1.01500 7.27500 33.53700
N  -0.05000 5.10400 25.91500
C  0.05400 4.10200 26.82500
C  -0.15400 2.87400 26.10500
C  -0.35000 3.19100 24.74500
C  -0.21700 4.60100 24.63500
C  -0.32700 1.52900 26.80800
C  -0.58100 2.23100 23.55600
O  -0.71300 2.55600 22.36300
C  -0.87300 0.79400 23.86300
N  0.02200 7.68600 24.27500
C  -0.20500 6.78600 23.30100
C  -0.17300 7.39600 21.88800
C  -0.24700 8.91700 22.21600
C  0.17800 8.89100 23.65300
C  0.99400 7.05500 20.93900
C  -1.59800 9.66800 21.86300
C  -2.92900 9.08800 22.40100
N  0.46900 9.25100 26.62400
C  0.63500 10.22900 25.71900
C  1.12400 11.49300 26.31700
C  1.12600 11.11100 27.68600
C  0.83400 9.71600 27.77600
C  1.45600 12.76600 25.72500
C  1.39600 11.70700 28.96600
O  1.73500 12.82000 29.35700
C  1.22200 10.41000 29.92300
C  2.35700 10.22400 30.85900
O  3.38400 9.71000 30.41300
O  2.09400 10.75600 32.11200
C  3.36100 11.10400 32.77800
H  -0.01200 3.39000 28.76100
H  -0.29700 4.96800 22.47600
H  0.61800 10.95700 23.74700
H  1.49800 7.51300 31.15700
H  -0.72200 5.45200 30.79800
H  1.83400 3.99200 30.32200
H  0.82200 3.70600 31.61600
H  2.03000 5.03300 31.64400
H  -1.45800 7.23200 31.61400
H  -0.87300 8.78500 31.08000
H  -1.10300 8.02300 33.60600
H  0.05500 9.18600 33.15200
H  -1.27400 1.22200 26.36200
H  -0.52300 1.61500 27.87700
H  0.52100 0.90400 26.53000
H  -1.71900 0.58700 24.51900
H  -0.00100 0.26900 24.25200
H  -1.05400 0.26700 22.92600
H  -1.16100 7.13700 21.50800
H  0.53500 9.45500 21.68100
H  1.44600 7.92900 20.47000
H  0.73500 6.35100 20.14800
H  1.76500 6.65700 21.59900
H  -1.77000 9.93000 20.81900
H  -1.63900 10.53900 22.51800
H  -3.60800 9.11900 21.55000
H  -3.41900 9.62600 23.21300
H  -2.95200 8.04200 22.70800
H  2.05300 12.52200 24.84700
H  1.99400 13.47100 26.35800
H  0.53200 13.25200 25.41200
H  0.44800 10.67500 30.64400
H  3.51200 10.46200 33.64500
H  3.16100 12.12600 33.10000
H  4.29000 11.07400 32.20900

