79

Mg 34.80300 2.22400 29.94100
C  32.64900 3.31200 32.50300
C  37.45100 2.55900 32.03500
C  36.86800 1.66200 27.26900
C  32.20900 3.05800 27.64200
N  35.02400 3.01400 31.99700
C  33.99100 3.12000 32.89700
C  34.56000 3.15000 34.39800
C  36.11400 3.07500 34.21200
C  36.22300 2.92600 32.66400
C  36.93300 4.27700 34.75600
C  34.01100 1.92300 35.25700
C  33.83900 2.07300 36.72500
H  34.34600 3.33400 37.33000
N  36.85200 1.97600 29.69500
C  37.78100 2.17500 30.73800
C  39.07900 1.95800 30.17800
C  38.97500 1.65200 28.81200
C  37.51300 1.73200 28.54500
C  40.34300 2.10700 31.01200
C  40.03500 1.44000 27.81700
O  39.82500 1.12100 26.62700
C  41.46200 1.48300 28.29400
N  34.53300 2.23000 27.84500
C  35.57800 1.86900 26.94000
C  35.12900 1.85600 25.46200
C  33.55500 2.24000 25.64500
C  33.40000 2.50000 27.14900
C  35.88200 2.87300 24.57800
C  32.58700 1.09700 25.15000
C  32.61000 -0.17800 26.02400
N  32.76300 2.94900 29.99900
C  31.89200 3.22300 28.97800
C  30.55300 3.49300 29.50600
C  30.81100 3.47100 30.92000
C  32.15700 3.26300 31.16900
C  29.29800 3.67700 28.72700
C  30.23300 3.73100 32.25600
O  29.08100 4.03500 32.61500
C  31.30200 3.46900 33.32800
C  31.30500 4.66900 34.25000
O  31.81000 5.74500 34.03000
O  30.68600 4.29200 35.47500
C  30.46200 5.49300 36.32400
H  38.32400 2.66500 32.68300
H  37.46100 1.39500 26.39200
H  31.35900 3.08400 26.95700
H  34.28500 4.06600 34.92000
H  36.43400 2.11200 34.60800
H  36.30100 5.11200 35.05600
H  37.58900 4.59200 33.94500
H  37.60000 4.00700 35.57500
H  34.62800 1.03000 35.16100
H  33.05600 1.59100 34.85000
H  34.27300 1.18900 37.19200
H  32.75200 2.03000 36.77900
H  40.82900 3.00200 30.62400
H  40.95200 1.22400 30.82000
H  40.12000 2.27700 32.06600
H  41.70500 2.41900 28.79700
H  42.06100 1.43000 27.38500
H  41.60000 0.66100 28.99600
H  35.32900 0.82100 25.18500
H  33.18200 3.11000 25.10500
H  35.14800 3.24500 23.86300
H  36.61700 2.55300 23.84000
H  36.23300 3.69900 25.19700
H  32.70600 0.79900 24.10900
H  31.57700 1.44400 25.37200
H  31.58600 -0.54100 26.11400
H  32.95800 0.00100 27.04100
H  33.25000 -0.94300 25.58500
H  29.41100 2.80300 28.08500
H  29.16700 4.55600 28.09700
H  28.43000 3.48000 29.35700
H  31.01000 2.56900 33.86900
H  29.64300 6.04600 35.86500
H  31.42100 6.00000 36.43700
H  30.15500 5.17400 37.32000

