79

Mg 0.61000 7.74800 27.53800
C  1.33900 9.86900 30.10300
C  0.34000 5.20500 29.56000
C  -0.00800 5.97300 24.72400
C  1.04900 10.61300 25.29900
N  0.92300 7.62100 29.56100
C  1.18600 8.57900 30.51600
C  1.01700 8.05500 31.88700
C  1.17200 6.51000 31.63100
C  0.76500 6.40700 30.15500
C  2.61700 5.93000 31.83700
C  -0.42500 8.41400 32.37200
C  -0.42900 9.00500 33.76700
H  0.64100 8.66900 34.90000
N  0.34500 5.80000 27.21300
C  0.26900 4.85200 28.18300
C  0.13700 3.58100 27.62300
C  0.21700 3.72200 26.20900
C  0.16500 5.22000 25.99500
C  0.01500 2.36700 28.44400
C  0.34900 2.64100 25.05500
O  0.30400 3.00100 23.89300
C  0.32400 1.17400 25.42500
N  0.45600 8.27200 25.31300
C  0.06700 7.35400 24.43000
C  -0.13800 7.85200 23.01300
C  0.08100 9.43300 23.25800
C  0.55300 9.47100 24.70500
C  0.76300 7.40700 21.75000
C  -1.12300 10.42400 22.90600
C  -1.24400 10.90200 21.51700
N  1.05400 9.87600 27.56200
C  1.21300 10.87100 26.64700
C  1.52400 12.10700 27.32800
C  1.54300 11.77700 28.67800
C  1.24500 10.39200 28.84000
C  1.68400 13.47300 26.77600
C  1.73500 12.33500 29.96500
O  2.13800 13.46900 30.26800
C  1.64400 11.07400 30.99900
C  2.96700 10.90600 31.71900
O  4.01700 10.39100 31.32400
O  2.82100 11.60700 32.85700
C  3.77500 11.47400 33.93500
H  0.30200 4.38300 30.27800
H  -0.22200 5.37500 23.83600
H  1.15200 11.45300 24.60900
H  1.74000 8.49800 32.57100
H  0.46900 5.97500 32.26900
H  3.05700 5.75400 30.85500
H  2.48500 4.95200 32.29900
H  3.26400 6.60100 32.40100
H  -1.13800 7.59400 32.46300
H  -0.93800 8.99100 31.60300
H  -1.41800 8.89300 34.21100
H  -0.38000 10.06100 33.49900
H  -0.79300 1.67800 28.20000
H  -0.37400 2.60100 29.43500
H  0.92400 1.76800 28.49500
H  -0.56800 0.88500 25.98100
H  1.18800 0.98400 26.06300
H  0.47900 0.49500 24.58700
H  -1.19800 7.62600 22.89500
H  0.85100 9.86300 22.61700
H  1.15500 8.15900 21.06400
H  0.23200 6.68000 21.13600
H  1.72200 6.95700 22.00700
H  -0.95600 11.29900 23.53400
H  -2.04700 9.93200 23.20900
H  -2.14800 10.58400 20.99900
H  -0.44200 10.62100 20.83400
H  -1.29200 11.98400 21.64400
H  1.66700 13.51100 25.68700
H  2.61100 13.92200 27.13400
H  0.80600 14.00100 27.14800
H  0.79800 11.23800 31.66700
H  4.17100 12.47000 34.13400
H  4.59700 10.81700 33.65100
H  3.40300 10.93800 34.80800

