79

Mg 17.50000 -0.69600 27.71000
C  16.49100 1.45700 30.26500
C  19.66600 -2.21000 29.75800
C  18.84400 -2.00100 24.92500
C  15.46200 1.41600 25.48700
N  18.02500 -0.31200 29.70300
C  17.45900 0.53400 30.63400
C  17.91000 0.17200 32.06600
C  19.10600 -0.73200 31.84500
C  18.89700 -1.10000 30.37600
C  20.49000 -0.03100 32.16200
C  16.76700 -0.33600 32.98700
C  16.71000 0.30800 34.36500
H  17.85400 1.02600 35.05600
N  19.01800 -1.91000 27.39700
C  19.72200 -2.51400 28.37800
C  20.62700 -3.43800 27.76400
C  20.35200 -3.56100 26.36400
C  19.34100 -2.48600 26.14800
C  21.63700 -4.14700 28.61200
C  20.88500 -4.60800 25.38000
O  20.61200 -4.61900 24.22100
C  21.72100 -5.85100 25.79400
N  17.06500 -0.39900 25.53800
C  17.94400 -0.98600 24.62200
C  17.61400 -0.58600 23.20000
C  16.41800 0.38000 23.36000
C  16.21500 0.42000 24.89200
C  18.76900 0.11000 22.51100
C  15.23000 -0.06600 22.58900
C  14.22700 -1.06700 23.15600
N  16.03600 0.95200 27.88100
C  15.42700 1.71100 26.92000
C  14.74800 2.85600 27.52700
C  15.10200 2.77200 28.89800
C  15.88800 1.63300 29.05100
C  13.90700 3.91500 26.78700
C  14.98200 3.42200 30.18100
O  14.41300 4.46000 30.47700
C  15.74000 2.39800 31.16500
C  16.48900 3.24600 31.99200
O  17.63200 3.68200 31.74300
O  15.91700 3.40900 33.15600
C  16.42600 4.54100 33.92300
H  20.35100 -2.74300 30.42100
H  19.34300 -2.32300 24.00800
H  15.00600 2.19800 24.87800
H  18.33100 1.03800 32.57700
H  19.02400 -1.55500 32.55600
H  20.98400 -0.70200 32.86500
H  20.40500 0.91300 32.69900
H  21.13000 0.06600 31.28500
H  17.04200 -1.37300 33.18400
H  15.75100 -0.30100 32.59300
H  16.32900 -0.53300 34.94300
H  15.86500 0.99300 34.29500
H  21.26000 -5.08000 29.03100
H  22.00300 -3.57600 29.46500
H  22.54400 -4.28600 28.02400
H  22.76500 -5.56600 25.93100
H  21.64400 -6.45000 24.88600
H  21.29000 -6.29800 26.68900
H  17.23700 -1.44200 22.63900
H  16.65100 1.42300 23.14400
H  19.58700 0.15800 23.22900
H  18.56600 1.13000 22.18400
H  19.08400 -0.46700 21.64100
H  15.49700 -0.41400 21.59100
H  14.71300 0.86800 22.36700
H  13.24000 -0.62400 23.28700
H  14.50700 -1.49700 24.11800
H  14.02800 -1.88600 22.46500
H  13.00100 3.89600 27.39200
H  13.70700 3.65100 25.74800
H  14.39000 4.89000 26.85100
H  14.99100 1.84600 31.73300
H  16.63500 5.40300 33.28900
H  17.33900 4.13600 34.35900
H  15.63000 4.67700 34.65500

