79

Mg 16.86300 52.38000 26.00600
C  18.58800 50.98200 28.78600
C  14.38100 53.54800 28.09400
C  15.32400 53.70700 23.32000
C  19.29900 51.02300 23.95100
N  16.52000 52.12000 28.20200
C  17.38800 51.59700 29.20600
C  16.63700 51.65200 30.54300
C  15.29700 52.55800 30.27700
C  15.36300 52.70100 28.74000
C  13.90600 51.85200 30.72600
C  17.51100 52.25700 31.70000
C  17.47700 51.51500 33.08500
H  16.84500 52.26000 34.25200
N  15.08200 53.48000 25.71300
C  14.25200 53.87500 26.69200
C  13.16300 54.70800 26.18400
C  13.34300 54.61000 24.75400
C  14.59700 53.89700 24.53200
C  12.01900 55.36500 26.94700
C  12.36000 55.06100 23.60500
O  12.62100 54.92000 22.44300
C  11.07200 55.83400 23.95100
N  17.20500 52.28400 23.92600
C  16.39100 52.87800 23.02400
C  16.99800 52.81000 21.60100
C  18.25700 51.90200 21.80200
C  18.26100 51.76700 23.30500
C  16.03900 52.43900 20.45400
C  19.50200 52.58300 21.29400
C  19.99000 52.30300 19.93400
N  18.66900 51.26800 26.27000
C  19.53300 50.76400 25.36100
C  20.63200 50.02200 26.05600
C  20.31200 50.11600 27.37400
C  19.10600 50.91200 27.49500
C  21.83100 49.40200 25.34800
C  20.70700 49.78900 28.74800
O  21.61400 49.07300 29.15500
C  19.53000 50.26700 29.66300
C  18.99100 49.02800 30.27100
O  18.73100 48.02400 29.58200
O  18.92000 49.05100 31.66000
C  18.51500 47.73200 32.26000
H  13.61400 53.97800 28.74200
H  14.86900 54.06000 22.39200
H  19.97100 50.52500 23.24900
H  16.25700 50.67300 30.83400
H  15.44700 53.53900 30.72900
H  13.39500 51.49600 29.83200
H  13.30300 52.67600 31.10900
H  14.06300 51.02000 31.41200
H  17.02400 53.20000 31.94900
H  18.50600 52.49900 31.32700
H  18.52900 51.29300 33.26800
H  16.93400 50.57200 33.02100
H  12.24600 55.28600 28.01000
H  11.07900 54.84700 26.75900
H  11.92700 56.38600 26.57600
H  10.34000 55.36000 24.60400
H  10.65100 56.03000 22.96500
H  11.30000 56.83100 24.32800
H  17.29800 53.83300 21.37500
H  18.10800 50.94000 21.31200
H  16.51000 51.80500 19.70200
H  15.75600 53.37000 19.96400
H  15.18000 51.93200 20.89400
H  20.33100 52.31800 21.95000
H  19.46400 53.67200 21.25100
H  20.64800 51.43400 19.92200
H  20.54400 53.17800 19.59600
H  19.19600 52.16200 19.20100
H  22.69500 49.72600 25.92800
H  21.89800 49.88000 24.37100
H  21.82200 48.31500 25.26600
H  19.85100 50.87200 30.51200
H  18.07600 47.86600 33.24900
H  19.35300 47.08700 32.52300
H  17.72800 47.19900 31.72700

