79

Mg 37.30400 50.56000 25.18900
C  37.01900 48.39600 27.85300
C  35.95400 53.07700 26.89000
C  37.09100 52.34300 22.28400
C  38.26600 47.70700 23.26800
N  36.40600 50.63600 27.14600
C  36.62400 49.76000 28.11500
C  36.37700 50.31600 29.49600
C  35.72400 51.69500 29.14300
C  36.07600 51.91300 27.63500
C  34.23200 51.80400 29.35600
C  37.45000 50.30400 30.56300
C  37.05300 49.66200 31.90400
H  35.66700 49.87000 32.50500
N  36.77100 52.55100 24.66000
C  36.28300 53.44400 25.53900
C  36.04100 54.70700 24.88400
C  36.31900 54.52800 23.47800
C  36.74000 53.11400 23.42800
C  35.61600 55.90700 25.63300
C  36.20500 55.41800 22.31700
O  36.47800 55.03700 21.20200
C  35.84900 56.86100 22.55800
N  37.54100 50.08000 23.10800
C  37.42200 50.99900 22.06600
C  37.82600 50.35600 20.71000
C  38.40200 49.00100 21.07100
C  38.05900 48.91000 22.62700
C  36.51800 50.30100 19.80300
C  39.85700 48.65500 20.68100
C  40.84900 49.67100 21.20600
N  37.54200 48.45000 25.39700
C  37.94400 47.41500 24.56900
C  38.01200 46.18600 25.29300
C  37.68600 46.53600 26.59700
C  37.33400 47.88500 26.58700
C  38.52300 44.93800 24.72700
C  37.63300 46.09500 27.94500
O  37.82500 44.98400 28.34300
C  37.32400 47.33400 28.84900
C  36.21200 46.93500 29.71900
O  35.04500 47.00600 29.39800
O  36.71300 46.42800 30.92900
C  35.71600 46.17100 31.94900
H  35.76300 53.88100 27.60400
H  37.05200 52.88500 21.33700
H  38.87300 46.96300 22.74800
H  35.56900 49.70400 29.89800
H  36.21400 52.53200 29.64100
H  33.99300 51.00700 30.06100
H  33.75700 51.69600 28.38100
H  34.07800 52.77900 29.81800
H  37.83400 51.30100 30.77700
H  38.25500 49.69400 30.15200
H  37.75000 50.05200 32.64700
H  37.39300 48.62700 31.87600
H  35.76200 55.85900 26.71200
H  34.56300 56.11400 25.44100
H  36.08300 56.82800 25.28500
H  35.02200 56.96900 23.25900
H  35.67600 57.32000 21.58400
H  36.80700 57.24200 22.91300
H  38.62100 50.82500 20.13100
H  37.76200 48.26000 20.59200
H  36.81800 50.69100 18.83000
H  35.80200 51.00400 20.22800
H  35.95300 49.38500 19.63100
H  39.96800 48.54700 19.60200
H  40.12300 47.66000 21.03900
H  40.42200 50.67100 21.27400
H  41.67600 49.70300 20.49600
H  41.38600 49.37600 22.10800
H  39.52400 45.13300 24.34300
H  37.85700 44.64300 23.91600
H  38.60400 44.12500 25.44900
H  38.26700 47.46200 29.38100
H  35.76700 45.08200 31.95700
H  34.70100 46.48500 31.70200
H  36.09000 46.49600 32.91900

