79

Mg 36.46900 49.24300 24.66600
C  36.58900 47.29300 27.60600
C  35.51000 51.95600 26.63600
C  36.21700 50.97000 21.77600
C  37.13400 46.37800 22.86500
N  35.94900 49.54300 26.88100
C  36.30100 48.63600 27.85800
C  36.32000 49.29000 29.24400
C  35.63200 50.76200 28.96700
C  35.71600 50.75700 27.39000
C  34.16900 50.97400 29.49000
C  37.66000 49.33300 30.03400
C  37.57500 48.79500 31.51700
H  36.26600 48.99600 32.26300
N  35.82300 51.16200 24.25500
C  35.44500 52.10700 25.21900
C  35.15900 53.35600 24.46500
C  35.42400 53.07100 23.11400
C  35.79300 51.66400 22.97700
C  34.89000 54.60100 25.22900
C  35.33000 54.01300 21.88000
O  35.46200 53.64900 20.71400
C  34.96400 55.47700 22.15300
N  36.50500 48.73000 22.59000
C  36.56200 49.62300 21.58000
C  37.03800 49.00800 20.19000
C  37.20700 47.51800 20.59700
C  36.82600 47.50100 22.10400
C  36.01700 49.13900 18.93500
C  38.62300 46.94800 20.32500
C  39.72500 47.61400 21.21400
N  36.73200 47.19200 25.08700
C  37.04800 46.15400 24.29300
C  37.47200 44.97700 25.04000
C  37.28000 45.41000 26.36900
C  36.79700 46.73600 26.36900
C  38.06500 43.68800 24.51400
C  37.47600 45.02700 27.71300
O  37.97800 44.06000 28.16700
C  36.96400 46.23000 28.61100
C  35.75800 45.69900 29.26600
O  34.70800 45.48100 28.69600
O  35.89300 45.66800 30.61900
C  34.70300 45.13700 31.30800
H  35.26000 52.74900 27.34400
H  36.27600 51.52100 20.83500
H  37.68200 45.55300 22.40600
H  35.66700 48.62500 29.81000
H  36.18600 51.61400 29.36100
H  33.98100 51.87500 30.07300
H  33.98200 50.13700 30.16200
H  33.47600 50.99300 28.64800
H  37.95900 50.38100 30.04500
H  38.34400 48.75600 29.41100
H  38.46700 49.13900 32.04000
H  37.66900 47.70900 31.53300
H  35.26900 55.50300 24.74900
H  35.31600 54.65400 26.23100
H  33.81900 54.61500 25.43300
H  35.71700 56.04800 22.69600
H  33.97600 55.43300 22.61200
H  34.91500 56.12000 21.27500
H  38.04400 49.37900 19.99400
H  36.65700 46.76500 20.03300
H  36.53100 49.19100 17.97500
H  35.42000 50.04500 19.03800
H  35.32200 48.30300 19.01100
H  38.90700 47.17400 19.29800
H  38.69500 45.86200 20.25800
H  39.27500 48.16200 22.04200
H  40.17100 48.37900 20.57900
H  40.50600 46.90900 21.50200
H  38.59900 43.30400 25.38300
H  38.64800 43.79700 23.60000
H  37.23100 42.98600 24.49400
H  37.78200 46.48700 29.28400
H  33.79700 45.71400 31.12700
H  34.91100 45.17300 32.37800
H  34.58300 44.12400 30.92300

