79

Mg 9.15500 4.29700 27.66800
C  10.20700 2.52000 30.30800
C  6.65000 5.73900 29.60200
C  7.74900 5.61500 24.76100
C  11.15500 2.30700 25.47000
N  8.46100 4.12600 29.64900
C  9.28800 3.52200 30.65900
C  8.74700 3.77500 32.10400
C  7.47900 4.70300 31.79800
C  7.45300 4.85500 30.25200
C  6.16900 4.00100 32.30800
C  9.83200 4.22200 33.06300
C  9.33800 4.95800 34.33400
H  10.29600 5.20000 35.48100
N  7.53600 5.60800 27.23700
C  6.55800 6.02800 28.16800
C  5.59900 6.84800 27.49200
C  5.99900 6.98300 26.08800
C  7.21500 6.08900 25.95100
C  4.53300 7.56400 28.29200
C  5.41400 7.84600 24.98900
O  5.85200 7.86800 23.84200
C  4.34900 8.79300 25.34000
N  9.54700 4.18900 25.44300
C  8.83500 4.83200 24.41500
C  9.24300 4.40300 23.02300
C  10.46100 3.46100 23.26300
C  10.36100 3.28000 24.80600
C  8.00900 3.87300 22.20600
C  11.77300 4.12800 22.91400
C  12.31100 5.37900 23.64500
N  10.29500 2.74400 27.77800
C  11.07400 2.06200 26.84500
C  11.68500 0.89900 27.50800
C  11.46100 1.11600 28.88800
C  10.57300 2.18300 28.99400
C  12.61600 -0.05400 26.84200
C  11.78400 0.67700 30.19700
O  12.63500 -0.17400 30.39500
C  11.06400 1.66300 31.24200
C  10.22400 0.80800 32.15300
O  9.13500 0.33200 31.79100
O  10.71700 0.73600 33.42700
C  9.75300 0.07800 34.38500
H  5.90800 6.13600 30.29800
H  7.15400 5.84200 23.87400
H  11.92400 1.67200 25.02500
H  8.44500 2.80500 32.49800
H  7.49300 5.69000 32.26100
H  5.71000 4.85100 32.81300
H  6.35200 3.24300 33.07000
H  5.56100 3.66600 31.46700
H  10.64900 4.74400 32.56400
H  10.29500 3.27400 33.33800
H  8.54100 4.41100 34.83800
H  9.03500 5.96800 34.06100
H  4.84300 8.54600 28.64800
H  4.32000 6.95800 29.17200
H  3.60400 7.72900 27.74500
H  3.38500 8.34800 25.58300
H  4.12400 9.46300 24.51000
H  4.61500 9.48300 26.14100
H  9.63200 5.20900 22.40100
H  10.36800 2.47500 22.80900
H  7.10300 4.01500 22.79600
H  8.08900 2.79600 22.06000
H  7.98700 4.37700 21.23900
H  11.73900 4.41100 21.86200
H  12.55400 3.36900 22.91400
H  13.10700 5.06600 24.32000
H  11.61200 5.89600 24.30200
H  12.95300 6.02400 23.04500
H  13.07700 -0.64800 27.63000
H  13.43000 0.41200 26.28700
H  11.93200 -0.50600 26.12300
H  11.80100 2.20900 31.83100
H  10.21800 -0.73600 34.94000
H  9.01700 -0.60300 33.95900
H  9.46800 0.84100 35.11000

