79

Mg -2.40200 17.70000 25.55200
C  -2.58300 15.56700 28.36800
C  -2.88100 20.47100 27.54900
C  -2.57100 19.60800 22.86300
C  -2.54200 14.77300 23.54200
N  -2.69700 17.93000 27.70300
C  -2.85200 16.95400 28.66900
C  -3.15700 17.59000 30.12300
C  -3.53400 19.09500 29.71600
C  -2.99400 19.21800 28.28700
C  -5.05300 19.32600 29.64700
C  -1.91900 17.47400 31.09800
C  -2.21300 17.95800 32.49100
H  -1.36900 17.38200 33.64600
N  -2.47700 19.80500 25.26100
C  -2.50000 20.78400 26.22400
C  -2.32500 22.08800 25.60400
C  -2.00300 21.79100 24.26400
C  -2.38900 20.38500 24.05300
C  -2.23200 23.32900 26.40900
C  -1.47700 22.70300 23.20300
O  -1.20500 22.35000 22.07200
C  -1.04600 24.14700 23.49700
N  -2.56800 17.24100 23.60700
C  -2.62000 18.24300 22.64500
C  -2.68500 17.72500 21.20600
C  -2.60800 16.20100 21.45200
C  -2.57500 16.06700 22.93700
C  -3.84400 18.18300 20.38900
C  -1.41800 15.53600 20.65000
C  0.02400 15.88300 21.00900
N  -2.47700 15.62900 25.84900
C  -2.49500 14.58000 24.93300
C  -2.37300 13.32500 25.64100
C  -2.37700 13.65300 26.99300
C  -2.54200 15.09700 27.06800
C  -2.26400 11.95400 24.99000
C  -2.37100 13.07000 28.33000
O  -2.25400 11.94000 28.70700
C  -2.50600 14.28500 29.25400
C  -1.18400 14.28800 30.00300
O  -0.20200 14.78200 29.52700
O  -1.26800 13.71600 31.23000
C  -0.09600 13.74800 32.15400
H  -3.13600 21.37900 28.09700
H  -2.59200 20.28400 22.00600
H  -2.44400 13.90200 22.89000
H  -4.07100 17.10800 30.46700
H  -3.09600 19.87100 30.34300
H  -5.55200 18.51700 30.18000
H  -5.37300 19.34400 28.60500
H  -5.38300 20.23400 30.15100
H  -1.11100 18.09100 30.70600
H  -1.57600 16.44200 31.17600
H  -3.28600 17.89300 32.67400
H  -2.01200 19.02100 32.36300
H  -2.23500 23.13500 27.48100
H  -3.13900 23.89600 26.19900
H  -1.35200 23.92700 26.17200
H  -0.16900 24.06400 24.13800
H  -1.81400 24.75800 23.97100
H  -0.74200 24.56400 22.53700
H  -1.81800 18.04500 20.62800
H  -3.51000 15.71000 21.08600
H  -3.43300 18.96400 19.75000
H  -4.59400 18.50400 21.11200
H  -4.11400 17.31700 19.78400
H  -1.60000 15.93000 19.65100
H  -1.52700 14.46200 20.80000
H  0.11300 16.26600 22.02600
H  0.42200 16.60700 20.29800
H  0.55000 14.93900 21.15000
H  -3.22400 11.44300 24.91600
H  -1.62600 11.35000 25.63500
H  -1.70100 11.96900 24.05700
H  -3.26000 14.28100 30.04100
H  -0.04400 12.74000 32.56500
H  -0.19600 14.45700 32.97600
H  0.79900 13.97300 31.57300

