79

Mg 30.71700 58.00800 39.94500
C  27.79300 56.14800 39.03300
C  32.55500 55.24400 39.09600
C  33.39400 59.89100 40.18100
C  28.53000 60.80500 40.39200
N  30.17200 55.99200 38.99400
C  28.95900 55.37300 38.88800
C  29.13100 53.97000 38.22200
C  30.54100 53.67900 38.87300
C  31.14000 55.10000 38.99900
C  30.37500 52.89400 40.19900
C  29.06200 54.02400 36.63700
C  27.91800 53.24200 35.87100
H  27.03000 54.10300 34.93100
N  32.66400 57.61700 39.74000
C  33.25500 56.45500 39.36700
C  34.71400 56.58700 39.39300
C  35.01100 57.98300 39.60700
C  33.65100 58.54900 39.89900
C  35.64200 55.49800 38.90600
C  36.38300 58.71100 39.56100
O  37.33400 58.09600 39.13300
C  36.61600 60.14500 39.94100
N  30.93200 60.13800 40.07200
C  32.19000 60.62900 40.38200
C  32.08200 62.09900 40.77800
C  30.49600 62.31200 40.77300
C  29.90700 61.00800 40.41600
C  32.77500 62.29600 42.16300
C  30.05500 63.48900 39.82000
C  29.51500 64.71100 40.55500
N  28.58100 58.49000 39.85800
C  27.86500 59.62500 40.03200
C  26.46900 59.39300 39.78900
C  26.35500 57.97600 39.45100
C  27.65500 57.51900 39.43300
C  25.39000 60.34700 39.89800
C  25.43700 56.85200 39.23800
O  24.24000 56.71300 39.34900
C  26.36400 55.60800 38.88400
C  26.05100 54.52000 39.72400
O  26.32400 54.44600 40.89900
O  25.31400 53.56000 38.98700
C  24.79500 52.37200 39.77600
H  33.16700 54.34900 38.96600
H  34.21700 60.55600 40.45400
H  27.82800 61.61500 40.60100
H  28.35000 53.39200 38.71600
H  31.16200 53.02700 38.26000
H  29.48700 52.27000 40.29200
H  30.56200 53.48900 41.09300
H  31.27700 52.28200 40.19300
H  30.05200 53.71000 36.30500
H  28.95300 55.08400 36.40900
H  27.18200 52.93600 36.61500
H  28.42100 52.45300 35.31200
H  35.06500 54.83600 38.26000
H  36.19100 54.90100 39.63300
H  36.41900 56.03000 38.35700
H  36.27400 60.80100 39.14100
H  37.69800 60.27900 39.94500
H  36.22900 60.33700 40.94200
H  32.63200 62.58400 39.97100
H  30.14700 62.33400 41.80600
H  32.10800 62.63000 42.95800
H  33.50500 63.03700 41.83900
H  33.26500 61.36400 42.44700
H  29.22600 63.18900 39.17900
H  30.95400 63.83600 39.31100
H  28.44900 64.65300 40.77400
H  29.71800 65.55300 39.89300
H  29.98600 64.82500 41.53100
H  24.58100 59.71200 40.25700
H  25.16500 60.76600 38.91700
H  25.77700 61.01000 40.67200
H  26.21700 55.32500 37.84200
H  23.73900 52.64100 39.80400
H  25.24400 52.32400 40.76800
H  24.94000 51.45800 39.20000

