79

Mg 1.52500 8.62000 27.63000
C  1.89800 11.09200 30.21200
C  1.66000 6.21400 30.26600
C  1.88100 6.34500 25.39400
C  2.02500 11.23000 25.38800
N  1.67800 8.69700 29.99500
C  1.77300 9.81500 30.81800
C  1.52700 9.46800 32.34300
C  1.79400 7.84700 32.22600
C  1.70900 7.53000 30.69400
C  3.19100 7.31300 32.72900
C  0.11900 9.81900 32.79400
C  -0.19100 9.58800 34.31000
H  0.86100 9.15100 35.31200
N  1.50100 6.59300 27.76600
C  1.57600 5.78700 28.90700
C  1.44200 4.44600 28.51300
C  1.58800 4.39700 27.08600
C  1.70300 5.80900 26.69200
C  1.43800 3.34500 29.50300
C  1.67500 3.15600 26.06600
O  1.78200 3.35800 24.87400
C  1.53200 1.74100 26.67600
N  1.85400 8.72900 25.65200
C  2.01800 7.65300 24.91700
C  2.21800 8.06000 23.43500
C  2.16900 9.57700 23.47500
C  1.93800 9.88400 24.92900
C  3.42300 7.45800 22.64100
C  1.23300 10.27000 22.42200
C  -0.18000 10.41300 22.96900
N  1.83500 10.75700 27.71600
C  1.99200 11.62000 26.69700
C  1.99200 12.95200 27.20100
C  1.97100 12.80500 28.63200
C  1.88500 11.44300 28.85100
C  2.14100 14.25400 26.43200
C  2.04500 13.48700 29.96400
O  2.02900 14.64700 30.26900
C  2.03900 12.30700 31.02400
C  3.18600 12.38200 31.93200
O  4.36600 12.09300 31.76000
O  2.71600 12.85500 33.16900
C  3.57700 12.73200 34.38200
H  1.44500 5.52200 31.08300
H  2.22900 5.62600 24.64900
H  2.10800 11.97600 24.59400
H  2.22700 10.06600 32.92600
H  0.96100 7.32500 32.69600
H  3.42400 8.01600 33.52800
H  3.94300 7.36800 31.94200
H  3.17100 6.31200 33.16000
H  -0.53500 9.15900 32.22500
H  0.03400 10.88900 32.60400
H  -0.98700 8.84600 34.24800
H  -0.55900 10.49800 34.78200
H  2.26200 2.63100 29.46400
H  0.52300 2.75600 29.43800
H  1.40600 3.65400 30.54700
H  0.49100 1.53700 26.92700
H  2.14200 1.53100 27.55500
H  1.86900 1.10700 25.85700
H  1.26500 7.72900 23.02300
H  3.16900 9.97200 23.30000
H  3.97000 8.37400 22.41800
H  3.08400 6.91900 21.75600
H  4.12600 6.76500 23.10200
H  1.08200 9.74900 21.47700
H  1.53400 11.29300 22.20000
H  -0.17100 11.21800 23.70300
H  -0.59600 9.48200 23.35400
H  -0.84200 10.73500 22.16500
H  1.83200 14.06200 25.40500
H  3.20400 14.48600 26.49200
H  1.63300 15.04300 26.98800
H  1.10300 12.51100 31.54300
H  3.35900 13.63600 34.95000
H  4.63000 12.81300 34.11200
H  3.39100 11.79000 34.89900

