79

Mg 16.88600 -2.98200 28.53500
C  16.22600 -1.07100 31.20700
C  18.70700 -5.16400 30.56200
C  18.09200 -4.59900 25.72200
C  15.43800 -0.61000 26.41500
N  17.64300 -2.92700 30.57500
C  17.01800 -2.19000 31.53300
C  17.48300 -2.60800 32.92300
C  18.62400 -3.68600 32.67200
C  18.34400 -3.94800 31.13800
C  20.16900 -3.35100 32.95200
C  16.24100 -3.03000 33.83300
C  16.19200 -2.51900 35.27700
H  17.29600 -1.61700 35.75000
N  17.91300 -4.78900 28.27200
C  18.60500 -5.54500 29.19400
C  19.00900 -6.80500 28.59200
C  18.83500 -6.61500 27.19500
C  18.21300 -5.29900 26.98600
C  19.65500 -7.89200 29.41000
C  19.32500 -7.53300 26.11900
O  19.05200 -7.43100 24.96500
C  19.98100 -8.83300 26.45200
N  16.86500 -2.63400 26.46200
C  17.55700 -3.31800 25.47000
C  17.24100 -2.89400 24.06500
C  16.09300 -1.83000 24.21100
C  16.12400 -1.64600 25.80100
C  18.55000 -2.28500 23.32100
C  14.66600 -2.26700 23.68700
C  13.52700 -2.78900 24.64700
N  16.03700 -1.19900 28.70400
C  15.46800 -0.35500 27.76800
C  14.80000 0.73600 28.48800
C  15.09900 0.51200 29.84200
C  15.85200 -0.65600 29.92000
C  14.00000 1.77300 27.90300
C  14.76500 0.87900 31.24300
O  14.06300 1.74900 31.66300
C  15.64900 -0.01800 32.17700
C  16.55800 0.94500 32.88900
O  17.74400 1.12500 32.68300
O  15.87600 1.54400 33.87700
C  16.52600 2.51500 34.80900
H  19.27500 -5.74700 31.29000
H  18.47500 -5.02400 24.79200
H  14.91300 0.13800 25.81800
H  17.95000 -1.64500 33.12600
H  18.37300 -4.58700 33.23200
H  20.79100 -3.43200 32.06100
H  20.47400 -4.09000 33.69400
H  20.23400 -2.38000 33.44300
H  16.36100 -4.11300 33.88000
H  15.27900 -2.83400 33.36000
H  15.96500 -3.32700 35.97100
H  15.28700 -1.92000 35.17100
H  19.23100 -8.88600 29.27400
H  19.79600 -7.68200 30.47100
H  20.68000 -7.89100 29.03900
H  20.99600 -8.77000 26.84400
H  20.17300 -9.43000 25.56000
H  19.30400 -9.40200 27.08800
H  16.83800 -3.77400 23.56300
H  16.38500 -0.88700 23.74900
H  18.26400 -1.62500 22.50200
H  19.18200 -2.99500 22.78800
H  19.10500 -1.70600 24.06100
H  14.96200 -2.90900 22.85700
H  14.20300 -1.35500 23.31100
H  13.85800 -3.39900 25.48800
H  12.89300 -3.39600 24.00000
H  12.98600 -1.98400 25.14300
H  14.68000 2.47700 27.42300
H  13.41800 2.33900 28.63000
H  13.37800 1.33400 27.12300
H  14.96400 -0.30700 32.97400
H  17.59900 2.38000 34.94300
H  16.06000 2.30200 35.77100
H  16.20600 3.52000 34.53400

