79

Mg 35.40000 49.85300 25.43500
C  35.05100 48.14200 28.46900
C  34.30300 52.70400 27.23500
C  35.22500 51.40300 22.49500
C  36.07700 46.78200 23.81500
N  34.84500 50.40200 27.68400
C  34.84700 49.49700 28.71000
C  34.62000 50.18100 30.06300
C  34.33200 51.66800 29.64400
C  34.48700 51.67200 28.12100
C  32.90000 52.21900 30.06000
C  35.80300 50.01200 31.10400
C  35.36700 49.73700 32.54100
H  33.88100 49.88800 33.00000
N  34.89400 51.75000 24.94400
C  34.45800 52.73800 25.81100
C  34.02800 53.87600 24.96700
C  34.40900 53.62600 23.63100
C  34.90900 52.18800 23.63800
C  33.35100 55.13100 25.46600
C  34.37400 54.49100 22.46200
O  34.82700 54.17100 21.36300
C  33.74600 55.80800 22.46500
N  35.76400 49.23500 23.43600
C  35.64600 50.02600 22.35100
C  35.79600 49.28300 21.03000
C  36.24100 47.82500 21.51100
C  36.05500 47.97400 23.02500
C  34.52200 49.23000 20.11400
C  37.68000 47.57300 21.01300
C  38.86200 48.37800 21.61800
N  35.54100 47.90600 25.93400
C  35.83700 46.73200 25.27400
C  35.79000 45.50600 26.09600
C  35.54000 46.00500 27.36000
C  35.38400 47.48100 27.21300
C  36.13300 44.14800 25.68500
C  35.43400 45.61100 28.77500
O  35.57000 44.52800 29.34700
C  35.08400 46.95800 29.53500
C  33.79900 46.72600 30.23900
O  32.67500 46.89900 29.81300
O  34.02500 46.07000 31.47700
C  32.79400 45.56300 32.17000
H  34.17400 53.68000 27.70600
H  35.29300 51.96300 21.56000
H  36.25000 45.78800 23.39700
H  33.64100 49.86800 30.42500
H  35.13800 52.17700 30.17200
H  32.23000 52.44400 29.23100
H  33.04200 53.10600 30.67900
H  32.26000 51.46700 30.52100
H  36.32200 50.96900 31.15800
H  36.50200 49.24000 30.78000
H  36.10200 50.26600 33.14700
H  35.50600 48.68700 32.79700
H  34.00300 55.97000 25.22500
H  33.05600 55.18100 26.51400
H  32.40200 55.27500 24.94900
H  34.26300 56.46900 23.16000
H  32.72500 55.66200 22.81800
H  33.88500 56.23600 21.47300
H  36.56400 49.67000 20.36200
H  35.53400 47.11900 21.07700
H  34.16500 48.20500 20.01700
H  34.63900 49.77900 19.17900
H  33.67100 49.69500 20.61100
H  37.56000 47.55500 19.93000
H  37.79400 46.55100 21.37400
H  39.43400 48.87800 20.83700
H  39.63200 47.72500 22.03000
H  38.64400 49.17000 22.33500
H  36.95500 44.26100 24.97800
H  35.25300 43.62700 25.31000
H  36.49900 43.60500 26.55700
H  35.90000 46.95800 30.25700
H  32.14600 44.98600 31.51100
H  32.26700 46.44100 32.54300
H  33.12700 45.06800 33.08300

