79

Mg 40.87600 8.93500 29.95700
C  42.85300 9.88600 32.64400
C  38.29300 8.27300 32.20400
C  39.22500 7.54300 27.59300
C  43.59200 9.59500 27.82700
N  40.66000 9.03000 32.22600
C  41.60300 9.56000 33.09800
C  40.87000 9.81000 34.49200
C  39.52300 9.06100 34.32600
C  39.44400 8.76700 32.81800
C  39.36400 7.70500 35.11900
C  40.85800 11.19200 35.07700
C  40.06500 11.42700 36.33400
H  40.99500 12.10300 37.40800
N  38.98200 8.14700 29.87000
C  38.05300 8.00700 30.90400
C  36.91500 7.27100 30.33200
C  37.19200 7.02000 28.93600
C  38.49800 7.55700 28.74500
C  35.62700 7.02300 31.13400
C  36.34100 6.47100 27.81500
O  36.67400 6.37500 26.64500
C  34.99100 6.02000 28.09500
N  41.37800 8.59200 27.97900
C  40.47600 8.05300 27.16100
C  40.97200 7.92200 25.71200
C  42.27600 8.77300 25.74400
C  42.47100 8.95700 27.29700
C  41.22400 6.44800 25.37300
C  42.14600 10.13600 25.03500
C  41.06500 11.16800 25.44800
N  42.77200 9.63600 30.15500
C  43.76200 9.90200 29.17200
C  44.96200 10.41700 29.78500
C  44.67000 10.35700 31.16800
C  43.30300 9.84800 31.32300
C  46.14100 10.84900 29.00800
C  45.18000 10.67600 32.54100
O  46.27200 11.07200 32.79200
C  44.02900 10.42400 33.50100
C  44.37800 9.48800 34.65000
O  44.44100 8.27800 34.62800
O  44.63300 10.27800 35.70700
C  45.15000 9.58700 36.88700
H  37.49600 8.17700 32.94300
H  38.82300 6.89500 26.81100
H  44.41800 10.01300 27.24700
H  41.53700 9.29200 35.18200
H  38.66300 9.68900 34.55900
H  40.17600 7.57000 35.83300
H  39.22500 6.84300 34.46600
H  38.59400 7.75700 35.88900
H  40.55100 11.95000 34.35600
H  41.91100 11.42800 35.23300
H  39.91000 10.40700 36.68400
H  39.15800 12.01900 36.21100
H  34.71400 7.46000 30.72900
H  35.80300 7.31600 32.16900
H  35.39600 5.95700 31.14200
H  34.42700 6.90000 28.40600
H  34.87000 5.22400 28.82900
H  34.48600 5.68100 27.19000
H  40.25400 8.39800 25.04400
H  43.15700 8.26700 25.35100
H  41.14000 5.91100 26.31700
H  42.22300 6.29300 24.96500
H  40.40200 6.00400 24.81300
H  42.11800 9.79400 24.00000
H  43.13600 10.58700 25.09900
H  40.65500 10.81700 26.39500
H  40.22600 11.32700 24.77100
H  41.54500 12.10300 25.73700
H  46.77500 11.45100 29.66000
H  45.68700 11.39800 28.18300
H  46.73100 10.00700 28.64700
H  43.87700 11.44000 33.86400
H  46.14400 9.39400 36.48600
H  44.76500 8.59800 37.13700
H  45.18500 10.23700 37.76100

