79

Mg 36.05200 48.27300 25.08300
C  36.26600 46.49400 28.03500
C  34.93500 50.95900 26.81600
C  35.71300 49.86200 22.08000
C  37.47400 45.64000 23.39100
N  35.57900 48.60900 27.12600
C  35.79700 47.75700 28.14200
C  35.45500 48.47800 29.51800
C  34.94000 49.87700 29.06200
C  35.18000 49.84600 27.55300
C  33.37200 50.11800 29.39000
C  36.68700 48.62900 30.41100
C  36.60800 48.20500 31.91500
H  35.28200 48.05000 32.45100
N  35.33100 50.15900 24.51200
C  34.94200 51.16500 25.36300
C  34.76600 52.31200 24.61700
C  34.80400 52.03900 23.18700
C  35.25000 50.63200 23.22800
C  34.66500 53.60900 25.29000
C  34.63300 53.02900 21.98600
O  34.86900 52.75000 20.78800
C  33.97500 54.44300 22.37000
N  36.31500 47.70500 22.92200
C  36.18300 48.54100 21.95100
C  37.01000 48.13800 20.66300
C  37.58300 46.75900 21.09000
C  37.21400 46.76500 22.59000
C  36.04900 48.16300 19.35500
C  39.07400 46.60800 20.97700
C  39.62800 45.28000 20.32000
N  36.73700 46.45700 25.50400
C  37.17700 45.41500 24.70000
C  37.51000 44.24500 25.50400
C  37.12200 44.61500 26.83300
C  36.64300 45.95000 26.78200
C  38.12100 42.99600 25.00900
C  36.96500 44.09600 28.19600
O  37.23900 43.01500 28.61900
C  36.38400 45.33800 29.04700
C  35.18100 44.98900 29.83400
O  34.03100 44.97000 29.42700
O  35.62700 44.67400 31.07900
C  34.76700 43.81300 31.89500
H  34.53800 51.83000 27.34200
H  35.59500 50.29100 21.08200
H  37.88900 44.75800 22.89800
H  34.66000 47.94200 30.03600
H  35.45000 50.72000 29.52800
H  33.21900 51.04100 29.95000
H  32.90000 49.34200 29.99300
H  32.82300 50.21900 28.45400
H  37.13000 49.62100 30.49800
H  37.47900 47.96500 30.06200
H  37.19500 48.75300 32.65200
H  37.06800 47.22000 31.83700
H  35.23300 53.51000 26.21500
H  33.61300 53.88100 25.37600
H  35.24800 54.38400 24.79200
H  33.13600 54.31500 23.05300
H  33.59800 54.85100 21.43200
H  34.70000 55.16300 22.75000
H  37.82600 48.86000 20.67800
H  37.10200 45.97200 20.50900
H  35.02200 48.14200 19.71800
H  36.10400 47.24300 18.77400
H  36.42800 49.07400 18.89100
H  39.50200 46.82100 21.95700
H  39.42600 47.41200 20.33200
H  39.04500 44.43600 20.69000
H  40.64000 45.04400 20.65000
H  39.65200 45.25500 19.23100
H  37.31300 42.32200 24.72300
H  38.66400 42.46600 25.79200
H  38.72700 43.20900 24.12800
H  37.10900 45.58600 29.82200
H  35.34400 43.53700 32.77800
H  34.33500 42.97200 31.35300
H  33.96400 44.48800 32.19000

