79

Mg 46.88000 17.38200 27.70500
C  45.15800 17.24700 30.79200
C  49.55500 18.89500 29.39800
C  48.60600 17.72500 24.83600
C  44.18800 15.95300 26.15500
N  47.13300 18.15300 29.82400
C  46.41800 17.92600 30.94000
C  47.12800 18.35100 32.20400
C  48.35400 19.17100 31.64300
C  48.39200 18.74000 30.12800
C  48.09200 20.72800 31.82700
C  47.50700 17.18000 33.06600
C  47.22100 17.22800 34.60000
H  46.79700 18.64800 35.19300
N  48.69900 18.35500 27.14900
C  49.63200 18.88900 27.96500
C  50.80600 19.37600 27.17900
C  50.49200 19.02700 25.85900
C  49.22400 18.41500 25.86800
C  52.06600 19.78000 27.85400
C  51.28000 19.35000 24.49700
O  51.05200 18.87100 23.37200
C  52.36100 20.40500 24.44300
N  46.40200 17.00500 25.80500
C  47.38100 17.04600 24.79600
C  46.88300 16.36900 23.51100
C  45.61700 15.49100 24.05800
C  45.34700 16.24200 25.38000
C  46.59300 17.36500 22.34300
C  45.93700 14.01200 24.18600
C  44.75700 13.10100 24.24800
N  45.00300 16.90500 28.20200
C  44.01600 16.21500 27.54600
C  42.98400 15.74100 28.41900
C  43.44800 16.18000 29.67800
C  44.66900 16.87700 29.55300
C  41.68000 14.94300 28.13500
C  43.04600 16.02400 31.08900
O  42.10200 15.50700 31.66700
C  44.25800 16.77900 31.84100
C  43.56100 17.70000 32.77700
O  43.21200 18.81600 32.48300
O  43.23600 17.01600 33.92400
C  42.49500 17.76200 34.94700
H  50.42600 19.29500 29.92200
H  49.17400 17.65000 23.90700
H  43.34000 15.39300 25.75400
H  46.44900 19.03300 32.71600
H  49.28200 18.90100 32.14800
H  47.08300 21.12800 31.92900
H  48.61600 21.13500 30.96200
H  48.60200 21.08800 32.72000
H  48.54800 16.87200 32.96900
H  46.89000 16.34300 32.74200
H  48.16800 16.93400 35.05200
H  46.40900 16.52500 34.78600
H  52.11200 20.77300 28.30100
H  53.01400 19.72200 27.32000
H  52.33600 19.03500 28.60300
H  52.05900 21.41700 24.71100
H  52.66000 20.39000 23.39500
H  53.26100 20.18400 25.01700
H  47.61400 15.58700 23.30800
H  44.72400 15.69100 23.46700
H  46.48900 18.38800 22.70400
H  45.66300 17.09100 21.84500
H  47.46100 17.37600 21.68300
H  46.54900 13.88400 25.07900
H  46.54000 13.70600 23.33000
H  44.75700 12.39800 23.41500
H  43.85100 13.64900 23.98900
H  44.69700 12.59900 25.21300
H  41.71600 13.86500 27.98000
H  41.30700 15.49400 27.27100
H  41.01300 15.07500 28.98700
H  44.74100 15.93400 32.33200
H  43.23900 18.04800 35.69100
H  41.77700 17.17100 35.51700
H  42.13000 18.75600 34.69100

