79

Mg 36.79100 49.03300 25.05200
C  37.05800 46.97800 28.00700
C  34.87900 51.12000 26.85000
C  35.87400 50.26000 22.07900
C  38.17600 46.24900 23.35800
N  36.07100 49.02400 27.20100
C  36.36800 48.22000 28.23700
C  36.01600 48.73000 29.63000
C  35.15400 50.03200 29.11700
C  35.33800 50.00700 27.62700
C  33.62700 50.08500 29.55400
C  37.24400 49.17300 30.44300
C  36.91400 49.19000 31.97400
H  35.47000 48.96300 32.47400
N  35.68700 50.64100 24.56800
C  34.95500 51.41700 25.48200
C  34.51100 52.58900 24.77200
C  34.69400 52.35000 23.36000
C  35.41500 51.07000 23.23600
C  33.86300 53.83900 25.48900
C  34.14300 53.14100 22.20300
O  34.42100 52.71800 21.08400
C  33.31300 54.38400 22.41500
N  37.15900 48.44800 23.03800
C  36.56500 49.08800 21.98400
C  36.80800 48.38900 20.60700
C  37.62800 47.12500 21.03800
C  37.67600 47.28800 22.56300
C  35.60600 48.17300 19.58600
C  39.07800 47.05900 20.45300
C  39.95700 48.24700 20.63800
N  37.53000 47.05800 25.56400
C  38.10400 46.11800 24.73800
C  38.42200 44.95000 25.57000
C  38.06900 45.24200 26.89100
C  37.54300 46.53700 26.82500
C  39.08400 43.61300 25.10800
C  38.00500 44.74000 28.30600
O  38.31800 43.62200 28.76000
C  37.25200 45.95000 29.05500
C  35.98400 45.47200 29.66800
O  34.96000 45.12000 29.10300
O  36.22200 45.27500 31.01000
C  35.25300 44.51900 31.75600
H  34.36400 51.86000 27.46700
H  35.71000 50.63300 21.06600
H  38.48300 45.32900 22.85700
H  35.47800 47.94600 30.16300
H  35.75000 50.90700 29.37800
H  33.04500 49.82000 28.67200
H  33.32300 51.04900 29.96200
H  33.46000 49.36800 30.35800
H  37.54700 50.16100 30.09800
H  38.13600 48.60400 30.18300
H  37.11000 50.21500 32.28600
H  37.63700 48.56500 32.50000
H  34.05900 54.73400 24.89900
H  34.23500 54.00000 26.50000
H  32.78200 53.72700 25.57000
H  33.80400 55.23400 22.88800
H  32.39300 54.07600 22.91300
H  32.91600 54.64900 21.43500
H  37.47100 49.01200 20.00700
H  36.99600 46.25000 20.88300
H  34.74700 48.31900 20.24100
H  35.64000 47.16800 19.16400
H  35.63700 48.80900 18.70200
H  38.95200 46.88300 19.38400
H  39.65600 46.20700 20.81200
H  39.90200 48.89400 19.76200
H  41.00000 47.97900 20.80700
H  39.62200 48.92300 21.42400
H  39.41500 43.61400 24.07000
H  38.34100 42.87600 25.41300
H  40.02800 43.48600 25.63800
H  37.82700 46.39800 29.86500
H  35.75200 44.30800 32.70200
H  35.00100 43.57900 31.26500
H  34.29500 44.97400 32.00900

