79

Mg 17.09000 -3.26100 28.66000
C  16.12100 -1.09900 31.27700
C  19.49100 -4.66600 30.71400
C  18.46800 -4.75500 26.00300
C  14.96400 -1.34800 26.61500
N  17.73400 -2.83000 30.71400
C  17.22800 -1.95400 31.61100
C  17.92000 -2.07800 33.03000
C  19.02300 -3.10900 32.73300
C  18.74800 -3.58200 31.27500
C  20.47200 -2.55800 32.90300
C  16.89700 -2.66700 34.15300
C  17.12100 -2.17300 35.58100
H  18.48100 -1.57300 35.83800
N  18.69500 -4.64900 28.38400
C  19.45100 -5.18400 29.42400
C  20.35000 -6.23700 28.88200
C  20.04500 -6.33200 27.46500
C  18.98000 -5.24400 27.21200
C  21.33100 -7.00300 29.78400
C  20.54500 -7.24700 26.41600
O  20.04800 -7.33700 25.29300
C  21.57800 -8.21600 26.85300
N  16.66700 -3.13600 26.60900
C  17.52400 -3.77400 25.74300
C  17.16500 -3.36600 24.26200
C  15.99800 -2.31800 24.40800
C  15.79400 -2.27700 25.98600
C  18.37500 -2.88300 23.40600
C  14.65500 -2.65900 23.72600
C  14.36700 -1.88700 22.45000
N  15.69900 -1.68600 28.88600
C  14.87200 -1.07900 27.94200
C  14.08700 -0.08100 28.54500
C  14.45200 -0.16700 29.87900
C  15.52200 -1.08100 30.04000
C  13.09600 0.78500 27.84500
C  14.23600 0.41800 31.18800
O  13.54900 1.32400 31.56400
C  15.16900 -0.26800 32.19300
C  15.70300 0.85300 33.00000
O  16.71700 1.44800 32.71700
O  14.83800 1.14800 34.05200
C  15.40000 2.25200 34.88400
H  20.22600 -5.10600 31.39100
H  18.83000 -5.26400 25.10700
H  14.43500 -0.59100 26.03300
H  18.26600 -1.10300 33.37200
H  18.85300 -3.90800 33.45400
H  20.59100 -1.52400 33.22700
H  21.07400 -2.65200 31.99900
H  21.04800 -3.09300 33.65800
H  16.93700 -3.75100 34.04300
H  15.88200 -2.32800 33.94800
H  17.01100 -3.00000 36.28200
H  16.37500 -1.46000 35.93000
H  21.05200 -8.05000 29.90000
H  21.47400 -6.63000 30.79800
H  22.28900 -6.95200 29.26600
H  21.73100 -8.77700 25.93100
H  21.35700 -8.96200 27.61600
H  22.52700 -7.71300 27.04100
H  16.81300 -4.26600 23.75900
H  16.35000 -1.36500 24.01400
H  19.19000 -2.68600 24.10300
H  18.03200 -1.99300 22.87700
H  18.66300 -3.64800 22.68500
H  13.78500 -2.72000 24.38000
H  14.90100 -3.67400 23.41400
H  14.24400 -2.55900 21.60000
H  15.05200 -1.05600 22.28200
H  13.38900 -1.48900 22.71900
H  12.51100 1.37600 28.55100
H  12.42400 0.30800 27.13100
H  13.74100 1.50700 27.34500
H  14.48200 -0.88100 32.77600
H  14.57200 2.59600 35.50400
H  15.95100 3.00700 34.32300
H  16.14900 1.86500 35.57500

