79

Mg -0.04400 7.76500 27.17800
C  0.74500 9.58700 29.93800
C  0.08900 4.99600 29.17500
C  -0.24700 5.80600 24.31900
C  0.33400 10.56500 25.10100
N  0.45300 7.30000 29.37800
C  0.57100 8.26600 30.33400
C  0.40700 7.66500 31.78000
C  0.61100 6.11600 31.45800
C  0.31800 6.12400 29.95300
C  1.96900 5.58300 31.67900
C  -0.91600 7.99000 32.47200
C  -0.92800 8.44700 33.93900
H  0.19900 7.88900 34.81000
N  -0.07800 5.66500 26.77500
C  -0.13000 4.68800 27.74700
C  -0.35000 3.36300 27.15200
C  -0.54300 3.65200 25.70700
C  -0.33100 5.08400 25.57300
C  -0.49500 2.04100 27.86300
C  -0.92900 2.77600 24.55500
O  -1.28400 3.28400 23.47700
C  -0.92900 1.28800 24.67800
N  0.04000 8.12400 25.03400
C  -0.21800 7.20200 24.07500
C  -0.53400 7.77300 22.67000
C  -0.30600 9.33000 23.01000
C  0.01100 9.36100 24.44900
C  0.50200 7.25500 21.57400
C  -1.48300 10.20200 22.69100
C  -2.09400 9.85600 21.32100
N  0.41800 9.75000 27.38000
C  0.55300 10.78100 26.47000
C  1.09700 11.91500 27.14100
C  1.06500 11.57100 28.52100
C  0.70000 10.16000 28.60700
C  1.52600 13.12500 26.39100
C  1.39700 12.03000 29.86900
O  1.88200 13.10500 30.25100
C  0.91000 10.81500 30.83000
C  1.86700 10.63800 31.94500
O  2.96700 10.14900 31.82500
O  1.38900 11.32200 33.01100
C  2.38200 11.55900 34.00200
H  0.09500 4.11200 29.81700
H  -0.36600 5.31800 23.35000
H  0.33700 11.52800 24.58700
H  1.26300 8.09000 32.30400
H  0.01000 5.46000 32.08800
H  2.76700 6.30700 31.84500
H  2.22400 4.97600 30.80900
H  2.00100 4.93900 32.55800
H  -1.63400 7.17100 32.44400
H  -1.32800 8.80200 31.87200
H  -1.88600 8.32000 34.44300
H  -0.68600 9.51000 33.93500
H  -0.26200 2.09000 28.92600
H  0.06100 1.16500 27.52700
H  -1.49500 1.62600 27.73500
H  -1.38200 0.87400 23.77700
H  -1.63700 1.13800 25.49200
H  0.07800 0.95500 24.93100
H  -1.56300 7.44800 22.51700
H  0.48000 9.75700 22.38700
H  1.30100 6.71600 22.08200
H  0.89200 7.99600 20.87700
H  0.00800 6.50900 20.95000
H  -1.45100 11.29000 22.75800
H  -2.19100 10.00400 23.49500
H  -1.64800 9.02400 20.77600
H  -1.89000 10.70500 20.66900
H  -3.16300 9.66300 21.41100
H  2.23000 13.70700 26.98600
H  0.63700 13.65500 26.04900
H  1.87600 12.75500 25.42800
H  -0.04300 11.06300 31.29700
H  2.86900 12.53400 33.98700
H  3.19700 10.84300 34.10900
H  1.90700 11.50300 34.98200

