79

Mg -12.18600 38.44400 42.68600
C  -10.22800 35.61900 41.82000
C  -9.68100 40.49500 41.36400
C  -14.16400 41.22700 42.98000
C  -14.81400 36.28900 43.40100
N  -10.19500 38.05400 41.71900
C  -9.60200 36.83200 41.53900
C  -8.31500 36.99000 40.65600
C  -8.04900 38.56200 40.87800
C  -9.41300 39.08500 41.33900
C  -6.90200 38.96100 41.88200
C  -8.50700 36.52700 39.17600
C  -7.20900 35.81700 38.70900
H  -6.44400 36.47800 37.56100
N  -11.94900 40.60700 42.24900
C  -10.84000 41.17300 41.77300
C  -11.08500 42.61600 41.59300
C  -12.36200 42.90600 42.19800
C  -12.91200 41.55800 42.51500
C  -10.12800 43.62000 40.97500
C  -13.07600 44.19700 42.54500
O  -12.74400 45.32300 42.17600
C  -14.41400 44.19600 43.34300
N  -14.18900 38.74100 43.12400
C  -14.75200 39.94400 43.25300
C  -16.23500 39.91400 43.72700
C  -16.48400 38.28400 43.77600
C  -15.08100 37.72700 43.36700
C  -16.61600 40.68600 44.96600
C  -17.69100 37.72200 42.91200
C  -18.90300 37.38400 43.68800
N  -12.46500 36.39800 42.86100
C  -13.58500 35.65700 43.17900
C  -13.31100 34.28500 42.92300
C  -11.98100 34.23300 42.50900
C  -11.52300 35.58800 42.37800
C  -14.20600 33.07400 43.08900
C  -10.89700 33.38400 42.07100
O  -10.80800 32.18700 42.01800
C  -9.74300 34.24000 41.53000
C  -8.66600 33.90100 42.44800
O  -8.65800 34.11000 43.65200
O  -7.56300 33.24800 41.89100
C  -6.37400 33.11000 42.64800
H  -8.99300 41.10500 40.77500
H  -14.99200 41.87700 43.27100
H  -15.64700 35.65900 43.71900
H  -7.51100 36.42000 41.12100
H  -7.92200 38.99700 39.88700
H  -6.50800 38.03900 42.31000
H  -7.21500 39.70400 42.61500
H  -6.14200 39.37200 41.21800
H  -8.69000 37.32600 38.45900
H  -9.35800 35.84800 39.11400
H  -7.40500 34.77600 38.45200
H  -6.42600 35.78900 39.46700
H  -10.29600 43.62300 39.89800
H  -9.08700 43.31700 41.08800
H  -10.18200 44.63700 41.36300
H  -15.23000 43.84700 42.71000
H  -14.65900 45.18200 43.73900
H  -14.24300 43.61400 44.24800
H  -16.82200 40.21600 42.86000
H  -16.56900 37.97900 44.81800
H  -17.16300 40.13900 45.73300
H  -17.19200 41.56900 44.68900
H  -15.70200 40.97600 45.48400
H  -17.40300 36.85300 42.32100
H  -18.04200 38.50900 42.24400
H  -18.97900 36.30300 43.80100
H  -19.80800 37.73300 43.19100
H  -18.86100 37.78400 44.70100
H  -15.15600 33.35000 42.63200
H  -14.43100 32.90600 44.14200
H  -13.90200 32.20100 42.51200
H  -9.46800 33.99800 40.50300
H  -5.56300 32.96900 41.93300
H  -6.50400 32.15500 43.15700
H  -6.18300 33.94400 43.32200

