79

Mg 36.17800 49.22900 24.86300
C  36.30900 47.44100 27.83500
C  35.21600 52.01500 26.60800
C  35.51100 50.85400 21.93900
C  36.71700 46.20900 23.17700
N  35.91100 49.68200 27.05800
C  35.98300 48.80300 28.11100
C  35.60400 49.45700 29.48100
C  35.06700 50.90400 29.01100
C  35.34900 50.87600 27.46400
C  33.56100 51.10700 29.35700
C  36.84800 49.66600 30.41500
C  36.61100 49.12400 31.84300
H  35.22700 49.11900 32.41000
N  35.60200 51.20100 24.36500
C  35.28600 52.17100 25.22500
C  34.85400 53.36000 24.53700
C  34.95600 53.14500 23.11400
C  35.37000 51.70400 23.04600
C  34.44100 54.70500 25.21100
C  34.57000 53.98600 21.92600
O  34.56900 53.60200 20.74400
C  34.06500 55.46100 22.22400
N  36.00000 48.61000 22.82200
C  35.94800 49.55400 21.84100
C  36.28900 48.85000 20.44200
C  36.76300 47.43900 20.80100
C  36.57800 47.37800 22.39600
C  35.12000 48.79800 19.44700
C  38.21700 47.14100 20.38900
C  39.30000 47.73500 21.29500
N  36.52000 47.23200 25.35000
C  36.73700 46.13500 24.55500
C  37.14700 45.00900 25.30700
C  36.98800 45.45000 26.66400
C  36.50900 46.79100 26.62700
C  37.58000 43.71100 24.78100
C  37.06000 45.07300 28.00100
O  37.30900 43.97800 28.50600
C  36.60100 46.30700 28.84200
C  35.43900 46.01100 29.78600
O  34.21500 45.92800 29.49500
O  35.82400 45.77900 31.06100
C  34.80200 45.05000 31.82300
H  34.77300 52.89700 27.07400
H  35.33400 51.33100 20.97200
H  36.94600 45.37700 22.50900
H  34.83400 48.81500 29.91000
H  35.70600 51.66900 29.45200
H  33.00900 51.23200 28.42600
H  33.30100 51.91300 30.04400
H  33.14600 50.23300 29.85900
H  37.21100 50.67900 30.58900
H  37.66900 49.16000 29.90800
H  37.22700 49.69500 32.53800
H  37.08800 48.14500 31.82200
H  34.65100 54.88500 26.26500
H  33.35800 54.72500 25.09200
H  34.86700 55.58800 24.73500
H  33.12200 55.44500 22.76900
H  33.99000 55.85800 21.21100
H  34.88000 56.01400 22.69200
H  37.09200 49.37500 19.92400
H  36.06300 46.69600 20.41800
H  34.53400 49.71200 19.54400
H  34.44900 47.94100 19.51400
H  35.65200 48.80400 18.49600
H  38.34900 47.43200 19.34700
H  38.32500 46.05800 20.45100
H  39.90600 48.38900 20.66800
H  39.93600 47.00400 21.79500
H  38.92600 48.37700 22.09300
H  38.08900 43.84800 23.82700
H  36.69400 43.12900 24.52700
H  38.23400 43.19100 25.48100
H  37.44300 46.66700 29.43300
H  34.48600 44.15000 31.29600
H  34.03000 45.74000 32.16500
H  35.33500 44.78100 32.73500

