79

Mg 9.18600 3.66900 27.50700
C  10.24500 1.96700 30.40600
C  7.42500 5.71100 29.48100
C  7.78700 4.86900 24.69300
C  10.45400 0.87200 25.56600
N  8.92900 3.78200 29.69300
C  9.44600 3.02100 30.69100
C  9.15900 3.60400 32.03800
C  8.15100 4.77400 31.69900
C  8.19600 4.75700 30.18000
C  6.81000 4.75500 32.43200
C  10.41900 4.06000 32.79000
C  10.71700 3.47100 34.21900
H  10.67100 4.40500 35.45300
N  7.99400 5.23400 27.13500
C  7.35200 5.95700 28.10000
C  6.59600 6.95500 27.48100
C  6.68500 6.77400 26.05000
C  7.50300 5.55100 25.88300
C  5.83600 7.97200 28.26400
C  5.99300 7.58500 24.90600
O  6.16300 7.28500 23.69800
C  5.16700 8.75600 25.28900
N  9.16500 3.01100 25.46100
C  8.61100 3.68600 24.45200
C  8.70600 3.03600 23.04800
C  9.76100 1.92800 23.34000
C  9.84100 1.94200 24.89100
C  7.37200 2.55500 22.53900
C  11.21900 2.18700 22.91300
C  11.91500 1.26800 21.86700
N  10.22300 1.83600 27.85800
C  10.73300 0.88700 26.97800
C  11.42400 -0.14500 27.79400
C  11.28100 0.29400 29.13300
C  10.52300 1.46400 29.12600
C  12.07800 -1.44400 27.37600
C  11.67400 0.00600 30.51900
O  12.24100 -0.99000 30.95700
C  10.89100 1.03300 31.41100
C  9.87600 0.34900 32.30200
O  8.79700 -0.08900 31.96400
O  10.45500 0.07100 33.45500
C  9.63900 -0.61800 34.49900
H  7.03800 6.47400 30.16000
H  7.16700 5.00000 23.80400
H  10.86200 0.04400 24.98300
H  8.69900 2.80200 32.61500
H  8.56500 5.71300 32.06700
H  5.88900 4.45900 31.92800
H  6.50700 5.75800 32.73100
H  6.93800 4.19100 33.35600
H  10.42300 5.14800 32.84800
H  11.29000 3.69700 32.24400
H  11.66600 2.93500 34.18200
H  10.00000 2.69300 34.48500
H  5.62600 7.72800 29.30500
H  4.79700 8.02100 27.94000
H  6.42700 8.87400 28.42300
H  5.36800 9.47000 24.49000
H  5.42300 9.26500 26.21800
H  4.11900 8.48000 25.40500
H  9.13300 3.80700 22.40600
H  9.34300 1.01500 22.91700
H  6.51200 2.55900 23.21000
H  7.53700 1.57600 22.09000
H  7.26000 3.33000 21.78100
H  11.92900 2.16900 23.73900
H  11.21900 3.23500 22.61100
H  12.09200 1.92700 21.01600
H  11.20200 0.52500 21.51100
H  12.83200 0.97100 22.37500
H  13.06800 -1.14000 27.03300
H  11.50500 -1.99600 26.63200
H  12.33200 -2.03000 28.25900
H  11.56000 1.63600 32.02400
H  9.66100 -1.69700 34.34600
H  8.58900 -0.33900 34.58700
H  10.16300 -0.46000 35.44200

