79

Mg -2.41700 17.03200 25.43900
C  -2.65100 14.67900 28.15400
C  -3.06400 19.53600 27.67400
C  -2.47400 19.15200 22.85300
C  -2.17000 14.30300 23.24000
N  -2.76300 17.03100 27.71300
C  -2.72400 16.00900 28.58100
C  -3.08100 16.50500 29.99400
C  -3.21600 18.08400 29.79200
C  -2.94700 18.25600 28.28800
C  -4.64500 18.68400 30.23500
C  -2.00900 16.08300 31.02400
C  -1.98200 16.78500 32.38700
H  -1.36200 16.10700 33.61400
N  -2.54200 19.10700 25.31300
C  -2.73800 19.95500 26.36300
C  -2.70800 21.27900 25.81200
C  -2.42900 21.19600 24.47400
C  -2.41600 19.82100 24.14000
C  -3.07700 22.41700 26.71900
C  -2.29200 22.37300 23.57400
O  -2.38500 22.24700 22.37600
C  -1.94100 23.79700 24.16800
N  -2.68600 16.79200 23.37800
C  -2.58600 17.83700 22.49500
C  -2.53300 17.35500 21.03600
C  -2.09600 15.84400 21.18600
C  -2.34000 15.60800 22.70700
C  -3.75000 17.66200 20.20100
C  -0.63900 15.46700 20.75900
C  0.44300 15.66000 21.89100
N  -2.39500 14.92100 25.55200
C  -2.27000 13.91600 24.56700
C  -2.37400 12.62400 25.11100
C  -2.48800 12.86200 26.54100
C  -2.49700 14.28700 26.72700
C  -2.37800 11.30200 24.44000
C  -2.56000 12.26600 27.86000
O  -2.50300 11.08100 28.10500
C  -2.63900 13.36000 28.93900
C  -1.40400 13.21700 29.79500
O  -0.27900 13.64500 29.62000
O  -1.81100 12.61400 30.97000
C  -0.80300 12.53600 32.03900
H  -3.35600 20.37800 28.30500
H  -2.47400 19.80300 21.97700
H  -2.15700 13.46000 22.54600
H  -4.03800 16.04700 30.24700
H  -2.40700 18.59100 30.31700
H  -5.29200 19.01100 29.42000
H  -4.30400 19.58600 30.74300
H  -5.19500 18.05300 30.93300
H  -1.00500 16.17400 30.60900
H  -2.31000 15.05700 31.23400
H  -3.02400 17.06900 32.53300
H  -1.33500 17.65200 32.25000
H  -2.17900 22.82300 27.18600
H  -3.79400 22.06000 27.45900
H  -3.57200 23.23200 26.19200
H  -1.45800 24.34400 23.35800
H  -1.20200 23.61600 24.94800
H  -2.77300 24.30100 24.66100
H  -1.74400 17.91800 20.53700
H  -2.73100 15.19700 20.58000
H  -4.48900 18.18500 20.80800
H  -4.22200 16.79400 19.74000
H  -3.44800 18.31900 19.38600
H  -0.37300 16.20500 20.00300
H  -0.55100 14.42300 20.45800
H  -0.03500 16.29300 22.63900
H  1.31700 16.18300 21.50400
H  0.78700 14.70500 22.29000
H  -2.10200 11.45800 23.39700
H  -3.40900 10.95400 24.49200
H  -1.72900 10.57700 24.93100
H  -3.61700 13.27600 29.41400
H  0.01100 13.24200 31.87300
H  -0.42400 11.51500 32.00700
H  -1.25000 12.77300 33.00400

