79

Mg 47.45700 16.69200 28.48000
C  45.52800 16.47400 31.53600
C  49.94000 18.18400 30.25000
C  48.95600 17.09600 25.61800
C  44.60600 15.44700 26.89000
N  47.60700 17.26600 30.62800
C  46.77400 17.08500 31.70700
C  47.43100 17.64800 33.02000
C  48.58900 18.49300 32.40600
C  48.70500 17.95200 31.00400
C  48.41900 20.02500 32.54800
C  47.84000 16.54400 34.02900
C  47.24600 16.70300 35.50300
H  47.00900 18.21000 35.92100
N  49.26500 17.29900 28.00400
C  50.20400 17.80800 28.86900
C  51.47400 17.88300 28.17200
C  51.21400 17.63900 26.81000
C  49.75900 17.26600 26.80600
C  52.82300 18.11800 28.88100
C  52.16400 17.60900 25.56100
O  51.74600 17.34100 24.42600
C  53.60300 18.02800 25.75900
N  46.87100 16.30600 26.59600
C  47.63800 16.69700 25.52500
C  46.91400 16.50200 24.19800
C  45.61400 15.72200 24.59900
C  45.70400 15.80000 26.10300
C  46.62200 17.91400 23.59400
C  45.62700 14.21700 24.02200
C  44.44300 13.86400 23.13200
N  45.48100 15.95000 29.03500
C  44.47900 15.48100 28.28500
C  43.38300 14.99300 29.07900
C  43.84500 15.32400 30.37800
C  45.07900 15.96300 30.25300
C  42.07200 14.41000 28.61500
C  43.43600 15.32100 31.75200
O  42.34400 14.87700 32.18500
C  44.52800 16.07600 32.58400
C  43.82500 17.17200 33.32600
O  43.56000 18.28600 32.84500
O  43.59000 16.84800 34.65800
C  42.83800 17.75600 35.56400
H  50.83400 18.60800 30.71200
H  49.39100 17.26800 24.63200
H  43.71000 15.13400 26.35100
H  46.72800 18.33600 33.49000
H  49.51500 18.26100 32.93300
H  47.40100 20.28500 32.84000
H  48.56100 20.52600 31.59100
H  49.12200 20.42100 33.28100
H  48.92400 16.45200 34.09000
H  47.38700 15.61900 33.67100
H  47.85300 16.27000 36.29800
H  46.32500 16.12600 35.59800
H  53.49500 17.36000 28.47900
H  52.70300 17.77600 29.90900
H  53.13800 19.15900 28.80100
H  53.52500 18.96900 26.30400
H  54.00700 18.23500 24.76800
H  54.28200 17.42200 26.35700
H  47.61600 15.93400 23.58800
H  44.73200 16.23100 24.21000
H  47.02400 17.98100 22.58300
H  47.28800 18.66100 24.02700
H  45.60300 18.30000 23.56600
H  45.61700 13.58800 24.91200
H  46.53000 14.09800 23.42300
H  44.76100 13.32200 22.24200
H  44.02200 14.80400 22.77300
H  43.81600 13.19600 23.72200
H  42.29300 13.35700 28.44000
H  41.74600 14.88100 27.68700
H  41.34900 14.45700 29.43000
H  44.91700 15.43600 33.37600
H  42.85100 17.34900 36.57500
H  41.93100 18.11000 35.07400
H  43.36400 18.70700 35.65200

