79

Mg 1.15900 8.32700 25.08300
C  1.93500 10.35500 27.96400
C  1.32100 5.65100 27.17200
C  0.84700 6.41800 22.45300
C  1.50900 11.16700 23.10300
N  1.61300 8.11200 27.39900
C  1.75300 9.01300 28.32200
C  1.64900 8.36000 29.73700
C  1.67300 6.83300 29.40500
C  1.55700 6.80300 27.85300
C  2.91600 6.02600 29.96200
C  0.46500 8.79800 30.65200
C  0.77200 9.23000 32.03200
H  1.74600 8.48400 32.94400
N  1.07000 6.29100 24.79500
C  1.09400 5.36200 25.79300
C  0.92500 3.95400 25.28500
C  0.77500 4.19600 23.83900
C  0.91400 5.67300 23.61400
C  0.90400 2.70800 26.12800
C  0.54300 3.23300 22.80600
O  0.46300 3.58200 21.62400
C  0.37100 1.79400 23.14200
N  1.50400 8.65000 22.91500
C  1.04300 7.72000 22.10000
C  0.84400 8.22700 20.69200
C  1.13100 9.76600 20.86000
C  1.33600 9.89900 22.38300
C  1.75400 7.56800 19.51000
C  0.02800 10.67000 20.27500
C  -1.19000 11.12500 21.17500
N  1.53100 10.34500 25.34600
C  1.69900 11.36100 24.41100
C  2.04800 12.60600 25.14800
C  2.04300 12.24300 26.50100
C  1.80600 10.86300 26.54500
C  2.20800 14.03300 24.47700
C  2.20700 12.74900 27.83100
O  2.37000 13.93200 28.16900
C  2.10200 11.61100 28.89900
C  3.28100 11.66300 29.82400
O  4.37400 11.30900 29.35100
O  2.98000 11.97400 31.14900
C  4.06800 12.03000 32.09000
H  1.32100 4.75700 27.79800
H  0.62100 5.90300 21.51600
H  1.50700 11.99300 22.38900
H  2.60200 8.55800 30.22700
H  0.80100 6.30000 29.78300
H  2.56900 5.41000 30.79100
H  3.72400 6.61500 30.39500
H  3.29100 5.29400 29.24600
H  -0.25600 7.98100 30.67000
H  0.05100 9.67300 30.15100
H  -0.18300 9.29800 32.55300
H  1.03100 10.28500 31.94100
H  0.53400 1.77300 25.70800
H  0.27900 2.97300 26.98000
H  1.90200 2.54800 26.53500
H  1.20600 1.38300 23.70900
H  0.21300 1.04700 22.36500
H  -0.58500 1.71600 23.66000
H  -0.18000 8.05000 20.36100
H  2.08100 10.14700 20.48600
H  2.48600 6.87500 19.92600
H  2.27700 8.32100 18.92000
H  1.13500 7.06000 18.77100
H  -0.42000 10.13300 19.43900
H  0.43700 11.63300 19.96900
H  -1.04900 12.14500 21.53000
H  -1.17700 10.34400 21.93500
H  -2.16600 11.05700 20.69500
H  1.27700 14.59800 24.52300
H  2.32600 13.96100 23.39600
H  2.92200 14.71900 24.93300
H  1.18600 11.67000 29.48800
H  4.36300 13.06100 32.28500
H  4.84600 11.31700 31.81400
H  3.57600 11.71000 33.00800

