79

Mg 41.09000 9.06600 29.54800
C  42.64600 10.28100 32.45600
C  38.74300 7.57400 31.57500
C  39.44500 8.23000 26.85100
C  43.72900 10.22500 27.65800
N  40.79400 8.95300 31.81300
C  41.50600 9.53500 32.78400
C  40.87800 9.38500 34.16400
C  39.75500 8.23400 33.88700
C  39.71300 8.23400 32.36400
C  40.21400 6.85000 34.42400
C  40.23900 10.74100 34.59700
C  40.22100 11.07300 36.11600
H  41.25100 12.07600 36.67700
N  39.30600 8.20500 29.32900
C  38.51100 7.53000 30.17100
C  37.35800 6.94700 29.54600
C  37.50200 7.25700 28.18300
C  38.78300 7.97100 28.04200
C  36.17400 6.29300 30.28200
C  36.48400 6.98400 26.99600
O  36.68700 7.41100 25.83800
C  35.20200 6.16100 27.15700
N  41.51300 9.37100 27.48000
C  40.68100 8.88600 26.57400
C  41.26400 8.87000 25.13000
C  42.60500 9.64900 25.44100
C  42.61000 9.78300 26.93200
C  41.43300 7.35300 24.51500
C  42.84800 11.05100 24.74500
C  41.99800 12.41700 25.10100
N  42.88600 9.96000 29.94200
C  43.92900 10.35100 29.06400
C  45.00900 10.89800 29.91200
C  44.51000 10.96700 31.18300
C  43.23200 10.37100 31.16100
C  46.21100 11.46700 29.41900
C  44.79300 11.42800 32.47700
O  45.80800 11.99800 32.92800
C  43.64000 10.94300 33.36500
C  44.18600 10.14100 34.36200
O  44.64600 9.01400 34.12200
O  44.06400 10.74700 35.60800
C  44.98200 10.13400 36.55200
H  38.01900 6.95000 32.10200
H  38.90300 7.78800 26.01200
H  44.51400 10.62500 27.01300
H  41.54000 9.02600 34.95300
H  38.76200 8.39500 34.30600
H  39.49600 6.59700 35.20400
H  41.22300 6.79500 34.83100
H  40.19400 6.12400 33.61100
H  39.16400 10.64600 34.44000
H  40.63300 11.56100 33.99600
H  40.30600 10.11900 36.63500
H  39.27100 11.51800 36.41100
H  36.32200 6.23400 31.36000
H  36.04600 5.32000 29.80900
H  35.28500 6.91900 30.20000
H  35.55000 5.14800 27.35900
H  34.63400 6.07500 26.23100
H  34.74200 6.48300 28.09200
H  40.71600 9.55500 24.48200
H  43.48700 9.03000 25.27900
H  40.76000 6.68500 25.05200
H  42.38900 6.83200 24.56800
H  41.08200 7.44000 23.48700
H  42.74400 11.06800 23.66000
H  43.88700 11.22200 25.02700
H  41.38900 12.18300 25.97400
H  41.21500 12.61300 24.36900
H  42.59500 13.23700 25.50200
H  46.80200 10.91700 28.68700
H  46.92400 11.52700 30.24200
H  46.10100 12.48500 29.04500
H  43.05200 11.77900 33.74400
H  45.96700 9.81400 36.21300
H  44.46500 9.28800 37.00400
H  45.14300 10.82300 37.38100

