79

Mg 17.07800 -0.93700 28.32100
C  16.01100 0.99700 31.07400
C  19.16000 -2.59200 30.52000
C  18.63400 -2.26700 25.65400
C  15.43200 1.38800 26.26000
N  17.61500 -0.76100 30.52800
C  16.98800 0.01500 31.47100
C  17.37400 -0.33400 32.85400
C  18.49700 -1.45200 32.65300
C  18.40000 -1.62500 31.11200
C  19.88600 -1.13300 33.19600
C  16.08600 -1.00300 33.54300
C  15.69700 -0.36800 34.89100
H  16.75000 0.45200 35.71900
N  18.42500 -2.43900 28.08200
C  19.15900 -2.99400 29.12300
C  19.84300 -4.15300 28.52400
C  19.81400 -4.03100 27.15900
C  18.95600 -2.88600 26.87700
C  20.40800 -5.25600 29.42400
C  20.49900 -4.88100 26.07400
O  20.30100 -4.57500 24.89200
C  21.39800 -6.04500 26.45100
N  17.11500 -0.44500 26.23700
C  17.83100 -1.18400 25.32800
C  17.59100 -0.67100 23.91900
C  16.50300 0.41400 24.12700
C  16.35600 0.49700 25.66400
C  18.87000 -0.30500 23.11400
C  15.20000 0.14100 23.35600
C  15.27100 0.62800 21.92300
N  15.87700 0.78700 28.55200
C  15.15100 1.56500 27.62200
C  14.26500 2.56800 28.27400
C  14.64200 2.35800 29.68600
C  15.59300 1.29300 29.78600
C  13.37700 3.53600 27.64100
C  14.34500 2.83600 30.98300
O  13.61700 3.74600 31.42200
C  15.27800 2.03100 32.03000
C  16.25000 2.98300 32.71100
O  17.36400 3.14000 32.32700
O  15.67700 3.57200 33.78600
C  16.40600 4.51800 34.55500
H  19.70100 -3.34100 31.10300
H  19.06900 -2.61900 24.71600
H  14.86200 1.94600 25.51400
H  17.72700 0.53400 33.41200
H  18.18300 -2.40300 33.08400
H  20.21000 -1.88500 33.91700
H  19.90100 -0.12100 33.59900
H  20.54500 -1.11200 32.32900
H  16.16100 -2.05400 33.82000
H  15.25600 -0.88400 32.84700
H  15.41300 -1.12600 35.62200
H  14.80800 0.22300 34.67000
H  20.71000 -6.05000 28.74200
H  19.70600 -5.60900 30.17900
H  21.34900 -4.98000 29.90100
H  20.71800 -6.78300 26.87600
H  22.22600 -5.81900 27.12200
H  21.89700 -6.41200 25.55400
H  17.05500 -1.38100 23.28900
H  16.92500 1.31800 23.68900
H  19.10800 0.74600 22.94900
H  18.83400 -0.78300 22.13600
H  19.73600 -0.73300 23.61900
H  14.40800 0.65100 23.90500
H  14.93600 -0.90700 23.21900
H  14.88700 -0.11300 21.22200
H  16.28600 0.87000 21.60900
H  14.61000 1.47500 21.73900
H  12.34200 3.26300 27.85000
H  13.49800 3.52800 26.55700
H  13.59500 4.56200 27.93700
H  14.60000 1.63400 32.78500
H  17.47200 4.29300 34.59600
H  16.00500 4.39500 35.56200
H  16.12800 5.52600 34.24900

