79

Mg 41.68900 41.50500 26.98500
C  41.12200 43.80600 29.65800
C  42.37500 39.19500 29.52200
C  42.31700 39.29600 24.59700
C  40.87000 43.97500 24.73500
N  41.73200 41.56500 29.37700
C  41.34700 42.58000 30.17500
C  41.34700 42.19000 31.63100
C  41.98100 40.70500 31.58800
C  42.02500 40.45900 30.00900
C  43.45500 40.54300 32.17900
C  39.91500 42.23200 32.27000
C  39.69300 43.02800 33.57900
H  39.03200 42.41100 34.79800
N  42.41300 39.56400 27.09300
C  42.63000 38.77000 28.13700
C  43.22900 37.59000 27.71000
C  43.15500 37.53200 26.28100
C  42.58900 38.82600 25.92800
C  43.63500 36.48300 28.63400
C  43.53600 36.37400 25.33600
O  43.43500 36.41200 24.12200
C  44.36700 35.20900 25.84800
N  41.59000 41.58200 24.98000
C  41.89800 40.52900 24.18800
C  41.78900 40.96200 22.66900
C  41.12500 42.36000 22.71000
C  41.14000 42.69100 24.20300
C  43.20300 40.94100 22.00900
C  39.68300 42.38100 22.08700
C  38.54000 41.49700 22.81300
N  41.27300 43.43500 27.06200
C  41.01100 44.38400 26.06200
C  40.83200 45.68800 26.60700
C  40.82100 45.47600 28.00800
C  41.15000 44.14000 28.23800
C  40.66600 46.91000 25.86300
C  40.57600 46.18000 29.24400
O  40.20200 47.31900 29.41000
C  40.73500 45.09400 30.37400
C  41.69500 45.61300 31.47500
O  42.93100 45.63200 31.33400
O  41.01800 46.15600 32.55100
C  41.84800 46.62100 33.60600
H  42.60300 38.41900 30.25600
H  42.51400 38.47200 23.90900
H  40.70500 44.82400 24.06900
H  41.90900 43.01800 32.06500
H  41.36200 39.96400 32.09500
H  43.59300 41.33000 32.92000
H  44.25700 40.64800 31.44800
H  43.53000 39.56200 32.64900
H  39.70000 41.21700 32.60600
H  39.21500 42.44400 31.46200
H  39.07700 43.86200 33.24100
H  40.67500 43.39300 33.88100
H  44.54800 35.94900 28.36900
H  42.92000 35.66900 28.75800
H  43.92100 36.88900 29.60400
H  45.30500 35.61800 26.22100
H  44.54000 34.45900 25.07500
H  43.80800 34.81700 26.69800
H  41.10800 40.23100 22.23400
H  41.78700 42.98600 22.11200
H  43.65300 41.91700 21.82500
H  43.06800 40.49900 21.02200
H  43.95900 40.36000 22.53700
H  39.72300 42.07500 21.04200
H  39.37900 43.42800 22.07100
H  38.03700 40.88800 22.06200
H  37.79100 42.20100 23.17500
H  38.90600 40.80900 23.57500
H  41.31100 46.76000 24.99700
H  40.82400 47.83800 26.41200
H  39.60200 46.82400 25.64300
H  39.78100 45.10100 30.90200
H  42.86800 46.85800 33.30100
H  41.85200 46.06800 34.54500
H  41.38100 47.59600 33.74200

