79

Mg 43.56300 4.29500 47.44400
C  41.32400 7.02100 47.08800
C  40.70800 2.27900 47.35700
C  45.52000 1.50400 47.22400
C  46.22700 6.34800 47.08200
N  41.31400 4.67100 47.28900
C  40.61700 5.85800 47.18400
C  39.05900 5.71300 47.32100
C  38.94500 4.22000 47.70600
C  40.39300 3.64800 47.45000
C  38.21200 3.83700 49.08500
C  38.21100 6.09700 46.04700
C  38.77700 5.62900 44.67300
H  39.14900 6.63100 43.55100
N  43.14200 2.17200 47.41700
C  41.93400 1.60100 47.23200
C  42.11200 0.19400 47.05500
C  43.50100 -0.14300 47.22800
C  44.10700 1.18000 47.24200
C  40.99900 -0.76700 46.84300
C  44.15500 -1.57900 47.32300
O  43.46500 -2.55800 47.31100
C  45.62600 -1.74900 47.48100
N  45.60700 3.94300 47.22200
C  46.19700 2.75300 47.23900
C  47.74600 2.81300 47.31700
C  47.91800 4.37200 47.24000
C  46.50300 4.95000 47.12300
C  48.41300 2.00100 48.48400
C  48.83200 4.94100 46.12900
C  50.12900 5.40400 46.63100
N  43.78100 6.31600 47.19000
C  44.92900 7.09600 47.09400
C  44.61600 8.52400 47.00400
C  43.25100 8.56100 47.05200
C  42.73900 7.19600 47.15400
C  45.61100 9.64300 46.84700
C  42.10400 9.49000 46.96500
O  42.04000 10.70400 47.03400
C  40.78100 8.50000 47.01900
C  40.00400 8.73500 48.21000
O  40.46000 8.60700 49.34400
O  38.70300 9.13400 47.84000
C  37.88900 9.57300 49.01600
H  39.82500 1.64400 47.44700
H  46.23800 0.69700 47.06200
H  47.06500 7.04300 46.99400
H  38.77700 6.36900 48.14400
H  38.34500 3.60900 47.03100
H  37.57000 4.70500 49.23300
H  38.90600 3.57900 49.88500
H  37.64600 2.91000 48.99500
H  38.19500 7.18600 46.02400
H  37.19400 5.77500 46.27200
H  38.00200 4.99400 44.24400
H  39.60600 4.93800 44.82500
H  40.74100 -1.24100 47.79000
H  41.38400 -1.61300 46.27300
H  40.21600 -0.22000 46.31700
H  46.06300 -1.09300 48.23300
H  46.00200 -1.70700 46.45800
H  45.75700 -2.78200 47.80400
H  48.13500 2.44200 46.36900
H  48.15700 4.77600 48.22400
H  47.84500 1.08300 48.63500
H  48.50900 2.55700 49.41700
H  49.35800 1.60700 48.10900
H  48.32400 5.78900 45.66900
H  49.03600 4.21100 45.34500
H  50.87800 5.53500 45.85000
H  50.62100 4.78900 47.38400
H  49.86400 6.39700 46.99500
H  46.50700 9.30800 46.32400
H  45.95200 10.13300 47.75900
H  45.23600 10.39400 46.15100
H  40.17400 8.74800 46.14800
H  38.41000 10.47600 49.33500
H  37.78700 8.93900 49.89700
H  36.87900 9.72800 48.63800

