79

Mg 46.85900 17.29000 28.51300
C  45.09500 16.74100 31.55800
C  49.08200 19.20000 30.46900
C  48.34400 18.07500 25.66800
C  44.04500 16.00300 26.78300
N  47.08500 17.93600 30.68800
C  46.30900 17.45100 31.77500
C  47.00800 17.82200 33.15500
C  48.09300 18.83300 32.73800
C  48.17500 18.58100 31.26000
C  47.87200 20.31700 33.07200
C  47.61700 16.57900 33.86700
C  47.62300 16.53200 35.44400
H  47.40200 17.91100 36.08600
N  48.51200 18.32900 28.12900
C  49.24700 19.11400 29.03400
C  50.36600 19.65900 28.36200
C  50.26000 19.26100 26.94500
C  49.00700 18.49100 26.83700
C  51.30900 20.57000 29.18100
C  51.19400 19.61500 25.78200
O  51.04000 19.34300 24.57400
C  52.45500 20.34800 26.07500
N  46.24000 17.09400 26.49000
C  47.16300 17.40800 25.48600
C  46.53100 17.17100 24.12400
C  45.14100 16.54100 24.46600
C  45.15900 16.53200 26.01100
C  46.61100 18.29300 23.03200
C  44.92800 15.15700 23.81100
C  45.72700 13.93300 24.43400
N  45.07500 16.35000 29.03700
C  44.03300 15.86200 28.22400
C  42.92700 15.39900 29.05500
C  43.36500 15.62900 30.37500
C  44.67900 16.21000 30.31300
C  41.63700 14.75100 28.67200
C  42.99900 15.49200 31.74300
O  41.93800 15.11000 32.28900
C  44.18500 16.08500 32.51500
C  43.69700 17.06200 33.52500
O  43.82700 18.27000 33.43200
O  43.31300 16.41700 34.71100
C  43.29800 17.14900 35.96600
H  49.77200 19.74100 31.12000
H  48.86900 18.31700 24.74100
H  43.21800 15.60800 26.19100
H  46.29800 18.22400 33.87800
H  49.06600 18.53200 33.12500
H  48.80000 20.87900 33.17600
H  47.27800 20.38800 33.98300
H  47.28800 20.81800 32.30100
H  48.58600 16.37500 33.41100
H  46.88000 15.82600 33.58700
H  48.67800 16.38700 35.67600
H  47.09400 15.68700 35.88400
H  52.03800 19.98800 29.74500
H  50.68900 21.10900 29.89800
H  51.83000 21.33700 28.60800
H  52.14600 21.38300 26.22300
H  53.22400 20.14900 25.32900
H  52.82500 20.05300 27.05700
H  47.05000 16.34000 23.64700
H  44.42300 17.31000 24.18000
H  47.01500 19.25300 23.35300
H  45.57600 18.44900 22.72800
H  47.13000 17.98600 22.12400
H  45.11000 15.16400 22.73700
H  43.91200 14.92000 24.12800
H  45.99300 13.28000 23.60300
H  45.12000 13.37800 25.15000
H  46.58500 14.31400 24.98800
H  41.25600 15.07500 27.70300
H  40.84400 15.07700 29.34400
H  41.67300 13.66300 28.62000
H  44.80600 15.34700 33.02200
H  44.08600 17.90100 35.92000
H  43.38600 16.48100 36.82200
H  42.34100 17.66900 35.97700

