79

Mg -9.37400 39.70400 40.28400
C  -8.06400 36.57200 39.45600
C  -6.37400 41.04700 39.11000
C  -10.97500 42.58200 40.24100
C  -12.35900 38.01800 41.22600
N  -7.47900 38.89600 39.38700
C  -7.27700 37.58600 38.97000
C  -5.98000 37.49100 38.05700
C  -5.27200 38.84300 38.51000
C  -6.42800 39.67900 38.99300
C  -4.04600 38.81400 39.52600
C  -6.28900 37.42900 36.51100
C  -5.54100 36.45800 35.56000
H  -6.44200 35.75300 34.51900
N  -8.74500 41.59500 39.71800
C  -7.43900 41.96600 39.45300
C  -7.45900 43.42200 39.30600
C  -8.74200 43.94100 39.68300
C  -9.55600 42.68400 39.97400
C  -6.27300 44.19300 38.74500
C  -9.07500 45.43300 39.83000
O  -8.16500 46.25300 39.66800
C  -10.47600 45.90400 40.16400
N  -11.38000 40.20900 40.51600
C  -11.81800 41.49700 40.44800
C  -13.24200 41.63600 40.90900
C  -13.68300 40.11600 41.19300
C  -12.45000 39.32800 40.86300
C  -13.50200 42.57200 42.04100
C  -14.88800 39.72400 40.29700
C  -16.21400 39.59000 41.09400
N  -10.10400 37.71800 40.44900
C  -11.24500 37.21000 40.91800
C  -11.03300 35.74900 41.11800
C  -9.85900 35.41800 40.43500
C  -9.31700 36.72200 40.07900
C  -12.10800 34.78500 41.71700
C  -9.03700 34.31700 39.89600
O  -9.09800 33.11200 39.94200
C  -7.81800 35.08400 39.13800
C  -6.59100 34.49000 39.69600
O  -5.96900 34.90700 40.69300
O  -6.30300 33.39400 38.87700
C  -5.21800 32.49100 39.35900
H  -5.41700 41.47800 38.80900
H  -11.58200 43.47200 40.41900
H  -13.24400 37.61000 41.71800
H  -5.42100 36.59900 38.33900
H  -4.79800 39.33900 37.66300
H  -3.10700 39.00900 39.00800
H  -4.10900 37.81300 39.95100
H  -4.15700 39.38300 40.44900
H  -6.16100 38.43200 36.10400
H  -7.33100 37.11300 36.45500
H  -5.16500 35.67000 36.21200
H  -4.73100 36.91800 34.99300
H  -6.05800 45.11800 39.28100
H  -6.13700 44.37100 37.67900
H  -5.36800 43.63000 38.97300
H  -11.16600 45.40900 39.48100
H  -10.49800 46.98500 40.03100
H  -10.69300 45.70900 41.21400
H  -13.87400 41.93500 40.07300
H  -13.68800 39.98500 42.27500
H  -12.59300 42.66200 42.63700
H  -14.29700 42.12300 42.63600
H  -13.89600 43.55800 41.79700
H  -14.54200 38.78700 39.86200
H  -15.12900 40.44700 39.51700
H  -16.88800 40.43500 40.95200
H  -15.95500 39.52300 42.15100
H  -16.70400 38.68600 40.73300
H  -12.00000 34.89600 42.79600
H  -11.88200 33.77700 41.36900
H  -13.11600 35.04100 41.39300
H  -7.83600 34.96000 38.05500
H  -5.38200 31.52000 38.89200
H  -5.37900 32.38600 40.43100
H  -4.26800 32.90700 39.02200

