79

Mg -12.19100 17.01400 42.36000
C  -9.17300 15.40500 42.21900
C  -10.93000 19.74500 40.73300
C  -15.37900 18.18200 41.93400
C  -13.65300 13.80000 43.04600
N  -10.27400 17.45400 41.40500
C  -9.17300 16.69100 41.65000
C  -7.93800 17.29700 40.88400
C  -8.50100 18.77500 40.53800
C  -9.99300 18.67100 40.93800
C  -7.81800 20.02000 41.31700
C  -7.55400 16.41400 39.67100
C  -6.08500 15.99800 39.63400
H  -5.31800 16.38300 38.38600
N  -13.04500 18.75600 41.51100
C  -12.33900 19.80300 40.97900
C  -13.22200 20.86800 40.68800
C  -14.50800 20.50900 41.21000
C  -14.35800 19.10400 41.60200
C  -12.81400 22.19600 39.95800
C  -15.78000 21.35500 41.26600
O  -15.76500 22.35700 40.58800
C  -17.05400 20.99100 41.97600
N  -14.26500 16.13500 42.38400
C  -15.42000 16.89500 42.32100
C  -16.68700 16.11200 42.71300
C  -16.07800 14.65500 43.06000
C  -14.57800 14.87000 42.76800
C  -17.63800 16.77900 43.67800
C  -16.80100 13.45100 42.39600
C  -16.81400 12.19100 43.22000
N  -11.54400 15.04200 42.72300
C  -12.20600 13.86500 42.97800
C  -11.26400 12.76800 43.14900
C  -10.07100 13.34000 42.96100
C  -10.28700 14.70500 42.71000
C  -11.67700 11.39600 43.35300
C  -8.68000 13.09700 42.88300
O  -8.04400 12.08700 43.08600
C  -7.99900 14.41800 42.53100
C  -7.10200 15.01900 43.53400
O  -7.57900 15.77100 44.38300
O  -5.78300 14.65300 43.32100
C  -4.81800 15.33900 44.19900
H  -10.45100 20.64800 40.34900
H  -16.38400 18.59600 42.03600
H  -14.05800 12.79600 43.18900
H  -7.11900 17.41500 41.59200
H  -8.34100 18.87100 39.46400
H  -6.92700 19.74300 41.88100
H  -8.48300 20.51200 42.02600
H  -7.43500 20.76500 40.61900
H  -7.69800 16.93500 38.72500
H  -8.15400 15.51100 39.55800
H  -5.91900 14.92400 39.71900
H  -5.48800 16.43100 40.43700
H  -12.93800 23.11800 40.52700
H  -13.50300 22.25400 39.11500
H  -11.76900 22.10300 39.66200
H  -16.84200 20.69500 43.00400
H  -17.58900 20.17900 41.48200
H  -17.64500 21.90700 41.99800
H  -17.26900 15.87400 41.82200
H  -16.10000 14.71800 44.14800
H  -17.14100 17.49100 44.33800
H  -18.05100 16.14000 44.45900
H  -18.45000 17.31900 43.19200
H  -16.31300 13.27900 41.43700
H  -17.83500 13.58400 42.07600
H  -16.27800 11.39200 42.70700
H  -17.83700 11.83300 43.33400
H  -16.29100 12.32000 44.16800
H  -12.56200 11.34500 43.98700
H  -10.84300 10.78400 43.69500
H  -11.97300 10.99100 42.38500
H  -7.32500 14.27700 41.68600
H  -5.24300 15.54000 45.18200
H  -4.53500 16.34400 43.88600
H  -3.96200 14.71300 44.45100

