79

Mg 48.29500 15.94800 28.07800
C  46.11200 15.98900 30.94500
C  50.45700 17.85900 29.71700
C  49.87900 16.16100 25.16500
C  45.32400 14.68800 26.28600
N  48.18700 16.94700 30.06800
C  47.35800 16.65800 31.14600
C  47.98100 17.17700 32.42500
C  49.16500 18.05400 31.91400
C  49.30600 17.55500 30.52300
C  48.83300 19.54400 31.81600
C  48.36100 15.99600 33.34600
C  47.94600 16.15800 34.82700
H  47.28100 17.42500 35.41700
N  50.08500 16.71000 27.59700
C  50.80500 17.50000 28.38900
C  51.94200 18.01700 27.64000
C  51.82500 17.45800 26.33300
C  50.57600 16.65900 26.28500
C  52.95400 19.10600 28.16100
C  52.69000 17.64600 25.10000
O  52.46500 17.00200 24.07200
C  53.83200 18.49900 25.11200
N  47.64500 15.52500 26.03800
C  48.63800 15.56300 25.11300
C  48.07300 15.06600 23.79800
C  46.63300 14.61200 24.12300
C  46.48300 15.00400 25.52300
C  48.18900 16.17400 22.72700
C  46.45700 13.06500 23.92500
C  45.70600 12.65600 22.73400
N  46.14000 15.45200 28.44800
C  45.11700 14.93600 27.63100
C  44.02900 14.49900 28.45700
C  44.33900 14.84100 29.74800
C  45.63600 15.49800 29.70600
C  42.70200 13.91300 27.95100
C  43.94400 14.71600 31.12700
O  43.06100 14.09400 31.63900
C  45.07100 15.46700 31.94500
C  44.36600 16.50800 32.83300
O  44.51200 17.71900 32.85900
O  43.57500 15.83800 33.77900
C  43.07500 16.59200 34.98700
H  51.15300 18.53100 30.22400
H  50.38200 16.20200 24.19700
H  44.63300 14.06900 25.71100
H  47.26900 17.85300 32.90000
H  50.04000 17.86300 32.53500
H  48.00700 19.75300 31.13700
H  49.70400 20.12100 31.50500
H  48.60400 19.92600 32.81100
H  49.39900 15.67400 33.42200
H  47.94600 15.09500 32.89300
H  48.80400 16.00500 35.48200
H  47.39100 15.24900 35.05700
H  53.48100 19.64900 27.37700
H  53.79700 18.60900 28.64200
H  52.48600 19.77800 28.88000
H  53.60300 19.53000 25.38300
H  54.24100 18.42800 24.10400
H  54.52600 18.05300 25.82300
H  48.69800 14.23500 23.46800
H  45.86100 15.23500 23.66900
H  47.33400 16.08100 22.05800
H  48.91100 15.87000 21.96900
H  48.29600 17.18500 23.12000
H  46.10500 12.63700 24.86400
H  47.42500 12.58200 23.79100
H  45.31800 11.63800 22.77800
H  46.39900 12.80600 21.90600
H  44.89100 13.36000 22.56700
H  42.28900 14.68000 27.29600
H  42.05300 13.74600 28.81100
H  42.87600 13.03100 27.33400
H  45.55700 14.80700 32.66400
H  42.14000 16.07700 35.20500
H  42.73800 17.61200 34.80300
H  43.69300 16.46900 35.87700

