79

Mg 0.66800 43.57300 25.59300
C  2.94700 43.05800 28.16100
C  -1.83900 42.66200 27.87600
C  -1.50000 43.56400 23.04600
C  3.29900 43.65400 23.34700
N  0.58600 43.00900 27.76500
C  1.58100 43.01500 28.67300
C  1.10600 42.82500 30.20400
C  -0.44200 42.61100 29.99100
C  -0.57600 42.65100 28.44500
C  -1.07200 41.36900 30.77400
C  1.51000 44.17400 30.98500
C  1.69100 44.04500 32.54200
H  1.25000 42.81100 33.29200
N  -1.35800 43.24700 25.50200
C  -2.21600 42.96900 26.54200
C  -3.54600 43.05500 26.01600
C  -3.49600 43.40300 24.71600
C  -2.05900 43.37600 24.34000
C  -4.84600 42.90200 26.95600
C  -4.64400 43.70500 23.75500
O  -4.44700 44.05200 22.55100
C  -6.06300 43.62000 24.23300
N  0.89500 43.83400 23.59000
C  -0.14600 43.69100 22.70400
C  0.32700 43.40700 21.29700
C  1.76000 43.78700 21.33000
C  2.02900 43.79300 22.82400
C  0.07700 41.98100 20.80400
C  1.95700 45.23000 20.70000
C  1.86500 46.54100 21.58200
N  2.78300 43.42400 25.64800
C  3.71800 43.59500 24.66500
C  5.05900 43.36700 25.22300
C  4.83500 43.18400 26.62100
C  3.39500 43.18800 26.84000
C  6.45700 43.51400 24.58400
C  5.44000 42.91800 27.93800
O  6.62500 42.88200 28.24900
C  4.26000 42.92000 28.96800
C  4.39000 41.74800 29.95100
O  4.44900 40.55600 29.79100
O  4.51300 42.30600 31.14600
C  5.14400 41.49700 32.18700
H  -2.62800 42.62900 28.63000
H  -2.20900 43.34600 22.24400
H  4.12000 43.88700 22.66600
H  1.52300 41.96100 30.72200
H  -1.04800 43.48200 30.24200
H  -1.85800 41.80900 31.38800
H  -0.34900 40.95700 31.47800
H  -1.59700 40.72300 30.07100
H  0.79400 44.98700 30.87000
H  2.33500 44.60700 30.41900
H  1.20200 44.95500 32.89000
H  2.72000 44.23700 32.84700
H  -5.27400 43.90000 27.05000
H  -4.52400 42.57500 27.94400
H  -5.53000 42.13100 26.60100
H  -6.27400 42.63200 24.64200
H  -6.84600 43.73000 23.48300
H  -6.33500 44.44800 24.88700
H  -0.35100 43.94800 20.63700
H  2.52800 43.14800 20.89500
H  0.84300 41.51300 20.18700
H  -0.88500 41.96100 20.29200
H  -0.07500 41.41000 21.72000
H  1.41400 45.22900 19.75500
H  2.98100 45.23300 20.32700
H  2.85500 46.71600 22.00500
H  1.11300 46.51600 22.37000
H  1.66600 47.39200 20.93000
H  6.42200 43.13400 23.56300
H  7.29600 43.03200 25.08400
H  6.71600 44.57300 24.57200
H  4.39700 43.81000 29.58200
H  5.76700 42.09900 32.84800
H  5.74400 40.67800 31.79200
H  4.36000 41.11300 32.83800

