79

Mg 29.88200 58.02900 40.98300
C  27.00600 56.28300 40.08300
C  31.72400 55.68700 39.42500
C  32.49600 60.22300 41.21700
C  27.70300 60.74200 41.94300
N  29.34200 56.26800 39.85100
C  28.17300 55.63800 39.65500
C  28.25400 54.37600 38.69400
C  29.79600 54.08000 38.90400
C  30.33800 55.44100 39.36200
C  30.17900 52.88600 39.75900
C  27.84100 54.77300 37.24000
C  26.95100 53.67400 36.69200
H  26.96900 53.49300 35.12300
N  31.92200 57.86600 40.64300
C  32.44100 56.83200 39.92400
C  33.79500 57.13100 39.69200
C  34.04200 58.40200 40.18600
C  32.76800 58.90700 40.73300
C  34.75800 56.27800 38.88100
C  35.46300 58.98600 40.15200
O  36.41300 58.37300 39.69400
C  35.90800 60.19100 40.92600
N  30.11700 60.16900 41.53300
C  31.28600 60.80900 41.53200
C  31.12500 62.31400 42.02300
C  29.65700 62.38100 42.50400
C  29.12300 61.05700 41.97500
C  32.19500 62.69500 43.03300
C  28.95500 63.70300 42.09800
C  27.89300 64.17100 43.13000
N  27.84400 58.46700 41.14900
C  27.11200 59.54900 41.64200
C  25.69300 59.25400 41.57200
C  25.64000 57.99400 40.97500
C  26.95500 57.54500 40.75600
C  24.51800 60.11500 42.02700
C  24.70500 57.11400 40.39400
O  23.53800 57.29800 40.16800
C  25.51900 55.80400 39.96600
C  25.11700 54.64700 40.78800
O  25.71300 54.22300 41.73700
O  23.97100 54.12600 40.23800
C  23.57500 52.82000 40.63100
H  32.26500 54.82700 39.02600
H  33.41800 60.80300 41.29600
H  27.15300 61.62800 42.26500
H  27.50400 53.63300 38.96500
H  30.21500 54.01400 37.90000
H  29.33000 52.21700 39.61400
H  30.48300 53.10600 40.78300
H  31.00000 52.34000 39.29400
H  28.71200 54.87200 36.59100
H  27.30900 55.72400 37.26000
H  25.94400 53.66800 37.10800
H  27.42400 52.77600 37.09000
H  34.24500 55.51800 38.29100
H  35.46400 55.70600 39.48300
H  35.19800 56.96600 38.16000
H  35.48000 60.22600 41.92800
H  35.68900 61.11300 40.38700
H  36.93500 60.06500 41.27100
H  31.14400 62.91900 41.11600
H  29.64000 62.23500 43.58400
H  31.97300 63.53700 43.68800
H  33.22100 62.86800 42.70700
H  32.38500 61.84000 43.68100
H  28.51100 63.72100 41.10300
H  29.74700 64.44500 42.20000
H  28.32400 64.96200 43.74400
H  27.60800 63.29900 43.71900
H  27.05300 64.61500 42.59600
H  24.64500 61.17800 41.82400
H  24.32400 60.19500 43.09600
H  23.61800 59.70400 41.56900
H  25.30200 55.48300 38.94700
H  24.48700 52.23100 40.73700
H  22.83100 52.32400 40.00800
H  23.19000 52.84000 41.65000

