79

Mg 50.26500 35.05400 26.65600
C  47.98000 33.77100 29.09500
C  50.07900 38.04300 28.19600
C  51.66200 36.47600 23.89100
C  49.94500 31.98300 24.75200
N  49.43800 35.72300 28.54700
C  48.46800 35.08800 29.35400
C  48.19100 35.90200 30.65500
C  48.71200 37.33200 30.22400
C  49.46100 37.03500 28.90600
C  47.48300 38.34300 30.10800
C  49.00700 35.24000 31.79300
C  48.28000 34.96100 33.17000
H  47.99400 36.18700 34.06400
N  51.10200 36.98700 26.24600
C  50.90100 38.06000 27.03200
C  51.58700 39.16800 26.37900
C  52.09400 38.66200 25.08800
C  51.60300 37.28100 25.04900
C  51.91200 40.45900 27.13600
C  53.09400 39.27700 24.06500
O  53.58100 38.56000 23.15000
C  53.60500 40.67700 24.11000
N  50.69100 34.29700 24.63400
C  51.32100 35.14200 23.73800
C  51.77500 34.40300 22.39300
C  51.50800 32.92700 22.77300
C  50.65000 32.98900 24.12800
C  50.92800 34.93800 21.19100
C  52.67400 31.90000 22.86500
C  54.11800 32.38500 23.29400
N  49.26500 33.22800 26.86300
C  49.19100 32.07200 26.00800
C  48.29600 31.19700 26.59300
C  47.73800 31.83800 27.72400
C  48.43500 33.02400 27.92500
C  47.81700 29.88200 26.02000
C  46.83700 31.69000 28.76800
O  46.18000 30.70300 29.08800
C  46.98100 32.95500 29.77200
C  47.28700 32.41200 31.12300
O  48.39100 31.86300 31.41400
O  46.25400 32.47600 32.00600
C  46.48100 31.84600 33.27200
H  49.89100 39.00600 28.67500
H  52.07600 36.81900 22.94100
H  49.87700 31.07800 24.14500
H  47.13500 35.90100 30.92600
H  49.42100 37.76000 30.93300
H  47.66600 38.54100 29.05100
H  47.58900 39.24500 30.71100
H  46.49400 37.93500 30.31300
H  49.75000 35.98500 32.07600
H  49.48100 34.34500 31.38900
H  48.96800 34.26400 33.64700
H  47.34500 34.48700 32.86900
H  51.31500 40.52600 28.04500
H  51.69200 41.34700 26.54200
H  52.97200 40.23000 27.24500
H  54.15300 40.85500 25.03500
H  52.82900 41.44200 24.12000
H  54.33000 40.76100 23.30100
H  52.78100 34.70700 22.10400
H  50.87300 32.52400 21.98300
H  50.25200 34.14300 20.87600
H  51.49200 35.33700 20.34800
H  50.17800 35.58300 21.64900
H  52.71000 31.36500 21.91600
H  52.46900 31.15700 23.63500
H  54.20600 33.47100 23.27600
H  54.84100 31.84100 22.68700
H  54.29100 32.06300 24.32100
H  48.14900 29.11100 26.71500
H  48.26900 29.66600 25.05200
H  46.73600 29.84000 25.88200
H  46.05300 33.52000 29.86600
H  45.50200 31.63400 33.70100
H  47.07300 32.59400 33.79900
H  47.09100 30.95200 33.14100

