79

Mg -2.02200 16.91600 26.71800
C  -2.69500 14.75300 29.46000
C  -2.29700 19.59800 28.96300
C  -1.97900 18.97500 24.05400
C  -1.93200 14.10300 24.58400
N  -2.41700 17.10400 28.99800
C  -2.69100 16.10500 29.88900
C  -3.04900 16.66400 31.26000
C  -2.85400 18.23000 31.02300
C  -2.44600 18.36500 29.59500
C  -4.08700 19.09100 31.41000
C  -2.14800 16.03700 32.44600
C  -1.59100 16.87500 33.57000
H  -1.65800 16.30200 34.99600
N  -1.98500 18.98900 26.52700
C  -2.12300 19.87700 27.58700
C  -2.17200 21.18200 27.03100
C  -1.98700 21.14300 25.64800
C  -2.03600 19.66000 25.32700
C  -2.52700 22.43600 27.78200
C  -1.86700 22.18900 24.51500
O  -1.77400 21.97600 23.31500
C  -1.72000 23.64700 24.93100
N  -2.18500 16.61000 24.67600
C  -2.04700 17.61600 23.77700
C  -1.79000 16.99100 22.38000
C  -1.45900 15.51500 22.62700
C  -2.04900 15.36100 24.02300
C  -3.02100 17.18500 21.46500
C  0.10200 15.14000 22.55600
C  1.16000 15.96400 23.30500
N  -2.31600 14.85500 26.94400
C  -2.24600 13.80100 25.98300
C  -2.50100 12.52300 26.62300
C  -2.62100 12.83900 28.01100
C  -2.49300 14.25400 28.16900
C  -2.70500 11.21700 25.89700
C  -2.92200 12.22000 29.31900
O  -3.18900 11.10300 29.76200
C  -2.87100 13.49500 30.31300
C  -1.60600 13.22600 31.01600
O  -0.46500 13.41900 30.56800
O  -1.81800 12.70800 32.25700
C  -0.61700 12.61800 33.14700
H  -2.32700 20.50700 29.56700
H  -1.90500 19.64700 23.19600
H  -1.73200 13.22800 23.96200
H  -4.06500 16.33500 31.47800
H  -1.99700 18.49600 31.64100
H  -4.70200 18.47700 32.06700
H  -4.58600 19.47700 30.52100
H  -3.71000 19.91100 32.02100
H  -1.29800 15.55400 31.96400
H  -2.75100 15.23200 32.86500
H  -2.26700 17.72900 33.60500
H  -0.66100 17.35000 33.25500
H  -1.96100 23.30600 27.44700
H  -2.16600 22.31900 28.80500
H  -3.57900 22.66200 27.60800
H  -2.68000 23.86400 25.39900
H  -1.57300 24.25900 24.04100
H  -0.85800 23.75600 25.59000
H  -0.95500 17.44200 21.84300
H  -1.93500 14.91900 21.84800
H  -3.72500 17.82400 21.99800
H  -3.57900 16.26900 21.26800
H  -2.69900 17.62800 20.52300
H  0.34400 15.09300 21.49400
H  0.29500 14.11600 22.87600
H  1.68500 15.22300 23.90800
H  0.57700 16.71300 23.84000
H  1.89600 16.39400 22.62600
H  -1.70900 10.93200 25.55700
H  -3.18900 11.36000 24.93100
H  -3.15200 10.47800 26.56200
H  -3.77600 13.52100 30.91900
H  0.18600 13.31700 32.91300
H  -0.18300 11.62100 33.07800
H  -0.86100 12.80900 34.19200

