79

Mg 48.78300 45.62900 42.72300
C  45.53400 46.19800 41.81400
C  48.42600 42.45300 41.13800
C  52.20000 45.29800 42.64500
C  49.28000 48.99100 43.41000
N  47.25200 44.55100 41.45800
C  45.96300 45.01800 41.20000
C  45.16100 44.09400 40.25800
C  45.94400 42.77000 40.51700
C  47.27700 43.26400 41.07000
C  45.26000 41.70900 41.47000
C  45.15100 44.60600 38.77300
C  43.76500 44.55100 38.10000
H  43.70300 44.30800 36.61700
N  50.14500 43.98700 42.24100
C  49.73300 42.80300 41.64600
C  50.90100 41.96800 41.60400
C  52.02100 42.68100 42.10900
C  51.46100 44.07200 42.38200
C  50.81300 40.59000 41.18900
C  53.44900 42.30100 42.23200
O  53.69100 41.15800 41.92500
C  54.57000 43.18200 42.88400
N  50.47200 46.94900 43.08800
C  51.80100 46.55700 42.95900
C  52.78200 47.70500 43.01300
C  51.80300 48.87900 43.33200
C  50.44500 48.27300 43.21400
C  53.96300 47.54500 43.98100
C  51.97300 50.16500 42.49200
C  51.54500 51.45100 43.22300
N  47.65100 47.22000 42.88500
C  47.92400 48.53700 43.30400
C  46.69200 49.27200 43.45800
C  45.73700 48.36400 42.82500
C  46.36500 47.16500 42.54300
C  46.51600 50.55800 43.80500
C  44.32100 48.21200 42.46600
O  43.36400 49.00700 42.72700
C  44.17300 46.83500 41.75900
C  42.99400 46.08100 42.21900
O  42.19500 45.61000 41.40100
O  42.93600 45.94600 43.53300
C  41.68700 45.24800 43.97300
H  48.16000 41.44800 40.80300
H  53.28900 45.22800 42.62500
H  49.36200 50.06300 43.60300
H  44.14700 43.85700 40.58100
H  46.11100 42.30800 39.54400
H  44.78500 40.96400 40.83100
H  44.55400 42.22300 42.12300
H  45.96200 41.24700 42.16500
H  45.70600 43.94100 38.11200
H  45.50700 45.63700 38.76800
H  43.43700 45.55900 38.35200
H  43.11400 43.81300 38.57000
H  51.29700 40.44800 40.22300
H  49.82400 40.17600 40.99100
H  51.29400 40.01900 41.98300
H  54.92700 43.94300 42.19000
H  55.39400 42.50200 43.10000
H  54.22100 43.63900 43.81000
H  53.15700 48.08300 42.06300
H  51.83700 49.26100 44.35200
H  54.02100 46.63000 44.57000
H  54.14200 48.45700 44.55100
H  54.87300 47.51200 43.38100
H  51.33500 50.25500 41.61300
H  53.00500 50.37500 42.21400
H  50.73400 51.93000 42.67300
H  52.30200 52.23100 43.31000
H  51.15600 51.25900 44.22300
H  46.46400 50.52900 44.89400
H  45.49100 50.84500 43.56900
H  47.28200 51.16900 43.32700
H  43.92900 47.18500 40.75600
H  41.39800 44.43400 43.30800
H  40.87300 45.97200 43.94300
H  41.78800 44.79700 44.96000

