79

Mg -11.34100 18.01200 42.60600
C  -8.15200 16.51000 41.92000
C  -9.74500 21.02100 41.81100
C  -14.28300 19.38000 42.47100
C  -12.80600 14.84200 42.49800
N  -9.26800 18.57500 41.87700
C  -8.14000 17.86300 41.67700
C  -6.86100 18.66900 41.29000
C  -7.39900 20.08100 41.66500
C  -8.90400 19.90000 41.87900
C  -6.73200 20.98000 42.71800
C  -6.49100 18.43300 39.82800
C  -4.94400 18.42600 39.52900
H  -4.28400 18.80500 38.23800
N  -11.91200 20.02100 42.42200
C  -11.17900 21.10900 41.99700
C  -12.09500 22.18700 41.68300
C  -13.42900 21.80900 42.04000
C  -13.30700 20.34300 42.36600
C  -11.58000 23.49100 41.13300
C  -14.61000 22.70800 42.11900
O  -14.49100 23.92400 42.08700
C  -15.97500 22.18300 42.57600
N  -13.31600 17.17800 42.43000
C  -14.32600 17.99100 42.60800
C  -15.58800 17.26300 42.67700
C  -15.14400 15.75300 42.73800
C  -13.63600 15.88600 42.35000
C  -16.46300 17.60100 43.94900
C  -15.92500 14.71500 41.89900
C  -15.78900 14.81700 40.36800
N  -10.67200 16.03000 42.36300
C  -11.37200 14.87200 42.34100
C  -10.47500 13.71100 42.22600
C  -9.20200 14.33800 42.11700
C  -9.35300 15.74500 42.11900
C  -10.88300 12.26700 42.11300
C  -7.79800 14.05600 42.12600
O  -7.21900 13.00900 42.14000
C  -7.06400 15.49800 41.72100
C  -5.92600 15.66900 42.74700
O  -4.71700 15.75100 42.52900
O  -6.49300 15.91000 43.91400
C  -5.59800 16.45000 44.93800
H  -9.13300 21.87200 41.50500
H  -15.31300 19.71700 42.34100
H  -13.27900 13.86000 42.56500
H  -6.05700 18.38500 41.96900
H  -7.38900 20.73200 40.79100
H  -7.43600 21.37000 43.45300
H  -6.28700 21.87300 42.27800
H  -5.94000 20.36300 43.14200
H  -6.84600 19.13500 39.07400
H  -6.90800 17.53800 39.36700
H  -4.44600 17.51700 39.86800
H  -4.58200 19.17400 40.23500
H  -12.40200 23.77200 40.47400
H  -10.73700 23.48600 40.44200
H  -11.44300 24.29300 41.85800
H  -16.50500 21.61500 41.81300
H  -16.52400 23.09100 42.82900
H  -15.77500 21.69900 43.53200
H  -16.29100 17.32400 41.84600
H  -15.22100 15.55600 43.80700
H  -16.64000 16.77500 44.63900
H  -17.38500 18.13100 43.70800
H  -15.87800 18.26100 44.58900
H  -16.99400 14.74000 42.11200
H  -15.62400 13.72800 42.25000
H  -15.22800 13.98600 39.94100
H  -15.19800 15.70800 40.15700
H  -16.78500 14.88400 39.93000
H  -10.17800 11.55000 42.53200
H  -10.88300 12.14200 41.03000
H  -11.93800 12.21800 42.38400
H  -6.65400 15.50400 40.71100
H  -6.27900 16.60900 45.77400
H  -5.31100 17.44200 44.58900
H  -4.82400 15.81400 45.36600

