79

Mg 47.06700 24.70100 28.71200
C  47.64000 27.01900 31.24500
C  45.99300 22.44700 31.15500
C  46.51400 22.44000 26.38500
C  48.69600 26.69600 26.37800
N  46.84100 24.75900 31.01200
C  47.06700 25.81400 31.80700
C  46.69100 25.49300 33.28500
C  46.32600 23.98300 33.24000
C  46.38500 23.67900 31.73000
C  47.17000 23.10100 34.17200
C  45.53800 26.43100 33.71400
C  45.92800 27.27000 34.94000
H  46.55000 26.54500 36.28000
N  46.25900 22.80800 28.77900
C  45.85100 22.05600 29.86000
C  45.24500 20.77300 29.38200
C  45.43200 20.74800 27.97600
C  46.00000 22.04400 27.60600
C  44.90400 19.64300 30.26500
C  45.18900 19.55000 26.98600
O  45.41600 19.58800 25.82100
C  44.80200 18.15700 27.44400
N  47.53100 24.60900 26.59700
C  47.24200 23.46000 25.93100
C  47.61400 23.64000 24.47900
C  48.35500 25.01300 24.51800
C  48.30400 25.43600 25.91900
C  48.33900 22.48000 23.71700
C  47.77900 26.13600 23.56700
C  46.35800 26.74300 23.88700
N  47.95800 26.47000 28.73200
C  48.57400 27.24800 27.70800
C  48.98200 28.53800 28.28700
C  48.72900 28.44000 29.64600
C  48.03400 27.19800 29.87700
C  49.66700 29.64000 27.50400
C  48.85700 29.15900 30.91100
O  49.36300 30.24200 31.22600
C  48.15000 28.27500 31.92900
C  49.22700 27.88900 32.96900
O  50.00600 26.90300 32.80600
O  49.16800 28.70200 34.08600
C  49.97300 28.18300 35.25400
H  45.67900 21.75800 31.94200
H  46.31400 21.73400 25.57700
H  49.27300 27.27200 25.65100
H  47.67200 25.66300 33.72800
H  45.31500 23.60200 33.38300
H  47.69700 22.22600 33.79100
H  46.46800 22.76200 34.93400
H  47.89500 23.75600 34.65400
H  44.50100 26.09600 33.71900
H  45.46800 27.16700 32.91300
H  44.95600 27.71800 35.14600
H  46.54500 28.12900 34.67800
H  45.62000 18.85000 30.05200
H  43.84500 19.40400 30.16200
H  45.12600 19.84300 31.31300
H  44.66200 17.43400 26.64000
H  43.85400 18.18900 27.98000
H  45.59200 17.77400 28.09000
H  46.69600 23.90100 23.95200
H  49.39400 24.91800 24.20100
H  49.14500 22.88600 23.10600
H  47.64900 22.01200 23.01600
H  48.77600 21.80800 24.45600
H  47.65700 25.63500 22.60700
H  48.58400 26.86700 23.48900
H  45.87900 26.51900 24.84000
H  45.73200 26.55300 23.01500
H  46.41800 27.82800 23.80900
H  50.70200 29.76300 27.82500
H  49.14500 30.55500 27.78300
H  49.59700 29.49800 26.42500
H  47.43900 28.88100 32.49000
H  49.58100 27.21600 35.56700
H  50.13200 28.95200 36.01000
H  50.95300 27.88900 34.87700

