79

Mg 42.74700 41.92000 25.97000
C  41.83400 44.21300 28.43500
C  43.82700 39.82700 28.29700
C  43.43400 39.83500 23.44500
C  42.05600 44.42400 23.65400
N  42.74400 42.09200 28.15000
C  42.22900 42.99300 28.94100
C  42.37700 42.68800 30.43400
C  43.27900 41.39400 30.35200
C  43.26800 41.03000 28.86100
C  44.73400 41.64600 30.87200
C  41.01100 42.34300 31.14000
C  41.13400 41.86300 32.63000
H  40.36000 42.54900 33.76200
N  43.47100 40.06200 25.88400
C  43.86500 39.31000 26.93900
C  44.31600 38.02400 26.56600
C  44.07700 37.90000 25.13600
C  43.61500 39.29500 24.73100
C  44.73400 36.98000 27.60600
C  44.21200 36.74500 24.20900
O  44.08200 36.76000 22.95300
C  44.50100 35.37100 24.82600
N  42.77700 42.10700 23.81200
C  43.07600 41.11200 22.95600
C  42.85700 41.40200 21.44900
C  42.14800 42.80400 21.63700
C  42.36800 43.18500 23.09600
C  44.18000 41.33100 20.57700
C  40.67100 42.72200 21.17500
C  39.73600 41.71900 21.87000
N  42.25300 44.00900 25.97500
C  41.99300 44.83200 24.94000
C  41.48200 46.05400 25.39600
C  41.42800 45.89600 26.79000
C  41.80500 44.60400 27.09500
C  41.06700 47.24400 24.52500
C  41.00100 46.53800 28.06000
O  40.53700 47.60400 28.30900
C  41.24500 45.43700 29.17300
C  42.20800 45.96900 30.18600
O  43.41800 45.77600 30.29200
O  41.48600 46.67200 31.08400
C  41.80900 46.34200 32.44800
H  44.26000 39.20600 29.08400
H  43.60400 39.14300 22.61800
H  41.86700 45.12800 22.84000
H  42.76200 43.55500 30.97100
H  42.91600 40.61700 31.02500
H  44.90700 42.72200 30.89000
H  45.54100 41.26600 30.24600
H  44.83700 41.31500 31.90500
H  40.47300 41.55600 30.61100
H  40.48700 43.29700 31.17600
H  42.14800 41.74900 33.01300
H  40.71100 40.86600 32.50800
H  44.08000 36.11400 27.50500
H  44.62300 37.36200 28.62100
H  45.77800 36.66800 27.64500
H  45.20400 35.53600 25.64300
H  44.98200 34.70700 24.10700
H  43.55700 34.97300 25.19800
H  42.09300 40.72200 21.07300
H  42.66600 43.53700 21.01900
H  45.07000 41.15900 21.18100
H  44.33900 42.29200 20.08600
H  44.07600 40.68300 19.70600
H  40.71900 42.34600 20.15200
H  40.32200 43.75400 21.17100
H  38.94400 42.20600 22.44000
H  40.30000 41.03200 22.50100
H  39.30600 41.10500 21.07900
H  40.45000 46.93100 23.68400
H  42.00700 47.69300 24.20300
H  40.61700 47.98900 25.18100
H  40.28900 45.23500 29.65600
H  40.93500 45.80600 32.82000
H  41.86700 47.27600 33.00700
H  42.75700 45.81300 32.54200

