79

Mg 24.37000 -5.09300 46.11900
C  25.89200 -2.18300 44.63800
C  21.71700 -4.36800 44.12600
C  23.25300 -8.04600 46.67500
C  27.48800 -5.87200 47.51800
N  23.83300 -3.25500 44.70500
C  24.63500 -2.40300 44.11200
C  23.96700 -1.52300 43.03500
C  22.48300 -2.15300 43.08300
C  22.61400 -3.31300 44.09500
C  21.53000 -1.03700 43.55200
C  24.70700 -1.65600 41.67700
C  25.39800 -0.37100 41.09500
H  25.51900 -0.34800 39.56100
N  22.59500 -6.04800 45.61000
C  21.66600 -5.64700 44.73700
C  20.59100 -6.60600 44.65900
C  21.08500 -7.79700 45.27500
C  22.35100 -7.35200 45.90900
C  19.29600 -6.38200 43.80300
C  20.54400 -9.15800 45.22100
O  19.50300 -9.43000 44.68000
C  21.14300 -10.38400 45.78400
N  25.26800 -6.72900 46.96800
C  24.53900 -7.85400 47.16100
C  25.33300 -8.82200 47.95000
C  26.65600 -8.12500 48.33000
C  26.43600 -6.83700 47.61700
C  24.59200 -9.46100 49.12500
C  27.97100 -8.89300 47.94500
C  29.12000 -8.92300 49.02600
N  26.36500 -4.16200 46.28400
C  27.44900 -4.59600 46.87200
C  28.49800 -3.66200 46.78700
C  27.95800 -2.72900 45.82500
C  26.62700 -3.07900 45.53700
C  29.86800 -3.80100 47.30500
C  28.26800 -1.59300 45.11500
O  29.33500 -0.97100 45.19500
C  26.99600 -1.19000 44.21100
C  26.70200 0.27200 44.62500
O  25.83700 0.67100 45.40500
O  27.24300 1.10400 43.67200
C  26.67900 2.42000 43.51300
H  20.86700 -4.16000 43.47300
H  22.83700 -9.03200 46.89300
H  28.39400 -6.24100 48.00200
H  23.94700 -0.47000 43.31700
H  22.33400 -2.53900 42.07400
H  21.14700 -0.50600 42.68000
H  22.06500 -0.31400 44.16700
H  20.75300 -1.46400 44.18700
H  23.98800 -1.98600 40.92600
H  25.48100 -2.42200 41.72500
H  26.37700 -0.10600 41.49500
H  24.71200 0.41400 41.41400
H  18.42800 -6.87800 44.23700
H  19.34400 -6.69700 42.76100
H  18.86000 -5.38300 43.78800
H  20.52900 -11.28200 45.70400
H  21.32700 -10.17100 46.83700
H  22.09100 -10.60100 45.29300
H  25.55700 -9.59100 47.21100
H  26.76600 -7.80100 49.36500
H  23.73000 -8.86100 49.41500
H  25.28400 -9.46100 49.96700
H  24.28400 -10.47000 48.85100
H  28.50600 -8.50300 47.07900
H  27.67600 -9.94100 47.90300
H  30.09000 -8.73700 48.56400
H  29.14800 -9.84400 49.60700
H  29.10400 -8.10000 49.74100
H  30.22100 -2.77400 47.39800
H  30.35800 -4.32800 46.48600
H  29.88500 -4.46200 48.17100
H  27.23400 -1.25300 43.14900
H  27.52800 3.09200 43.38700
H  26.16500 2.95300 44.31300
H  26.00700 2.33500 42.65900

