79

Mg 46.75500 24.65100 27.99700
C  48.11000 27.04100 30.42200
C  45.99900 22.63800 30.80100
C  45.81700 22.44200 25.88300
C  47.84600 26.88100 25.55400
N  46.88300 24.97200 30.37000
C  47.49000 25.99000 31.07400
C  47.29000 25.73700 32.61000
C  46.69200 24.32300 32.67400
C  46.44600 23.92800 31.18700
C  47.50900 23.19100 33.44900
C  46.46500 26.88700 33.23800
C  45.78900 26.65200 34.68200
H  46.25700 27.58200 35.86500
N  46.12300 22.70300 28.27700
C  45.82900 22.08200 29.44500
C  45.29000 20.73700 29.12600
C  45.24500 20.66700 27.75100
C  45.65100 21.97100 27.22800
C  45.08900 19.75600 30.19700
C  44.85500 19.51100 26.92500
O  44.80100 19.56200 25.70000
C  44.38900 18.28000 27.52100
N  47.05800 24.57900 25.99500
C  46.40900 23.59200 25.29800
C  46.61500 23.71400 23.80300
C  47.02300 25.29600 23.76500
C  47.31600 25.64100 25.21700
C  47.63600 22.70400 23.22800
C  45.87000 26.07400 23.07500
C  46.06100 27.56800 22.74000
N  47.71700 26.58600 27.89000
C  48.18300 27.28400 26.82400
C  48.89000 28.46800 27.28000
C  48.96800 28.39000 28.66900
C  48.23900 27.22900 29.04600
C  49.62400 29.45200 26.37200
C  49.37000 29.09600 29.87000
O  50.09200 30.11100 30.03900
C  48.71100 28.24600 31.06900
C  49.88000 27.95100 31.92100
O  50.79600 27.16900 31.73400
O  49.70800 28.71900 33.02900
C  50.47000 28.48300 34.30800
H  45.85100 22.06600 31.72000
H  45.56000 21.69400 25.13000
H  48.25000 27.53300 24.77700
H  48.24600 25.86300 33.11800
H  45.79100 24.21200 33.27700
H  46.91200 22.87300 34.30400
H  48.51700 23.56300 33.63700
H  47.75400 22.34800 32.80400
H  45.68500 27.21500 32.55000
H  47.05600 27.75400 33.53600
H  45.92600 25.60400 34.94800
H  44.77800 26.89400 34.35700
H  44.07200 19.39700 30.35600
H  45.36100 20.11100 31.19100
H  45.77800 18.91800 30.09400
H  44.96600 17.88900 28.36000
H  44.21200 17.49300 26.78800
H  43.48300 18.68700 27.97000
H  45.64400 23.64600 23.31300
H  47.91300 25.35100 23.13800
H  48.27300 22.22500 23.97200
H  48.10900 23.25000 22.41100
H  46.93600 21.93800 22.89500
H  45.03700 26.09900 23.77800
H  45.58000 25.57000 22.15300
H  47.14500 27.64900 22.65700
H  45.73200 28.20500 23.56100
H  45.54200 27.83900 21.82000
H  49.82400 29.06600 25.37200
H  50.58700 29.68700 26.82500
H  49.17100 30.44200 26.43400
H  48.01000 28.85200 31.64200
H  50.08400 27.59500 34.80900
H  50.22600 29.30000 34.98700
H  51.52700 28.56500 34.05600

