79

Mg 36.39300 49.62600 24.38200
C  36.49500 48.09600 27.50400
C  35.10000 52.42800 26.17000
C  35.60600 51.01400 21.52200
C  37.15500 46.62300 22.89700
N  35.83700 50.15400 26.58200
C  36.05500 49.39600 27.66300
C  35.78400 50.09600 29.02600
C  35.32000 51.56600 28.48600
C  35.38900 51.37000 26.99900
C  33.82200 51.90300 28.98700
C  37.01500 50.21000 29.92100
C  36.72800 49.69300 31.35600
H  35.27400 49.68800 31.95300
N  35.69100 51.56700 23.83700
C  35.27300 52.54200 24.73900
C  34.88900 53.71400 23.98900
C  34.99900 53.40200 22.58200
C  35.44700 51.93900 22.56800
C  34.27200 54.92700 24.66700
C  34.62700 54.17400 21.33300
O  34.68200 53.69500 20.16100
C  34.16900 55.53600 21.42400
N  36.26800 48.91600 22.49900
C  36.04100 49.71400 21.45400
C  36.32100 48.94500 20.13200
C  36.95600 47.62900 20.66800
C  36.76600 47.73200 22.14100
C  35.02300 48.76900 19.26200
C  38.40300 47.46800 20.18200
C  39.45500 48.52500 20.75100
N  36.87300 47.78300 24.96000
C  37.25200 46.62000 24.32700
C  37.73900 45.65000 25.20900
C  37.42300 46.18900 26.43900
C  36.89400 47.47400 26.29100
C  38.09600 44.22000 24.91000
C  37.36700 45.78000 27.87100
O  37.73000 44.74900 28.43700
C  36.85600 47.10200 28.59200
C  35.57800 46.64500 29.15800
O  34.47800 46.71100 28.62000
O  35.82300 45.90900 30.31100
C  34.64100 45.45900 30.98000
H  34.81100 53.28800 26.77800
H  35.33500 51.51800 20.59200
H  37.47100 45.74700 22.32700
H  34.93100 49.54900 29.42700
H  35.96400 52.35600 28.87400
H  33.41100 51.20500 29.71600
H  33.04300 51.96100 28.22700
H  33.87400 52.93500 29.33400
H  37.27400 51.25900 30.06100
H  37.89500 49.67000 29.57200
H  37.27600 50.25700 32.11200
H  37.09400 48.66600 31.37700
H  33.75200 54.55800 25.55100
H  33.59500 55.50300 24.03500
H  35.13000 55.50000 25.02000
H  34.82100 56.04400 22.13500
H  33.09900 55.52500 21.62900
H  34.16500 55.97200 20.42500
H  36.95700 49.63700 19.57900
H  36.40100 46.79500 20.23700
H  34.18000 49.40500 19.53000
H  34.75400 47.71900 19.15000
H  35.24800 49.04400 18.23200
H  38.50700 47.36800 19.10200
H  38.70100 46.44100 20.39300
H  40.02000 48.02100 21.53500
H  39.04100 49.50300 20.99900
H  40.14400 48.72900 19.93100
H  38.56000 44.16700 23.92500
H  37.17100 43.65200 24.81400
H  38.69500 43.72200 25.67300
H  37.45700 47.47800 29.41900
H  34.09200 44.70500 30.41600
H  33.99400 46.31100 31.19100
H  34.94500 45.13600 31.97600

