79

Mg 2.13000 -3.43800 45.32700
C  4.72900 -1.61100 44.12800
C  0.06200 -1.70400 43.09100
C  -0.33800 -5.69900 46.00700
C  4.42600 -5.59200 46.92400
N  2.44900 -1.97100 43.57600
C  3.58200 -1.27500 43.42400
C  3.38700 -0.02500 42.46400
C  1.86500 -0.06900 42.19300
C  1.42500 -1.35800 42.95000
C  1.08200 1.21000 42.63800
C  4.28300 -0.14500 41.17500
C  5.49400 0.78200 40.80700
H  5.50400 1.33700 39.37100
N  0.11600 -3.62700 44.77200
C  -0.53800 -2.73700 43.90400
C  -1.94900 -3.04400 43.92700
C  -2.07800 -4.23900 44.73500
C  -0.75500 -4.63800 45.16900
C  -3.01000 -2.27000 43.15600
C  -3.40200 -5.06300 44.95200
O  -4.42700 -4.77100 44.36400
C  -3.42300 -6.28300 45.92300
N  2.08000 -5.45800 46.28000
C  0.94600 -6.09600 46.51000
C  1.18200 -7.49100 47.20500
C  2.65100 -7.41500 47.45000
C  3.06900 -6.10000 46.86700
C  0.39800 -7.86200 48.50400
C  3.56000 -8.61900 47.01700
C  3.62900 -8.96300 45.56100
N  4.18200 -3.60200 45.57100
C  4.95900 -4.50000 46.29900
C  6.22700 -3.95700 46.36600
C  6.26000 -2.85100 45.47300
C  4.93000 -2.69700 45.01200
C  7.53500 -4.51500 46.98600
C  7.12700 -1.86800 44.90700
O  8.28000 -1.62800 44.99600
C  6.11900 -0.93400 44.03700
C  6.10200 0.40700 44.65000
O  5.50400 0.68200 45.65900
O  6.67300 1.37600 43.90600
C  6.43000 2.76500 44.18700
H  -0.62600 -1.07500 42.52100
H  -1.09200 -6.34200 46.46700
H  5.16900 -6.22300 47.41500
H  3.71400 0.88300 42.97000
H  1.62700 -0.20100 41.13700
H  0.72700 1.07200 43.65900
H  0.30300 1.50700 41.93500
H  1.81100 2.02000 42.60800
H  3.57900 -0.05300 40.34800
H  4.64100 -1.17400 41.14600
H  6.39500 0.20100 41.00300
H  5.52600 1.65200 41.46300
H  -2.69500 -1.49000 42.46300
H  -3.66900 -1.85200 43.91700
H  -3.64400 -2.94800 42.58500
H  -2.82200 -7.13000 45.59100
H  -4.44300 -6.64200 46.05800
H  -3.05700 -6.00500 46.91200
H  0.93100 -8.31600 46.53900
H  2.73500 -7.14200 48.50200
H  -0.25800 -7.08000 48.88700
H  1.15600 -8.14900 49.23300
H  -0.38700 -8.61700 48.47000
H  3.14700 -9.58000 47.32300
H  4.61800 -8.50400 47.25200
H  4.70000 -9.03900 45.37400
H  3.06600 -8.23800 44.97400
H  3.11300 -9.85600 45.20900
H  8.09500 -3.72700 47.49100
H  8.02500 -5.13600 46.23600
H  7.26100 -5.25400 47.73900
H  6.46400 -0.86900 43.00500
H  6.96100 3.38500 43.46500
H  6.82400 3.05900 45.16000
H  5.35600 2.90000 44.05700

