79

Mg 35.94100 48.99600 24.81900
C  36.23300 47.31400 27.95200
C  34.98700 51.81000 26.58900
C  35.33100 50.54600 21.96300
C  37.18600 46.20600 23.31000
N  35.50900 49.40100 27.03000
C  35.73400 48.60700 28.12900
C  35.42000 49.34200 29.41100
C  35.29100 50.75000 28.92700
C  35.23000 50.68900 27.39400
C  34.01000 51.53500 29.52400
C  36.46600 49.03700 30.49400
C  36.54800 49.94000 31.72200
H  35.25900 50.13800 32.56200
N  35.15200 50.91600 24.35300
C  34.86700 51.90800 25.15500
C  34.56300 53.12800 24.44200
C  34.52500 52.74000 23.08400
C  35.01500 51.35600 23.04800
C  34.39200 54.52100 25.06600
C  34.07400 53.55800 21.85100
O  34.03900 53.08100 20.72400
C  33.67700 54.99600 21.86100
N  36.14800 48.42600 22.89400
C  35.78600 49.24700 21.81400
C  36.24300 48.59400 20.49200
C  36.86100 47.23400 20.94600
C  36.74800 47.26300 22.44000
C  35.27000 48.49400 19.35200
C  38.27700 47.00600 20.23400
C  39.47900 47.41300 21.14900
N  36.66200 47.16000 25.44600
C  37.05800 46.12100 24.69800
C  37.47500 44.98600 25.51000
C  37.07100 45.40100 26.77500
C  36.65600 46.74500 26.70800
C  37.88500 43.66300 25.07700
C  36.97300 44.98900 28.15800
O  37.21400 43.93800 28.65800
C  36.45400 46.19200 28.96400
C  35.17400 45.83900 29.63500
O  34.08400 45.66200 29.10400
O  35.35300 45.62000 31.00300
C  34.18100 45.41200 31.86400
H  35.05500 52.77500 27.09600
H  35.42200 51.10300 21.02800
H  37.52100 45.31800 22.77000
H  34.49500 49.00200 29.87700
H  36.11200 51.38700 29.25700
H  34.20400 52.58900 29.72700
H  33.61200 51.01600 30.39600
H  33.18400 51.65400 28.82300
H  37.45100 48.74500 30.13000
H  36.16100 48.12300 31.00300
H  36.92200 50.92200 31.43300
H  37.29900 49.42300 32.31900
H  34.94000 55.32000 24.56700
H  34.65600 54.45300 26.12100
H  33.35200 54.84100 25.01100
H  33.15300 55.25400 22.78100
H  33.19200 55.22800 20.91300
H  34.68200 55.40400 21.75400
H  36.97900 49.29900 20.10700
H  36.16500 46.45800 20.62700
H  34.31500 48.90300 19.68200
H  35.10500 47.45200 19.07900
H  35.64200 48.94300 18.43200
H  38.41200 47.53200 19.28900
H  38.40700 45.94100 20.04000
H  40.26300 48.04600 20.73400
H  39.97600 46.50800 21.49700
H  39.08500 47.96500 22.00200
H  36.97200 43.08300 24.94400
H  38.51300 43.27900 25.88100
H  38.44000 43.73700 24.14200
H  37.13000 46.44900 29.77900
H  34.37900 44.49800 32.42200
H  33.23500 45.19900 31.36600
H  34.04200 46.28600 32.50100

