79

Mg 0.26500 43.39100 25.81200
C  2.31100 43.10200 28.84700
C  -2.36400 42.62100 27.81800
C  -1.47200 43.33200 23.12000
C  3.31700 43.88500 24.00500
N  0.05200 42.80100 28.13000
C  0.97800 42.87300 29.12000
C  0.27500 42.65600 30.42000
C  -1.16900 42.15400 30.02300
C  -1.17500 42.65900 28.58000
C  -1.50000 40.70300 30.22500
C  0.35300 43.99400 31.32200
C  0.68400 43.91900 32.84700
H  0.71500 42.50100 33.48200
N  -1.65200 42.99900 25.51100
C  -2.62800 42.64400 26.47500
C  -3.87900 42.52100 25.80900
C  -3.66200 42.83700 24.42700
C  -2.21500 43.03100 24.31500
C  -5.15900 42.30300 26.43700
C  -4.71000 42.91500 23.30700
O  -4.33100 42.97600 22.13200
C  -6.24800 42.70400 23.61900
N  0.84100 43.66900 23.87200
C  -0.11300 43.55700 22.91900
C  0.46000 43.75700 21.51700
C  2.01600 43.97600 21.77400
C  2.08000 43.90200 23.25700
C  0.26200 42.49000 20.53900
C  2.52600 45.33500 21.22700
C  2.01500 46.59500 21.87300
N  2.35600 43.41500 26.21400
C  3.42300 43.72700 25.36900
C  4.67200 43.73200 26.20200
C  4.26600 43.45200 27.50700
C  2.85400 43.35700 27.50400
C  6.04400 44.08800 25.64900
C  4.73800 43.50900 28.87700
O  5.85300 43.73000 29.27600
C  3.53600 43.12600 29.85400
C  3.67100 41.72500 30.33800
O  3.48500 40.69300 29.73200
O  4.01300 41.76500 31.68400
C  4.25300 40.44300 32.27200
H  -3.32500 42.45300 28.30800
H  -2.06700 43.29600 22.20400
H  4.28700 43.96300 23.51100
H  0.83300 41.89800 30.97000
H  -1.85100 42.79600 30.58000
H  -0.64000 40.11200 30.54000
H  -1.81700 40.12700 29.35500
H  -2.26000 40.52000 30.98500
H  -0.58000 44.53000 31.15000
H  1.15800 44.60200 30.91000
H  0.00700 44.56100 33.41100
H  1.59500 44.42800 33.16100
H  -5.21500 41.94200 27.46400
H  -5.56900 41.48600 25.84400
H  -5.86200 43.13600 26.41600
H  -6.63500 43.40300 24.36100
H  -6.34600 41.68400 23.98900
H  -6.72800 42.81400 22.64600
H  -0.00600 44.59600 21.00200
H  2.59100 43.12200 21.41700
H  -0.78900 42.54100 20.25500
H  0.41700 41.52800 21.02800
H  0.90500 42.57300 19.66300
H  2.36600 45.36800 20.14900
H  3.61200 45.42400 21.26900
H  1.87900 47.26800 21.02700
H  2.73800 47.00900 22.57600
H  1.06300 46.46200 22.38600
H  6.21300 43.66100 24.66000
H  6.80300 43.80900 26.38000
H  6.12100 45.16200 25.47400
H  3.53400 43.90700 30.61400
H  4.46400 39.65000 31.55500
H  3.36700 40.17900 32.85000
H  5.13300 40.57600 32.90200

