79

Mg -1.92000 35.04300 26.80500
C  -3.73800 33.24900 29.44900
C  -0.22100 36.80000 29.18800
C  -0.81200 37.12900 24.43800
C  -3.93000 33.41100 24.55600
N  -2.04100 35.08100 29.03900
C  -2.74900 34.27800 29.90600
C  -2.34300 34.59500 31.32000
C  -1.42700 35.81500 31.22300
C  -1.21000 35.94500 29.72500
C  -1.91100 37.07500 31.96800
C  -1.60900 33.33700 31.99600
C  -2.36700 32.71900 33.19300
H  -1.53100 32.28000 34.44400
N  -0.58600 36.63100 26.77900
C  0.02000 37.19100 27.85900
C  0.95500 38.21600 27.43200
C  0.82700 38.29500 26.07800
C  -0.26800 37.41700 25.71800
C  1.80300 38.98600 28.43100
C  1.50500 39.18700 25.16000
O  1.33400 39.34300 23.96800
C  2.59400 40.04800 25.78700
N  -2.31500 35.27100 24.78200
C  -1.74200 36.22400 23.98500
C  -2.21300 36.15100 22.55500
C  -3.10700 34.88700 22.51100
C  -3.18700 34.49600 24.05500
C  -2.94400 37.42300 22.07200
C  -2.61400 33.71300 21.66900
C  -1.18200 33.32200 21.96500
N  -3.50100 33.60000 26.88800
C  -4.13100 32.98700 25.90800
C  -4.97200 31.91700 26.45000
C  -4.87100 32.00400 27.85000
C  -3.98800 33.01000 28.08700
C  -5.67700 30.95900 25.55500
C  -5.34300 31.46300 29.16900
O  -6.16100 30.59900 29.42300
C  -4.65000 32.36400 30.29000
C  -5.72200 33.08300 30.95600
O  -6.25900 34.07200 30.58600
O  -6.12200 32.40900 32.07200
C  -7.13600 33.12400 32.84800
H  0.33400 37.30500 29.98200
H  -0.37700 37.65700 23.58600
H  -4.43200 32.71400 23.88300
H  -3.21200 34.87100 31.91700
H  -0.40200 35.56400 31.49500
H  -2.62800 36.78100 32.73400
H  -2.53600 37.63000 31.26800
H  -1.17600 37.77100 32.37300
H  -0.55100 33.39900 32.25100
H  -1.53200 32.63000 31.17000
H  -2.81900 31.79700 32.82800
H  -3.21100 33.32900 33.51300
H  2.86800 38.97200 28.19900
H  1.89800 38.41800 29.35700
H  1.51200 40.02600 28.57600
H  2.20800 40.63700 26.61800
H  3.06100 40.69700 25.04700
H  3.46300 39.52100 26.18300
H  -1.31400 36.08100 21.94300
H  -4.15800 35.04000 22.26500
H  -2.87200 38.12800 22.90000
H  -4.00500 37.25800 21.88100
H  -2.41300 37.79700 21.19700
H  -2.68300 33.97600 20.61400
H  -3.28500 32.88000 21.88000
H  -1.00300 32.29800 22.29200
H  -0.87300 34.00300 22.75800
H  -0.62600 33.55600 21.05700
H  -5.94100 30.02500 26.05200
H  -4.99000 30.81500 24.72100
H  -6.56000 31.48000 25.18500
H  -4.05000 31.70300 30.91600
H  -6.77300 33.89400 33.52900
H  -7.64500 32.35900 33.43600
H  -7.93200 33.49600 32.20500

