79

Mg 47.72200 15.68300 28.80600
C  45.10900 15.61000 31.22700
C  49.75400 16.97800 31.16500
C  49.85600 16.25300 26.33900
C  45.31200 14.59700 26.37900
N  47.37100 16.37800 30.95000
C  46.28800 16.16500 31.73000
C  46.62300 16.44400 33.14800
C  48.01300 17.20100 33.08700
C  48.43400 16.87400 31.60100
C  48.07000 18.64100 33.41000
C  46.56100 15.09100 34.00200
C  45.91300 15.27700 35.37300
H  45.75400 16.70000 36.01400
N  49.51400 16.53600 28.80700
C  50.23400 16.93000 29.85500
C  51.66900 17.13500 29.47000
C  51.69700 16.89800 28.07000
C  50.31500 16.64500 27.65200
C  52.74900 17.53000 30.53200
C  52.90100 16.87500 27.08900
O  52.73700 16.79800 25.85000
C  54.32300 17.17500 27.51200
N  47.49600 15.66000 26.59200
C  48.64500 15.80800 25.82200
C  48.28800 15.62100 24.37500
C  46.89000 14.98800 24.37000
C  46.50800 15.09300 25.88100
C  48.35400 16.89700 23.53500
C  46.78200 13.50600 23.80600
C  45.60700 13.25900 22.85500
N  45.66600 15.17000 28.74400
C  44.81800 14.72700 27.73800
C  43.50800 14.30500 28.25900
C  43.56200 14.65800 29.67200
C  44.89100 15.19700 29.91400
C  42.39700 13.79800 27.35400
C  42.78200 14.62700 30.91300
O  41.58300 14.35000 31.03400
C  43.85900 15.22600 31.97800
C  43.16100 16.36100 32.58900
O  43.26300 17.51100 32.18500
O  42.40400 15.95500 33.62900
C  41.73300 16.89100 34.48600
H  50.59400 17.22700 31.81700
H  50.55600 16.25900 25.50100
H  44.65100 14.10900 25.66000
H  45.78600 17.09600 33.39700
H  48.64900 16.74600 33.84600
H  47.14200 19.16100 33.64500
H  48.59000 19.20400 32.63400
H  48.70300 18.74600 34.29100
H  47.59800 14.80900 34.18300
H  46.09300 14.31300 33.39800
H  46.38000 14.59000 36.07900
H  44.97400 14.72400 35.34600
H  53.31700 18.31400 30.03000
H  53.34100 16.65200 30.79000
H  52.36900 18.02500 31.42600
H  54.87900 17.30400 26.58300
H  54.62000 16.25700 28.02000
H  54.35400 18.09700 28.09200
H  49.00300 14.86000 24.06300
H  46.20500 15.59300 23.77700
H  47.39800 17.42000 23.51700
H  48.44900 16.48900 22.52900
H  49.19200 17.57900 23.68000
H  46.86900 12.69400 24.52700
H  47.63800 13.33200 23.15500
H  45.04800 12.33400 22.99700
H  45.99800 13.20500 21.83900
H  44.93100 14.11300 22.87600
H  42.45300 14.35200 26.41700
H  41.40700 13.76600 27.80900
H  42.70000 12.76300 27.19500
H  44.01500 14.45400 32.73100
H  40.76400 17.32300 34.23700
H  42.44200 17.71100 34.37100
H  41.75200 16.58100 35.53100

