79

Mg -5.31400 24.97500 26.52500
C  -3.86100 26.99600 29.02200
C  -6.52900 22.73600 28.94500
C  -6.90700 23.46700 24.04100
C  -4.20900 27.50000 24.19100
N  -5.28100 24.99500 28.67100
C  -4.61400 25.87900 29.54100
C  -4.90300 25.50600 31.02700
C  -5.65700 24.08800 30.91000
C  -5.86100 23.89300 29.38200
C  -4.81600 22.98300 31.67100
C  -5.82300 26.61400 31.73900
C  -5.49700 26.88600 33.15200
H  -6.53000 26.45400 34.18500
N  -6.41600 23.30600 26.46700
C  -6.84500 22.48500 27.54000
C  -7.64400 21.40500 27.05600
C  -7.69900 21.59000 25.61500
C  -6.92300 22.84800 25.31200
C  -8.28000 20.36500 27.80700
C  -8.46300 20.74000 24.53900
O  -8.53700 21.12300 23.37900
C  -9.14800 19.50200 24.88200
N  -5.53100 25.42100 24.43100
C  -6.25500 24.60200 23.67300
C  -6.41600 25.14900 22.21600
C  -5.76200 26.60700 22.39400
C  -5.19100 26.58400 23.81400
C  -5.63500 24.39300 21.08500
C  -6.81200 27.75200 22.19500
C  -6.55800 28.75700 21.12000
N  -4.09800 26.81900 26.48000
C  -3.70200 27.65500 25.50400
C  -2.83800 28.71400 25.99900
C  -2.91600 28.55000 27.41500
C  -3.74900 27.37100 27.65800
C  -2.13200 29.64500 25.10100
C  -2.55300 29.08300 28.68800
O  -1.90000 30.05200 28.98100
C  -3.08700 28.11500 29.80100
C  -1.99300 27.53300 30.69400
O  -1.21100 26.62000 30.49400
O  -2.09200 28.21900 31.84900
C  -1.21000 27.68600 32.89000
H  -6.79700 22.06400 29.76300
H  -7.45600 23.01300 23.21300
H  -3.93100 28.31400 23.51700
H  -3.94100 25.25800 31.47500
H  -6.60100 24.20800 31.44100
H  -5.10300 22.92600 32.72100
H  -3.74000 22.98700 31.50000
H  -5.07100 22.02500 31.21900
H  -6.88200 26.44900 31.53900
H  -5.55100 27.56900 31.29000
H  -5.32200 27.93800 33.38000
H  -4.56100 26.47500 33.53100
H  -9.36000 20.32000 27.67100
H  -7.98600 20.56900 28.83700
H  -7.89400 19.41900 27.42700
H  -9.94200 19.82000 25.55800
H  -8.36100 18.87200 25.29700
H  -9.64300 19.07900 24.00800
H  -7.47300 25.17600 21.95000
H  -4.96300 26.81100 21.68100
H  -6.13500 23.43900 20.91400
H  -4.62100 24.10600 21.36300
H  -5.68000 25.09600 20.25300
H  -6.95600 28.38100 23.07400
H  -7.78000 27.33300 21.92100
H  -6.91100 28.36700 20.16500
H  -5.51000 29.04100 21.02900
H  -7.23900 29.59000 21.29700
H  -2.55600 30.63900 25.24200
H  -2.07700 29.28000 24.07600
H  -1.11700 29.61400 25.49600
H  -3.71100 28.70300 30.47400
H  -0.13100 27.60300 32.76600
H  -1.58100 26.66500 32.98700
H  -1.44900 28.13600 33.85400

