79

Mg 26.71900 49.22000 26.40900
C  24.79900 50.52700 29.17300
C  29.01600 48.16000 28.88400
C  28.73800 48.23400 24.01500
C  24.50200 50.76900 24.27100
N  26.79700 49.24800 28.81300
C  25.85100 49.80800 29.63500
C  26.23500 49.55000 31.13000
C  27.63500 48.93100 31.01400
C  27.85900 48.70500 29.48900
C  28.86600 49.58800 31.83000
C  25.18000 48.80600 31.95200
C  24.53900 49.41300 33.19700
H  24.02100 48.54400 34.26700
N  28.62100 48.30900 26.38600
C  29.42000 47.89400 27.52500
C  30.60700 47.17000 27.01900
C  30.52500 47.19400 25.62700
C  29.30600 47.98400 25.26700
C  31.74400 46.61100 27.92100
C  31.52000 46.67300 24.55200
O  31.42900 46.94400 23.34900
C  32.69900 45.80000 25.02900
N  26.55000 49.35800 24.44500
C  27.53500 48.88000 23.64500
C  27.25800 49.32400 22.18500
C  25.84800 49.89700 22.24700
C  25.57400 50.02500 23.71500
C  28.20800 50.33000 21.67500
C  24.75500 48.93900 21.62500
C  23.63700 49.68400 20.90200
N  25.01900 50.47400 26.66200
C  24.23500 50.95800 25.64500
C  23.14900 51.77400 26.26700
C  23.32900 51.62900 27.62200
C  24.44100 50.75100 27.79900
C  22.00100 52.38900 25.47000
C  22.83700 51.95500 28.90600
O  21.88900 52.71800 29.18400
C  23.66400 51.18500 29.98700
C  24.16300 52.23900 30.87100
O  25.17200 52.96500 30.79100
O  23.23900 52.37300 31.86100
C  23.43100 53.46800 32.76600
H  29.83400 47.77900 29.50000
H  29.41300 48.04300 23.17800
H  23.75200 51.23600 23.63000
H  26.32300 50.53700 31.58500
H  27.70600 47.91400 31.40000
H  29.26700 48.85600 32.53200
H  28.53300 50.47800 32.36400
H  29.67900 49.91100 31.17900
H  25.54200 47.80500 32.18600
H  24.35200 48.68300 31.25400
H  23.65600 49.99300 32.92900
H  25.26400 50.10800 33.62100
H  32.70800 46.83500 27.46400
H  31.72400 45.52200 27.86700
H  31.79100 47.14500 28.87000
H  32.31400 44.99900 25.66100
H  33.32900 46.44800 25.63900
H  33.34000 45.48000 24.20900
H  27.27000 48.48600 21.48900
H  25.71700 50.88500 21.80600
H  28.81100 50.83100 22.43200
H  27.76400 51.09100 21.03300
H  28.84000 49.84900 20.92800
H  24.32000 48.35500 22.43600
H  25.07100 48.16400 20.92700
H  23.56700 49.42100 19.84600
H  23.80400 50.75900 20.83700
H  22.63500 49.57400 21.31700
H  21.10000 52.39500 26.08200
H  21.67300 51.83100 24.59200
H  22.33800 53.39900 25.23600
H  22.98000 50.49600 30.48300
H  23.43800 54.40500 32.20900
H  24.34400 53.39000 33.35500
H  22.60400 53.55000 33.47100

