79

Mg 39.97600 9.51400 29.45100
C  41.72900 10.73300 32.43500
C  37.80900 8.06000 31.47300
C  38.67200 8.69400 26.73500
C  42.85100 10.92900 27.63000
N  40.00700 9.23600 31.70700
C  40.56200 9.96700 32.70700
C  39.92500 9.73500 34.02000
C  38.59300 8.90200 33.67200
C  38.79900 8.69700 32.19200
C  38.46000 7.58400 34.45600
C  39.62200 10.96300 34.81600
C  39.97700 10.82400 36.34700
H  40.75000 11.94000 37.02500
N  38.43800 8.47400 29.18900
C  37.61600 7.91200 30.07800
C  36.56600 7.25100 29.34500
C  36.76400 7.51000 28.00700
C  38.00100 8.28000 27.93300
C  35.47300 6.46000 30.03000
C  35.86900 7.12100 26.83400
O  36.04500 7.52900 25.68600
C  34.63500 6.21400 27.03800
N  40.72400 9.76400 27.48300
C  39.91000 9.29300 26.51200
C  40.42700 9.68100 25.10900
C  41.77800 10.43300 25.35800
C  41.73100 10.47400 26.96800
C  40.37900 8.65000 23.91100
C  42.06800 11.69400 24.67200
C  41.20800 12.87100 25.09200
N  41.98200 10.51400 29.87300
C  42.92600 11.05800 29.05500
C  43.92900 11.71200 29.80900
C  43.47700 11.65400 31.08700
C  42.27800 10.88300 31.11800
C  45.15100 12.35500 29.34400
C  43.80500 12.02400 32.43400
O  44.72300 12.65600 32.84600
C  42.72800 11.48300 33.36000
C  43.51600 10.53900 34.27400
O  43.92500 9.43500 33.94500
O  43.65600 11.13800 35.51200
C  44.61800 10.44900 36.43300
H  37.05300 7.56100 32.08200
H  38.22100 8.41400 25.78100
H  43.77500 11.24100 27.13900
H  40.69000 9.19100 34.57300
H  37.66200 9.46800 33.66400
H  39.11000 7.48400 35.32500
H  38.67800 6.73100 33.81300
H  37.48300 7.49200 34.92900
H  38.57100 11.23700 34.72200
H  40.18500 11.76700 34.34200
H  40.55400 9.94200 36.62400
H  38.96600 10.77700 36.75100
H  34.51400 6.92300 29.80100
H  35.51100 6.51300 31.11800
H  35.61000 5.43200 29.69200
H  34.90000 5.22300 27.40500
H  34.08400 6.13500 26.10100
H  33.96500 6.77300 27.69200
H  39.66800 10.38900 24.77700
H  42.61200 9.75400 25.18300
H  40.57900 7.62100 24.20800
H  40.99400 8.95100 23.06300
H  39.30500 8.67400 23.72700
H  41.84200 11.50800 23.62200
H  43.09900 12.04500 24.72100
H  40.81900 12.74300 26.10200
H  40.40500 12.99000 24.36500
H  41.90100 13.71000 25.02900
H  45.98000 11.77800 29.75300
H  45.23200 13.37200 29.72800
H  45.30600 12.43500 28.26800
H  42.37800 12.35600 33.91000
H  44.07300 10.30600 37.36600
H  45.53200 10.99700 36.66300
H  44.94700 9.46500 36.10100

