79

Mg 42.30600 41.69100 27.39600
C  41.51500 44.07300 29.87400
C  43.29400 39.55000 29.93600
C  42.92100 39.39100 25.13800
C  41.52900 43.98300 24.98800
N  42.47400 41.82900 29.64200
C  41.97000 42.86100 30.43800
C  42.03500 42.47600 31.93900
C  42.76200 41.05400 31.89700
C  42.93800 40.82500 30.41700
C  44.07200 40.95000 32.73600
C  40.56400 42.51000 32.55700
C  40.34100 43.03500 34.00200
H  39.59000 42.15600 35.01600
N  43.07800 39.70200 27.52500
C  43.41500 38.99600 28.66400
C  43.74800 37.70600 28.28200
C  43.58900 37.65400 26.82900
C  43.13300 39.01200 26.40700
C  44.25600 36.75400 29.34000
C  43.88100 36.47800 25.94300
O  43.70600 36.53500 24.70100
C  44.29200 35.11500 26.62100
N  42.45200 41.75000 25.34500
C  42.75800 40.62400 24.58200
C  42.76500 40.97200 23.09000
C  42.08200 42.38000 23.05500
C  42.05300 42.74400 24.61300
C  44.17000 40.95600 22.43600
C  40.74800 42.37700 22.23600
C  39.54500 41.83500 23.00000
N  41.82700 43.75900 27.34500
C  41.45700 44.52500 26.27900
C  40.92000 45.78200 26.79700
C  40.92500 45.63000 28.21700
C  41.47800 44.41100 28.54400
C  40.46700 46.93800 25.94400
C  40.56500 46.28600 29.46600
O  39.96200 47.35300 29.63900
C  40.80500 45.22400 30.59200
C  41.72600 45.86300 31.59100
O  42.94200 46.09800 31.40200
O  41.06600 46.13400 32.71700
C  41.85600 46.65900 33.85700
H  43.34300 38.86600 30.78700
H  43.02800 38.69100 24.30600
H  41.35300 44.58300 24.09200
H  42.63700 43.19300 32.49800
H  42.07200 40.31600 32.30800
H  44.85900 40.59200 32.07100
H  43.89400 40.29500 33.58900
H  44.34100 41.93300 33.12300
H  40.21900 41.47800 32.62600
H  39.88200 42.98200 31.85000
H  39.78400 43.97100 34.02800
H  41.27000 43.30800 34.50100
H  43.94700 37.01200 30.35300
H  45.33900 36.71100 29.45900
H  43.81100 35.75900 29.34100
H  43.50800 34.89200 27.34500
H  45.29300 35.30900 27.00400
H  44.41800 34.33200 25.87300
H  42.10000 40.36900 22.47200
H  42.73400 42.96700 22.40800
H  44.11800 41.39400 21.44000
H  44.53700 39.94000 22.28700
H  44.83400 41.58800 23.02600
H  40.98100 41.84200 21.31500
H  40.64900 43.38900 21.84400
H  38.70200 42.52000 22.90500
H  39.54500 41.75200 24.08700
H  39.35900 40.91000 22.45500
H  39.63700 47.48600 26.39100
H  40.06900 46.62300 24.98000
H  41.23700 47.70900 25.89600
H  39.85900 44.97900 31.07500
H  42.35600 45.84200 34.37700
H  41.23800 47.24900 34.53500
H  42.56700 47.42600 33.55200

