79

Mg 46.91700 14.79600 28.73100
C  45.14400 14.65400 31.69400
C  49.11900 16.97300 30.14300
C  48.66600 14.70500 25.81000
C  44.35600 12.86400 27.20000
N  46.96400 15.91800 30.67800
C  46.26800 15.56800 31.80100
C  46.91300 16.11900 33.12700
C  47.98400 17.04400 32.52500
C  48.06500 16.63300 30.99000
C  47.74600 18.51800 32.68200
C  47.43800 14.98300 34.11300
C  47.11500 15.23300 35.61400
H  48.26100 15.08100 36.55600
N  48.61400 15.78000 28.08900
C  49.41400 16.59600 28.84500
C  50.66400 16.89300 28.15900
C  50.54200 16.25700 26.86100
C  49.25900 15.51700 26.85400
C  51.82800 17.61200 28.80600
C  51.52300 16.24300 25.69000
O  51.31600 15.59000 24.73100
C  52.74100 17.04400 25.78600
N  46.48500 14.08300 26.64500
C  47.44700 13.89300 25.74300
C  46.88400 13.20200 24.49200
C  45.61800 12.52300 25.01300
C  45.43800 13.22300 26.36000
C  46.78300 14.25400 23.28200
C  45.67900 10.93600 25.01900
C  47.02400 10.29800 25.52200
N  45.03200 14.07700 29.24700
C  44.10500 13.26000 28.57800
C  43.06700 12.80900 29.50300
C  43.42400 13.34900 30.74100
C  44.62900 14.05800 30.55600
C  41.80300 12.13900 28.99000
C  42.98600 13.39000 32.06500
O  41.99200 12.95200 32.62300
C  44.06300 14.30100 32.76800
C  43.44200 15.59400 33.24900
O  43.14800 16.63900 32.63300
O  43.27700 15.48500 34.64300
C  42.77000 16.65200 35.34600
H  49.88000 17.58700 30.62900
H  49.23700 14.63900 24.88100
H  43.71900 12.09100 26.76400
H  46.10700 16.71300 33.56000
H  48.94100 16.90400 33.02800
H  46.97600 18.67200 33.43800
H  47.44200 19.12500 31.83000
H  48.63500 19.07500 32.97600
H  48.52400 14.92000 34.04000
H  47.07600 13.99700 33.82400
H  46.32100 14.51400 35.81200
H  46.73000 16.23100 35.82400
H  52.76900 17.20900 28.43000
H  51.81500 17.50100 29.89100
H  51.74800 18.66500 28.54000
H  52.55300 18.09200 26.01900
H  53.17500 17.00400 24.78700
H  53.47500 16.69000 26.51000
H  47.61400 12.47300 24.13900
H  44.76700 12.80500 24.39300
H  46.78600 15.25100 23.72100
H  46.10800 13.92500 22.49200
H  47.80300 14.25800 22.89600
H  45.46900 10.51800 24.03500
H  44.84300 10.48700 25.55500
H  47.48400 11.06800 26.14200
H  47.63700 9.97100 24.68200
H  46.77600 9.35700 26.01200
H  41.72500 12.01100 27.91000
H  40.95200 12.71500 29.35300
H  41.70500 11.16800 29.47600
H  44.43200 13.70800 33.60500
H  41.68400 16.55800 35.36500
H  43.07500 17.63300 34.98200
H  43.06200 16.51700 36.38800

