79

Mg 36.38900 48.76000 25.03100
C  35.81100 46.90400 28.08700
C  35.33000 51.60000 26.72900
C  36.05900 50.17300 22.13500
C  36.81900 45.58900 23.44800
N  35.61200 49.16700 27.17400
C  35.55300 48.28700 28.24900
C  35.42300 49.10100 29.58100
C  34.98100 50.52600 29.01600
C  35.38100 50.42500 27.54500
C  33.45200 50.73100 29.22300
C  36.67600 49.11500 30.44300
C  36.33600 48.93400 31.93800
H  34.97400 49.14000 32.56700
N  35.89900 50.73900 24.51400
C  35.51200 51.76700 25.32100
C  35.33700 52.98500 24.55300
C  35.60900 52.60200 23.20900
C  35.88200 51.13300 23.22200
C  34.92900 54.34700 25.09400
C  35.50200 53.50600 21.90200
O  35.86100 53.06400 20.80600
C  35.08700 54.92000 21.90800
N  36.31300 47.97300 23.08600
C  36.31700 48.81800 22.05100
C  36.53400 48.08500 20.72900
C  37.13600 46.69200 21.27600
C  36.72300 46.73800 22.71300
C  35.34400 48.01300 19.80300
C  38.64300 46.39300 21.12400
C  39.17200 46.38900 19.69700
N  36.25400 46.56800 25.58500
C  36.59200 45.46400 24.83300
C  36.78600 44.31700 25.70700
C  36.44200 44.84000 26.96400
C  36.09000 46.21800 26.82200
C  37.39900 43.03500 25.26700
C  36.23600 44.44300 28.41200
O  36.31600 43.34500 28.92700
C  35.95300 45.82600 29.18200
C  34.70100 45.70000 30.00000
O  33.64100 46.25300 29.80600
O  35.03900 44.99300 31.12400
C  33.95800 44.99300 32.07500
H  35.08100 52.50800 27.28100
H  35.97600 50.69600 21.18000
H  37.01200 44.64000 22.94300
H  34.67800 48.44900 30.03700
H  35.43500 51.35800 29.55400
H  33.07300 50.98900 28.23400
H  33.28000 51.61500 29.83700
H  32.88900 49.90200 29.65400
H  37.28200 50.01800 30.36400
H  37.39600 48.36900 30.10600
H  37.12300 49.47100 32.46700
H  36.55000 47.86700 32.00600
H  35.35400 54.51600 26.08300
H  33.84700 54.46400 25.02600
H  35.37900 55.05700 24.40100
H  34.08900 54.99900 22.33800
H  34.87900 55.21000 20.87800
H  35.72500 55.56800 22.51000
H  37.34600 48.60400 20.22100
H  36.47000 45.95700 20.82500
H  35.53600 48.62900 18.92400
H  34.49500 48.56500 20.20400
H  35.00300 47.01000 19.54500
H  38.85500 45.40200 21.52600
H  39.26000 47.04100 21.74700
H  38.33400 46.37100 19.00000
H  39.73900 45.48800 19.46400
H  39.84800 47.20100 19.43000
H  38.16700 42.82800 26.01300
H  37.89400 42.98300 24.29700
H  36.65500 42.27100 25.49200
H  36.79300 46.12600 29.80800
H  32.93200 45.14300 31.73900
H  34.11300 45.52800 33.01200
H  33.84600 43.95200 32.37500

