79

Mg 46.95600 16.83200 28.19700
C  45.11400 16.35700 31.28000
C  49.28700 18.49700 30.07500
C  48.28000 17.54700 25.38100
C  44.21700 15.27900 26.57800
N  47.15900 17.25000 30.47000
C  46.31400 17.03600 31.49900
C  46.82200 17.54400 32.84100
C  48.07300 18.34900 32.34200
C  48.17700 18.02500 30.86600
C  48.06800 19.92700 32.56600
C  47.05800 16.37300 33.89100
C  48.04000 16.56300 35.09100
H  48.00500 17.93000 35.88700
N  48.58100 17.84500 27.79200
C  49.41000 18.40600 28.68100
C  50.38500 19.02700 27.95000
C  50.20300 18.81300 26.58500
C  49.06800 18.00300 26.50800
C  51.40300 20.04600 28.56700
C  50.92600 19.36000 25.35500
O  50.62000 19.00500 24.21600
C  52.19400 20.22800 25.46900
N  46.30200 16.50500 26.27400
C  47.02600 16.98300 25.21400
C  46.41100 16.44000 23.86700
C  45.32400 15.41700 24.38200
C  45.27000 15.73800 25.85500
C  45.87200 17.55600 22.89000
C  45.70000 13.99100 24.08900
C  45.10000 13.43800 22.79200
N  45.01400 15.92300 28.79600
C  44.03500 15.42300 28.00100
C  42.91900 15.03400 28.78200
C  43.24800 15.35800 30.09400
C  44.54000 15.91800 30.02000
C  41.69800 14.36800 28.18500
C  42.87900 15.31600 31.44400
O  41.84700 14.95500 31.98600
C  44.04800 15.98800 32.28400
C  43.39400 17.07800 33.05000
O  43.39100 18.26400 32.74700
O  42.79900 16.58500 34.18500
C  42.18500 17.57000 35.09800
H  50.10900 18.96400 30.62100
H  48.67800 17.91700 24.43400
H  43.43500 14.74900 26.03100
H  46.06800 18.21600 33.25100
H  49.04000 18.02500 32.72700
H  48.97800 20.29900 33.03600
H  47.25600 20.17800 33.24800
H  48.05100 20.51200 31.64700
H  47.36700 15.46500 33.37300
H  46.11500 16.09300 34.36000
H  49.03700 16.47000 34.66200
H  47.88400 15.83600 35.88800
H  51.46000 20.92900 27.93100
H  52.39300 19.58800 28.56300
H  51.10400 20.27300 29.59000
H  52.91400 19.75400 26.13700
H  51.98100 21.23300 25.83500
H  52.61500 20.39800 24.47800
H  47.16700 15.89900 23.29800
H  44.31700 15.63800 24.02800
H  46.64800 17.65800 22.13100
H  45.73200 18.52900 23.36100
H  44.96200 17.26500 22.36600
H  45.43600 13.52100 25.03600
H  46.78600 13.90200 24.06700
H  45.78000 13.16500 21.98500
H  44.36200 14.16000 22.44500
H  44.44800 12.60600 23.06000
H  41.90900 13.31100 28.02600
H  41.36600 14.87700 27.28000
H  40.94900 14.41500 28.97500
H  44.43000 15.23400 32.97400
H  41.29500 17.99200 34.63200
H  42.95800 18.26600 35.42400
H  41.80100 17.05800 35.98000

