79

Mg 27.13100 50.68500 26.69800
C  24.99500 51.47000 29.51800
C  29.39800 49.76000 29.01500
C  28.97900 49.97500 24.13500
C  24.60300 51.93300 24.60300
N  27.17600 50.52800 29.03600
C  26.18400 50.91900 29.94700
C  26.72400 50.82700 31.39200
C  28.21600 50.34100 31.17300
C  28.27800 50.15100 29.67900
C  29.36900 51.35600 31.60200
C  25.94600 49.80800 32.36300
C  25.64400 50.27700 33.79000
H  25.67000 49.20700 34.89400
N  28.97400 50.02500 26.55900
C  29.73400 49.58800 27.65400
C  31.02600 49.09000 27.15200
C  30.94700 49.14500 25.71500
C  29.61100 49.69300 25.36900
C  32.18000 48.61700 28.06900
C  32.06100 48.87600 24.73900
O  31.85200 49.08300 23.55600
C  33.40100 48.29400 25.18500
N  26.85200 51.00000 24.72300
C  27.81100 50.56900 23.77600
C  27.24800 50.66300 22.31000
C  25.75400 51.23700 22.45700
C  25.67100 51.37600 24.04500
C  28.04500 51.54700 21.42500
C  24.60400 50.38700 21.94600
C  23.89000 50.81700 20.58600
N  25.21400 51.57700 26.98700
C  24.34200 52.06200 25.99900
C  23.16100 52.52400 26.70400
C  23.40900 52.39800 28.05100
C  24.61800 51.77200 28.17400
C  22.00500 53.22700 26.18400
C  22.91000 52.72300 29.42900
O  21.90500 53.22900 29.84700
C  23.94300 52.03900 30.35700
C  24.38900 53.20100 31.03400
O  25.22700 53.96400 30.63500
O  23.89500 53.26500 32.28800
C  24.53400 54.11200 33.27200
H  30.08900 49.28200 29.71300
H  29.48100 49.74200 23.19400
H  23.80400 52.27000 23.93900
H  26.71000 51.83600 31.80500
H  28.38600 49.36200 31.61900
H  28.92400 52.35000 31.55800
H  30.17700 51.50500 30.88600
H  29.70800 51.09300 32.60300
H  26.49800 48.88600 32.54700
H  24.97900 49.54100 31.93700
H  24.63400 50.68600 33.78000
H  26.38800 51.01800 34.08300
H  31.85200 48.51800 29.10400
H  32.96600 49.36000 27.92800
H  32.50100 47.63900 27.71100
H  33.21600 47.27200 25.51700
H  33.73500 48.91900 26.01300
H  34.08700 48.36400 24.34100
H  27.18500 49.66100 21.88500
H  25.71300 52.25300 22.06500
H  28.44300 52.41000 21.96000
H  27.48400 51.85000 20.54100
H  28.84500 50.89900 21.06600
H  23.81900 50.33600 22.70100
H  24.92200 49.34900 21.85600
H  24.15500 50.06900 19.83900
H  24.06600 51.84200 20.25700
H  22.80500 50.83200 20.68700
H  21.58400 52.62600 25.37800
H  22.21800 54.14100 25.63000
H  21.28200 53.40300 26.98100
H  23.39100 51.23900 30.85000
H  24.50800 55.10300 32.81900
H  25.56500 53.76700 33.34500
H  24.10200 54.02000 34.26900

