79

Mg 46.63800 4.22700 46.94300
C  44.55700 6.79600 46.69200
C  43.84400 2.11700 46.49400
C  48.84200 1.69500 46.55500
C  49.29800 6.50200 46.85700
N  44.47400 4.45500 46.59500
C  43.83900 5.65400 46.51600
C  42.44100 5.46500 45.97300
C  42.03400 4.01600 46.55500
C  43.52300 3.44900 46.58900
C  41.31700 3.95700 47.89000
C  42.30200 5.80100 44.52900
C  41.48600 7.06800 44.16500
H  42.00200 8.13000 43.11400
N  46.40600 2.23600 46.49100
C  45.11700 1.54200 46.38600
C  45.47900 0.14900 46.21500
C  46.91000 0.02000 46.19500
C  47.41800 1.37800 46.39200
C  44.41300 -0.91700 46.01800
C  47.68500 -1.28900 45.75500
O  47.09500 -2.33700 45.54900
C  49.21100 -1.36800 45.56900
N  48.77400 4.13700 46.67600
C  49.44400 2.95700 46.71900
C  50.94300 3.16000 46.63300
C  51.16300 4.70500 46.68100
C  49.63100 5.15000 46.71400
C  51.62000 2.40700 47.85100
C  52.03200 5.29100 45.52600
C  53.50500 5.03000 45.44400
N  46.93500 6.29800 46.94200
C  48.01400 7.12800 46.95000
C  47.67200 8.55600 46.96800
C  46.22300 8.45300 46.89800
C  45.89900 7.05100 46.84500
C  48.51800 9.74000 47.21000
C  45.08100 9.22100 46.95300
O  44.88800 10.40800 47.17400
C  43.87100 8.13500 46.68800
C  42.80800 8.24700 47.66700
O  42.74900 7.55700 48.69000
O  41.85100 9.17100 47.27500
C  40.73000 9.22200 48.14400
H  42.90600 1.55800 46.48700
H  49.60200 0.91800 46.45200
H  50.10300 7.22100 47.02500
H  41.81700 6.17100 46.52100
H  41.52700 3.45900 45.76800
H  40.31000 3.65800 47.59800
H  41.14200 4.88700 48.43000
H  41.69700 3.18400 48.55800
H  41.85300 4.88600 44.14200
H  43.30300 5.89500 44.10800
H  41.48200 7.59300 45.12000
H  40.45000 6.77400 43.99900
H  44.71000 -1.65400 45.27300
H  43.46000 -0.54400 45.64200
H  44.13300 -1.41300 46.94800
H  49.73700 -1.18800 46.50600
H  49.50000 -0.58400 44.86900
H  49.63400 -2.34400 45.33000
H  51.26300 2.78700 45.66000
H  51.63300 5.16700 47.55000
H  50.99500 1.81700 48.52200
H  52.15200 3.09000 48.51300
H  52.37200 1.72400 47.45600
H  51.75900 6.34600 45.55400
H  51.61800 4.91600 44.59100
H  53.70900 4.74600 44.41100
H  53.76600 4.25000 46.15900
H  54.12500 5.90400 45.63900
H  48.29200 10.05300 48.22900
H  48.19500 10.55700 46.56500
H  49.58400 9.56900 47.36400
H  43.57000 8.24200 45.64600
H  40.29100 8.22500 48.14000
H  40.02900 9.90600 47.66600
H  41.01600 9.46900 49.16700

