79

Mg -11.06200 38.76200 41.36100
C  -9.19800 36.10000 40.07800
C  -8.93800 40.87400 39.65900
C  -13.28600 41.32000 41.72700
C  -13.46300 36.50700 42.36300
N  -9.23300 38.49900 39.98300
C  -8.66000 37.33700 39.64500
C  -7.40700 37.52600 38.84700
C  -7.20500 39.12100 38.91700
C  -8.50700 39.53300 39.58500
C  -5.92300 39.62700 39.52100
C  -7.42700 36.88400 37.37800
C  -6.19400 35.98600 37.05200
H  -5.42100 36.21600 35.69700
N  -11.16900 40.74200 40.75300
C  -10.12000 41.45000 40.15800
C  -10.44600 42.81100 40.09300
C  -11.75100 42.96400 40.58500
C  -12.10700 41.66200 41.05300
C  -9.54100 43.95100 39.56500
C  -12.50900 44.30100 40.53500
O  -12.03300 45.33700 40.07500
C  -13.95700 44.32500 40.88100
N  -13.22500 38.86600 41.84900
C  -13.71200 40.09200 42.16800
C  -15.03000 39.93100 42.87900
C  -15.03400 38.41300 43.28500
C  -13.83100 37.87100 42.46900
C  -15.11700 41.07800 43.98100
C  -16.38800 37.68000 42.92900
C  -17.49300 37.63200 43.95900
N  -11.30400 36.62700 41.34600
C  -12.35800 35.88800 41.83900
C  -11.96500 34.55600 41.71300
C  -10.74700 34.58400 40.99600
C  -10.41500 35.88000 40.79100
C  -12.68100 33.35400 42.33300
C  -9.69200 33.68900 40.43600
O  -9.58100 32.48900 40.49300
C  -8.61800 34.65200 39.70900
C  -7.28700 34.46800 40.36800
O  -6.37700 33.87400 39.83700
O  -7.15900 35.02500 41.59800
C  -5.90700 34.80400 42.27400
H  -8.13600 41.46700 39.21600
H  -13.97400 42.10100 42.05800
H  -14.28200 35.92900 42.79700
H  -6.63200 37.09300 39.47900
H  -7.13500 39.35600 37.85500
H  -6.26100 39.85300 40.53200
H  -5.55400 40.53300 39.04000
H  -5.11800 38.90200 39.63800
H  -7.37700 37.58100 36.54100
H  -8.28000 36.21200 37.28900
H  -6.47300 34.93400 36.99500
H  -5.47200 36.03000 37.86800
H  -9.82900 44.30700 38.57500
H  -8.50400 43.62100 39.51200
H  -9.61800 44.77300 40.27600
H  -13.98000 44.31000 41.97100
H  -14.54800 43.54500 40.40300
H  -14.38500 45.27000 40.54500
H  -15.70400 40.17400 42.05800
H  -14.88100 38.36300 44.36300
H  -14.08100 41.19700 44.29900
H  -15.69900 40.81500 44.86400
H  -15.47100 42.03500 43.59900
H  -16.27100 36.64800 42.59900
H  -16.78300 38.14400 42.02500
H  -17.62400 36.58500 44.23000
H  -18.35500 38.07500 43.46000
H  -17.25900 38.14900 44.89000
H  -12.47800 32.50700 41.67700
H  -13.75700 33.50700 42.41800
H  -12.37700 33.11100 43.35200
H  -8.58700 34.54500 38.62500
H  -5.00400 34.69300 41.67400
H  -6.08900 33.88300 42.82900
H  -5.78900 35.55400 43.05600

