79

Mg 42.01900 41.18400 27.16700
C  41.29200 43.41900 29.56200
C  43.18300 38.99300 29.48400
C  42.55700 38.82900 24.71000
C  41.29700 43.47000 24.74300
N  42.17200 41.22500 29.32500
C  41.75300 42.24800 30.14400
C  42.00000 41.95600 31.63500
C  42.70700 40.49200 31.53800
C  42.67000 40.18800 30.00300
C  44.09400 40.54300 32.15500
C  40.66400 42.02800 32.51000
C  40.69500 42.94300 33.70700
H  39.63300 42.49900 34.82000
N  42.85600 39.24400 27.08200
C  43.26000 38.51600 28.17300
C  43.73100 37.18400 27.75300
C  43.45200 37.10400 26.37100
C  42.85800 38.40300 26.00800
C  44.48600 36.15900 28.61500
C  43.73900 35.96900 25.41600
O  43.39800 35.96400 24.23800
C  44.34300 34.66800 25.92600
N  42.11600 41.20500 25.05400
C  42.32600 40.14000 24.20500
C  42.27900 40.48700 22.78000
C  41.75400 41.90300 22.78400
C  41.73300 42.21900 24.29000
C  43.66700 40.26000 21.90300
C  40.34500 42.19100 22.05800
C  39.01700 42.03400 22.83400
N  41.38000 43.08300 27.11700
C  41.10900 43.87200 26.05400
C  40.62500 45.19000 26.51000
C  40.66700 45.06300 27.95600
C  41.13000 43.77400 28.18400
C  40.44800 46.46200 25.69000
C  40.48900 45.72400 29.24500
O  40.18300 46.88000 29.45700
C  40.96100 44.74700 30.28700
C  42.11800 45.33700 30.96400
O  43.21600 45.46800 30.47200
O  41.71900 45.66500 32.21600
C  42.73000 46.08100 33.13800
H  43.63400 38.28500 30.18200
H  42.75700 38.12800 23.89700
H  41.02700 44.08900 23.88500
H  42.65000 42.75200 32.00000
H  42.10500 39.73000 32.03400
H  44.13500 39.75600 32.90800
H  44.23300 41.52000 32.61900
H  44.79700 40.39600 31.33500
H  40.58000 41.07200 33.02600
H  39.78000 42.36300 31.96800
H  40.40400 43.94300 33.38600
H  41.70800 43.08800 34.08400
H  43.96400 35.20300 28.65300
H  44.65200 36.47500 29.64500
H  45.48100 35.93800 28.22900
H  45.37000 34.83300 26.24900
H  44.18200 33.88300 25.18700
H  43.70500 34.42900 26.77700
H  41.42300 39.91700 22.41800
H  42.54000 42.55900 22.40900
H  43.96600 41.19100 21.42000
H  43.33900 39.49500 21.20000
H  44.45300 39.91600 22.57600
H  40.32000 41.37100 21.34000
H  40.39900 43.16800 21.57700
H  38.41900 42.94200 22.75600
H  39.22400 42.00500 23.90400
H  38.40900 41.18600 22.52000
H  39.40700 46.77500 25.60700
H  40.83100 46.36000 24.67500
H  41.01800 47.24000 26.19700
H  40.21700 44.60800 31.07100
H  42.62600 45.47400 34.03700
H  42.66300 47.13100 33.42200
H  43.74400 45.95500 32.75600

