79

Mg 1.86200 -1.87200 43.06700
C  5.33600 -1.21700 42.64400
C  1.26900 0.95600 41.23100
C  -1.33700 -2.95500 42.89900
C  2.80600 -4.97900 44.51500
N  3.15000 -0.30000 42.14800
C  4.51900 -0.22700 42.01400
C  4.98500 0.80200 41.00500
C  3.69000 1.75600 40.91000
C  2.62200 0.80300 41.54700
C  3.68400 3.16600 41.57300
C  5.32000 0.06100 39.69400
C  6.40500 0.76700 38.83000
H  6.25000 1.05100 37.38600
N  0.11800 -1.07300 42.19400
C  0.08400 0.12300 41.51600
C  -1.33000 0.41200 41.15900
C  -2.12400 -0.69900 41.57000
C  -1.12400 -1.70300 42.21000
C  -1.72000 1.64000 40.45100
C  -3.65000 -0.92600 41.46400
O  -4.32400 -0.09100 40.87900
C  -4.31100 -2.30100 41.86600
N  0.94700 -3.78100 43.51500
C  -0.43200 -3.85500 43.49300
C  -0.92800 -5.17400 44.12600
C  0.45000 -5.76400 44.65400
C  1.46100 -4.79100 44.22100
C  -2.07900 -5.11400 45.18900
C  0.66500 -7.37400 44.46300
C  0.76400 -8.22900 45.71500
N  3.76200 -2.86200 43.63400
C  3.90600 -4.11900 44.14400
C  5.32500 -4.36200 44.34100
C  5.96600 -3.21900 43.83400
C  4.93800 -2.33800 43.34500
C  6.02700 -5.59200 44.85000
C  7.24900 -2.55200 43.53200
O  8.37000 -2.83200 43.78800
C  6.86500 -1.17000 42.75900
C  7.35600 -0.01700 43.64900
O  8.39300 0.54600 43.61000
O  6.39500 0.32500 44.55200
C  6.47800 1.56400 45.30900
H  1.13700 1.89500 40.68900
H  -2.36100 -3.33200 42.94400
H  2.99900 -5.98900 44.88400
H  5.85900 1.32600 41.39300
H  3.49100 1.88400 39.84600
H  4.62700 3.49100 42.01400
H  2.80800 3.10500 42.21900
H  3.44600 3.87300 40.77900
H  4.45300 -0.16900 39.07500
H  5.82300 -0.87700 39.92900
H  7.21200 0.03700 38.89600
H  6.76300 1.70400 39.25500
H  -1.68900 1.64800 39.36200
H  -0.98300 2.38800 40.74500
H  -2.69200 2.02100 40.76400
H  -5.31300 -2.38900 41.44400
H  -4.27100 -2.44000 42.94600
H  -3.74000 -3.06200 41.33400
H  -1.27700 -5.82300 43.32300
H  0.53100 -5.66800 45.73700
H  -2.79600 -4.30200 45.06800
H  -1.64000 -5.14600 46.18700
H  -2.64700 -6.04200 45.13600
H  1.63100 -7.47600 43.97000
H  -0.08800 -7.88000 43.85800
H  0.03000 -9.03400 45.66900
H  0.38100 -7.61800 46.53200
H  1.77600 -8.63300 45.69900
H  5.76200 -6.50500 44.31700
H  5.91700 -5.61700 45.93400
H  7.10900 -5.54600 44.72600
H  7.35700 -1.21700 41.78700
H  7.54000 1.74400 45.47600
H  5.95500 1.47300 46.26100
H  6.01900 2.39300 44.76900

