79

Mg 25.98400 50.10000 26.57600
C  23.96400 51.43000 29.06800
C  28.08300 48.79900 29.13500
C  28.17300 49.01500 24.26400
C  24.03400 51.66800 24.18600
N  26.01700 50.13500 28.86800
C  25.02600 50.71200 29.67300
C  25.35200 50.44200 31.14300
C  26.80100 49.81400 31.12600
C  26.98800 49.54900 29.62300
C  27.94500 50.43400 31.91600
C  24.22200 49.42200 31.68000
C  24.27800 49.16300 33.20300
H  25.06500 50.18600 34.09200
N  27.83600 49.12700 26.66400
C  28.48900 48.68100 27.76700
C  29.69900 48.03400 27.45600
C  29.73600 48.02400 26.06600
C  28.61600 48.75600 25.59200
C  30.62100 47.29300 28.39800
C  30.76100 47.38600 25.10100
O  30.72400 47.44900 23.88600
C  31.84400 46.55500 25.67600
N  26.13100 50.29500 24.50800
C  27.08300 49.76400 23.79000
C  26.74400 49.92200 22.30200
C  25.40600 50.60100 22.27400
C  25.15400 50.89000 23.73200
C  27.84100 50.76700 21.48800
C  24.23900 49.74700 21.68400
C  22.95800 50.59900 21.23000
N  24.29100 51.23200 26.55800
C  23.55500 51.76600 25.46200
C  22.45100 52.55600 26.02000
C  22.53000 52.43500 27.38000
C  23.70200 51.64300 27.65200
C  21.44500 53.32700 25.20800
C  22.01600 52.82200 28.65700
O  21.02600 53.50500 28.92100
C  22.86300 52.17700 29.72400
C  23.28100 53.21800 30.66600
O  24.02600 54.08600 30.47700
O  22.65300 52.92400 31.83500
C  22.94100 53.90000 32.89700
H  28.75200 48.42300 29.91200
H  28.83700 48.61000 23.49800
H  23.56000 52.31700 23.44600
H  25.21300 51.43800 31.56300
H  26.65200 48.79300 31.47800
H  27.63600 51.39100 32.33700
H  28.78000 50.55000 31.22500
H  28.25500 49.88100 32.80200
H  24.43400 48.51700 31.11200
H  23.20000 49.76300 31.51300
H  24.49100 48.10300 33.34000
H  23.30800 49.28200 33.68600
H  30.73200 46.22300 28.22600
H  30.39900 47.22600 29.46300
H  31.65300 47.59200 28.21300
H  32.49200 47.25200 26.20700
H  32.38300 46.15500 24.81700
H  31.40200 45.74600 26.25800
H  26.68900 48.91000 21.90100
H  25.41800 51.59100 21.81600
H  28.74900 50.94100 22.06500
H  27.42600 51.74300 21.23900
H  28.12400 50.20900 20.59500
H  23.72200 49.28900 22.52700
H  24.48800 48.96700 20.96400
H  22.11900 50.62700 21.92600
H  22.62800 50.02500 20.36400
H  23.39400 51.56700 20.98400
H  21.36700 52.82600 24.24300
H  21.70900 54.38400 25.16500
H  20.51600 53.17300 25.75600
H  22.27100 51.46400 30.29800
H  23.14400 54.93100 32.60700
H  23.85300 53.56500 33.39000
H  22.08800 53.90300 33.57600

