79

Mg -1.15600 18.52300 26.77100
C  -1.75000 16.36700 29.47700
C  -2.05700 21.11800 28.92100
C  -0.78400 20.59400 24.33500
C  -1.08000 15.83500 24.63300
N  -1.44500 18.79800 29.18200
C  -1.66500 17.70000 29.95700
C  -2.10800 18.19200 31.44500
C  -2.50400 19.70000 31.15700
C  -2.01100 19.89600 29.69300
C  -4.01000 20.04000 31.35900
C  -0.96200 18.12500 32.49400
C  -1.46500 17.54800 33.82600
H  -0.38400 17.34300 34.89600
N  -1.27100 20.58500 26.60300
C  -1.66700 21.46500 27.63000
C  -1.77400 22.77600 27.02500
C  -1.28100 22.63700 25.65300
C  -1.11800 21.20000 25.51200
C  -2.27700 24.00900 27.68600
C  -0.94300 23.66200 24.54600
O  -0.26300 23.36800 23.57600
C  -1.28200 25.06100 24.69900
N  -1.16900 18.24900 24.68800
C  -0.83100 19.28100 23.94900
C  -0.35900 18.88900 22.52800
C  -0.45600 17.29700 22.63900
C  -0.88800 17.05500 24.07900
C  -1.32800 19.41800 21.40900
C  0.79100 16.39000 22.28700
C  0.45300 15.21300 21.35800
N  -1.34800 16.51800 26.92100
C  -1.27500 15.53600 25.97600
C  -1.44600 14.27800 26.62200
C  -1.59300 14.53500 28.00900
C  -1.58700 15.93300 28.11300
C  -1.54400 12.98800 25.88400
C  -1.82400 13.95800 29.27100
O  -1.89800 12.79400 29.60600
C  -1.98600 15.19100 30.26100
C  -0.93400 15.01000 31.29800
O  0.21100 15.36300 31.22800
O  -1.48700 14.24900 32.25500
C  -0.62600 13.77900 33.42200
H  -2.52300 21.95300 29.44800
H  -0.65200 21.26000 23.48000
H  -0.87600 14.91600 24.08000
H  -3.04400 17.66400 31.62700
H  -1.89100 20.40600 31.71700
H  -4.60200 19.13900 31.51900
H  -4.49200 20.63500 30.58400
H  -3.96200 20.74200 32.19100
H  -0.50100 19.10100 32.64700
H  -0.13200 17.63900 31.98200
H  -1.96700 16.58400 33.73400
H  -2.16000 18.29100 34.21500
H  -1.88300 24.94400 27.28600
H  -1.95800 24.06100 28.72700
H  -3.35600 23.86300 27.62200
H  -1.20000 25.53000 23.71800
H  -0.70700 25.62400 25.43500
H  -2.35100 24.94600 24.87700
H  0.62800 19.30100 22.31900
H  -1.28200 17.00100 21.99300
H  -1.98400 18.64700 21.00300
H  -0.72900 19.64600 20.52700
H  -1.92800 20.22300 21.83400
H  1.31000 15.93500 23.13000
H  1.45800 17.08600 21.77800
H  0.17600 15.72700 20.43700
H  -0.49500 14.77700 21.67200
H  1.20500 14.42400 21.36100
H  -2.37500 13.16400 25.20000
H  -1.82200 12.20200 26.58600
H  -0.63500 12.75700 25.32900
H  -3.01700 15.12400 30.60800
H  0.15400 14.50200 33.66200
H  -0.18900 12.78100 33.44400
H  -1.22900 13.81100 34.33000

