79

Mg 16.70500 -2.16800 28.14400
C  15.69900 -0.21600 30.77800
C  19.00600 -3.75900 30.24800
C  18.04200 -3.73700 25.56100
C  14.69700 -0.20400 26.01100
N  17.35800 -1.87500 30.28400
C  16.68700 -1.16400 31.20500
C  17.26800 -1.41000 32.65700
C  18.40000 -2.46200 32.30900
C  18.28500 -2.74100 30.83600
C  19.87000 -2.10300 32.74100
C  16.13100 -1.89300 33.64900
C  15.94800 -1.00000 34.89800
H  17.12900 -0.34200 35.70400
N  18.31900 -3.63300 27.95400
C  19.05500 -4.19100 28.91500
C  19.94500 -5.14000 28.37600
C  19.72200 -5.18000 26.95900
C  18.61700 -4.16400 26.74300
C  20.89600 -5.96400 29.29500
C  20.45500 -5.96500 25.86700
O  20.09100 -5.80100 24.74300
C  21.69900 -6.83400 26.14100
N  16.40200 -1.98100 26.03800
C  17.05000 -2.80900 25.18100
C  16.79900 -2.41700 23.80400
C  15.53800 -1.49100 23.97100
C  15.55200 -1.17300 25.46800
C  18.01800 -1.83200 23.02000
C  14.18600 -1.94100 23.42500
C  13.63100 -1.00500 22.32200
N  15.43300 -0.60600 28.28000
C  14.64700 0.02900 27.35600
C  13.80600 1.04800 28.04100
C  14.19200 0.90200 29.34000
C  15.19900 -0.01900 29.46200
C  12.84400 2.00000 27.44100
C  13.93900 1.52200 30.64800
O  13.23300 2.44000 31.00800
C  14.84300 0.64900 31.69200
C  15.57400 1.62700 32.51800
O  16.74400 1.88300 32.43300
O  14.66000 2.16900 33.45000
C  15.21800 3.14800 34.40500
H  19.71900 -4.35600 30.82100
H  18.29700 -4.32600 24.67700
H  14.10400 0.39800 25.32000
H  17.76400 -0.54500 33.09600
H  18.05700 -3.34900 32.84200
H  19.98600 -1.13500 33.23000
H  20.51800 -2.12100 31.86500
H  20.17300 -2.84700 33.47800
H  16.27300 -2.93900 33.92100
H  15.21400 -1.85200 33.06100
H  15.44100 -1.62100 35.63600
H  15.27400 -0.19400 34.60900
H  21.20000 -6.89200 28.81300
H  20.62900 -6.10800 30.34200
H  21.82600 -5.39700 29.32900
H  21.36700 -7.76900 26.59100
H  22.31200 -6.33500 26.89300
H  22.29700 -6.99900 25.24400
H  16.54900 -3.35200 23.30200
H  15.85900 -0.58600 23.45500
H  18.87700 -2.01000 23.66800
H  17.92200 -0.75200 22.90300
H  18.03200 -2.21200 21.99900
H  13.54700 -2.14800 24.28400
H  14.36000 -2.91500 22.96800
H  14.39900 -0.42200 21.81300
H  13.09900 -0.24100 22.88900
H  12.94700 -1.56100 21.68200
H  12.16900 2.35200 28.22100
H  12.22000 1.45500 26.73200
H  13.32800 2.83400 26.93400
H  14.09200 0.12500 32.28300
H  14.97700 4.12000 33.97600
H  16.27000 3.15000 34.68900
H  14.59100 3.11600 35.29600

