79

Mg 17.01700 52.86600 26.64600
C  18.88000 51.35800 28.96500
C  14.96200 53.91400 29.26900
C  14.88200 54.34800 24.40700
C  19.01500 51.86200 24.11200
N  16.80000 52.50000 28.82100
C  17.81800 52.03100 29.56600
C  17.62100 52.29800 31.14500
C  16.15100 52.63700 31.18900
C  15.91100 53.02100 29.69000
C  15.37300 51.47300 31.60800
C  18.59100 53.35700 31.71900
C  18.88600 53.36600 33.30900
H  17.84500 52.53500 34.11400
N  15.12300 53.96900 26.76400
C  14.61300 54.43800 27.97700
C  13.62600 55.44100 27.73400
C  13.49200 55.49500 26.30900
C  14.47500 54.61000 25.72400
C  13.00100 56.20300 28.91800
C  12.52500 56.34700 25.45600
O  12.58600 56.23100 24.28700
C  11.66500 57.43900 25.99700
N  16.86300 52.91200 24.49600
C  15.90200 53.58300 23.83600
C  16.24100 53.64500 22.36700
C  17.67400 53.01400 22.27400
C  17.91200 52.60000 23.72200
C  15.20400 52.92600 21.31900
C  18.70300 54.00800 21.54400
C  19.23600 55.14500 22.41100
N  18.61600 51.77100 26.51300
C  19.42000 51.47600 25.38500
C  20.54900 50.79500 25.85400
C  20.42500 50.74000 27.22400
C  19.17200 51.30600 27.55200
C  21.70000 50.28700 25.06600
C  21.07000 50.25600 28.38600
O  22.05200 49.57700 28.48300
C  20.12600 50.73300 29.66300
C  19.82300 49.59700 30.52500
O  19.42400 48.51300 30.22400
O  20.04500 49.98400 31.81800
C  19.93400 48.94500 32.89000
H  14.38300 54.42100 30.04400
H  14.16900 54.68900 23.65400
H  19.80700 51.53400 23.43500
H  17.69400 51.37700 31.72200
H  16.11300 53.49700 31.85700
H  15.69400 51.02500 32.54800
H  15.49600 50.80600 30.75500
H  14.36700 51.81300 31.85300
H  18.19900 54.30500 31.35200
H  19.59200 53.23600 31.30300
H  18.94800 54.39100 33.67400
H  19.86400 52.99500 33.61700
H  13.58400 57.03000 29.32400
H  12.72500 55.49000 29.69500
H  12.00900 56.57400 28.65800
H  10.87000 56.93600 26.54600
H  11.34900 58.03900 25.14300
H  12.28100 58.04000 26.66600
H  16.15700 54.70400 22.12200
H  17.54000 52.07200 21.74300
H  14.53100 52.21300 21.79400
H  15.77100 52.38100 20.56400
H  14.66200 53.72000 20.80300
H  18.13400 54.53000 20.77500
H  19.56700 53.49600 21.12000
H  18.53000 55.25800 23.23300
H  19.27900 56.12200 21.92900
H  20.22400 54.88400 22.78900
H  21.62000 50.77500 24.09500
H  21.68900 49.20700 24.92400
H  22.60200 50.62000 25.57900
H  20.66500 51.48800 30.23400
H  19.04900 49.20100 33.47100
H  20.82900 49.01900 33.50700
H  19.93500 47.91600 32.52900

