79

Mg 47.55800 33.78500 25.87100
C  45.67700 32.38900 28.69400
C  48.30800 36.32900 27.93000
C  48.87900 35.21600 23.27100
C  46.58300 30.95600 24.07500
N  46.99400 34.25700 28.07900
C  46.31700 33.58800 29.03500
C  46.53500 34.21600 30.39800
C  47.12100 35.56100 30.00100
C  47.55300 35.35000 28.57800
C  46.21800 36.91900 30.20200
C  47.60000 33.39900 31.25000
C  47.59000 33.57100 32.79300
H  46.77800 34.67400 33.49500
N  48.54300 35.55600 25.61200
C  48.74800 36.42800 26.62500
C  49.44000 37.58500 26.07900
C  49.61400 37.35900 24.65300
C  48.98500 36.03500 24.45400
C  50.04400 38.72700 26.86700
C  50.36700 38.16000 23.57900
O  50.32200 37.81800 22.38800
C  50.96500 39.52200 23.96300
N  47.44300 33.36100 23.86400
C  48.19600 34.04600 22.97700
C  48.33200 33.33700 21.67500
C  47.80200 31.86600 22.00800
C  47.25000 32.04800 23.37400
C  47.44800 33.96400 20.52500
C  48.99300 30.84800 21.98700
C  49.34700 30.13900 20.72100
N  46.28500 32.13800 26.20600
C  46.02900 31.04500 25.37500
C  45.33400 30.01000 26.09300
C  45.08200 30.49400 27.34700
C  45.74700 31.79300 27.36900
C  45.12100 28.63600 25.56600
C  44.49400 30.23400 28.68100
O  43.93500 29.27100 29.14900
C  44.70900 31.52300 29.54600
C  45.05600 31.24600 30.96500
O  45.88200 30.47000 31.37400
O  44.14000 31.92500 31.73600
C  44.05400 31.55200 33.21300
H  48.75700 36.98200 28.68200
H  49.37200 35.59900 22.37500
H  46.68900 30.00800 23.54300
H  45.56500 34.30000 30.88900
H  48.02600 35.84100 30.54000
H  46.81800 37.76800 30.53100
H  45.46200 36.79500 30.97700
H  45.81500 37.14500 29.21400
H  48.59500 33.73400 30.95800
H  47.50600 32.33000 31.05800
H  48.64800 33.71600 33.01400
H  47.28500 32.62600 33.24200
H  51.10300 38.78000 26.61400
H  50.03400 38.56800 27.94500
H  49.48500 39.65100 26.71800
H  50.24100 40.11700 24.52000
H  51.26100 40.00600 23.03100
H  51.89200 39.41500 24.52600
H  49.35600 33.46100 21.32200
H  47.03200 31.64400 21.26800
H  48.07700 34.22500 19.67400
H  46.84800 34.81900 20.83600
H  46.60500 33.38100 20.15500
H  48.65200 30.04200 22.63600
H  49.94200 31.13000 22.44400
H  49.37600 29.05100 20.76500
H  50.30000 30.53100 20.36700
H  48.51400 30.37900 20.06000
H  46.00500 28.21800 25.08300
H  44.31500 28.65800 24.83300
H  44.83700 28.02800 26.42500
H  43.90100 32.25400 29.50600
H  44.63300 30.71600 33.60500
H  43.00900 31.34400 33.44400
H  44.42800 32.51400 33.56500

