79

Mg 17.52600 -1.25100 28.22500
C  16.19000 0.94400 30.70300
C  19.42300 -2.74500 30.55900
C  19.04500 -2.88600 25.65200
C  15.90100 0.79800 25.83500
N  17.74500 -0.87600 30.35400
C  17.02800 -0.08900 31.20500
C  17.34800 -0.28000 32.73100
C  18.46000 -1.43000 32.57800
C  18.52300 -1.74300 31.07600
C  19.88200 -1.10900 33.14300
C  16.12500 -0.74800 33.53000
C  16.00900 -0.42700 34.98500
H  17.07000 0.48200 35.72500
N  18.99500 -2.64800 28.14000
C  19.63200 -3.20600 29.23200
C  20.25900 -4.40700 28.83600
C  20.31000 -4.38600 27.38100
C  19.44600 -3.28700 26.96700
C  20.68000 -5.46500 29.83800
C  20.97000 -5.33700 26.39500
O  20.94500 -5.25600 25.14200
C  21.89800 -6.48500 26.99900
N  17.39700 -1.14100 26.00600
C  18.19300 -1.87200 25.18000
C  18.07100 -1.42300 23.68700
C  17.01300 -0.25200 23.81900
C  16.72700 -0.20600 25.36300
C  19.40000 -1.10000 22.86700
C  15.73100 -0.40700 22.98700
C  14.54600 -1.28200 23.50400
N  16.17100 0.38300 28.19000
C  15.64200 1.12300 27.16300
C  14.91500 2.26600 27.66800
C  15.14600 2.21800 29.08100
C  15.91600 1.11100 29.32500
C  14.09800 3.28900 26.74200
C  14.82900 2.87000 30.33800
O  14.03800 3.81300 30.54100
C  15.57300 2.11700 31.48800
C  16.53200 2.98600 32.20500
O  17.79400 2.97500 32.10300
O  15.83900 3.73500 33.11500
C  16.59800 4.66500 33.92500
H  19.95600 -3.14300 31.42500
H  19.55600 -3.40600 24.83800
H  15.43500 1.45000 25.09200
H  17.78100 0.59600 33.21300
H  18.22700 -2.30300 33.18600
H  19.88900 -0.07200 33.47700
H  20.74200 -1.35700 32.52000
H  20.07700 -1.63500 34.07800
H  16.09900 -1.83600 33.58900
H  15.22700 -0.28600 33.11900
H  15.87500 -1.31500 35.60300
H  15.08400 0.13200 35.13000
H  21.76400 -5.57400 29.78600
H  20.19600 -6.38900 29.52300
H  20.38600 -5.37200 30.88300
H  22.25300 -7.06000 26.14400
H  21.24200 -7.16000 27.54800
H  22.66000 -6.02800 27.63100
H  17.51300 -2.22500 23.20500
H  17.50000 0.66200 23.47800
H  19.26500 -0.13500 22.37900
H  19.55700 -1.82000 22.06300
H  20.15700 -0.99400 23.64500
H  15.97600 -0.89700 22.04500
H  15.47200 0.59100 22.63600
H  13.83900 -0.62700 24.01300
H  14.92600 -1.99700 24.23400
H  14.18700 -1.85900 22.65200
H  14.75300 3.77500 26.01800
H  13.81700 4.00500 27.51400
H  13.24500 2.78600 26.28700
H  14.80100 1.73100 32.15400
H  16.84300 4.20700 34.88300
H  15.85900 5.43000 34.16100
H  17.52200 5.02100 33.46900

