79

Mg 25.79500 0.64500 29.23400
C  27.61500 0.30000 32.18900
C  23.01000 1.20600 31.12900
C  23.96700 0.62900 26.42300
C  28.64500 -0.44500 27.45500
N  25.35600 0.68200 31.36500
C  26.30500 0.71300 32.39200
C  25.71600 1.33300 33.65500
C  24.24700 1.56900 33.29900
C  24.16600 1.08600 31.83600
C  23.23000 1.00800 34.34000
C  26.56700 2.54100 34.23100
C  27.23300 2.20600 35.65100
H  26.64900 2.98300 36.89800
N  23.81300 0.97800 28.84400
C  22.80100 1.12900 29.73200
C  21.51000 1.28700 29.00900
C  21.78100 1.20600 27.62100
C  23.21700 0.89500 27.60000
C  20.24500 1.56500 29.71400
C  20.87100 1.45600 26.28600
O  21.26300 1.29400 25.15600
C  19.34800 1.71700 26.37700
N  26.25200 0.22400 27.24700
C  25.30700 0.33800 26.23600
C  25.90500 0.06800 24.86300
C  27.44500 -0.31600 25.14200
C  27.51100 -0.10500 26.70100
C  25.15400 -0.92700 24.02100
C  28.47700 0.64600 24.35900
C  29.70900 -0.03300 23.90100
N  27.74600 0.02500 29.67400
C  28.72100 -0.42100 28.87500
C  29.89700 -0.74300 29.66100
C  29.50500 -0.43700 31.00900
C  28.16400 -0.02400 30.94700
C  31.31000 -0.97800 29.07600
C  29.98200 -0.23200 32.38500
O  31.07400 -0.47200 32.90500
C  28.78000 0.27000 33.18600
C  28.51300 -0.65600 34.30200
O  27.69700 -1.57400 34.24900
O  29.36300 -0.42800 35.31700
C  29.09800 -1.27300 36.53600
H  22.10000 1.26600 31.72900
H  23.42100 0.59900 25.47800
H  29.52400 -0.86400 26.96100
H  25.70500 0.51100 34.37200
H  24.13200 2.65200 33.26200
H  22.36700 1.67100 34.40300
H  23.65400 0.91800 35.34000
H  22.80000 0.15100 33.82100
H  25.92200 3.40800 34.36800
H  27.29500 2.84600 33.48000
H  28.29800 2.39800 35.77900
H  27.09100 1.15100 35.88600
H  19.75500 0.60000 29.83700
H  19.72400 2.27500 29.07200
H  20.38700 1.92900 30.73200
H  19.04900 0.83500 26.94400
H  18.85300 1.66900 25.40800
H  19.19000 2.66400 26.89500
H  25.82300 0.96000 24.24200
H  27.69000 -1.35800 24.94000
H  24.23500 -0.41800 23.72700
H  25.01700 -1.82900 24.61800
H  25.75200 -1.16800 23.14300
H  28.85000 1.52200 24.88900
H  27.86700 0.87700 23.48500
H  29.54800 -0.37400 22.87800
H  30.05700 -0.92000 24.43100
H  30.60100 0.59300 23.90200
H  31.98500 -0.86000 29.92300
H  31.37400 -0.25700 28.26100
H  31.31200 -1.96000 28.60200
H  28.91400 1.27900 33.57600
H  28.96100 -2.35300 36.48700
H  28.29900 -0.91200 37.18300
H  29.99200 -1.17900 37.15200

