79

Mg 1.00800 8.50100 26.40700
C  1.82900 10.37300 29.24400
C  1.40300 5.60400 28.11300
C  0.78000 6.76400 23.35400
C  1.17000 11.50400 24.50500
N  1.53500 8.10300 28.51600
C  1.83800 8.96900 29.52200
C  1.95900 8.27100 30.83400
C  2.06400 6.74500 30.39300
C  1.61200 6.79400 28.91900
C  3.41600 6.02000 30.76700
C  0.80600 8.48100 31.83900
C  1.22200 8.95100 33.22200
H  2.28300 8.15400 34.10200
N  0.98800 6.48000 25.82900
C  1.09500 5.40300 26.71200
C  0.84700 4.13900 26.09300
C  0.67800 4.47300 24.69400
C  0.78500 5.96100 24.52700
C  0.95900 2.72800 26.84100
C  0.40200 3.50500 23.56100
O  0.31700 3.96000 22.38600
C  0.13200 2.00900 23.80000
N  0.99900 9.04200 24.25000
C  0.98700 8.15600 23.25200
C  1.00900 8.86400 21.88400
C  0.73400 10.28500 22.22400
C  0.99300 10.26600 23.72800
C  2.29800 8.57800 20.97900
C  -0.60500 10.83500 21.71000
C  -1.72700 10.85200 22.74000
N  1.32800 10.54900 26.76500
C  1.32900 11.65100 25.91200
C  1.58900 12.83800 26.70200
C  1.74100 12.35900 28.02200
C  1.58600 10.98600 28.02300
C  1.66300 14.26200 26.17000
C  2.02800 12.81100 29.32600
O  2.27200 13.95600 29.75600
C  1.91300 11.53100 30.22300
C  3.17200 11.57400 30.99600
O  4.15700 10.88000 30.82100
O  2.89700 12.26300 32.15300
C  3.69400 11.89900 33.32700
H  1.39600 4.74000 28.78100
H  0.72600 6.39600 22.32800
H  1.21900 12.45600 23.97200
H  2.92100 8.63800 31.19300
H  1.30700 6.18200 30.93800
H  3.83000 5.39700 29.97400
H  3.19600 5.33500 31.58600
H  4.08300 6.80800 31.11600
H  0.22500 7.56900 31.97500
H  0.19200 9.34000 31.57000
H  0.36700 9.17600 33.86000
H  1.72100 9.90700 33.06400
H  0.10100 2.06200 26.74900
H  1.21800 2.92800 27.88000
H  1.72800 2.07700 26.42500
H  -0.50800 1.72800 24.63600
H  1.10900 1.53700 23.90700
H  -0.16400 1.67600 22.80600
H  0.18100 8.49700 21.27800
H  1.42800 10.98300 21.75600
H  2.85800 9.49600 20.80100
H  2.05100 8.15800 20.00400
H  2.96300 7.84900 21.44100
H  -0.90400 10.17300 20.89700
H  -0.51400 11.86100 21.35300
H  -2.48900 10.12700 22.45600
H  -2.14900 11.85600 22.78400
H  -1.50700 10.58300 23.77300
H  1.32600 14.34200 25.13700
H  2.67500 14.64700 26.28900
H  1.07200 14.88200 26.84400
H  1.07200 11.73600 30.88500
H  4.47400 11.20900 33.00700
H  3.03900 11.55600 34.12800
H  4.16900 12.84300 33.59400

