79

Mg 0.29500 8.13000 26.26900
C  0.87400 10.14500 29.26200
C  0.78400 5.46300 28.12200
C  0.35900 6.50300 23.49100
C  0.69200 11.21300 24.40000
N  0.84000 7.80400 28.46200
C  0.82400 8.74300 29.48100
C  0.97900 8.00400 30.83300
C  0.96100 6.47600 30.44500
C  0.80100 6.58300 28.93700
C  2.28600 5.73900 30.94900
C  -0.19700 8.42000 31.82700
C  0.09200 8.43700 33.37900
H  1.17500 7.56900 34.00100
N  0.51200 6.18600 25.81700
C  0.66600 5.19700 26.72200
C  0.46300 3.88500 26.04500
C  0.46700 4.18100 24.59400
C  0.38400 5.70000 24.58000
C  0.32500 2.54100 26.78700
C  0.27900 3.28100 23.34400
O  0.02200 3.81200 22.32000
C  0.35900 1.79600 23.46300
N  0.45200 8.78400 24.27900
C  0.31900 7.87100 23.28700
C  0.21100 8.51700 21.87600
C  -0.04600 9.99900 22.22500
C  0.47300 10.00100 23.71200
C  1.58000 8.25300 21.17300
C  -1.54300 10.33100 22.18400
C  -1.87500 11.51900 21.23400
N  0.67900 10.26700 26.72300
C  0.78500 11.31800 25.82500
C  0.92900 12.55400 26.54600
C  1.00300 12.19000 27.93100
C  0.82400 10.74400 27.98200
C  1.09500 13.94100 25.98200
C  1.27200 12.67300 29.24000
O  1.60600 13.78700 29.68600
C  1.08500 11.36000 30.21000
C  2.19300 11.23500 31.15800
O  3.14500 10.51900 30.93500
O  1.96200 11.95300 32.29100
C  3.09500 12.10400 33.18100
H  1.00100 4.56500 28.70300
H  0.30600 6.02900 22.50800
H  0.74100 12.16400 23.86500
H  1.91700 8.29300 31.30600
H  0.09100 5.93500 30.81600
H  1.99500 4.87600 31.54700
H  3.03400 6.32600 31.48200
H  2.85600 5.37100 30.09500
H  -1.02100 7.73700 31.61800
H  -0.54300 9.42700 31.59500
H  -0.77000 8.32400 34.03600
H  0.45800 9.41700 33.68400
H  0.16000 2.68600 27.85500
H  1.21300 1.93800 26.60100
H  -0.63900 2.13600 26.47900
H  -0.38100 1.40200 24.15900
H  1.28700 1.51600 23.96000
H  0.38500 1.33400 22.47600
H  -0.60900 8.18600 21.23800
H  0.59300 10.63300 21.61100
H  2.17400 7.49600 21.68500
H  2.19600 9.15100 21.12500
H  1.49300 8.03100 20.10900
H  -1.79900 10.74300 23.16000
H  -2.18200 9.48700 21.92400
H  -1.99000 12.43600 21.81100
H  -2.87800 11.26400 20.89200
H  -1.25200 11.75100 20.37000
H  0.44600 13.96700 25.10600
H  2.13600 14.15400 25.74000
H  0.75200 14.68300 26.70300
H  0.20800 11.59300 30.81300
H  3.58900 13.03500 32.90100
H  3.69900 11.20000 33.25900
H  2.60400 12.15000 34.15200

