79

Mg 48.84400 44.46800 42.87700
C  45.47300 43.91300 42.36000
C  49.43000 41.10200 41.93000
C  52.20600 45.05500 42.74700
C  48.23300 47.79300 42.91500
N  47.67400 42.79600 41.95300
C  46.29000 42.80300 42.03400
C  45.76100 41.46800 41.38800
C  46.97800 40.48000 41.70300
C  48.12800 41.48900 41.80500
C  46.74500 39.68100 42.97700
C  45.51400 41.71300 39.85600
C  44.40600 41.09500 39.04000
H  44.86200 40.56800 37.71300
N  50.53100 43.17800 42.58200
C  50.58800 41.85100 42.19100
C  51.92800 41.49200 41.87300
C  52.79000 42.58200 42.25200
C  51.81700 43.66300 42.66200
C  52.29500 40.17500 41.32400
C  54.27200 42.57000 42.19200
O  54.88600 41.61000 41.69600
C  54.94800 43.70100 42.80400
N  50.02300 46.14800 42.69900
C  51.40600 46.16800 42.78600
C  51.99400 47.57100 42.90500
C  50.68800 48.44600 42.70400
C  49.54800 47.39100 42.89700
C  52.58600 47.84200 44.29100
C  50.67300 49.06700 41.28100
C  49.87500 50.33900 41.06100
N  47.21000 45.65000 42.91200
C  47.05600 46.97700 42.93100
C  45.65400 47.37300 42.97400
C  44.96100 46.14000 42.88300
C  45.96000 45.16600 42.74200
C  45.10000 48.79700 42.91000
C  43.59300 45.60600 42.70500
O  42.45100 46.05700 42.73600
C  43.91200 44.06800 42.28300
C  43.14000 43.18300 43.21400
O  41.95900 43.15600 43.22800
O  44.03800 42.54300 44.05200
C  43.44000 41.67400 45.14200
H  49.54600 40.04300 41.69200
H  53.25700 45.35300 42.74900
H  48.21600 48.88500 42.90500
H  44.82300 41.18800 41.86900
H  47.04700 39.82000 40.83800
H  45.85900 40.08700 43.46600
H  47.53500 39.95100 43.67800
H  46.55500 38.61200 42.87600
H  46.49700 41.44300 39.47300
H  45.42100 42.79200 39.73000
H  43.77900 41.95700 38.81200
H  43.89200 40.28900 39.56400
H  52.63400 40.31500 40.29700
H  51.37000 39.63700 41.11700
H  52.91100 39.60700 42.02100
H  54.88500 44.52400 42.09200
H  56.00000 43.50100 43.00700
H  54.51300 43.96400 43.76800
H  52.83400 47.78800 42.24600
H  50.42700 49.27200 43.36600
H  52.46700 48.87400 44.62100
H  53.65500 47.63600 44.34000
H  52.18000 47.17800 45.05400
H  50.26000 48.30600 40.61900
H  51.70000 49.37700 41.08300
H  49.36200 50.81600 41.89600
H  48.97200 50.21300 40.46400
H  50.57700 51.07700 40.67300
H  45.36300 49.25800 41.95800
H  45.70200 49.44700 43.54400
H  44.02300 48.86500 43.05900
H  43.56800 43.96000 41.25400
H  44.21100 41.75700 45.90900
H  43.29700 40.64900 44.80300
H  42.54800 42.03200 45.65500

