79

Mg 24.45900 -4.94700 44.88800
C  26.65100 -2.74000 43.36200
C  21.98000 -3.80200 42.83800
C  22.76000 -7.75800 45.59000
C  27.24200 -6.32200 46.61100
N  24.38500 -3.55200 43.34800
C  25.39900 -2.69800 42.87700
C  24.94900 -1.95800 41.57900
C  23.42700 -1.87800 41.78000
C  23.24300 -3.20000 42.68200
C  22.97000 -0.50500 42.26000
C  25.46600 -2.72500 40.29600
C  26.28200 -2.03500 39.16400
H  25.93000 -2.42300 37.69000
N  22.58900 -5.61000 44.33300
C  21.70400 -4.93800 43.56000
C  20.50300 -5.68900 43.57100
C  20.64500 -6.88600 44.34900
C  22.05800 -6.79800 44.76500
C  19.29000 -5.21800 42.71400
C  19.60700 -7.95200 44.67900
O  18.45000 -7.92500 44.28300
C  19.87800 -9.13500 45.61600
N  25.02000 -6.85800 45.84000
C  24.06100 -7.77400 46.07500
C  24.68500 -8.94500 46.98600
C  26.06500 -8.35300 47.30700
C  26.09900 -7.07600 46.53800
C  23.78400 -9.27300 48.20800
C  27.23800 -9.33400 46.89400
C  27.72000 -10.21700 48.12100
N  26.46200 -4.52000 45.10900
C  27.41300 -5.12400 45.89200
C  28.73400 -4.43500 45.75500
C  28.47700 -3.45200 44.75400
C  27.13100 -3.53400 44.39600
C  29.86700 -4.86300 46.45200
C  29.12800 -2.42900 43.93100
O  30.24600 -2.02500 43.84000
C  27.89600 -1.92600 42.97800
C  27.75100 -0.52200 43.04800
O  27.01600 0.05800 43.78400
O  28.58300 0.13300 42.24900
C  28.49200 1.65400 42.18800
H  21.11200 -3.38900 42.32100
H  22.27500 -8.72700 45.72200
H  28.09600 -6.68000 47.18900
H  25.49400 -1.01500 41.53300
H  22.92500 -2.10900 40.84000
H  22.76500 -0.62800 43.32300
H  22.04800 -0.29800 41.71600
H  23.72700 0.24000 42.01600
H  24.71500 -3.33900 39.79900
H  26.07000 -3.53200 40.71200
H  27.33000 -2.30100 39.30200
H  26.26400 -0.94800 39.24400
H  18.61900 -6.02700 42.42700
H  19.51500 -4.70000 41.78100
H  18.62300 -4.57000 43.28200
H  20.34600 -8.77700 46.53300
H  20.52100 -9.86200 45.11800
H  18.94900 -9.63700 45.88600
H  24.71900 -9.77100 46.27600
H  26.19300 -8.17400 48.37500
H  22.94900 -8.57300 48.22800
H  24.34600 -9.15700 49.13500
H  23.38900 -10.26900 48.01000
H  28.05400 -8.80800 46.39800
H  26.90400 -10.10000 46.19500
H  27.56800 -11.25600 47.82700
H  27.07100 -10.05300 48.98100
H  28.72800 -10.04100 48.49800
H  30.29400 -5.78900 46.06800
H  29.59800 -5.15500 47.46700
H  30.65300 -4.11000 46.38400
H  28.16000 -2.04200 41.92700
H  29.44500 2.05100 41.83700
H  28.23200 2.21700 43.08400
H  27.81700 1.82400 41.34900

