79

Mg 49.33300 45.20300 43.17300
C  46.01800 45.83100 42.13700
C  49.18300 42.23800 41.53500
C  52.69500 45.12700 43.22800
C  49.48900 48.69200 43.97200
N  47.80200 44.19000 41.96400
C  46.55200 44.65900 41.61200
C  45.83900 43.78200 40.66800
C  46.69400 42.47200 40.74100
C  47.98000 42.98700 41.48100
C  46.02800 41.31300 41.56800
C  45.68200 44.46100 39.22800
C  44.24500 44.45300 38.62200
H  44.03400 43.45700 37.49400
N  50.73300 43.65400 42.82400
C  50.43600 42.48200 42.14000
C  51.66400 41.68300 42.17000
C  52.73700 42.54400 42.69000
C  52.07500 43.85500 42.95700
C  51.74300 40.29200 41.66800
C  54.14200 42.13300 42.87900
O  54.51100 40.97900 42.61200
C  55.11900 43.06700 43.68500
N  50.92300 46.71700 43.50400
C  52.19400 46.43700 43.45900
C  53.06600 47.69400 43.61900
C  52.03600 48.75600 44.10600
C  50.70700 48.08800 43.81100
C  54.40600 47.53900 44.49900
C  52.18700 50.16100 43.35400
C  52.07700 51.50300 44.07100
N  47.98400 46.84800 43.30400
C  48.19600 48.11600 43.73900
C  46.88100 48.78900 43.92400
C  46.02800 47.87900 43.29600
C  46.74800 46.73900 42.87200
C  46.56700 50.21000 44.17700
C  44.69300 47.75200 42.85900
O  43.73000 48.47600 43.11800
C  44.64700 46.47900 41.96000
C  43.47600 45.68100 42.44700
O  42.38300 45.58800 41.89800
O  43.87700 45.10500 43.63400
C  42.79800 44.33700 44.26300
H  48.91200 41.28300 41.08000
H  53.78500 45.08200 43.17400
H  49.38200 49.75500 44.19500
H  44.88300 43.43300 41.05700
H  46.93600 42.03700 39.77200
H  44.97500 41.50600 41.77200
H  46.48500 41.05700 42.52400
H  46.08300 40.45400 40.89900
H  46.33800 43.90300 38.56000
H  46.06700 45.47200 39.35500
H  44.13800 45.49900 38.33300
H  43.48900 44.21600 39.37100
H  52.71300 40.05000 41.23300
H  50.89300 40.13000 41.00600
H  51.65700 39.58100 42.49000
H  54.63000 43.32200 44.62500
H  55.44000 43.89800 43.05700
H  55.98100 42.46200 43.96500
H  53.27900 47.97700 42.58800
H  52.06900 48.90900 45.18500
H  54.39000 46.62000 45.08500
H  54.64600 48.39800 45.12500
H  55.26200 47.38900 43.84100
H  51.39200 50.17800 42.60900
H  53.01700 50.09000 42.65000
H  52.60300 52.33400 43.60200
H  52.44200 51.39100 45.09300
H  51.03800 51.83300 44.08900
H  46.58500 50.47600 45.23400
H  45.54100 50.33600 43.83100
H  47.34200 50.88600 43.81500
H  44.48600 46.78800 40.92800
H  42.72700 43.37200 43.76100
H  41.81700 44.81100 44.28800
H  43.07800 44.15800 45.30100

