79

Mg 47.50800 16.49200 28.87800
C  45.62300 16.03600 31.66700
C  49.62500 18.43000 30.74300
C  49.47000 16.95200 26.12700
C  44.96300 15.23900 26.92600
N  47.55100 17.22100 30.91600
C  46.68400 16.89700 31.87800
C  47.27700 17.25800 33.25900
C  48.34000 18.30600 32.90300
C  48.43700 18.05800 31.41000
C  47.92600 19.75300 33.23500
C  47.93900 15.99100 33.95100
C  48.06400 16.00800 35.54600
H  47.83600 17.32000 36.33500
N  49.35100 17.41300 28.52100
C  50.09500 18.00500 29.48600
C  51.32000 18.48700 28.87800
C  51.38800 17.93900 27.59100
C  50.05600 17.39100 27.33800
C  52.32600 19.34400 29.69300
C  52.52500 17.80300 26.65000
O  52.48700 17.16500 25.58900
C  53.89300 18.30500 27.07600
N  47.19300 16.36600 26.72600
C  48.21100 16.38100 25.84000
C  47.64700 16.03100 24.34800
C  46.26100 15.35200 24.68800
C  46.06900 15.70000 26.18200
C  47.62500 17.22500 23.35300
C  46.10900 13.82900 24.45900
C  45.05700 13.40000 23.43500
N  45.67400 15.72200 29.15100
C  44.77500 15.19700 28.30500
C  43.68200 14.61200 29.01300
C  43.95600 14.88400 30.37200
C  45.22800 15.53300 30.39700
C  42.60900 13.90700 28.33900
C  43.52000 14.67300 31.73200
O  42.45600 14.18700 32.17100
C  44.64800 15.40000 32.63700
C  43.99800 16.35600 33.54300
O  43.26900 17.23700 33.13500
O  44.18600 16.08300 34.84500
C  43.75300 17.14000 35.80700
H  50.21500 19.08200 31.39100
H  50.12100 16.91500 25.25100
H  44.21200 14.71500 26.33100
H  46.42900 17.71300 33.77000
H  49.27900 18.02900 33.38300
H  48.69500 20.09600 33.92700
H  46.98800 19.77500 33.79100
H  47.95300 20.36600 32.33400
H  48.87900 15.68300 33.49300
H  47.25200 15.16200 33.77700
H  49.08600 15.65100 35.66800
H  47.38100 15.24600 35.92200
H  52.63600 20.14300 29.01900
H  53.19400 18.75600 29.99100
H  51.97900 19.82500 30.60800
H  53.95600 19.39300 27.07900
H  54.66400 17.93000 26.40200
H  54.21200 18.13200 28.10400
H  48.34000 15.30400 23.92200
H  45.56100 15.96200 24.11700
H  48.32800 17.05000 22.53900
H  47.86700 18.14400 23.88700
H  46.64000 17.40200 22.92100
H  45.96700 13.29800 25.40000
H  47.05900 13.40400 24.13700
H  45.11100 14.17200 22.66700
H  44.04000 13.26800 23.80300
H  45.31600 12.41100 23.05800
H  42.00200 13.42100 29.10300
H  43.04600 13.13900 27.70100
H  41.96000 14.56600 27.76100
H  44.98700 14.54600 33.22200
H  42.66900 17.23300 35.75400
H  44.09700 18.10100 35.42600
H  44.22500 16.89500 36.75900

