79

Mg 47.23500 24.96700 29.00100
C  47.88100 27.24900 31.50900
C  46.56900 22.58300 31.55500
C  46.93200 22.43600 26.68400
C  48.11000 27.12800 26.62600
N  47.31900 24.89900 31.25300
C  47.43100 26.06900 31.99800
C  47.12300 25.79500 33.50000
C  46.88600 24.23500 33.53600
C  46.87000 23.85500 32.02700
C  48.00600 23.55800 34.28400
C  45.95400 26.59300 34.09300
C  46.25600 27.25500 35.52300
H  45.16100 27.19000 36.56700
N  46.63700 22.86100 29.12100
C  46.52600 22.08600 30.20800
C  46.20100 20.75400 29.88500
C  46.29500 20.63100 28.51000
C  46.67300 21.97200 28.02800
C  45.61000 19.71600 30.85800
C  46.04200 19.40500 27.59600
O  46.07400 19.47700 26.35400
C  45.83000 18.03500 28.28600
N  47.64500 24.74000 27.00300
C  47.23200 23.70400 26.23500
C  47.46800 23.94200 24.76600
C  47.50700 25.50400 24.76000
C  47.66500 25.86800 26.19100
C  48.83700 23.36900 24.29900
C  46.33300 26.18300 24.11900
C  45.35600 26.92000 25.05000
N  48.05000 26.77400 29.05400
C  48.30400 27.59800 27.97500
C  48.76700 28.82500 28.43700
C  48.52900 28.77800 29.85600
C  48.12300 27.51700 30.15500
C  49.16200 29.99200 27.60800
C  48.65900 29.56700 31.13700
O  49.11200 30.70200 31.38300
C  48.11200 28.61500 32.20500
C  49.00000 28.60000 33.35400
O  49.92600 27.84200 33.47900
O  48.62200 29.60000 34.22500
C  49.43300 29.71200 35.43200
H  46.22000 21.94100 32.36600
H  46.84800 21.66500 25.91400
H  48.14200 27.77300 25.74500
H  47.93600 26.05900 34.17700
H  45.96500 23.78100 33.90200
H  48.62700 22.95500 33.62200
H  47.52500 22.84400 34.95300
H  48.70200 24.19800 34.82700
H  45.20100 25.83300 34.30300
H  45.67300 27.42500 33.44700
H  46.25700 28.33000 35.34200
H  47.24500 27.05400 35.93400
H  44.63900 19.41400 30.46500
H  45.65200 19.90300 31.93100
H  46.28600 18.86400 30.78700
H  46.61800 17.75600 28.98500
H  45.84700 17.32200 27.46100
H  44.80600 18.10000 28.65500
H  46.64300 23.54500 24.17600
H  48.43300 25.89800 24.33900
H  49.31700 22.79800 25.09400
H  49.57200 24.13000 24.03500
H  48.68500 22.65700 23.48900
H  45.84300 25.44400 23.48600
H  46.79800 26.91200 23.45600
H  45.53700 27.98900 24.94400
H  45.22300 26.53300 26.06100
H  44.33300 26.90900 24.67700
H  48.39200 30.22600 26.87400
H  50.14900 29.81900 27.17900
H  49.33100 30.80600 28.31300
H  47.12200 29.03400 32.38800
H  49.23100 28.92900 36.16300
H  49.28100 30.62700 36.00500
H  50.51100 29.59800 35.31300

