79

Mg 42.66500 41.61500 26.45000
C  41.91300 43.86500 29.18500
C  43.63000 39.35200 28.84700
C  44.01500 39.70400 24.06800
C  42.02300 44.07400 24.13900
N  42.76800 41.66700 28.71700
C  42.40500 42.61800 29.60200
C  42.42100 42.06500 31.05700
C  43.16500 40.70500 30.92500
C  43.16700 40.53900 29.39000
C  44.52800 40.66000 31.60300
C  41.08200 41.98800 31.75000
C  41.16300 41.78700 33.27300
H  40.53000 42.84900 34.14000
N  43.75100 39.72700 26.44600
C  43.81700 38.97800 27.52900
C  44.35300 37.66900 27.11400
C  44.55900 37.74800 25.70700
C  44.15300 39.09700 25.32300
C  44.56600 36.49500 28.05100
C  45.13000 36.80100 24.81500
O  45.42300 37.06900 23.65700
C  45.33700 35.35700 25.27400
N  43.15100 41.88900 24.45000
C  43.59500 40.91900 23.64800
C  43.53900 41.30400 22.18700
C  42.85700 42.63900 22.19900
C  42.66500 42.90600 23.66300
C  44.95900 41.24500 21.49900
C  41.39700 42.54700 21.49200
C  40.32100 41.72900 22.18700
N  41.98900 43.58700 26.51200
C  41.74900 44.45600 25.51400
C  41.35900 45.67500 26.05500
C  41.44200 45.55900 27.52400
C  41.74600 44.22300 27.73600
C  41.08800 46.89100 25.23200
C  41.31700 46.20200 28.80400
O  40.97500 47.33700 28.99400
C  41.50900 45.07800 29.92700
C  42.55100 45.62300 30.89700
O  43.78000 45.73500 30.60000
O  42.03700 46.02700 32.07100
C  43.03300 46.62800 32.98200
H  44.01200 38.65700 29.59700
H  44.49700 39.13600 23.27000
H  41.88300 44.84500 23.37800
H  42.99100 42.88700 31.49000
H  42.58500 39.97100 31.48300
H  44.56400 39.66200 32.03900
H  44.67500 41.27800 32.48900
H  45.36700 40.83400 30.92900
H  40.61200 41.07700 31.38100
H  40.49700 42.89700 31.60700
H  42.14600 41.58600 33.69900
H  40.64500 40.89100 33.61800
H  44.21600 35.57100 27.59200
H  44.08500 36.62000 29.02100
H  45.64600 36.43100 28.18000
H  45.87800 35.39300 26.21900
H  46.00200 34.96500 24.50400
H  44.39200 34.82500 25.17000
H  42.88600 40.49300 21.86500
H  43.53700 43.29800 21.65900
H  45.73300 40.94800 22.20600
H  45.28300 42.19000 21.06200
H  44.84900 40.45700 20.75300
H  41.55200 42.16300 20.48400
H  41.04600 43.55100 21.25400
H  39.50500 42.37900 22.50300
H  40.69900 41.13600 23.02000
H  39.89300 41.02400 21.47400
H  40.29800 47.48000 25.69700
H  40.78200 46.56500 24.23800
H  41.97400 47.52500 25.18300
H  40.59200 44.92300 30.49600
H  42.83300 46.24400 33.98200
H  43.01400 47.71300 33.08100
H  44.04700 46.24800 32.85700

