79

Mg 42.33600 41.43000 26.50600
C  41.71600 43.65100 29.13800
C  43.24900 38.95900 28.79200
C  43.23900 39.53600 23.90100
C  41.37800 43.95300 24.39600
N  42.53000 41.35500 28.72400
C  42.18400 42.39900 29.63900
C  42.13100 41.84300 31.07800
C  42.85900 40.47100 30.91700
C  42.82300 40.16700 29.39300
C  44.16000 40.34800 31.60600
C  40.67300 41.71600 31.62000
C  40.36000 42.81500 32.72600
H  39.79600 42.34700 34.08000
N  43.22000 39.51900 26.40900
C  43.44200 38.60700 27.41300
C  43.98100 37.38900 26.80700
C  43.95700 37.53700 25.36900
C  43.38000 38.86800 25.15300
C  44.38900 36.08700 27.63300
C  44.43000 36.66100 24.29000
O  44.36200 36.94200 23.10300
C  45.18800 35.42000 24.63500
N  42.50800 41.73500 24.41900
C  42.78300 40.78400 23.53400
C  42.56700 41.25400 22.06300
C  41.86600 42.59700 22.25900
C  41.94000 42.74900 23.74800
C  43.81300 41.15900 21.18400
C  40.41000 42.66200 21.75500
C  39.29900 42.06900 22.62000
N  41.64500 43.37000 26.69700
C  41.39900 44.32300 25.72200
C  40.97100 45.59100 26.31700
C  41.06500 45.36100 27.68300
C  41.52900 44.03400 27.83600
C  40.39300 46.81400 25.58500
C  40.75100 45.91500 28.92400
O  40.19900 46.94500 29.29800
C  41.16300 44.82100 29.97400
C  42.15900 45.38600 30.98000
O  43.37200 45.36900 30.87400
O  41.49300 45.75300 32.17200
C  42.30400 46.29800 33.22500
H  43.42000 38.17800 29.53500
H  43.47400 39.01300 22.97100
H  41.16500 44.76100 23.69300
H  42.64800 42.56100 31.71600
H  42.25300 39.72800 31.43500
H  44.50300 41.37200 31.75100
H  44.86900 39.91200 30.90300
H  44.11600 39.86500 32.58300
H  40.54100 40.75600 32.11800
H  39.96100 41.89300 30.81300
H  39.55500 43.38000 32.25600
H  41.18100 43.50200 32.92800
H  43.65700 35.29700 27.46300
H  44.25200 36.46800 28.64500
H  45.45100 35.86800 27.52100
H  44.50900 34.63400 24.96500
H  45.99800 35.67000 25.32000
H  45.70100 35.09300 23.73100
H  41.85300 40.52500 21.68000
H  42.43900 43.35300 21.72300
H  43.85200 42.13900 20.70800
H  43.67500 40.27600 20.55900
H  44.73100 41.07900 21.76700
H  40.39600 42.18400 20.77600
H  40.25800 43.73700 21.65900
H  39.09700 42.76900 23.43100
H  39.62200 41.19400 23.18400
H  38.42100 41.63300 22.14200
H  40.70000 46.79500 24.53900
H  40.81900 47.64800 26.14300
H  39.30600 46.88900 25.57100
H  40.34700 44.41100 30.56800
H  43.19300 46.85700 32.93100
H  42.61900 45.63200 34.02800
H  41.71200 47.11000 33.64700

