79

Mg 36.18200 49.92700 25.15700
C  36.29200 48.22100 28.17200
C  34.66000 52.58400 26.77300
C  35.89300 51.39900 22.09900
C  37.33000 46.93400 23.56300
N  35.49700 50.25100 27.14000
C  35.66100 49.40700 28.24700
C  35.25900 50.14400 29.52800
C  34.36100 51.31700 29.04500
C  34.80900 51.43400 27.55800
C  32.84400 51.14500 29.35200
C  36.59900 50.63000 30.32600
C  36.74400 50.23700 31.72100
H  35.49300 49.95000 32.51300
N  35.40000 51.74900 24.52200
C  34.88300 52.74000 25.36200
C  34.81100 53.99400 24.62800
C  35.25700 53.68200 23.30900
C  35.53500 52.22500 23.26500
C  34.60600 55.37000 25.27100
C  35.50200 54.66000 22.14300
O  36.13700 54.32300 21.09300
C  34.95700 56.06400 22.26900
N  36.40200 49.20500 23.04500
C  36.21900 50.03600 22.04500
C  36.60400 49.39500 20.73300
C  37.07400 47.97200 21.21500
C  36.91200 47.99600 22.65900
C  35.55400 49.35800 19.58700
C  38.46500 47.49200 20.74500
C  39.38600 48.40100 20.01600
N  36.76600 47.92000 25.72900
C  37.29400 46.91400 24.95700
C  37.58000 45.78500 25.88900
C  37.25700 46.30300 27.14500
C  36.75200 47.59800 26.96400
C  38.18500 44.50200 25.46800
C  37.11600 45.96600 28.57200
O  37.55700 44.94700 29.06300
C  36.39700 47.19800 29.28700
C  35.21100 46.71800 30.02900
O  34.05300 47.05700 29.69000
O  35.50500 45.87500 31.08700
C  34.37600 45.59700 32.01200
H  34.32200 53.50300 27.25500
H  35.62000 51.94700 21.19500
H  37.81900 45.99600 23.29400
H  34.69000 49.45500 30.15200
H  34.71300 52.23400 29.51700
H  32.32300 50.95200 28.41400
H  32.45900 52.12800 29.62300
H  32.72500 50.39300 30.13100
H  36.77100 51.69300 30.49600
H  37.44500 50.26600 29.74300
H  37.32000 50.96500 32.29300
H  37.35400 49.33400 31.72500
H  35.43000 55.98800 24.91500
H  34.75400 55.26900 26.34600
H  33.57100 55.67100 25.10900
H  33.97800 55.96700 22.73800
H  34.85600 56.57100 21.30900
H  35.58500 56.64900 22.94000
H  37.48000 50.02300 20.56900
H  36.28700 47.29900 20.87600
H  36.19500 49.59300 18.73700
H  34.82300 50.15800 19.70100
H  35.10100 48.38300 19.40700
H  38.26400 46.63300 20.10600
H  38.97900 47.04000 21.59400
H  38.81400 48.70100 19.13700
H  40.26400 47.85700 19.66700
H  39.64800 49.21100 20.69600
H  39.12000 44.65100 24.92700
H  37.43400 44.04000 24.82700
H  38.16600 43.95800 26.41300
H  37.09800 47.60700 30.01500
H  34.53000 44.71100 32.62800
H  33.39500 45.57300 31.53900
H  34.33400 46.41900 32.72600

