79

Mg 8.78300 3.67600 27.32900
C  9.75000 2.06000 30.08400
C  6.42100 5.57300 29.07000
C  7.80100 5.26200 24.36400
C  10.26500 1.21500 25.29700
N  7.97600 3.53700 29.31700
C  8.65700 2.98600 30.34800
C  8.02800 3.41200 31.71100
C  6.81700 4.31000 31.25700
C  7.01700 4.51600 29.72700
C  5.37100 3.80700 31.50000
C  9.10400 4.12100 32.56800
C  8.99400 3.80100 34.12300
H  10.18800 4.00200 35.05500
N  7.55400 5.23600 26.87300
C  6.61100 5.83500 27.67700
C  5.83800 6.88400 27.01700
C  6.39300 6.87100 25.64700
C  7.39200 5.77600 25.60800
C  4.78300 7.78800 27.67300
C  5.99500 7.81300 24.53000
O  6.44100 7.89000 23.35800
C  4.92400 8.90800 24.77100
N  8.97600 3.32800 25.14300
C  8.50500 4.10100 24.14400
C  8.94100 3.59800 22.73500
C  9.84100 2.37800 23.08800
C  9.74900 2.31600 24.61600
C  7.71900 3.18500 21.83800
C  11.35600 2.45900 22.57300
C  11.64900 1.47900 21.42000
N  9.91200 2.08300 27.58600
C  10.44100 1.09700 26.74400
C  11.20600 0.19100 27.54900
C  11.01800 0.51700 28.88900
C  10.23200 1.68400 28.85100
C  12.13800 -0.81600 27.03100
C  11.38400 0.29100 30.26100
O  12.13700 -0.56200 30.72600
C  10.67500 1.31700 31.10900
C  9.92800 0.61500 32.23500
O  8.93400 -0.09000 32.11600
O  10.57000 0.85400 33.41300
C  10.07900 0.18000 34.66100
H  5.78700 6.17000 29.72900
H  7.45800 5.84000 23.50300
H  10.73300 0.38800 24.75900
H  7.54700 2.60100 32.25700
H  6.90400 5.24700 31.80700
H  4.90500 4.41200 32.27800
H  5.24500 2.72500 31.50400
H  4.83500 4.06200 30.58500
H  8.94900 5.19100 32.43400
H  10.07800 3.90000 32.13100
H  8.83900 2.72800 34.23600
H  8.19000 4.43600 34.49400
H  4.69900 7.59900 28.74300
H  3.82200 7.63200 27.18300
H  5.20000 8.79500 27.70300
H  4.02800 8.34600 25.03100
H  4.79200 9.39600 23.80500
H  5.25100 9.65300 25.49700
H  9.42700 4.42000 22.21000
H  9.30700 1.47400 22.79500
H  7.59000 3.99800 21.12400
H  6.77400 3.06900 22.36900
H  7.89100 2.20500 21.39200
H  11.95100 2.24400 23.46000
H  11.65900 3.43500 22.19500
H  12.13200 1.92000 20.54800
H  10.73200 1.01300 21.05700
H  12.14900 0.60400 21.83500
H  12.67700 -1.24500 27.87500
H  12.86600 -0.27700 26.42400
H  11.62400 -1.59000 26.46000
H  11.47500 1.97200 31.45600
H  9.21500 -0.48300 34.63100
H  9.87700 0.87000 35.48000
H  10.84700 -0.35900 35.21500

