79

Mg 34.85300 2.94600 29.26900
C  33.00400 4.29400 31.96800
C  37.49500 2.66700 31.61800
C  36.90800 2.40500 26.82500
C  32.15500 3.68600 27.14400
N  35.13200 3.44200 31.51000
C  34.26000 3.90900 32.41400
C  34.80400 3.82300 33.81700
C  36.31600 3.68200 33.57800
C  36.34500 3.20800 32.14500
C  37.00700 5.00700 33.89000
C  34.25300 2.68300 34.70900
C  34.07200 3.07400 36.23600
H  34.96400 4.27700 36.89000
N  36.82900 2.29000 29.23500
C  37.76400 2.31300 30.24500
C  38.97500 1.73600 29.76600
C  38.84900 1.68600 28.34700
C  37.47400 2.19900 28.08200
C  40.08900 1.37200 30.69300
C  39.89500 1.18700 27.30000
O  39.70500 1.18700 26.08100
C  41.20800 0.82200 27.83600
N  34.62800 3.21000 27.30900
C  35.60000 2.75000 26.51200
C  35.01900 2.58000 25.06700
C  33.50500 2.69300 25.26500
C  33.42000 3.31500 26.69500
C  35.63200 3.74000 24.14600
C  32.70400 1.32400 25.13900
C  31.40500 1.30800 24.38700
N  32.87200 3.73000 29.45400
C  31.88700 4.01100 28.51400
C  30.70000 4.53600 29.16300
C  31.09000 4.62900 30.50800
C  32.44100 4.20800 30.63900
C  29.42000 4.92800 28.39400
C  30.63300 4.96300 31.83100
O  29.51000 5.21300 32.20400
C  31.82300 4.82600 32.82200
C  32.08000 6.10700 33.49700
O  32.87300 6.99100 33.13700
O  31.29700 6.22000 34.56800
C  31.30000 7.51300 35.30400
H  38.33200 2.54100 32.30700
H  37.50400 2.06700 25.97500
H  31.26900 3.87700 26.53500
H  34.63400 4.81900 34.22700
H  36.76800 2.91900 34.21100
H  36.37900 5.68000 34.47500
H  37.30500 5.48500 32.95700
H  37.92100 4.93100 34.47800
H  34.91400 1.82100 34.61800
H  33.24100 2.48600 34.35600
H  34.18000 2.22300 36.90800
H  33.04500 3.41700 36.36000
H  40.59800 0.44700 30.42200
H  39.65700 1.40400 31.69300
H  40.87400 2.12800 30.67100
H  41.74200 1.61300 28.36300
H  41.84000 0.45700 27.02600
H  41.02400 0.02400 28.55600
H  35.39700 1.60300 24.76700
H  32.92600 3.33800 24.60400
H  36.36500 3.31300 23.46200
H  36.10800 4.53400 24.72100
H  34.80600 4.13500 23.55400
H  32.41500 0.96600 26.12700
H  33.40800 0.72000 24.56600
H  31.48300 0.69700 23.48700
H  31.16800 2.32700 24.08200
H  30.61400 0.84800 24.97800
H  29.46300 5.42000 27.42200
H  28.82900 5.58600 29.03100
H  28.76400 4.07100 28.24300
H  31.50100 4.09600 33.56500
H  32.01000 7.33000 36.11000
H  30.25800 7.62100 35.60600
H  31.60500 8.35800 34.68800

