79

Mg -0.13300 43.31500 26.40600
C  2.30600 42.76500 28.77400
C  -2.50300 42.89300 29.08800
C  -2.65800 43.58000 24.13300
C  2.27700 43.44300 23.84900
N  -0.02800 43.04300 28.65900
C  1.06800 42.87100 29.42200
C  0.81900 42.83600 30.96400
C  -0.74200 42.71500 30.93700
C  -1.12300 42.84900 29.46500
C  -1.23000 41.34600 31.49400
C  1.28900 44.10000 31.75000
C  0.81200 44.38100 33.19000
H  0.42000 43.24200 34.10800
N  -2.22700 43.27000 26.59900
C  -3.00700 43.00900 27.72000
C  -4.43100 42.97500 27.28100
C  -4.46600 43.21600 25.94500
C  -3.06600 43.37900 25.49600
C  -5.42300 42.55900 28.29900
C  -5.72900 43.26900 25.06800
O  -5.60000 43.45100 23.85200
C  -7.13600 43.01800 25.64400
N  -0.17100 43.51400 24.39200
C  -1.32600 43.57600 23.65600
C  -1.04400 43.58300 22.18500
C  0.47400 43.74000 22.10600
C  0.94400 43.53100 23.54000
C  -1.73100 42.47500 21.30900
C  1.01600 45.11400 21.50000
C  1.56300 44.99400 20.07500
N  1.83600 43.19500 26.26400
C  2.71900 43.26300 25.19700
C  4.10400 43.25700 25.71000
C  3.96800 43.14200 27.04900
C  2.57000 43.04700 27.40000
C  5.41500 43.33300 24.90900
C  4.69200 43.08300 28.33400
O  5.89900 43.06600 28.50500
C  3.64200 42.79100 29.49500
C  4.11100 41.60800 30.29100
O  4.39200 40.54200 29.85500
O  4.06800 41.95800 31.64800
C  4.60900 40.85600 32.48100
H  -3.09800 42.82400 30.00100
H  -3.49300 43.69100 23.43900
H  3.05800 43.46900 23.08700
H  1.26400 41.92400 31.36000
H  -1.20200 43.55300 31.46000
H  -0.51900 40.97700 32.23300
H  -1.23800 40.57900 30.72000
H  -2.22500 41.49600 31.91400
H  1.13100 44.96100 31.10100
H  2.36000 44.30200 31.76900
H  0.01400 45.09800 32.99500
H  1.53800 44.99500 33.72200
H  -4.87700 42.23400 29.18400
H  -5.77800 41.63400 27.84600
H  -6.22000 43.26600 28.52900
H  -7.25700 42.00800 26.03600
H  -7.87700 43.09000 24.84800
H  -7.35500 43.80300 26.36900
H  -1.49400 44.49800 21.80200
H  0.77600 42.88600 21.50000
H  -2.07400 41.66300 21.95100
H  -1.04100 41.98300 20.62300
H  -2.60000 42.96500 20.86900
H  1.86100 45.41600 22.11800
H  0.32500 45.94800 21.62600
H  2.64900 45.07700 20.09500
H  1.13500 45.77600 19.44700
H  1.39400 43.99300 19.67700
H  5.93500 44.26600 25.12600
H  5.23800 43.25900 23.83600
H  6.00900 42.46500 25.19700
H  3.64000 43.69800 30.10100
H  4.20200 41.06900 33.46900
H  5.69100 40.72300 32.48100
H  4.13800 39.91300 32.20400

