79

Mg 45.30500 3.92000 47.45700
C  43.15300 6.43200 46.74500
C  42.73800 1.72400 47.25900
C  47.58500 1.48000 47.61100
C  47.99500 6.25000 47.40400
N  43.22600 4.06600 47.09100
C  42.54300 5.20000 46.73800
C  41.01300 4.91700 46.71000
C  40.90800 3.45200 46.98700
C  42.40500 3.05000 47.11400
C  40.00400 2.99900 48.14100
C  40.33600 5.31900 45.33900
C  39.25700 6.43000 45.42700
H  39.27700 7.53300 44.29200
N  45.17700 1.84400 47.41000
C  44.03600 1.10100 47.30500
C  44.31900 -0.30600 47.29100
C  45.71000 -0.41800 47.45200
C  46.21400 1.00100 47.47200
C  43.28000 -1.47400 47.18400
C  46.40700 -1.68200 47.61100
O  45.84400 -2.76100 47.55800
C  47.78900 -1.74300 48.02000
N  47.51300 3.86100 47.57200
C  48.17900 2.73100 47.71400
C  49.69800 2.89100 47.43000
C  49.84200 4.42100 47.58500
C  48.40500 4.90000 47.40600
C  50.67700 2.13200 48.44800
C  50.89800 5.07500 46.67000
C  51.72100 6.22400 47.21600
N  45.57000 5.98800 47.09400
C  46.68700 6.75500 47.25300
C  46.25800 8.17100 47.09700
C  44.86300 8.07700 46.97400
C  44.52600 6.78200 46.97700
C  47.14800 9.47900 47.05100
C  43.60400 8.81600 46.84000
O  43.43400 10.02800 46.85200
C  42.45900 7.75500 46.72200
C  41.48800 7.97200 47.83100
O  41.45300 7.40300 48.92300
O  40.66700 8.96700 47.55000
C  39.74300 9.62700 48.44300
H  41.92100 1.03700 47.02700
H  48.31800 0.67300 47.56000
H  48.88000 6.88500 47.33000
H  40.41100 5.37200 47.49600
H  40.71900 2.88300 46.07600
H  39.19700 3.71000 48.31900
H  40.66100 2.92800 49.00800
H  39.53000 2.05700 47.86500
H  39.89000 4.51400 44.75500
H  41.15400 5.71700 44.73900
H  39.29100 6.93300 46.39300
H  38.32600 5.86700 45.36300
H  43.61400 -2.11000 46.36400
H  42.28900 -1.06300 46.99400
H  43.24400 -2.05300 48.10600
H  48.06800 -2.74800 48.33400
H  48.08400 -1.10500 48.85400
H  48.42100 -1.57700 47.14800
H  49.85300 2.63900 46.38100
H  49.92400 4.74500 48.62300
H  51.54600 2.70700 48.76800
H  50.98600 1.17100 48.03800
H  50.01200 2.03900 49.30600
H  50.35300 5.59700 45.88300
H  51.56600 4.35200 46.20200
H  51.39300 7.19100 46.83500
H  52.74700 6.00200 46.92300
H  51.70700 6.25800 48.30600
H  46.93000 9.98600 46.11100
H  48.21500 9.28200 47.14800
H  46.81300 10.15700 47.83600
H  41.86200 7.74700 45.80900
H  39.67300 10.70100 48.27100
H  40.08700 9.39500 49.45100
H  38.73000 9.27400 48.24900

