79

Mg 2.85300 -1.81200 44.27600
C  6.39300 -1.21800 43.79300
C  2.25600 0.86800 42.17100
C  -0.20800 -2.93400 43.84300
C  3.78500 -5.07400 45.44400
N  4.20000 -0.42500 42.99500
C  5.59200 -0.34300 43.04400
C  6.16600 0.68800 42.09700
C  4.84800 1.54100 41.80400
C  3.68700 0.65200 42.42000
C  4.79100 2.93600 42.47900
C  6.83500 -0.03800 40.87900
C  8.29100 0.28000 40.65400
H  8.66500 0.68100 39.24500
N  1.14300 -0.99200 43.39400
C  1.07400 0.10900 42.52900
C  -0.26600 0.33300 42.10700
C  -1.03000 -0.66000 42.71200
C  -0.03400 -1.62000 43.33500
C  -0.62800 1.50300 41.11800
C  -2.51300 -0.76900 42.53700
O  -3.04600 -0.08900 41.65600
C  -3.32600 -1.77500 43.33900
N  1.97200 -3.86700 44.38300
C  0.62900 -3.91600 44.38500
C  0.06700 -5.10500 45.17500
C  1.35800 -5.90400 45.51100
C  2.49500 -4.91800 45.07600
C  -0.75300 -4.74900 46.41700
C  1.57300 -7.13300 44.71500
C  1.27000 -8.43200 45.52100
N  4.66000 -2.85200 44.68200
C  4.87000 -4.13200 45.28300
C  6.26900 -4.26700 45.65900
C  6.84700 -3.12400 45.12900
C  5.86500 -2.35100 44.44100
C  6.94600 -5.35600 46.51200
C  8.16700 -2.52600 45.02600
O  9.23500 -2.90600 45.56000
C  7.97200 -1.24200 44.14200
C  8.34100 0.00400 44.98300
O  7.86800 0.31300 46.04400
O  9.19400 0.73400 44.22800
C  9.26200 2.11800 44.78700
H  2.06200 1.62100 41.40400
H  -1.19800 -3.35400 43.65300
H  3.99200 -6.05000 45.88800
H  6.92200 1.21700 42.67700
H  4.74100 1.66800 40.72700
H  4.02300 3.01000 43.24900
H  4.43100 3.62800 41.71800
H  5.71300 3.28900 42.94100
H  6.37100 0.15700 39.91200
H  6.61700 -1.10600 40.84900
H  8.89800 -0.62200 40.72800
H  8.65600 1.05800 41.32400
H  -1.39200 1.27300 40.37500
H  0.24100 1.80400 40.53300
H  -1.02400 2.35600 41.66700
H  -2.90300 -1.60300 44.32900
H  -3.16000 -2.75500 42.89200
H  -4.36600 -1.47300 43.21400
H  -0.60200 -5.56900 44.45000
H  1.40000 -6.13400 46.57600
H  -0.89800 -5.56800 47.12100
H  -1.74200 -4.50100 46.03000
H  -0.32000 -3.87500 46.90200
H  2.58600 -7.23100 44.32600
H  0.89700 -7.10100 43.86000
H  2.12900 -9.10400 45.52400
H  0.50700 -8.82100 44.84800
H  0.77300 -8.25200 46.47400
H  7.35400 -5.94900 45.69200
H  6.22500 -5.89200 47.12800
H  7.65700 -4.84300 47.15900
H  8.68600 -1.43700 43.34200
H  8.33000 2.66700 44.65400
H  9.87400 2.86000 44.27500
H  9.57400 1.87600 45.80300

