79

Mg 49.41400 35.95600 27.37800
C  46.93500 34.37600 29.61700
C  49.33400 38.54800 29.55700
C  50.97600 37.65700 25.12300
C  48.56200 33.41000 25.05600
N  48.26600 36.34000 29.29800
C  47.60300 35.45500 30.12100
C  47.55400 36.02200 31.54300
C  47.78700 37.54300 31.38800
C  48.51000 37.53200 29.98800
C  46.47700 38.43700 31.54600
C  48.78800 35.42500 32.31900
C  48.72900 35.65400 33.86100
H  47.56000 36.44700 34.59300
N  50.15200 37.78700 27.39400
C  50.03800 38.74100 28.36400
C  50.81400 39.90400 27.98000
C  51.43900 39.60600 26.69100
C  50.86600 38.30300 26.34800
C  50.88500 41.12100 28.90500
C  52.29500 40.44500 25.73600
O  52.59100 40.16900 24.54700
C  52.81300 41.76400 26.23400
N  49.72200 35.58100 25.39200
C  50.50500 36.41800 24.68600
C  51.01400 35.81200 23.38400
C  50.12100 34.46900 23.27100
C  49.40700 34.42600 24.68600
C  51.14600 36.62700 22.10700
C  51.03500 33.14800 23.11700
C  50.40500 32.08400 22.19100
N  48.12400 34.19200 27.28500
C  47.89000 33.24500 26.28800
C  47.00500 32.21100 26.75000
C  46.62900 32.59700 28.06000
C  47.21900 33.85300 28.27000
C  46.50900 31.00600 25.99300
C  45.85800 32.23900 29.19300
O  45.19900 31.20100 29.41000
C  45.90300 33.42300 30.17800
C  46.32100 32.86900 31.51600
O  47.35600 32.37500 31.87400
O  45.27300 33.04500 32.36000
C  45.14100 32.31800 33.63300
H  49.40900 39.32200 30.32500
H  51.64100 38.05600 24.35400
H  48.32800 32.66900 24.28900
H  46.62600 35.83500 32.08200
H  48.55500 37.78400 32.12300
H  46.27100 38.97800 30.62200
H  46.43900 39.05200 32.44500
H  45.56600 37.84100 31.60400
H  49.74500 35.75700 31.91700
H  48.86500 34.34600 32.18800
H  49.62900 36.18200 34.17500
H  48.81600 34.68800 34.35800
H  49.96100 41.28600 29.45900
H  51.07800 41.96300 28.24000
H  51.60700 40.86100 29.68000
H  52.00400 42.47000 26.41900
H  53.56000 42.12800 25.52800
H  53.25800 41.49000 27.19000
H  52.06600 35.69000 23.64200
H  49.27900 34.68400 22.61400
H  50.37900 36.41000 21.36300
H  52.09600 36.47900 21.59300
H  51.06500 37.70800 22.21500
H  51.13200 32.67800 24.09600
H  52.00500 33.40200 22.69100
H  49.89300 32.48900 21.31800
H  49.86300 31.43500 22.87900
H  51.24900 31.47500 21.86900
H  46.10100 31.40900 25.06600
H  45.96000 30.32900 26.64800
H  47.34300 30.36700 25.70300
H  45.00200 34.03500 30.13400
H  46.09900 32.09200 34.10200
H  44.45200 31.47600 33.70200
H  44.61000 32.96100 34.33500

