79

Mg 1.87900 -2.48500 43.63300
C  5.19800 -1.75000 42.85700
C  0.81500 0.31000 42.06200
C  -1.18100 -3.60600 44.12400
C  3.08900 -5.79300 44.67100
N  2.89500 -1.13400 42.30600
C  4.25500 -0.87400 42.23100
C  4.55500 0.37800 41.33800
C  3.15800 1.05200 41.27500
C  2.20500 0.00900 41.92700
C  3.06400 2.53900 41.86600
C  5.16400 -0.02000 39.96200
C  6.46200 0.77500 39.54700
H  6.65100 1.36800 38.12900
N  0.04600 -1.64600 43.32700
C  -0.19000 -0.45500 42.68500
C  -1.60800 -0.30500 42.57800
C  -2.27400 -1.40700 43.27800
C  -1.10800 -2.30500 43.61800
C  -2.15300 0.86600 41.88000
C  -3.73100 -1.51100 43.53400
O  -4.51100 -0.66600 43.10400
C  -4.26200 -2.71900 44.32100
N  1.08400 -4.40400 44.37800
C  -0.17800 -4.52500 44.50300
C  -0.61900 -5.99500 44.86300
C  0.69200 -6.75400 45.02200
C  1.69900 -5.64300 44.64200
C  -1.64300 -6.14100 46.09400
C  0.82100 -8.13500 44.27700
C  1.52300 -9.30800 44.93500
N  3.80600 -3.59500 43.64200
C  4.06600 -4.90200 44.10700
C  5.51200 -5.04300 44.15100
C  6.06400 -3.81400 43.67700
C  4.97400 -3.00800 43.42000
C  6.27700 -6.19200 44.68700
C  7.26100 -2.94200 43.48500
O  8.45400 -3.16800 43.65700
C  6.72700 -1.61900 42.89500
C  7.11600 -0.57400 43.86100
O  6.83200 -0.64100 45.04500
O  7.83000 0.36400 43.17600
C  8.38700 1.55200 43.88200
H  0.46000 1.31100 41.80800
H  -2.20400 -3.98500 44.16200
H  3.53900 -6.75400 44.93000
H  5.22400 1.07100 41.84700
H  2.74100 1.24500 40.28700
H  2.63700 3.17800 41.09300
H  4.00300 2.97300 42.21300
H  2.39500 2.61600 42.72400
H  4.42700 0.07900 39.16500
H  5.30200 -1.10100 39.92900
H  7.18500 -0.03700 39.62400
H  6.66500 1.53000 40.30600
H  -1.47500 1.41200 41.22400
H  -2.51400 1.60500 42.59600
H  -3.05000 0.62400 41.30900
H  -5.27100 -2.55200 44.69600
H  -3.65800 -2.91300 45.20700
H  -4.35000 -3.50600 43.57100
H  -1.14200 -6.37000 43.98300
H  0.82600 -6.89800 46.09500
H  -1.36500 -7.08200 46.56900
H  -2.70200 -6.07000 45.84400
H  -1.46500 -5.42600 46.89700
H  1.41100 -7.88000 43.39600
H  -0.22000 -8.33600 44.02300
H  0.91600 -10.21300 44.89800
H  1.73900 -9.14400 45.99000
H  2.41100 -9.49600 44.33200
H  7.24100 -5.71500 44.86300
H  6.46500 -6.94900 43.92500
H  5.77500 -6.54900 45.58600
H  7.24100 -1.43400 41.95200
H  9.33100 1.87400 43.44400
H  8.49500 1.25600 44.92500
H  7.64600 2.35100 43.92800

