79

Mg -2.32800 17.57900 25.50100
C  -2.62500 15.57600 28.42200
C  -3.36700 20.25900 27.66000
C  -2.06400 19.60400 22.89700
C  -2.06100 14.74800 23.65200
N  -2.85800 17.87200 27.85200
C  -2.94400 16.88100 28.79500
C  -3.48800 17.45100 30.11900
C  -4.12800 18.87300 29.65300
C  -3.38800 19.03800 28.33000
C  -5.63600 18.90800 29.50700
C  -2.44100 17.67800 31.25800
C  -2.94200 17.54100 32.69200
H  -2.20600 16.60200 33.61600
N  -2.47600 19.58500 25.33400
C  -2.93900 20.52500 26.29500
C  -2.97700 21.80600 25.70000
C  -2.41700 21.68200 24.35100
C  -2.27000 20.24700 24.18100
C  -3.31300 23.09200 26.39900
C  -2.04500 22.82900 23.31700
O  -1.67700 22.55000 22.23000
C  -2.12400 24.20000 23.72300
N  -2.33100 17.24700 23.50100
C  -2.09000 18.23500 22.61400
C  -1.92400 17.65000 21.18100
C  -1.62300 16.09300 21.49000
C  -2.06700 16.03500 22.98000
C  -3.17200 18.02700 20.25200
C  -0.09500 15.72700 21.30500
C  0.89400 16.51100 22.26300
N  -2.25100 15.62400 25.89500
C  -2.14600 14.58000 25.05200
C  -2.01200 13.33800 25.80100
C  -2.08400 13.75000 27.15500
C  -2.34700 15.16300 27.09400
C  -1.86800 11.93200 25.29400
C  -2.14400 13.28200 28.51200
O  -2.08500 12.12800 28.91500
C  -2.32700 14.48900 29.37500
C  -1.06100 14.71200 30.20500
O  -0.10100 15.43700 29.92000
O  -1.00000 13.88200 31.29600
C  0.26700 13.90100 31.98000
H  -3.50700 21.15200 28.27300
H  -1.78100 20.13400 21.98500
H  -1.79600 13.93600 22.97200
H  -4.28200 16.75500 30.39200
H  -3.92400 19.67100 30.36700
H  -6.08800 18.08500 30.06100
H  -5.92200 19.00800 28.46000
H  -5.91100 19.83400 30.01200
H  -2.04600 18.69200 31.20900
H  -1.56100 17.04500 31.15100
H  -3.91900 17.11100 32.46800
H  -3.15200 18.55800 33.02300
H  -2.46400 23.77600 26.38600
H  -3.54000 22.93300 27.45300
H  -4.23900 23.59400 26.11800
H  -1.80000 24.86800 22.92600
H  -1.36100 24.42100 24.47000
H  -3.12800 24.45800 24.06100
H  -1.01000 18.13900 20.84400
H  -2.27900 15.37700 20.99600
H  -2.83600 18.80700 19.56900
H  -3.99300 18.47900 20.81000
H  -3.57800 17.19000 19.68300
H  0.28800 16.01200 20.32600
H  0.13000 14.66500 21.40500
H  1.42000 17.28300 21.70200
H  1.64100 15.82600 22.66500
H  0.36400 16.88000 23.14100
H  -1.69000 12.01900 24.22200
H  -2.80400 11.42200 25.52500
H  -1.02200 11.45400 25.78700
H  -3.20700 14.27300 29.98000
H  0.32700 14.82000 32.56200
H  1.06900 13.90100 31.24200
H  0.40300 13.02900 32.62000

