79

Mg 1.49800 7.84100 25.82800
C  2.17200 9.96800 28.51300
C  2.03100 5.21700 27.96200
C  1.04600 5.71700 23.24600
C  1.20000 10.57500 23.66400
N  1.92700 7.63700 27.98200
C  2.11100 8.64200 28.92100
C  2.25900 8.07000 30.38800
C  2.40400 6.54500 30.17000
C  2.15100 6.43600 28.61400
C  3.79800 5.86400 30.55100
C  0.99900 8.47200 31.23400
C  1.16900 9.28000 32.53200
H  2.34100 8.80800 33.41300
N  1.46100 5.70700 25.62000
C  1.79300 4.83100 26.59700
C  1.76100 3.45900 26.09300
C  1.30500 3.52000 24.75600
C  1.21600 5.01300 24.48000
C  2.12000 2.28400 27.02600
C  0.97700 2.47300 23.69400
O  0.51700 2.70400 22.61200
C  1.18100 0.94500 24.13600
N  1.42200 8.16300 23.70900
C  1.03700 7.10600 22.91900
C  0.65400 7.47600 21.46500
C  0.70100 9.05100 21.58600
C  1.05600 9.31800 23.09400
C  1.52200 6.79900 20.33300
C  -0.59500 9.76200 21.19600
C  -0.58400 10.58800 19.90800
N  1.67600 9.85300 25.98200
C  1.50700 10.86900 25.04700
C  1.65400 12.14300 25.73900
C  2.03200 11.84200 27.10200
C  1.97800 10.43800 27.19900
C  1.40900 13.54800 25.18600
C  2.39000 12.47200 28.31300
O  2.67900 13.64400 28.52300
C  2.31700 11.24700 29.34700
C  3.56600 11.27800 30.14000
O  4.65200 10.88300 29.77400
O  3.32400 11.95500 31.29100
C  4.50900 12.31100 32.06000
H  2.20200 4.45000 28.72000
H  0.89200 4.98900 22.44700
H  1.02600 11.39700 22.96700
H  3.18900 8.46100 30.79800
H  1.66500 5.95000 30.70500
H  4.25400 5.97200 31.53500
H  4.57500 6.18000 29.85500
H  3.66600 4.78200 30.51900
H  0.47700 7.56900 31.55400
H  0.36400 9.01500 30.53400
H  0.25100 9.22300 33.11700
H  1.29700 10.35200 32.38400
H  1.36800 1.50000 26.93400
H  2.33200 2.39900 28.08900
H  3.04500 1.81000 26.69700
H  0.94300 0.24400 23.33700
H  0.56400 0.74000 25.01100
H  2.17100 0.74200 24.54500
H  -0.38900 7.19300 21.32600
H  1.48200 9.45100 20.93900
H  2.53300 6.56600 20.66600
H  1.55700 7.53900 19.53300
H  1.04500 5.92300 19.89100
H  -0.82800 10.53700 21.92700
H  -1.42400 9.05600 21.23700
H  -0.02500 10.09700 19.11200
H  -0.19200 11.58200 20.12100
H  -1.64800 10.60400 19.67300
H  2.39700 13.97100 25.00200
H  0.97000 14.06500 26.03900
H  0.78000 13.45900 24.30000
H  1.45500 11.47300 29.97400
H  5.02600 11.40400 32.37100
H  4.21800 12.77500 33.00200
H  5.05100 13.04000 31.45700

