79

Mg -1.34400 16.96800 25.91200
C  -1.93100 14.84000 28.76500
C  -1.79600 19.72400 28.02000
C  -1.25200 18.83700 23.26300
C  -1.57300 14.09300 23.97800
N  -1.93800 17.30900 28.12800
C  -2.10500 16.24100 29.11600
C  -2.44900 16.93500 30.47500
C  -2.33900 18.48600 30.23100
C  -1.92300 18.50200 28.72300
C  -3.56100 19.38200 30.59800
C  -1.72700 16.45100 31.76300
C  -1.97300 17.20400 33.08000
H  -1.90200 16.31400 34.27900
N  -1.42700 19.04300 25.63500
C  -1.66900 19.98800 26.60500
C  -1.61300 21.27500 25.96000
C  -1.42200 21.07200 24.60300
C  -1.28800 19.61000 24.45900
C  -1.80300 22.54100 26.79500
C  -1.52100 22.13000 23.52200
O  -1.30300 21.88400 22.31900
C  -1.91500 23.56700 23.90800
N  -1.27300 16.46900 23.86500
C  -1.20800 17.48300 22.92300
C  -1.44900 16.93800 21.46800
C  -1.70300 15.39900 21.74400
C  -1.55300 15.29600 23.28300
C  -2.67400 17.65400 20.69900
C  -0.68100 14.50500 21.00400
C  0.80500 14.64500 21.49000
N  -1.45500 14.89500 26.22100
C  -1.43900 13.84800 25.32400
C  -1.53000 12.66300 26.06900
C  -1.61700 12.97800 27.39500
C  -1.75300 14.34300 27.45800
C  -1.63500 11.25000 25.44000
C  -1.72600 12.45300 28.72400
O  -1.66900 11.26900 29.07900
C  -1.89200 13.61800 29.66400
C  -0.79900 13.59900 30.60400
O  0.31100 14.06400 30.50100
O  -1.22400 12.77500 31.62400
C  -0.38800 12.67900 32.85700
H  -1.76500 20.61300 28.65200
H  -1.31100 19.56400 22.45000
H  -1.87700 13.17000 23.48100
H  -3.50000 16.69500 30.63700
H  -1.43600 18.93600 30.64300
H  -4.10600 18.82500 31.36100
H  -4.18500 19.47400 29.70900
H  -3.32700 20.43200 30.77300
H  -0.69300 16.30700 31.44800
H  -2.20400 15.49700 31.98900
H  -2.96000 17.66300 33.11900
H  -1.18500 17.95500 33.14200
H  -2.77400 22.98100 26.56900
H  -0.97400 23.19500 26.52600
H  -1.85300 22.33700 27.86500
H  -1.80800 24.18400 23.01600
H  -1.24600 23.99000 24.65800
H  -2.91100 23.54700 24.35000
H  -0.55200 17.01400 20.85300
H  -2.72300 15.03400 21.62700
H  -3.26900 16.98600 20.07600
H  -2.36700 18.52200 20.11600
H  -3.34700 17.92500 21.51300
H  -0.70200 14.97900 20.02300
H  -0.99100 13.46400 21.10100
H  0.99000 15.26400 22.36800
H  1.36800 15.07200 20.66000
H  1.17800 13.63200 21.64200
H  -0.93300 11.28000 24.60700
H  -2.66600 10.98700 25.20200
H  -1.26500 10.49700 26.13500
H  -2.89200 13.51200 30.08500
H  -1.03200 12.67400 33.73600
H  0.28400 13.53300 32.93600
H  0.15400 11.73400 32.83100

