79

Mg 48.05300 44.93900 43.72800
C  44.58700 44.57400 42.86800
C  48.45900 41.37900 43.25000
C  51.33100 45.33800 43.94900
C  47.57600 48.34300 43.82900
N  46.68000 43.17300 42.93300
C  45.32600 43.34700 42.78900
C  44.70200 41.96400 42.61000
C  45.86500 40.96700 43.01800
C  47.11300 41.89800 43.00800
C  45.59700 40.32100 44.35600
C  44.01200 41.77900 41.14100
C  44.45000 42.53200 39.92100
H  43.83900 42.09600 38.56100
N  49.74300 43.59800 43.44600
C  49.65400 42.19300 43.34600
C  51.07100 41.76600 43.41200
C  51.93600 42.86000 43.44400
C  51.04000 43.98500 43.61300
C  51.46400 40.25400 43.25200
C  53.42200 42.91000 43.25400
O  54.06300 41.88500 43.16500
C  54.17400 44.23100 43.14800
N  49.28400 46.62200 43.82100
C  50.61300 46.53400 43.97500
C  51.29500 47.92500 44.11700
C  49.99800 48.84300 44.14500
C  48.86800 47.88300 43.88400
C  52.28600 48.16000 45.25900
C  49.99200 50.17100 43.24700
C  50.05700 51.44900 44.05400
N  46.48900 46.22400 43.46100
C  46.39300 47.63200 43.60100
C  45.01100 48.07300 43.42000
C  44.26500 46.87300 43.13500
C  45.19300 45.82800 43.14400
C  44.59600 49.47300 43.50900
C  42.95400 46.35300 42.84100
O  41.93800 46.92700 42.61300
C  43.08700 44.80900 42.90600
C  42.31700 44.10900 43.94500
O  41.17200 43.75100 43.76600
O  43.12800 43.80900 45.03300
C  42.39000 43.36300 46.14900
H  48.55500 40.29100 43.23600
H  52.38200 45.48100 44.20900
H  47.37800 49.40500 43.98900
H  43.91000 41.82400 43.34600
H  45.84000 40.13600 42.31400
H  44.56500 40.29700 44.70500
H  46.17400 40.77100 45.16300
H  45.85900 39.26300 44.33400
H  43.00200 42.04800 41.44800
H  44.17600 40.74400 40.84000
H  45.53900 42.51500 39.92000
H  44.21000 43.58600 40.06500
H  52.20400 40.01400 44.01500
H  51.97700 40.12100 42.29900
H  50.63800 39.54300 43.22900
H  53.65400 44.92200 42.48500
H  55.16500 44.09000 42.71700
H  54.25900 44.67800 44.13800
H  51.80900 48.22000 43.20200
H  50.02900 49.14500 45.19200
H  53.24700 48.51000 44.88300
H  52.35200 47.32200 45.95400
H  51.90700 48.93700 45.92300
H  49.17000 50.25700 42.53600
H  50.93600 50.22500 42.70400
H  50.29300 51.39000 45.11600
H  49.09200 51.89900 43.82100
H  50.73200 52.22200 43.68700
H  45.19000 50.01200 42.77100
H  44.75100 49.92600 44.48800
H  43.53300 49.30700 43.33300
H  42.76900 44.51500 41.90600
H  41.41500 43.76300 46.42600
H  43.12800 43.50200 46.93800
H  42.35200 42.27900 46.03500

