79

Mg -12.73500 37.97700 41.74500
C  -10.56700 35.43900 40.58300
C  -10.53600 40.21400 40.19000
C  -15.09300 40.41800 41.94700
C  -15.13300 35.58900 42.36800
N  -10.73000 37.87000 40.60900
C  -10.02400 36.66500 40.33200
C  -8.71100 36.97400 39.59400
C  -8.66900 38.52600 39.70100
C  -10.00200 38.95000 40.17800
C  -7.56700 39.16000 40.59600
C  -8.60900 36.27100 38.16800
C  -7.21800 35.60200 37.93000
H  -6.30700 36.22800 36.87500
N  -12.76100 40.10200 41.29800
C  -11.75500 40.73200 40.67500
C  -12.05000 42.17200 40.78400
C  -13.32500 42.19800 41.38000
C  -13.78300 40.86500 41.55900
C  -11.19100 43.36600 40.16900
C  -14.06100 43.50100 41.74000
O  -13.62800 44.61600 41.57200
C  -15.39300 43.52400 42.41400
N  -14.84900 38.03200 41.98700
C  -15.58800 39.17300 42.23300
C  -17.00600 38.86700 42.66600
C  -17.02900 37.30300 42.65000
C  -15.56800 36.96700 42.39500
C  -17.46900 39.41200 43.98800
C  -18.16600 36.68700 41.68700
C  -17.79200 36.18300 40.25600
N  -12.83200 35.89000 41.77200
C  -13.91500 35.04000 41.98100
C  -13.40000 33.67200 41.90200
C  -12.07400 33.81900 41.41100
C  -11.81400 35.16300 41.23600
C  -14.13400 32.39700 42.20700
C  -10.95200 33.02700 40.88600
O  -10.67700 31.83100 40.72700
C  -9.86800 34.09000 40.52000
C  -8.86400 33.87300 41.56300
O  -9.04400 33.61900 42.74900
O  -7.63700 34.18300 40.98700
C  -6.51900 33.93200 41.90800
H  -9.85400 40.94900 39.75700
H  -15.90500 41.13800 42.06900
H  -15.97700 34.91100 42.51000
H  -7.90500 36.57800 40.21200
H  -8.52100 38.89400 38.68600
H  -7.23000 38.40400 41.30500
H  -7.70200 40.08600 41.15500
H  -6.76200 39.45200 39.92100
H  -8.74700 37.09000 37.46200
H  -9.36600 35.51600 37.95300
H  -7.29400 34.55900 37.62100
H  -6.67700 35.50300 38.87100
H  -10.87600 43.16700 39.14500
H  -10.29100 43.57700 40.74700
H  -11.71300 44.30900 40.01000
H  -16.16700 43.21600 41.71100
H  -15.60400 44.57400 42.61400
H  -15.41700 42.94800 43.33900
H  -17.65200 39.28800 41.89600
H  -17.21100 36.87700 43.63600
H  -18.24000 40.14900 43.76300
H  -16.68200 39.95100 44.51700
H  -18.01800 38.68500 44.58600
H  -18.96700 37.41400 41.55300
H  -18.62900 35.94200 42.33400
H  -16.72000 36.34000 40.13300
H  -18.28200 36.75800 39.47000
H  -18.00800 35.12500 40.10800
H  -14.91200 32.50400 42.96300
H  -13.43900 31.58200 42.41200
H  -14.53400 32.21200 41.21000
H  -9.39800 33.88600 39.55800
H  -5.73500 33.82400 41.15800
H  -6.60700 32.98900 42.44800
H  -6.35800 34.81700 42.52300

