79

Mg 47.48600 34.43400 27.60500
C  45.51500 32.98400 29.93300
C  47.85900 37.11700 29.76300
C  48.85200 36.23400 24.96700
C  46.79600 31.86900 25.35600
N  46.89000 34.92000 29.59200
C  46.26000 34.05200 30.42600
C  46.37200 34.54500 31.93600
C  46.81200 36.04400 31.77600
C  47.22600 36.04700 30.27900
C  45.65800 37.11200 32.08200
C  47.45700 33.71000 32.69100
C  47.11600 33.39100 34.20800
H  48.01200 33.86000 35.31900
N  48.34000 36.40600 27.41000
C  48.36800 37.34400 28.45100
C  48.84400 38.61800 27.86400
C  49.14900 38.34100 26.48700
C  48.78600 36.91800 26.24100
C  48.70400 39.87800 28.71100
C  49.55100 39.33600 25.46100
O  49.92300 39.04700 24.31900
C  49.67600 40.85800 25.90000
N  48.00100 34.08800 25.60100
C  48.56700 34.94400 24.68300
C  48.78600 34.35800 23.31100
C  48.42800 32.83300 23.57600
C  47.70300 32.85500 24.94600
C  47.93800 35.05200 22.21400
C  49.74400 31.87800 23.70400
C  49.76300 30.98800 22.45000
N  46.43100 32.77300 27.64400
C  46.12900 31.84800 26.62700
C  45.20600 30.83300 27.16600
C  44.99200 31.19400 28.48000
C  45.69500 32.39500 28.69600
C  44.62500 29.55500 26.48100
C  44.33800 30.91000 29.69200
O  43.66800 29.95400 30.02100
C  44.47200 32.17300 30.61100
C  44.79400 31.74000 31.94600
O  45.71600 30.96700 32.29300
O  43.85300 32.23100 32.80600
C  44.03600 31.91200 34.29800
H  48.00800 37.97300 30.42400
H  49.22200 36.77900 24.09600
H  46.45500 31.10300 24.65700
H  45.44200 34.41300 32.49100
H  47.69600 36.37100 32.32300
H  45.23000 37.50800 31.16200
H  46.17800 37.92100 32.59400
H  44.88700 36.64700 32.69800
H  48.41600 34.22600 32.64700
H  47.67400 32.80000 32.13100
H  47.27100 32.32800 34.39300
H  46.11400 33.74400 34.44900
H  47.72800 39.82900 29.19300
H  48.79200 40.87300 28.27400
H  49.48800 39.95000 29.46500
H  50.33800 40.85600 26.76600
H  48.69500 41.27900 26.12100
H  50.05500 41.48600 25.09300
H  49.83400 34.56200 23.09100
H  47.76000 32.37600 22.84600
H  48.51300 35.11000 21.29000
H  47.51600 36.03100 22.43900
H  47.18100 34.30500 21.97400
H  49.55200 31.26300 24.58400
H  50.70100 32.40000 23.70200
H  50.69900 31.18500 21.92700
H  48.89100 31.11000 21.80600
H  49.72600 29.94200 22.75600
H  43.64300 29.34700 26.90600
H  45.30000 28.73700 26.73200
H  44.51000 29.73300 25.41100
H  43.54700 32.74800 30.56700
H  44.87400 31.24600 34.50600
H  43.12500 31.47500 34.70600
H  44.18400 32.85400 34.82600

