79

Mg 35.57500 49.44600 25.75600
C  36.07100 47.54000 28.56000
C  34.08600 51.81900 27.86300
C  34.43400 51.04800 23.08000
C  36.27900 46.64300 23.85400
N  34.96000 49.53400 27.91800
C  35.48200 48.77700 28.86200
C  35.31500 49.31100 30.25700
C  34.43600 50.54500 30.03500
C  34.51400 50.69200 28.55000
C  33.03500 50.51200 30.67900
C  36.68300 49.54800 31.02400
C  36.79200 49.04000 32.46200
H  36.77100 50.11400 33.58500
N  34.59200 51.25800 25.49700
C  34.09800 52.09100 26.49600
C  33.52900 53.31100 25.85200
C  33.62200 53.09900 24.42800
C  34.25100 51.75700 24.26300
C  33.11800 54.52500 26.72600
C  33.36800 54.04700 23.23700
O  33.51000 53.82400 22.05200
C  32.88900 55.49100 23.65300
N  35.44000 48.99300 23.77200
C  35.00600 49.77800 22.81700
C  35.13900 49.21500 21.41800
C  35.85600 47.85100 21.69800
C  35.87700 47.79200 23.19600
C  33.92200 49.01400 20.58100
C  37.32400 47.58400 21.16400
C  37.56600 46.32400 20.42400
N  36.22900 47.52800 26.06000
C  36.46200 46.49500 25.20600
C  36.86600 45.33900 25.96400
C  36.86600 45.72200 27.31800
C  36.37400 47.07100 27.31100
C  37.28000 43.98200 25.42900
C  37.14400 45.28100 28.66100
O  37.59300 44.24200 29.02700
C  36.62400 46.46200 29.59000
C  35.65200 45.97200 30.53100
O  34.49000 45.80000 30.22900
O  36.18400 45.74800 31.76500
C  35.22700 45.50800 32.84200
H  33.56900 52.45400 28.58600
H  34.06000 51.54300 22.18100
H  36.66100 45.81100 23.25900
H  34.70500 48.61900 30.83600
H  35.03400 51.33900 30.48000
H  32.83800 49.57600 31.20100
H  32.18500 50.42000 30.00300
H  32.84800 51.41300 31.26300
H  36.88300 50.61800 31.07800
H  37.49600 49.17900 30.39800
H  37.80200 48.63100 32.48600
H  36.05500 48.28300 32.73500
H  32.05800 54.54500 26.98100
H  33.44800 55.47400 26.30400
H  33.70500 54.51000 27.64400
H  32.49100 56.12800 22.86300
H  33.79200 55.99900 23.99400
H  32.20200 55.41100 24.49500
H  35.74800 49.93800 20.87600
H  35.16600 47.07000 21.38100
H  33.89600 49.90200 19.94900
H  32.97100 49.16900 21.09100
H  34.06600 48.14900 19.93300
H  37.99500 47.65700 22.02100
H  37.65300 48.42400 20.55300
H  38.48600 46.44600 19.85300
H  36.69500 46.20700 19.77800
H  37.69700 45.46300 21.07900
H  37.69900 44.21300 24.45000
H  36.43000 43.30300 25.36200
H  38.05300 43.58400 26.08600
H  37.53200 46.75900 30.11400
H  35.58500 45.96500 33.76500
H  35.10600 44.43200 32.96900
H  34.23700 45.91300 32.63300

