79

Mg 40.46400 8.36400 28.78500
C  42.06100 9.58400 31.47900
C  38.33300 6.54100 30.84700
C  38.90200 7.41000 25.99400
C  42.88800 10.06500 26.72600
N  40.32300 8.03700 30.87900
C  40.97900 8.82000 31.80400
C  40.32900 8.60500 33.15300
C  39.49200 7.23100 33.01600
C  39.34200 7.22900 31.46100
C  40.28000 5.99700 33.55800
C  39.50500 9.85400 33.65900
C  39.20900 9.96100 35.12300
H  39.81500 11.12500 35.80600
N  38.74900 7.26800 28.50200
C  37.99600 6.58800 29.43800
C  36.88500 5.96300 28.76800
C  36.93800 6.33200 27.41000
C  38.21900 6.99600 27.23300
C  35.89500 5.18700 29.54000
C  35.98100 6.07000 26.22800
O  36.22600 6.33100 25.07300
C  34.66600 5.33000 26.50900
N  40.90900 8.56800 26.62800
C  40.10900 8.06200 25.70000
C  40.62900 8.36600 24.33200
C  41.62700 9.51100 24.54200
C  41.82000 9.41000 26.06600
C  41.30200 7.10800 23.68800
C  41.11300 10.87200 24.04000
C  39.81300 11.39000 24.75000
N  42.23400 9.47300 29.04000
C  43.11900 10.11000 28.13800
C  44.27000 10.60000 28.84400
C  43.78700 10.62200 30.13000
C  42.61100 9.83600 30.21700
C  45.55100 11.15000 28.28200
C  44.06500 11.15100 31.48000
O  44.94100 11.86300 31.94300
C  42.92700 10.45200 32.37900
C  43.59900 9.59600 33.36900
O  43.99000 8.43000 33.26000
O  43.62400 10.35700 34.56000
C  44.43000 9.80400 35.64900
H  37.69100 5.95900 31.51200
H  38.28200 7.20500 25.11800
H  43.54000 10.64200 26.06700
H  41.17800 8.33400 33.78000
H  38.57200 7.44200 33.56100
H  39.57100 5.67300 34.32000
H  41.26500 6.20400 33.97700
H  40.44400 5.22100 32.81000
H  38.50900 9.88200 33.21700
H  40.02000 10.71500 33.23300
H  39.57600 9.07200 35.63700
H  38.14100 9.80700 35.27300
H  36.00400 5.31000 30.61800
H  36.23500 4.16800 29.35200
H  34.88000 5.21000 29.14300
H  34.01000 5.31300 25.63900
H  34.24200 5.94300 27.30400
H  34.82800 4.34400 26.94600
H  39.76900 8.70000 23.75200
H  42.57000 9.25300 24.05900
H  42.31400 7.33300 23.35100
H  40.67200 6.78000 22.86200
H  41.49100 6.31600 24.41200
H  40.89900 10.67000 22.99100
H  41.92300 11.59800 24.10400
H  39.20700 10.56300 25.12200
H  39.25700 11.91600 23.97400
H  39.94400 12.11800 25.55100
H  46.33200 10.51000 27.87300
H  45.89300 11.86600 29.03000
H  45.09800 11.81100 27.54300
H  42.48400 11.27400 32.94300
H  43.89800 8.89600 35.93100
H  44.59700 10.62800 36.34400
H  45.41300 9.39700 35.40900

