79

Mg 1.31300 7.10200 26.01300
C  1.57300 9.27900 28.71700
C  1.95800 4.43300 28.23500
C  0.91400 4.98500 23.47100
C  1.15100 9.85000 23.86000
N  1.38100 6.92000 28.25800
C  1.43200 7.96800 29.13200
C  1.38600 7.56500 30.63000
C  1.81500 5.97300 30.37000
C  1.72300 5.69900 28.82600
C  3.12800 5.59200 30.97500
C  -0.01700 7.84900 31.26800
C  -0.09000 7.78400 32.79500
H  1.17800 7.47200 33.58600
N  1.53700 4.97800 25.85300
C  1.67200 4.07500 26.90000
C  1.43200 2.70400 26.35900
C  1.26500 2.80900 24.93700
C  1.26600 4.31800 24.65000
C  1.28800 1.45300 27.31300
C  1.03200 1.73800 23.92300
O  0.62800 2.02800 22.78500
C  1.19500 0.35400 24.27100
N  0.92200 7.39300 24.03700
C  0.82600 6.37500 23.17500
C  0.52200 6.88000 21.65200
C  0.54200 8.38700 21.87400
C  0.84600 8.56900 23.33200
C  1.49600 6.49900 20.44900
C  -0.65900 9.14600 21.29500
C  -0.40600 10.08300 20.13900
N  1.40200 9.08700 26.15700
C  1.28300 10.12300 25.21700
C  1.61300 11.41400 25.83400
C  1.70900 11.09700 27.20800
C  1.56200 9.73300 27.33700
C  1.73700 12.74000 25.21700
C  1.82100 11.71200 28.47300
O  1.84700 12.89400 28.80900
C  1.79600 10.57800 29.48900
C  3.15200 10.59300 30.11500
O  4.17900 10.04800 29.76400
O  3.04700 11.20300 31.34200
C  4.14800 10.94600 32.30400
H  2.41900 3.64700 28.83700
H  0.72400 4.40100 22.56900
H  1.22300 10.72900 23.21600
H  2.15100 8.13700 31.15700
H  0.99400 5.37900 30.77000
H  2.96200 4.77700 31.67900
H  3.50800 6.50700 31.42800
H  3.75400 5.23400 30.15800
H  -0.71800 7.20100 30.74200
H  -0.32100 8.85800 30.98600
H  -0.81600 7.00100 33.01300
H  -0.44600 8.73100 33.20000
H  1.18200 1.54600 28.39400
H  1.99900 0.64300 27.15000
H  0.41000 0.94200 26.91800
H  0.31900 0.05100 24.84300
H  1.99300 0.32800 25.01400
H  1.36800 -0.27000 23.39400
H  -0.45500 6.48200 21.37700
H  1.43700 8.72100 21.35000
H  2.47700 6.13500 20.75200
H  1.57300 7.26000 19.67200
H  1.12400 5.55700 20.04600
H  -1.05800 9.82100 22.05300
H  -1.51700 8.49300 21.13200
H  -0.84200 9.72100 19.20800
H  0.65400 10.28100 19.97900
H  -0.88200 11.02800 20.40100
H  0.91900 12.75700 24.49700
H  2.71900 12.79600 24.74900
H  1.52600 13.51800 25.95000
H  1.00600 10.71800 30.22700
H  5.12100 10.87400 31.81900
H  3.83900 9.99700 32.74300
H  4.23500 11.83000 32.93600

