79

Mg 0.61300 7.63600 25.67700
C  1.32300 9.70600 28.62100
C  1.03300 5.03700 27.89800
C  0.20800 5.72700 23.12600
C  0.61000 10.57700 23.84100
N  1.17400 7.40500 28.04900
C  1.22400 8.39000 29.02600
C  1.49000 7.74300 30.37100
C  1.64600 6.21600 30.07100
C  1.16600 6.18300 28.61600
C  3.00100 5.57500 30.36800
C  0.39000 8.12400 31.30100
C  0.71600 7.98400 32.81200
H  1.76300 6.96700 33.33900
N  0.62900 5.63900 25.53600
C  0.79200 4.72900 26.53500
C  0.67200 3.38800 25.99500
C  0.41900 3.52900 24.55400
C  0.37500 5.00400 24.36600
C  0.71700 2.16200 26.77200
C  0.27700 2.52900 23.46400
O  -0.07900 2.85700 22.33300
C  0.46800 1.08400 23.72100
N  0.63600 8.14900 23.75400
C  0.36100 7.13400 22.80400
C  0.11300 7.79900 21.39800
C  -0.17300 9.29200 21.75600
C  0.40000 9.35000 23.21600
C  1.30600 7.46900 20.43100
C  -1.73600 9.59600 21.77700
C  -2.19100 10.93000 21.21900
N  0.98700 9.74800 26.09500
C  0.92000 10.81700 25.18300
C  1.38600 12.04100 25.87400
C  1.50100 11.70000 27.25000
C  1.28800 10.30100 27.31500
C  1.41200 13.48000 25.25200
C  1.70200 12.20600 28.55800
O  1.95200 13.34900 28.92300
C  1.63400 10.97700 29.49700
C  2.84800 10.81300 30.35300
O  3.87300 10.17300 30.08000
O  2.62400 11.43700 31.52000
C  3.67200 11.37400 32.54200
H  1.04800 4.15500 28.54100
H  0.04100 5.17700 22.19700
H  0.41300 11.40300 23.15500
H  2.42600 8.15600 30.74600
H  0.86100 5.70800 30.63200
H  3.40800 5.36200 29.37900
H  2.90000 4.64200 30.92300
H  3.46300 6.31300 31.02300
H  -0.48800 7.48300 31.22500
H  0.13600 9.15600 31.05800
H  -0.19300 7.71200 33.34900
H  1.04100 8.97900 33.11600
H  -0.00400 1.42400 26.42000
H  0.36900 2.40900 27.77500
H  1.71200 1.72300 26.85500
H  1.35600 0.92800 24.33300
H  0.48800 0.46400 22.82400
H  -0.37000 0.78700 24.35100
H  -0.78700 7.38000 20.94900
H  0.27600 9.92200 20.98900
H  1.95600 6.80500 21.00200
H  1.84800 8.38800 20.20600
H  0.87300 7.04300 19.52600
H  -1.96000 9.66600 22.84100
H  -2.38100 8.80900 21.38600
H  -1.31900 11.44400 20.81400
H  -2.72500 11.54000 21.94800
H  -2.87800 10.76200 20.38900
H  0.62700 14.13600 25.62900
H  1.22800 13.54200 24.18000
H  2.34200 13.98900 25.50300
H  0.82900 11.20200 30.19700
H  4.27500 12.27800 32.44800
H  4.33100 10.51800 32.39600
H  3.11400 11.41600 33.47700

