79

Mg 26.15500 0.57100 29.10700
C  27.84900 -0.04100 32.07100
C  23.25800 0.93300 30.92100
C  24.50600 0.83900 26.13300
C  29.07700 -0.32700 27.26900
N  25.64900 0.57300 31.33300
C  26.49100 0.34800 32.32200
C  25.80400 0.80900 33.72800
C  24.34900 0.92900 33.30100
C  24.36500 0.78700 31.75200
C  23.30700 0.04600 34.02300
C  26.41500 2.03700 34.44800
C  26.22900 2.19000 35.99200
H  27.37000 2.49400 36.91700
N  24.19800 0.89800 28.63700
C  23.12500 0.91000 29.50100
C  21.86700 1.15000 28.72000
C  22.18800 1.14600 27.36400
C  23.67300 0.96800 27.36200
C  20.50700 1.15400 29.44400
C  21.33200 1.20000 26.12200
O  21.75500 1.05600 24.97000
C  19.84700 1.33800 26.22100
N  26.78900 0.42700 26.97100
C  25.90000 0.54000 25.96600
C  26.46900 0.11400 24.54800
C  27.99000 -0.01000 24.95700
C  27.98100 -0.02200 26.46900
C  25.80500 -1.11200 23.97600
C  28.83500 1.20300 24.36000
C  30.28200 0.85200 24.08500
N  27.99600 -0.23000 29.53900
C  29.08800 -0.47600 28.69600
C  30.24500 -0.83600 29.44900
C  29.84200 -0.60200 30.80200
C  28.47500 -0.34000 30.79000
C  31.67700 -1.15500 28.91800
C  30.19600 -0.56800 32.21500
O  31.26800 -0.73700 32.75900
C  28.94600 -0.18900 33.04000
C  28.61600 -1.27500 33.98700
O  28.00300 -2.28300 33.68000
O  29.05400 -0.99400 35.26300
C  28.91300 -2.09000 36.23500
H  22.38000 1.25200 31.48600
H  24.12900 1.01800 25.12400
H  30.00000 -0.67200 26.79900
H  25.84000 -0.08100 34.35700
H  24.00200 1.93700 33.53000
H  22.79700 0.78300 34.64200
H  23.70600 -0.78400 34.60700
H  22.71600 -0.45200 33.25500
H  25.87500 2.84300 33.95200
H  27.47500 2.07500 34.19500
H  25.82600 1.21200 36.25600
H  25.45800 2.93300 36.19400
H  19.78400 1.82600 28.98100
H  20.65600 1.52400 30.45900
H  20.17800 0.11900 29.53200
H  19.61500 2.34000 26.58100
H  19.40500 0.45700 26.68600
H  19.35400 1.28600 25.25000
H  26.32800 0.97200 23.89100
H  28.44300 -0.92300 24.57100
H  24.97500 -1.44600 24.59800
H  26.53000 -1.90400 23.78700
H  25.46600 -0.87100 22.96800
H  28.89100 1.96100 25.14100
H  28.41500 1.55500 23.41800
H  31.00000 1.66300 24.20800
H  30.42700 0.34800 23.13000
H  30.58800 0.02900 24.73200
H  31.56200 -1.82300 28.06500
H  32.28700 -1.56900 29.72200
H  32.09800 -0.21500 28.55900
H  29.10800 0.73200 33.59900
H  28.06300 -2.74600 36.04500
H  28.79800 -1.63700 37.21900
H  29.79800 -2.72600 36.22000

