79

Mg -5.85600 25.06100 27.04100
C  -4.04600 26.71800 29.54600
C  -6.65700 22.61600 29.40700
C  -7.36900 23.49400 24.63600
C  -4.36300 27.30500 24.62200
N  -5.26600 24.67200 29.22300
C  -4.60700 25.55100 30.07400
C  -4.65100 25.05500 31.52400
C  -5.33400 23.62500 31.41200
C  -5.74700 23.58100 29.89600
C  -4.34100 22.39900 31.82400
C  -5.41900 26.07000 32.48000
C  -5.03100 26.02900 33.94100
H  -6.25100 26.28800 34.85400
N  -6.83500 23.29400 27.04800
C  -7.13100 22.46000 28.05500
C  -8.15900 21.52000 27.60500
C  -8.31700 21.71900 26.20200
C  -7.47500 22.87800 25.91400
C  -8.68700 20.52600 28.55700
C  -9.00600 20.78600 25.17600
O  -8.92500 20.93100 23.94700
C  -9.65900 19.51400 25.60700
N  -5.71300 25.27800 24.79700
C  -6.61900 24.59900 24.13500
C  -6.57000 24.92900 22.56100
C  -5.72900 26.28000 22.57300
C  -5.22700 26.30700 24.04100
C  -6.03900 23.76900 21.73600
C  -6.62400 27.41000 22.16700
C  -5.89400 28.49200 21.26800
N  -4.57700 26.67400 27.00500
C  -4.10800 27.48700 25.96700
C  -3.25300 28.53800 26.48700
C  -3.29700 28.37900 27.92300
C  -4.02200 27.12500 28.17200
C  -2.45100 29.57600 25.65800
C  -2.76900 28.82900 29.20500
O  -2.05400 29.73900 29.53300
C  -3.38500 27.85300 30.31700
C  -2.31900 27.38900 31.21400
O  -1.47100 26.53100 30.89300
O  -2.39600 28.08300 32.41800
C  -1.28000 27.76700 33.31200
H  -7.05500 21.98200 30.20300
H  -7.99400 23.00800 23.88400
H  -3.93900 28.01500 23.90900
H  -3.63900 24.98300 31.92100
H  -6.19800 23.55200 32.07400
H  -4.37100 22.19300 32.89400
H  -3.30600 22.60500 31.55400
H  -4.62100 21.43200 31.40500
H  -6.49700 26.02300 32.32700
H  -5.24000 27.07900 32.10800
H  -4.36700 26.87200 34.12600
H  -4.47000 25.13300 34.20700
H  -9.65200 20.14200 28.22600
H  -8.57400 20.84600 29.59300
H  -7.95700 19.71800 28.52100
H  -8.94400 19.05500 26.29000
H  -9.76500 18.92700 24.69500
H  -10.68000 19.69100 25.94700
H  -7.63600 25.06900 22.38500
H  -4.85500 26.03800 21.96900
H  -5.03900 23.51600 22.08900
H  -5.89300 23.97700 20.67600
H  -6.66400 22.92600 22.03200
H  -6.83800 27.96100 23.08300
H  -7.51400 27.08700 21.62700
H  -5.71100 29.43200 21.78700
H  -6.51600 28.63500 20.38400
H  -4.91000 28.14200 20.95500
H  -1.99000 30.29200 26.33800
H  -3.12300 30.13000 25.00200
H  -1.70000 29.06700 25.05300
H  -4.02500 28.42100 30.99200
H  -1.56200 28.32000 34.20800
H  -0.31900 28.14100 32.95800
H  -1.31600 26.69000 33.47300

