79

Mg 47.08000 34.82500 28.28400
C  45.70700 32.61800 30.51400
C  47.51600 37.12300 30.87400
C  47.80200 37.24800 25.96600
C  46.31800 32.56700 25.73800
N  46.72800 34.85400 30.43200
C  46.18300 33.78600 31.17900
C  46.25000 34.19200 32.72900
C  46.28300 35.74500 32.69100
C  46.95600 35.88600 31.26800
C  44.89800 36.49700 32.94000
C  47.44800 33.54300 33.45800
C  47.33000 33.21300 34.87900
H  46.51400 34.18700 35.78600
N  47.85800 36.82500 28.42600
C  47.98900 37.55500 29.55300
C  48.65200 38.75400 29.22500
C  48.61000 38.85500 27.78100
C  48.01400 37.61700 27.34100
C  49.11900 39.77700 30.28500
C  49.11700 39.92700 26.85700
O  48.97000 39.93100 25.65200
C  49.72300 41.19400 27.43300
N  47.01200 34.92600 26.17000
C  47.44800 35.98300 25.47000
C  47.22600 35.83000 24.02300
C  46.74500 34.35200 23.93200
C  46.66700 33.84300 25.37400
C  46.17400 36.81400 23.38900
C  47.80900 33.45200 23.23000
C  49.11100 33.06500 24.01800
N  46.26400 32.91600 28.10500
C  46.11000 32.08900 27.01900
C  45.37900 30.89900 27.45200
C  45.13700 31.12000 28.79600
C  45.83900 32.29300 29.16700
C  44.99000 29.68600 26.59700
C  44.58100 30.51900 29.99100
O  44.12400 29.40200 30.10800
C  44.77200 31.56800 31.04700
C  45.08500 30.90500 32.28000
O  46.20100 30.58400 32.68800
O  43.87800 30.70500 32.94100
C  44.00900 30.21600 34.29100
H  47.60700 37.89000 31.64500
H  47.99400 37.92400 25.13000
H  46.20200 31.89100 24.88800
H  45.35200 33.95100 33.29700
H  47.00100 36.16500 33.39600
H  45.11100 37.11600 33.81100
H  44.10300 35.80700 33.22100
H  44.62100 37.05400 32.04500
H  48.34200 34.13500 33.26600
H  47.60700 32.55800 33.02000
H  48.27900 33.22000 35.41500
H  46.90000 32.22000 35.01300
H  50.11600 40.12600 30.01700
H  49.12300 39.11000 31.14800
H  48.46000 40.63000 30.44500
H  49.12600 41.48900 28.29700
H  49.72100 41.85200 26.56400
H  50.72800 41.06700 27.83600
H  48.17700 35.87700 23.49200
H  45.79100 34.20700 23.42400
H  45.28200 36.29300 23.04300
H  46.67600 37.33200 22.57100
H  45.97600 37.55300 24.16500
H  48.02400 33.82400 22.22800
H  47.32900 32.48800 23.06500
H  49.11100 32.04100 24.39000
H  49.28400 33.80400 24.80000
H  49.98500 33.08300 23.36600
H  45.61200 28.79100 26.56300
H  44.87400 30.05300 25.57700
H  44.01500 29.44500 27.02100
H  43.78900 32.03900 31.03200
H  43.08900 30.03400 34.84700
H  44.57200 31.02800 34.75100
H  44.67100 29.35500 34.38900

