79

Mg -9.92900 17.55500 42.13700
C  -6.46500 16.94600 42.80900
C  -9.18800 20.74700 41.43900
C  -13.18100 18.07300 41.43500
C  -10.51100 14.06500 42.56500
N  -7.93100 18.66100 42.06400
C  -6.74000 18.26400 42.38900
C  -5.73700 19.39400 42.14600
C  -6.69400 20.66200 42.08900
C  -8.02400 20.00500 41.78700
C  -6.74500 21.50000 43.40900
C  -4.81700 19.12600 40.91100
C  -5.37600 18.53000 39.64900
H  -5.10000 19.33300 38.35900
N  -11.03400 19.21300 41.57000
C  -10.54100 20.41300 41.39100
C  -11.56500 21.39900 41.21100
C  -12.77600 20.62600 41.09700
C  -12.35000 19.24200 41.34300
C  -11.42300 22.88000 40.93300
C  -14.17400 21.19300 40.92000
O  -14.36500 22.40200 40.99500
C  -15.41400 20.51000 40.54300
N  -11.64300 16.23600 41.95600
C  -12.92500 16.67300 41.73200
C  -13.90400 15.55100 41.88700
C  -13.05200 14.26500 42.17300
C  -11.65200 14.85400 42.27300
C  -14.87900 15.68100 42.96400
C  -13.17000 13.24200 41.02300
C  -14.13900 11.97100 41.25000
N  -8.80500 15.81600 42.44700
C  -9.14400 14.52800 42.58300
C  -7.94700 13.67500 42.81800
C  -6.89300 14.64100 42.94300
C  -7.44400 15.88700 42.76500
C  -7.83000 12.22700 42.94800
C  -5.43800 14.78300 43.26200
O  -4.55700 13.91600 43.32900
C  -5.19200 16.27800 43.20900
C  -4.61400 16.74600 44.47400
O  -3.59700 17.40700 44.53400
O  -5.45000 16.54000 45.55600
C  -5.20100 17.27000 46.82500
H  -9.01300 21.79600 41.19200
H  -14.23600 18.25900 41.22300
H  -10.67300 12.99000 42.66300
H  -5.09900 19.38900 43.03100
H  -6.29700 21.24600 41.25900
H  -7.77100 21.43800 43.77300
H  -6.53400 22.49900 43.02800
H  -5.88100 21.10000 43.93900
H  -4.28600 18.21400 41.18100
H  -4.06700 19.91500 40.85000
H  -6.44600 18.50600 39.85200
H  -4.98600 17.54100 39.40400
H  -11.36800 23.10400 39.86700
H  -10.45400 23.21600 41.30200
H  -12.18100 23.44500 41.47600
H  -15.54900 19.86500 41.41100
H  -15.29000 19.96300 39.60800
H  -16.23800 21.22200 40.48400
H  -14.38200 15.51100 40.90800
H  -13.18100 13.91400 43.19700
H  -15.68600 16.35800 42.68600
H  -14.38800 16.12800 43.82900
H  -15.24100 14.71000 43.30200
H  -12.16100 12.86500 40.85800
H  -13.49800 13.84100 40.17400
H  -15.03500 11.97600 40.63000
H  -14.44600 12.12400 42.28500
H  -13.63600 11.01000 41.14100
H  -8.63800 11.84900 42.32000
H  -7.99300 11.99300 44.00000
H  -6.78900 12.05500 42.67700
H  -4.30800 16.43700 42.59200
H  -5.09400 18.34500 46.68000
H  -4.30400 16.87800 47.30400
H  -6.10000 17.11400 47.42200

