79

Mg 25.92600 -0.74300 29.72700
C  27.55600 -1.24600 32.68300
C  23.00500 -0.37400 31.47100
C  24.40100 -0.45300 26.85500
C  28.94500 -1.58200 27.97800
N  25.30900 -0.81000 31.83300
C  26.19800 -0.78900 32.91900
C  25.59700 -0.38600 34.24600
C  24.05700 -0.52000 33.83100
C  24.12700 -0.59900 32.28100
C  23.38000 -1.86600 34.30800
C  26.20000 1.02600 34.65000
C  27.08900 1.03500 35.89500
H  26.59200 1.90500 37.04600
N  23.93800 -0.51000 29.28000
C  22.85800 -0.34800 30.07100
C  21.63300 -0.12800 29.29300
C  21.99200 -0.27400 27.95000
C  23.48200 -0.39600 27.98300
C  20.22500 0.33500 29.86500
C  21.16600 -0.23300 26.67200
O  21.56100 -0.62900 25.56900
C  19.74000 0.31200 26.78600
N  26.56800 -1.19600 27.60400
C  25.76600 -0.68600 26.68300
C  26.41700 -0.52100 25.34900
C  27.94700 -0.81900 25.70700
C  27.84700 -1.19800 27.20200
C  25.85200 -1.38000 24.12700
C  28.99900 0.25900 25.32200
C  30.09100 -0.12200 24.33000
N  27.84600 -1.38900 30.16800
C  28.90800 -1.71400 29.39500
C  30.05700 -1.92800 30.21100
C  29.59300 -1.80500 31.52500
C  28.23500 -1.48500 31.44100
C  31.36900 -2.33500 29.79500
C  29.94700 -1.77800 32.97700
O  31.07100 -1.93900 33.53900
C  28.60600 -1.40800 33.72100
C  28.45300 -2.48500 34.71400
O  27.90000 -3.55500 34.48000
O  29.24200 -2.25000 35.86200
C  29.01000 -3.25100 36.84600
H  22.03600 -0.32900 31.97200
H  23.75100 -0.14900 26.03100
H  29.94500 -1.68300 27.55100
H  25.96400 -1.10800 34.97500
H  23.42600 0.28400 34.21000
H  23.01600 -1.74900 35.32900
H  24.16600 -2.61900 34.25800
H  22.46400 -2.13500 33.78200
H  25.39900 1.76000 34.73700
H  26.85500 1.41900 33.87300
H  28.04300 1.36400 35.48400
H  27.27900 0.03600 36.28900
H  20.25900 0.71000 30.88800
H  19.42700 -0.38100 29.66800
H  19.97200 1.19700 29.24800
H  19.87200 1.37600 26.98200
H  19.29300 -0.15800 27.66200
H  19.12900 0.17300 25.89400
H  26.27200 0.55400 25.24400
H  28.20100 -1.72000 25.14900
H  24.94800 -1.90100 24.44100
H  26.57400 -2.15100 23.85800
H  25.68100 -0.73900 23.26200
H  29.48300 0.60600 26.23500
H  28.42200 1.01000 24.78200
H  31.02200 0.27000 24.74000
H  30.00500 0.41900 23.38800
H  30.14100 -1.19600 24.15600
H  32.05400 -2.40900 30.64000
H  31.71000 -1.55000 29.11900
H  31.34600 -3.29800 29.28600
H  28.71200 -0.39800 34.11600
H  29.56600 -4.15300 36.58500
H  27.96400 -3.47600 37.05100
H  29.52300 -3.05900 37.78800

