79

Mg 46.79300 15.81700 27.85900
C  44.48400 15.72800 30.70700
C  48.92700 17.60100 29.81800
C  48.62400 16.51100 25.13100
C  44.13800 14.72500 25.84600
N  46.57400 16.70300 29.97100
C  45.67800 16.46400 30.97400
C  46.11600 17.02700 32.32900
C  47.42000 17.83500 31.98900
C  47.70600 17.29900 30.50600
C  47.27800 19.35500 31.92500
C  46.28700 15.85400 33.35400
C  45.62200 15.97600 34.75900
H  45.63100 17.31400 35.34300
N  48.48900 16.90800 27.56700
C  49.31300 17.47300 28.53300
C  50.55400 18.05000 27.86600
C  50.40800 17.83100 26.47900
C  49.11300 16.98900 26.35400
C  51.66600 18.75900 28.59000
C  51.24200 18.36500 25.35500
O  50.88300 18.26000 24.21000
C  52.54700 19.16900 25.65900
N  46.39200 15.82600 25.74200
C  47.39100 15.96200 24.87500
C  46.94900 15.49200 23.46300
C  45.58800 14.78900 23.71600
C  45.30200 15.14100 25.16900
C  46.77700 16.75900 22.47300
C  45.45800 13.29600 23.49100
C  46.11800 12.36800 24.51900
N  44.76900 15.19100 28.17900
C  43.84300 14.84600 27.24900
C  42.60200 14.44700 27.90100
C  42.81000 14.66900 29.31600
C  44.09300 15.22100 29.37300
C  41.35800 13.84500 27.22200
C  42.27200 14.59200 30.65400
O  41.20900 14.13300 31.05600
C  43.31700 15.28800 31.61500
C  42.60600 16.43200 32.17300
O  42.70200 17.60100 31.84600
O  41.98100 15.99100 33.29800
C  41.55700 17.01400 34.18900
H  49.51900 18.27400 30.44200
H  49.25200 16.53800 24.23900
H  43.39600 14.26300 25.19200
H  45.27900 17.55500 32.78500
H  48.25000 17.61000 32.65900
H  46.47900 19.62500 32.61500
H  47.07500 19.62800 30.88900
H  48.22400 19.79000 32.24500
H  47.34300 15.75100 33.60500
H  45.87300 14.94700 32.91300
H  46.28700 15.35000 35.35400
H  44.59800 15.60900 34.81700
H  52.47500 18.02900 28.59600
H  51.40500 19.14600 29.57500
H  51.94300 19.63000 27.99600
H  53.19800 18.63900 26.35400
H  52.16700 20.11300 26.04900
H  53.05000 19.44200 24.73100
H  47.62700 14.75800 23.02600
H  44.81200 15.28000 23.12900
H  45.79700 16.85000 22.00400
H  47.46600 16.63000 21.63900
H  47.03900 17.69800 22.96000
H  46.11100 13.12900 22.63400
H  44.43300 13.00300 23.26500
H  46.56600 12.93600 25.33400
H  46.90700 11.75200 24.08900
H  45.40700 11.66100 24.94800
H  41.40200 14.19500 26.19100
H  40.43300 14.29900 27.57900
H  41.33400 12.75500 27.20900
H  43.58500 14.69600 32.49100
H  41.44400 16.68500 35.22200
H  40.61700 17.31900 33.73000
H  42.16700 17.89400 34.39800

