79

Mg 30.45800 57.72700 39.68600
C  27.82300 55.68600 38.58000
C  32.61900 55.13400 38.73000
C  33.19300 59.76800 40.15000
C  28.28600 60.31500 40.10000
N  30.22700 55.69200 38.70600
C  29.06700 55.05400 38.51500
C  29.13500 53.55400 38.10300
C  30.74600 53.39200 38.21200
C  31.26700 54.81000 38.60700
C  31.22600 52.25100 39.26500
C  28.66500 53.18700 36.71500
C  29.26000 53.86800 35.52100
H  28.28800 54.52000 34.54300
N  32.57300 57.49500 39.52500
C  33.22100 56.33800 39.08100
C  34.66700 56.62300 38.94200
C  34.88200 57.88500 39.51700
C  33.50700 58.42800 39.79300
C  35.63700 55.69900 38.35200
C  36.27000 58.60800 39.67700
O  37.30800 58.08100 39.32600
C  36.37600 59.81200 40.56800
N  30.65200 59.78400 39.96100
C  31.86500 60.31500 40.29300
C  31.65800 61.73800 40.76800
C  30.17200 62.04400 40.63300
C  29.65400 60.64700 40.27800
C  32.37600 62.14300 42.05600
C  29.79800 63.11800 39.56900
C  28.80000 64.20500 40.06500
N  28.45200 58.01200 39.33600
C  27.68500 59.18400 39.59000
C  26.26400 58.77400 39.31000
C  26.31900 57.42400 38.98100
C  27.61500 56.98300 38.94600
C  25.09700 59.76800 39.33800
C  25.49800 56.27900 38.64000
O  24.29800 56.13500 38.44600
C  26.42600 55.12000 38.34400
C  26.06800 53.88900 39.07900
O  26.36000 53.67400 40.21000
O  25.37200 53.01400 38.36200
C  24.60300 51.95000 39.07700
H  33.24800 54.28800 38.44400
H  33.92400 60.57200 40.25900
H  27.61700 61.17400 40.18800
H  28.62300 52.95800 38.85800
H  31.36000 53.27200 37.32000
H  31.98500 51.71600 38.69300
H  30.43000 51.54300 39.49700
H  31.47600 52.60400 40.26500
H  27.57900 53.28700 36.72500
H  28.98200 52.14800 36.63700
H  29.64100 53.02200 34.94900
H  29.99800 54.62600 35.78300
H  36.48100 56.29000 37.99600
H  35.11000 55.07400 37.63100
H  35.91500 55.06000 39.19000
H  37.43700 60.00300 40.72600
H  35.92800 59.55000 41.52600
H  36.02400 60.72900 40.09500
H  32.22400 62.21300 39.96600
H  29.72000 62.26700 41.60000
H  33.03400 61.31700 42.32400
H  31.69300 62.41900 42.86000
H  33.07000 62.92500 41.75100
H  29.21200 62.70200 38.74900
H  30.66300 63.60700 39.12100
H  28.62600 63.97800 41.11600
H  27.95600 64.00700 39.40400
H  29.08400 65.24400 39.89200
H  25.46100 60.78900 39.45200
H  24.36900 59.38000 40.05100
H  24.59600 59.76100 38.37100
H  26.35000 54.96400 37.26800
H  25.20900 51.42800 39.81800
H  24.18600 51.19300 38.41300
H  23.77800 52.49900 39.53100

