79

Mg -5.91300 24.55200 26.69700
C  -4.16500 26.11500 29.38700
C  -7.05300 22.28300 29.08000
C  -7.64800 23.18800 24.29300
C  -4.14000 26.55100 24.49600
N  -5.53200 24.19200 28.97600
C  -4.93800 25.03900 29.80800
C  -5.19400 24.68800 31.24900
C  -5.78500 23.22200 31.16400
C  -6.23100 23.22200 29.64800
C  -4.69000 22.20700 31.41200
C  -6.20700 25.63100 31.94200
C  -5.93600 26.02100 33.46500
H  -5.94200 24.76400 34.43000
N  -7.16500 23.00700 26.73300
C  -7.49400 22.21900 27.78300
C  -8.40300 21.14600 27.27700
C  -8.56600 21.38800 25.91500
C  -7.76300 22.58300 25.55400
C  -8.75000 19.93500 28.10200
C  -9.45600 20.62600 24.90600
O  -9.46700 20.86200 23.70500
C  -10.42200 19.59000 25.35400
N  -5.89700 24.79500 24.66600
C  -6.73300 24.21300 23.86400
C  -6.54800 24.53800 22.39400
C  -5.37300 25.60100 22.37700
C  -5.12300 25.71100 23.93200
C  -6.25600 23.24000 21.49100
C  -5.71500 27.01700 21.77600
C  -6.76900 27.05600 20.62600
N  -4.45500 25.92700 26.84800
C  -3.87900 26.67600 25.83100
C  -2.96000 27.58500 26.44700
C  -3.01000 27.37500 27.77900
C  -3.95400 26.38200 28.00000
C  -2.12200 28.62900 25.67400
C  -2.50300 27.87500 29.12000
O  -1.70900 28.73300 29.49000
C  -3.25700 27.03500 30.16500
C  -2.32200 26.38800 31.02000
O  -1.81600 25.34000 30.80200
O  -2.12200 27.07700 32.23300
C  -1.34700 26.40100 33.32500
H  -7.49700 21.55700 29.76400
H  -8.40100 22.84300 23.58200
H  -3.61100 27.28100 23.87900
H  -4.31300 24.59700 31.88500
H  -6.48800 23.13700 31.99300
H  -4.77900 21.93800 32.46500
H  -3.71300 22.65500 31.22800
H  -4.83600 21.32400 30.79000
H  -7.15600 25.09700 31.98400
H  -6.46400 26.55500 31.42400
H  -6.67400 26.77200 33.74700
H  -5.00500 26.55800 33.64900
H  -9.82500 19.95300 28.27800
H  -8.23400 19.79800 29.05200
H  -8.44700 19.02100 27.59000
H  -10.85900 19.93900 26.28900
H  -9.82900 18.68200 25.46800
H  -11.28800 19.41500 24.71600
H  -7.53500 24.92400 22.13700
H  -4.48000 25.20000 21.89900
H  -7.05500 23.23800 20.75000
H  -6.43600 22.35500 22.10300
H  -5.26600 23.24700 21.03300
H  -4.72900 27.39200 21.50000
H  -6.05700 27.67600 22.57300
H  -7.61500 27.44900 21.19000
H  -6.97400 26.13300 20.08200
H  -6.38000 27.77200 19.90200
H  -1.17200 28.25300 25.29300
H  -1.88700 29.40700 26.40100
H  -2.66300 28.94300 24.78200
H  -3.93600 27.68900 30.71300
H  -0.75600 27.13700 33.86900
H  -0.62700 25.63600 33.03600
H  -2.07300 26.03900 34.05300

