79

Mg -1.85300 17.12300 26.01800
C  -2.67500 14.85500 28.54800
C  -2.89200 19.73900 27.90600
C  -1.90900 19.25300 23.21700
C  -1.81300 14.39200 23.70600
N  -2.70100 17.19300 27.92900
C  -2.90100 16.19600 28.81300
C  -3.32900 16.84200 30.11100
C  -3.60700 18.30600 29.86000
C  -2.96300 18.43800 28.47900
C  -5.05400 18.84300 29.91100
C  -2.30200 16.52200 31.21200
C  -2.60600 17.06700 32.56900
H  -2.60200 16.13900 33.74200
N  -2.00200 19.26900 25.70200
C  -2.41500 20.13300 26.61600
C  -2.10000 21.47800 26.17900
C  -1.71300 21.31600 24.78800
C  -1.93400 19.93900 24.43500
C  -2.37500 22.69000 26.99500
C  -1.16200 22.37300 23.87800
O  -0.92800 22.14700 22.72100
C  -0.78000 23.67300 24.51700
N  -1.71900 16.87000 23.81800
C  -1.91000 17.89600 22.91100
C  -1.80300 17.43500 21.47200
C  -1.46400 15.91300 21.67800
C  -1.71200 15.67000 23.16300
C  -3.16700 17.66500 20.68400
C  -0.03400 15.46400 21.36500
C  1.06200 16.23100 22.15500
N  -2.07900 14.92500 26.06700
C  -2.00000 13.99900 25.11000
C  -2.22500 12.74000 25.78900
C  -2.41400 12.96800 27.12300
C  -2.31300 14.38200 27.25900
C  -2.34700 11.40000 25.08500
C  -2.56000 12.33700 28.42800
O  -2.49100 11.14900 28.76500
C  -2.68400 13.54400 29.42400
C  -1.49000 13.40100 30.31100
O  -0.41600 13.80500 30.06400
O  -1.77700 12.54700 31.31600
C  -0.71800 12.07900 32.21400
H  -3.19500 20.50800 28.62000
H  -1.88500 20.00000 22.42100
H  -1.69700 13.57100 22.99500
H  -4.23500 16.31600 30.41300
H  -3.04300 18.98500 30.49900
H  -5.22600 19.09000 30.95900
H  -5.63500 17.93300 29.76200
H  -5.24600 19.57100 29.12300
H  -1.38800 16.83900 30.71000
H  -2.41000 15.45600 31.41500
H  -3.61100 17.48200 32.63400
H  -1.92800 17.90600 32.72800
H  -2.76900 22.34700 27.95100
H  -3.05300 23.37800 26.48800
H  -1.46700 23.25900 27.19400
H  -1.58400 24.33100 24.84600
H  -0.36700 24.23900 23.68200
H  0.03500 23.53100 25.22700
H  -1.12800 18.07100 20.89900
H  -2.10000 15.28400 21.05700
H  -3.90900 18.12100 21.34000
H  -3.61000 16.73600 20.32300
H  -3.04400 18.23000 19.76000
H  0.23200 15.59200 20.31500
H  0.01500 14.40100 21.59900
H  1.75700 16.68800 21.45200
H  1.46100 15.55800 22.91400
H  0.55100 17.00800 22.72400
H  -1.86400 11.52100 24.11500
H  -3.36500 11.09600 24.84100
H  -1.79700 10.74600 25.76200
H  -3.55800 13.42100 30.06300
H  -0.98200 12.56800 33.15200
H  0.23400 12.53800 31.94700
H  -0.69800 11.01800 32.46300

