79

Mg 40.58100 9.38800 29.20100
C  42.39400 10.73100 31.92900
C  38.42900 7.92200 31.43000
C  39.06300 8.14900 26.57800
C  43.11100 10.51900 27.08000
N  40.58100 9.23400 31.42500
C  41.25500 10.05800 32.33700
C  40.68600 9.92200 33.78200
C  39.50500 8.91200 33.60600
C  39.48100 8.59800 32.05900
C  39.72100 7.62200 34.40100
C  40.41200 11.26200 34.41500
C  39.54200 11.23200 35.68000
H  40.40500 11.31300 36.92400
N  38.93500 8.16200 29.00700
C  38.19100 7.75000 30.04100
C  37.03600 7.03600 29.53100
C  37.10800 7.19500 28.12100
C  38.34800 7.90000 27.79600
C  36.00400 6.25100 30.43000
C  36.14900 6.84000 27.08300
O  36.38100 7.10200 25.89800
C  34.86500 6.24300 27.47700
N  41.09900 9.29500 27.20500
C  40.29500 8.72100 26.26400
C  40.82100 8.86800 24.75600
C  42.04900 9.61400 25.01500
C  42.10500 9.84300 26.52700
C  41.01900 7.51300 24.01400
C  42.03100 10.99600 24.28500
C  41.00400 12.11400 24.55600
N  42.39700 10.45600 29.37400
C  43.23300 10.85300 28.44700
C  44.39300 11.55700 29.06200
C  44.05400 11.63000 30.41600
C  42.81500 10.86700 30.53800
C  45.60400 12.14000 28.41700
C  44.47700 12.08500 31.71000
O  45.44700 12.75500 32.09600
C  43.40100 11.59200 32.71300
C  44.09500 10.94100 33.84000
O  44.31300 9.75300 33.87100
O  44.20100 11.75700 34.95300
C  44.84300 11.19400 36.20600
H  37.59100 7.50400 31.99300
H  38.57800 7.77200 25.67500
H  43.79800 10.90900 26.32600
H  41.44000 9.46700 34.42300
H  38.53600 9.37100 33.80300
H  39.85700 6.74700 33.76600
H  38.82900 7.60600 35.02700
H  40.51100 7.71000 35.14800
H  40.23900 12.02700 33.65800
H  41.42200 11.63300 34.59000
H  38.95900 10.31200 35.67700
H  38.81500 12.04400 35.65800
H  34.99800 6.66400 30.34700
H  36.24900 6.05000 31.47300
H  35.85900 5.31000 29.90000
H  34.01200 6.08500 26.81700
H  34.40500 6.89900 28.21600
H  35.02500 5.30300 28.00500
H  40.02300 9.47600 24.33000
H  42.92800 9.00800 24.79600
H  41.08300 6.63100 24.65100
H  41.88500 7.44800 23.35400
H  40.10900 7.30900 23.45000
H  41.96000 10.79200 23.21700
H  43.02600 11.42700 24.40400
H  40.62900 12.33000 23.55500
H  41.38100 13.03400 25.00300
H  40.21400 11.81600 25.24500
H  45.89000 11.66800 27.47700
H  46.36600 12.29200 29.18100
H  45.38800 13.18600 28.19900
H  42.83000 12.44800 33.07200
H  45.38200 10.27400 35.98200
H  43.97200 11.08500 36.85400
H  45.59100 11.85200 36.64800

