79

Mg 9.35900 4.19500 28.33900
C  10.66900 2.38300 31.03200
C  7.59600 6.13000 30.45400
C  7.72800 5.45200 25.54100
C  10.71500 1.74600 26.11200
N  9.13600 4.12100 30.53000
C  9.91100 3.44600 31.49300
C  9.68600 3.95800 32.90200
C  8.38300 4.81800 32.66200
C  8.34300 5.11700 31.11400
C  7.14000 4.07800 33.23500
C  10.89900 4.66000 33.46300
C  11.81300 4.10500 34.58900
H  11.98000 4.75700 35.92500
N  7.93300 5.67300 28.07500
C  7.41300 6.36200 29.10800
C  6.67000 7.49000 28.49300
C  6.65800 7.28000 27.13600
C  7.45600 6.03600 26.87600
C  6.05400 8.68900 29.23800
C  6.02500 8.05600 26.05800
O  5.79100 7.52100 24.99100
C  5.43200 9.42200 26.21800
N  9.02000 3.47400 26.10400
C  8.39400 4.27500 25.21300
C  8.70500 3.88100 23.79800
C  9.76500 2.77200 23.93900
C  9.90400 2.67300 25.44100
C  7.44400 3.35100 23.05800
C  11.12300 3.13200 23.26900
C  12.02000 1.88200 22.98000
N  10.47000 2.47200 28.50200
C  10.88200 1.59000 27.53200
C  11.49300 0.45800 28.13900
C  11.50800 0.78400 29.53700
C  10.81900 1.98500 29.70200
C  12.02500 -0.74100 27.43400
C  12.01700 0.36900 30.83600
O  12.69600 -0.59400 31.15800
C  11.47000 1.42400 31.87400
C  10.64600 0.75600 32.82900
O  9.50700 0.38700 32.64300
O  11.34600 0.64900 33.98800
C  10.51000 0.12200 35.06700
H  7.03400 6.79900 31.10900
H  7.27200 5.90600 24.65900
H  11.19300 0.92600 25.57100
H  9.41300 3.10900 33.52900
H  8.48100 5.78000 33.16600
H  7.42000 3.14000 33.71500
H  6.47500 3.77700 32.42600
H  6.67400 4.73200 33.97200
H  10.50800 5.65700 33.66400
H  11.53800 4.85300 32.60100
H  12.78300 4.03600 34.09800
H  11.39200 3.11200 34.74800
H  5.10200 8.99900 28.80700
H  6.55200 9.64500 29.07500
H  5.99000 8.51200 30.31100
H  5.21600 9.90500 25.26500
H  6.20600 10.02300 26.69600
H  4.54200 9.41000 26.84700
H  9.17900 4.75400 23.34900
H  9.47000 1.81700 23.50500
H  6.62500 3.50300 23.76100
H  7.58400 2.35800 22.62900
H  7.30400 3.99000 22.18700
H  11.72800 3.83400 23.84200
H  10.92700 3.54100 22.27700
H  12.57300 1.58000 23.86900
H  12.71800 2.09200 22.16900
H  11.42500 1.01600 22.69200
H  11.46600 -1.03300 26.54500
H  12.01400 -1.59700 28.10800
H  13.07300 -0.60000 27.16700
H  12.31100 2.02800 32.21700
H  9.44400 0.26000 34.88600
H  10.75300 0.50800 36.05700
H  10.76200 -0.93800 35.04900

