79

Mg 36.63600 50.50300 25.32100
C  36.41000 48.68600 28.30700
C  35.39900 53.27600 26.96600
C  36.46800 52.07300 22.32800
C  37.16400 47.40600 23.61600
N  35.96200 50.88500 27.43200
C  36.11000 50.02100 28.52200
C  35.80900 50.76000 29.81400
C  35.26300 52.19100 29.33500
C  35.59000 52.13400 27.83400
C  33.83900 52.60900 29.69100
C  37.12900 50.79700 30.64200
C  36.94100 50.55200 32.13800
H  35.51400 50.46200 32.77000
N  36.05300 52.41200 24.68300
C  35.64000 53.42900 25.61400
C  35.50800 54.62900 24.85800
C  35.65500 54.31100 23.40000
C  36.04900 52.86200 23.36700
C  35.22200 55.91200 25.57200
C  35.63900 55.16800 22.07800
O  35.88400 54.77500 20.97000
C  35.29000 56.61100 22.11100
N  36.67800 49.85600 23.31600
C  36.73000 50.72200 22.24700
C  37.19500 50.05900 20.92200
C  37.63700 48.60800 21.46500
C  37.23500 48.60800 22.94300
C  36.23000 49.99400 19.75700
C  39.17100 48.32400 21.29500
C  40.20100 48.82100 22.30600
N  36.81600 48.45900 25.79400
C  36.99600 47.31600 25.00700
C  37.15400 46.22700 25.81300
C  36.91100 46.73500 27.10400
C  36.66400 48.11900 27.06900
C  37.56400 44.79200 25.38400
C  36.87200 46.34200 28.49900
O  37.06500 45.24100 29.01500
C  36.52600 47.67000 29.37100
C  35.27300 47.28900 30.17100
O  34.12500 47.53300 29.83600
O  35.63900 46.38400 31.10600
C  34.57500 45.96200 32.01200
H  35.04600 54.17300 27.47700
H  36.74100 52.50500 21.36300
H  37.34800 46.46900 23.08600
H  34.99800 50.22100 30.30400
H  35.97100 52.91400 29.74000
H  33.37400 52.61500 28.70500
H  33.70700 53.60200 30.12200
H  33.47800 51.84400 30.37800
H  37.56200 51.76600 30.39200
H  37.89900 50.14900 30.22200
H  37.35100 51.44200 32.61600
H  37.54100 49.71400 32.49400
H  35.99300 56.17500 26.29600
H  34.26600 55.83400 26.09000
H  35.17800 56.70300 24.82300
H  35.38100 57.05200 21.11900
H  35.95100 57.12300 22.81100
H  34.31800 56.77800 22.57600
H  38.08800 50.67600 20.81600
H  37.00100 47.86400 20.98600
H  35.21200 50.05600 20.14200
H  36.32400 49.10300 19.13600
H  36.49200 50.86100 19.15000
H  39.42300 48.66600 20.29100
H  39.19100 47.24100 21.17900
H  40.89900 47.98500 22.34000
H  39.75300 48.97300 23.28800
H  40.64200 49.77400 22.01300
H  36.85600 43.97000 25.48100
H  38.44700 44.60700 25.99500
H  37.93300 44.85700 24.36000
H  37.35300 47.82100 30.06600
H  34.91300 45.39000 32.87600
H  33.87300 45.30300 31.50200
H  34.12600 46.86200 32.43400

