79

Mg -5.82600 25.00700 26.15100
C  -4.41200 26.22300 29.09300
C  -7.98900 23.14900 28.26000
C  -7.19400 23.78800 23.39700
C  -3.68200 27.04500 24.36100
N  -6.22500 24.75700 28.56200
C  -5.49600 25.35000 29.53100
C  -6.07700 24.94600 30.92100
C  -6.91400 23.71300 30.50800
C  -7.07300 23.85500 29.02200
C  -6.35400 22.34500 30.89700
C  -6.90200 26.09500 31.63500
C  -6.58600 26.38300 33.08000
H  -5.83500 25.32800 34.05000
N  -7.29400 23.64700 25.86200
C  -8.11900 22.97900 26.85200
C  -9.13800 22.17500 26.21100
C  -8.86600 22.31600 24.77300
C  -7.75100 23.30200 24.64700
C  -10.21000 21.47700 26.97200
C  -9.52700 21.67100 23.58700
O  -9.23300 21.90500 22.42500
C  -10.56400 20.64300 23.90400
N  -5.46500 25.37000 24.14400
C  -6.15000 24.73400 23.15900
C  -5.62100 25.10600 21.78100
C  -4.65800 26.30800 22.09700
C  -4.56300 26.27600 23.60300
C  -4.85600 24.01600 20.91100
C  -5.06600 27.73800 21.66900
C  -4.14800 28.35500 20.55800
N  -4.26100 26.30100 26.58700
C  -3.53500 27.16500 25.76500
C  -2.61600 28.00600 26.59900
C  -3.00400 27.71000 27.91500
C  -4.00100 26.67600 27.84100
C  -1.57000 29.00900 25.95700
C  -2.70000 27.98600 29.31000
O  -1.77900 28.68700 29.78100
C  -3.53100 27.02200 30.12300
C  -2.69900 26.30900 31.08300
O  -2.07700 25.31000 30.78700
O  -2.68700 26.86300 32.35800
C  -1.79000 26.09000 33.19800
H  -8.65300 22.46200 28.79000
H  -7.64200 23.48200 22.45000
H  -3.00100 27.62200 23.73100
H  -5.20400 24.69100 31.52200
H  -7.88600 23.68200 31.00100
H  -7.03800 21.99500 31.67000
H  -5.34400 22.43000 31.29700
H  -6.40400 21.51800 30.18800
H  -7.98000 25.93400 31.60700
H  -6.74100 26.89700 30.91400
H  -7.55700 26.59100 33.52900
H  -6.01100 27.30900 33.10700
H  -9.83500 20.49700 27.26700
H  -11.12000 21.52600 26.37400
H  -10.50900 22.02500 27.86500
H  -10.79800 20.13700 22.96800
H  -11.45600 21.21700 24.15300
H  -10.42500 19.96900 24.74900
H  -6.51100 25.40700 21.22800
H  -3.68500 26.07500 21.66500
H  -5.65800 23.33200 20.63500
H  -4.29200 23.35100 21.56500
H  -4.46300 24.44600 19.98900
H  -5.23900 28.38900 22.52500
H  -5.93900 27.61600 21.02700
H  -4.63600 28.71800 19.65300
H  -3.43600 27.64300 20.13900
H  -3.58400 29.18700 20.97900
H  -1.04400 29.59700 26.70800
H  -2.06700 29.75000 25.33100
H  -0.76900 28.45500 25.46700
H  -4.25100 27.59300 30.70900
H  -0.74200 26.15000 32.90300
H  -2.13800 25.05800 33.16000
H  -1.93600 26.48200 34.20500

