79

Mg 24.83100 1.42200 29.74500
C  27.10700 1.37400 32.38900
C  22.22700 1.18200 32.04600
C  22.62600 1.07700 27.36000
C  27.47500 0.91800 27.58300
N  24.71500 1.09100 31.93600
C  25.74400 1.45000 32.80800
C  25.22000 1.69300 34.24100
C  23.69300 1.34600 34.09100
C  23.51600 1.17600 32.63000
C  23.23000 0.13700 35.02600
C  25.60400 3.13500 34.77000
C  26.16200 3.14800 36.21100
H  25.42300 3.96900 37.26900
N  22.72500 1.24500 29.66000
C  21.82100 1.22800 30.65400
C  20.49400 1.11300 30.15700
C  20.55400 0.97200 28.79300
C  21.99000 1.10300 28.55200
C  19.27700 1.12800 31.10900
C  19.48900 0.63700 27.69600
O  19.73900 0.43900 26.53600
C  18.14600 0.38600 28.09700
N  25.07600 0.97700 27.76500
C  23.99300 1.01200 26.91100
C  24.37600 1.20100 25.43300
C  25.88000 1.26000 25.51900
C  26.20900 0.92700 26.99300
C  23.76300 0.16000 24.52700
C  26.59300 2.58500 25.01200
C  26.63700 3.71000 25.89800
N  26.88800 1.21300 29.82800
C  27.81100 0.89100 28.89800
C  29.12000 0.77600 29.56700
C  28.89500 1.00200 30.88900
C  27.52800 1.26500 30.99400
C  30.38400 0.46100 28.96000
C  29.52800 1.14200 32.16900
O  30.70600 1.13000 32.52200
C  28.34300 1.38200 33.21200
C  28.35500 0.27500 34.22700
O  28.21700 -0.94100 34.05700
O  28.58000 0.82400 35.45300
C  28.50300 0.05900 36.72200
H  21.43300 0.95300 32.75900
H  21.94500 1.03700 26.50700
H  28.30100 0.80000 26.87900
H  25.70700 1.00000 34.92700
H  23.06000 2.19600 34.34700
H  23.45600 -0.83500 34.58800
H  22.19900 0.31600 35.33100
H  23.82900 0.15100 35.93700
H  24.76900 3.83100 34.70300
H  26.36900 3.51400 34.09200
H  27.11200 3.67700 36.13900
H  26.42400 2.16100 36.59000
H  19.48600 1.59000 32.07400
H  19.02100 0.08100 31.27400
H  18.53000 1.73600 30.60000
H  17.71900 1.31700 28.47000
H  18.20400 -0.42300 28.82500
H  17.70400 0.12800 27.13500
H  23.99200 2.20100 25.23100
H  26.34400 0.47200 24.92700
H  23.48600 -0.71400 25.11700
H  24.34200 -0.12200 23.64800
H  22.81100 0.51400 24.13200
H  26.16600 2.86100 24.04700
H  27.59900 2.30700 24.69900
H  25.82600 3.80800 26.62000
H  26.52600 4.58500 25.25700
H  27.59500 3.80600 26.40800
H  30.91600 1.38300 28.72800
H  30.33300 -0.03800 27.99200
H  30.85600 -0.21900 29.67000
H  28.53200 2.30200 33.76600
H  28.43400 -1.01500 36.55500
H  27.68200 0.35000 37.37700
H  29.39000 0.32900 37.29500

