79

Mg 47.43000 16.70500 28.49700
C  45.89400 16.72600 31.52700
C  49.80900 18.87900 29.74400
C  48.65600 17.07400 25.26800
C  44.69500 15.05600 27.05900
N  47.94300 17.51300 30.45900
C  47.11600 17.38400 31.58000
C  47.78700 17.92900 32.83400
C  48.78100 18.97800 32.16900
C  48.89000 18.43200 30.70800
C  48.43600 20.53100 32.27400
C  48.27700 16.73300 33.73900
C  48.09600 16.84700 35.26100
H  47.79300 18.30600 35.80200
N  49.04500 17.70600 27.72200
C  49.96300 18.52300 28.39000
C  50.88300 19.10500 27.46000
C  50.60800 18.52900 26.17500
C  49.38600 17.74400 26.36200
C  51.77600 20.26400 27.78200
C  51.32300 18.77400 24.80200
O  50.83500 18.50500 23.76900
C  52.69400 19.49700 24.79100
N  46.70600 16.23600 26.41100
C  47.48700 16.37900 25.27000
C  46.77700 15.80500 24.02200
C  45.56300 15.02900 24.58600
C  45.66900 15.40100 26.12200
C  46.45000 16.90000 23.05500
C  45.51000 13.45600 24.40300
C  44.87700 13.01800 23.08700
N  45.65100 15.97300 29.09200
C  44.59800 15.32800 28.46300
C  43.61200 14.98600 29.43900
C  44.04200 15.54800 30.65200
C  45.30700 16.07400 30.41600
C  42.32000 14.31000 29.17800
C  43.68400 15.74400 32.03000
O  42.70000 15.31200 32.63400
C  44.83800 16.51600 32.69400
C  44.32300 17.79300 33.30500
O  43.90600 18.73300 32.71600
O  43.98900 17.46800 34.61600
C  43.28400 18.43200 35.44600
H  50.39600 19.72500 30.10800
H  48.99000 17.22600 24.24000
H  43.96000 14.34500 26.67900
H  47.10000 18.55900 33.39900
H  49.71400 18.74000 32.68000
H  49.33600 21.14100 32.35900
H  47.87500 20.72900 33.18700
H  47.90000 20.89500 31.39800
H  49.34600 16.67000 33.53400
H  47.83200 15.80900 33.36700
H  49.12900 16.63900 35.54000
H  47.32700 16.13700 35.56800
H  51.44000 21.16200 27.26300
H  52.78000 19.96400 27.48100
H  51.89200 20.43900 28.85200
H  52.35800 20.53300 24.81900
H  53.24900 19.29700 23.87400
H  53.32700 19.22600 25.63500
H  47.50200 15.14000 23.55200
H  44.65400 15.48600 24.19600
H  45.49500 16.69300 22.57300
H  47.23500 17.06000 22.31600
H  46.31900 17.84400 23.58500
H  45.12600 12.88900 25.25100
H  46.57300 13.21400 24.38100
H  45.49900 13.35500 22.25800
H  43.85200 13.34700 22.91800
H  44.77800 11.94100 23.22000
H  41.95800 14.53500 28.17400
H  41.45200 14.53600 29.79700
H  42.42400 13.23200 29.30300
H  45.21200 15.91500 33.52400
H  43.20800 19.32800 34.83100
H  43.85600 18.60100 36.35800
H  42.31600 17.94500 35.57200

