79

Mg 45.97000 2.40400 47.72800
C  43.58000 4.92400 47.20300
C  43.38200 0.05200 47.81200
C  48.23800 0.04500 47.69000
C  48.38300 4.82100 47.18100
N  43.84100 2.52100 47.62400
C  43.04200 3.63900 47.34100
C  41.50600 3.31200 47.23400
C  41.36600 1.81900 47.68000
C  42.93600 1.42100 47.66900
C  40.70800 1.59100 49.05900
C  40.91700 3.49500 45.78700
C  39.48000 3.92100 45.79700
H  38.99000 5.01500 44.83900
N  45.80100 0.28200 47.70500
C  44.67000 -0.48400 47.79800
C  45.01700 -1.90900 47.86600
C  46.44200 -1.95900 47.75800
C  46.93400 -0.53500 47.73000
C  43.92900 -2.93100 47.99200
C  47.24500 -3.22300 47.56700
O  46.67900 -4.35300 47.61500
C  48.74900 -3.20900 47.27600
N  47.95000 2.40700 47.21100
C  48.67400 1.34600 47.52300
C  50.22900 1.58200 47.50900
C  50.24000 3.12600 47.14200
C  48.77900 3.53700 47.16400
C  50.87100 1.32000 48.96800
C  50.90300 3.44300 45.71800
C  52.09300 4.44200 45.72000
N  45.99300 4.53900 47.28300
C  47.05800 5.34500 47.18800
C  46.61600 6.73600 46.94200
C  45.21200 6.60500 46.94900
C  44.89700 5.23000 47.16800
C  47.44900 7.95200 46.74500
C  43.94700 7.29500 46.81400
O  43.66100 8.45800 46.59900
C  42.88500 6.17900 46.95200
C  41.95400 6.63600 48.06300
O  42.23900 6.61500 49.27200
O  40.81300 7.22800 47.53300
C  39.69700 7.38800 48.42300
H  42.61000 -0.70600 47.96100
H  49.00300 -0.71900 47.83700
H  49.21100 5.52500 47.27900
H  40.96900 3.99300 47.89400
H  40.66500 1.30300 47.02500
H  40.41200 2.57300 49.42900
H  41.46300 1.26900 49.77600
H  39.89700 0.86500 49.10600
H  40.97200 2.51400 45.31500
H  41.57300 4.13900 45.20200
H  39.02400 4.26100 46.72700
H  38.87900 3.06300 45.49600
H  43.43200 -3.07500 47.03300
H  43.23700 -2.59800 48.76600
H  44.40000 -3.87500 48.26900
H  49.40900 -2.77300 48.02500
H  49.03200 -2.87600 46.27800
H  49.10200 -4.22900 47.12500
H  50.72600 1.04800 46.69900
H  50.89500 3.73900 47.76100
H  51.15600 2.26100 49.44000
H  51.76300 0.70000 48.88100
H  50.13400 0.86700 49.63100
H  50.09500 3.84900 45.11000
H  51.17000 2.58300 45.10500
H  52.47900 4.73000 46.69700
H  51.93500 5.34100 45.12400
H  52.88100 3.86100 45.24100
H  47.69200 8.57400 47.60700
H  46.96100 8.55600 45.98000
H  48.36200 7.59300 46.27000
H  42.38100 6.11300 45.98700
H  38.78600 7.25000 47.83900
H  39.68100 8.41600 48.78600
H  39.59500 6.74600 49.29800

