79

Mg 9.44200 48.02200 25.40300
C  7.30000 48.06500 28.09200
C  11.95200 49.17200 27.59300
C  11.58400 47.95400 22.92600
C  6.75300 47.47500 23.21800
N  9.50500 49.03000 27.65600
C  8.54400 48.58100 28.51000
C  9.04600 48.77400 30.00500
C  10.37000 49.53100 29.67200
C  10.68400 49.27900 28.19200
C  10.35500 51.07100 29.97100
C  9.29600 47.46600 30.87700
C  8.88000 47.53400 32.30000
H  9.06100 46.34000 33.16200
N  11.47700 48.37200 25.33900
C  12.33000 48.79400 26.36200
C  13.72900 48.64200 25.82900
C  13.56100 48.25200 24.47600
C  12.14700 48.17200 24.16400
C  14.95100 49.11800 26.63300
C  14.78700 47.98200 23.55500
O  14.70700 47.93900 22.36300
C  16.21100 47.77800 24.19100
N  9.16400 48.12300 23.29700
C  10.27800 47.86500 22.50400
C  9.85000 47.50400 21.06400
C  8.30600 47.33600 21.20600
C  8.03900 47.70500 22.66500
C  10.41800 48.36500 19.87400
C  7.78300 46.04500 20.63800
C  8.27200 44.73400 21.33500
N  7.41900 47.83100 25.56400
C  6.42500 47.50900 24.61600
C  5.18800 47.34100 25.23100
C  5.49400 47.47500 26.62000
C  6.86100 47.81700 26.76900
C  3.86700 46.92600 24.73200
C  4.93200 47.35000 27.90100
O  3.76600 47.06900 28.17600
C  6.04800 47.79300 28.96100
C  6.27600 46.57400 29.80000
O  6.88100 45.56100 29.53200
O  5.51200 46.70600 30.90400
C  5.40300 45.52200 31.82200
H  12.78700 49.24600 28.29300
H  12.38800 47.71100 22.22800
H  6.06700 47.22300 22.40700
H  8.24700 49.35700 30.46200
H  11.16100 49.14200 30.31400
H  9.36600 51.49700 29.80300
H  11.10000 51.53900 29.32900
H  10.58900 51.23600 31.02300
H  10.37800 47.48100 31.00300
H  8.89100 46.59400 30.36400
H  7.81000 47.73000 32.37200
H  9.38700 48.43700 32.64000
H  15.48000 48.30000 27.12100
H  14.59400 49.78900 27.41500
H  15.65900 49.67000 26.01500
H  16.17200 47.27900 25.16000
H  16.73600 48.73000 24.26500
H  16.87300 47.24400 23.50900
H  10.42100 46.59400 20.88000
H  7.70900 48.04400 20.63200
H  11.16800 49.02700 20.30600
H  9.64700 48.97900 19.41000
H  10.99400 47.76500 19.17000
H  8.15500 46.00600 19.61400
H  6.69600 45.96700 20.62100
H  7.47200 44.09600 21.71100
H  8.79100 44.93800 22.27100
H  8.82600 44.14300 20.60700
H  4.20900 46.28600 23.91800
H  3.49300 47.84300 24.27800
H  3.16300 46.53000 25.46300
H  5.79800 48.64500 29.59300
H  5.91200 45.70300 32.76900
H  5.73500 44.57300 31.39900
H  4.36200 45.44300 32.13500

