79

Mg 26.41300 50.13400 26.77700
C  24.49200 51.46800 29.35500
C  28.83700 49.35000 29.01100
C  28.23500 49.09500 24.23900
C  24.21600 51.56000 24.55400
N  26.69500 50.60700 29.01300
C  25.72800 50.96100 29.90300
C  26.18700 50.83000 31.38900
C  27.56300 50.13100 31.16100
C  27.72800 49.98600 29.64000
C  28.80100 50.75000 31.88800
C  25.08000 50.03200 32.23800
C  25.53900 49.01700 33.37500
H  24.62000 49.00600 34.64800
N  28.25300 49.33800 26.65100
C  29.12500 49.13700 27.67700
C  30.34800 48.53200 27.24100
C  30.25800 48.51200 25.81400
C  28.89500 48.97600 25.50700
C  31.43000 48.00400 28.17800
C  31.30200 48.25500 24.76400
O  31.08400 48.41300 23.54700
C  32.69500 47.97300 25.21800
N  26.20000 50.16400 24.65700
C  27.02300 49.57400 23.80500
C  26.48900 49.55300 22.34100
C  25.19900 50.42500 22.50200
C  25.17100 50.71400 23.99300
C  27.54400 50.09700 21.33200
C  23.89700 49.82000 22.02700
C  22.88700 50.81600 21.46200
N  24.59100 51.15200 26.87100
C  23.80600 51.60700 25.88500
C  22.66500 52.37100 26.42700
C  22.88800 52.32000 27.85100
C  24.07300 51.51300 28.00100
C  21.55200 53.11000 25.70600
C  22.34400 52.64100 29.14000
O  21.38100 53.30900 29.49900
C  23.37400 52.11400 30.16300
C  23.74100 53.34100 31.02000
O  24.52100 54.27400 30.79100
O  22.94300 53.19400 32.19800
C  23.30300 54.01700 33.35800
H  29.55000 49.02600 29.77200
H  28.69200 48.50100 23.44500
H  23.55300 51.97200 23.79000
H  26.30200 51.85900 31.73000
H  27.41600 49.08500 31.43100
H  29.20000 51.66700 31.45500
H  29.54300 49.95200 31.87100
H  28.56600 50.98700 32.92600
H  24.51900 49.35800 31.59100
H  24.41100 50.80200 32.62100
H  26.57300 49.24200 33.63800
H  25.45000 48.02300 32.93500
H  32.29200 48.64900 28.00500
H  31.71900 46.98600 27.91800
H  31.15200 48.13200 29.22400
H  33.37200 48.05800 24.36800
H  32.60400 47.03900 25.77300
H  32.97100 48.72900 25.95400
H  26.10300 48.61700 21.93700
H  25.43400 51.38200 22.03700
H  28.50900 50.24500 21.81700
H  27.32400 51.03900 20.82800
H  27.62900 49.19900 20.72100
H  23.40000 49.23400 22.80000
H  24.11100 49.10300 21.23400
H  21.91100 50.86700 21.94300
H  22.67200 50.60000 20.41500
H  23.25900 51.83500 21.56500
H  21.03000 52.60200 24.89500
H  21.96000 54.02200 25.27200
H  20.79200 53.43500 26.41700
H  22.88300 51.37200 30.79100
H  23.49700 55.06500 33.12900
H  24.21600 53.49800 33.65000
H  22.59000 53.95100 34.18000

