79

Mg 24.40100 -5.30100 46.30200
C  26.51700 -2.98200 44.36800
C  21.81800 -4.49200 44.28700
C  23.03700 -8.15400 47.28700
C  27.47700 -6.28000 47.88600
N  24.27400 -4.09000 44.43100
C  25.16800 -3.07800 44.00800
C  24.53100 -2.34900 42.85800
C  23.02200 -2.47000 43.21000
C  22.99800 -3.73100 44.00800
C  22.37800 -1.28400 44.06300
C  24.93100 -2.82600 41.39500
C  25.57800 -1.72200 40.49100
H  25.43000 -1.83800 38.96500
N  22.59400 -6.07400 45.99300
C  21.62700 -5.62200 45.09900
C  20.52500 -6.58900 45.08100
C  20.82800 -7.61700 46.03700
C  22.17800 -7.30500 46.51000
C  19.41000 -6.59200 44.04500
C  19.98800 -8.84800 46.33300
O  18.87800 -8.97100 45.79100
C  20.35700 -9.91600 47.25900
N  25.17400 -6.96300 47.45900
C  24.36800 -7.99300 47.72600
C  24.98700 -8.94600 48.75600
C  26.33600 -8.22000 49.17000
C  26.33500 -7.07900 48.12300
C  24.05200 -9.53500 49.88000
C  27.58500 -9.20900 49.11200
C  28.58000 -9.08000 50.25700
N  26.53600 -4.67500 46.37200
C  27.57600 -5.17600 47.06800
C  28.77800 -4.36600 46.79700
C  28.38400 -3.53400 45.77400
C  27.05000 -3.77400 45.50900
C  30.13200 -4.56800 47.49900
C  28.74600 -2.41600 44.91100
O  29.76600 -1.78200 44.90500
C  27.64300 -2.11900 43.83900
C  27.39200 -0.67100 43.99800
O  27.17800 -0.03400 45.04000
O  27.49200 -0.07100 42.73600
C  27.27500 1.40900 42.74200
H  20.96700 -4.09400 43.72900
H  22.70000 -9.16200 47.53900
H  28.29700 -6.39200 48.59900
H  24.67000 -1.26800 42.84700
H  22.41700 -2.51200 42.30400
H  23.10400 -0.53200 44.36900
H  21.78700 -1.62800 44.91200
H  21.62900 -0.79400 43.44100
H  24.20700 -3.42300 40.84200
H  25.69100 -3.55100 41.68700
H  26.65100 -1.65800 40.67400
H  25.10900 -0.85200 40.95000
H  19.60100 -7.24900 43.19700
H  19.25100 -5.57300 43.69000
H  18.50100 -7.00300 44.48400
H  19.58800 -10.68700 47.29900
H  20.49800 -9.48900 48.25200
H  21.22700 -10.42300 46.84100
H  25.25300 -9.83800 48.18900
H  26.26500 -7.69200 50.12100
H  24.56600 -9.55100 50.84100
H  23.92300 -10.60600 49.72100
H  23.12600 -8.96100 49.92800
H  28.10100 -9.18000 48.15200
H  27.05000 -10.15500 49.20300
H  28.33300 -9.85800 50.97900
H  28.53200 -8.09600 50.72200
H  29.60000 -9.30600 49.94500
H  30.21000 -4.11200 48.48600
H  30.93200 -4.13700 46.89700
H  30.24800 -5.64500 47.61400
H  28.05300 -2.38800 42.86600
H  26.46100 1.58900 43.44400
H  27.04500 1.77800 41.74200
H  28.21500 1.88900 43.01200

