79

Mg 49.68300 35.38700 26.68100
C  47.61000 34.16400 29.28400
C  50.06400 38.24600 28.60700
C  51.21700 36.85600 24.06900
C  48.92900 32.56900 24.80100
N  48.92200 36.11000 28.68300
C  48.22000 35.37400 29.57700
C  48.26200 35.99000 30.88200
C  48.67800 37.44600 30.60000
C  49.24000 37.32800 29.15300
C  47.50100 38.49500 30.77900
C  49.28400 35.30500 31.79600
C  49.14600 35.42100 33.29600
H  47.95500 36.19500 33.89800
N  50.53900 37.30300 26.38400
C  50.65400 38.28200 27.30200
C  51.38700 39.37200 26.75100
C  51.88600 38.90100 25.45800
C  51.19800 37.59400 25.25400
C  51.77700 40.48200 27.56500
C  52.76700 39.54600 24.42700
O  53.15100 38.94600 23.41500
C  53.30900 40.98600 24.62700
N  49.85700 34.85900 24.63300
C  50.72600 35.58900 23.78900
C  51.00700 34.73800 22.51400
C  50.42500 33.31300 22.92700
C  49.65200 33.62400 24.17800
C  50.31500 35.39500 21.21400
C  51.45100 32.07700 22.92400
C  50.96700 30.76500 22.19700
N  48.58400 33.70000 27.00300
C  48.32000 32.60000 26.12900
C  47.55500 31.59200 26.73700
C  47.21800 32.14000 27.95900
C  47.84600 33.40900 28.05400
C  47.08900 30.27400 26.17800
C  46.44700 31.86400 29.19200
O  45.80200 30.86200 29.56800
C  46.57800 33.24800 30.01900
C  47.06100 32.82800 31.38200
O  48.08300 32.26300 31.57500
O  46.09300 32.86000 32.36100
C  46.41600 32.23400 33.66600
H  50.22800 39.04700 29.33100
H  51.61000 37.35200 23.17900
H  48.80900 31.67100 24.19200
H  47.24600 35.89400 31.26700
H  49.54400 37.68300 31.21800
H  47.23000 38.86200 29.78900
H  47.74000 39.37400 31.37700
H  46.66500 37.99600 31.26900
H  50.27400 35.69500 31.55900
H  49.33300 34.25100 31.52500
H  50.05600 35.93300 33.60900
H  49.08600 34.43100 33.74600
H  51.62900 40.38400 28.64000
H  51.24100 41.36000 27.20500
H  52.85100 40.56600 27.39400
H  52.59400 41.61500 25.15700
H  53.49700 41.26300 23.58900
H  54.27100 40.99000 25.14000
H  52.07000 34.61500 22.30600
H  49.74900 33.06600 22.10800
H  49.72000 36.24400 21.54900
H  49.68200 34.67300 20.69800
H  51.04600 35.88600 20.57200
H  51.59500 31.81200 23.97100
H  52.36200 32.49000 22.49200
H  49.93100 30.85700 21.87100
H  51.04600 29.92200 22.88300
H  51.55800 30.52400 21.31300
H  47.69600 29.38300 26.33400
H  46.78100 30.46400 25.15000
H  46.18400 30.00300 26.72300
H  45.65100 33.80600 30.15000
H  45.82600 32.57400 34.51700
H  47.46600 32.26800 33.95500
H  46.28600 31.17000 33.46900

