79

Mg 45.46800 5.48200 48.69000
C  43.36100 8.12800 47.79400
C  42.97900 3.32200 47.95200
C  47.88300 3.01600 48.42800
C  48.20400 7.79600 48.66800
N  43.37900 5.76900 48.16500
C  42.70900 6.91500 47.69500
C  41.30200 6.56100 47.18700
C  41.06700 5.12500 47.79600
C  42.55000 4.65800 48.01300
C  40.11800 4.96900 49.17300
C  41.23400 6.78700 45.67600
C  39.90600 7.40400 45.15100
H  39.29700 6.73400 43.92300
N  45.43700 3.45200 48.35000
C  44.24000 2.77000 48.12600
C  44.51900 1.40200 47.93800
C  45.93800 1.24700 47.92000
C  46.49800 2.57800 48.31200
C  43.44300 0.40000 47.56700
C  46.75200 0.00300 47.72300
O  46.18100 -1.02000 47.41400
C  48.26700 -0.02000 47.84800
N  47.76900 5.42500 48.60400
C  48.44400 4.26800 48.56100
C  49.92200 4.44000 48.78600
C  50.06300 5.99300 48.71200
C  48.60500 6.43500 48.73200
C  50.51400 3.74800 50.12500
C  50.98700 6.44200 47.49700
C  52.12400 7.34800 47.94800
N  45.73800 7.56300 48.45600
C  46.87000 8.34500 48.47200
C  46.53300 9.71500 48.30300
C  45.17500 9.70200 48.09500
C  44.71700 8.32600 48.14000
C  47.41900 10.95200 48.22000
C  43.96600 10.54900 47.70400
O  43.81300 11.77200 47.55700
C  42.80600 9.54100 47.55800
C  41.69200 9.99100 48.56700
O  41.52900 9.52400 49.65100
O  40.92100 10.97600 48.00100
C  39.81800 11.50600 48.88200
H  42.08700 2.69500 47.99900
H  48.67000 2.26600 48.52500
H  48.94300 8.58800 48.52400
H  40.54200 7.23300 47.58600
H  40.65600 4.45200 47.04400
H  39.99900 5.95300 49.62500
H  40.54100 4.33900 49.95600
H  39.13900 4.60300 48.86500
H  41.19100 5.82200 45.17200
H  42.08500 7.37800 45.33700
H  40.08900 8.46600 44.99100
H  39.12700 7.36800 45.91300
H  43.70400 -0.21800 46.70800
H  42.50100 0.89600 47.33500
H  43.31900 -0.33200 48.36500
H  48.79600 0.57300 47.10200
H  48.51800 -1.04000 47.55900
H  48.58200 0.18800 48.87100
H  50.38700 4.00200 47.90300
H  50.57800 6.35700 49.60100
H  49.78900 3.72900 50.93900
H  51.38000 4.26200 50.54300
H  50.74000 2.70800 49.89000
H  50.33900 6.96300 46.79300
H  51.47300 5.58700 47.02900
H  52.20800 8.12900 47.19300
H  53.08000 6.83400 48.05100
H  51.85900 7.84800 48.88000
H  48.35800 10.62800 47.77100
H  47.54000 11.45700 49.17900
H  47.10700 11.71300 47.50500
H  42.43600 9.52200 46.53300
H  39.06000 11.92400 48.22000
H  40.32500 12.24700 49.50000
H  39.33900 10.79700 49.55700

