79

Mg 9.81000 48.16100 24.96900
C  7.14100 48.45500 27.45100
C  11.77900 49.33200 27.16300
C  12.05900 48.02500 22.41600
C  7.20100 47.63400 22.63100
N  9.49600 48.74900 27.06900
C  8.44000 48.75700 27.92200
C  8.75000 49.04400 29.42000
C  10.23900 49.60700 29.17600
C  10.51000 49.39200 27.70500
C  10.47100 51.06700 29.66300
C  8.51500 47.81700 30.43400
C  9.50200 47.64600 31.60800
H  9.01700 46.88100 32.83200
N  11.71900 48.44200 24.91100
C  12.39300 48.90900 25.94600
C  13.75100 48.86800 25.67400
C  13.88600 48.53200 24.28400
C  12.51800 48.41900 23.77800
C  14.78800 49.20300 26.72500
C  15.10400 48.38400 23.45400
O  15.07600 48.15400 22.26300
C  16.40700 48.32400 24.09000
N  9.66200 48.05500 22.82600
C  10.73500 47.94400 21.97500
C  10.35400 47.55500 20.56900
C  8.86900 47.26200 20.68400
C  8.52000 47.68700 22.12000
C  10.76600 48.65700 19.61900
C  8.38000 45.81900 20.28900
C  9.20500 44.67700 20.84700
N  7.63300 47.90800 24.97700
C  6.71700 47.75900 23.90200
C  5.33900 47.82800 24.38600
C  5.51200 48.07000 25.76600
C  6.88100 48.09600 26.04400
C  4.09300 47.60100 23.59900
C  4.72900 48.43800 26.97700
O  3.54100 48.67600 27.19700
C  5.75900 48.55100 28.16300
C  5.59900 47.39900 29.05500
O  5.87600 46.24200 28.77800
O  5.09500 47.88800 30.21400
C  5.05400 46.81600 31.26900
H  12.47700 49.69100 27.92300
H  12.80400 47.88300 21.63100
H  6.38700 47.41300 21.93700
H  8.11500 49.84700 29.79400
H  10.97100 49.02000 29.73100
H  11.31000 51.11600 30.35800
H  9.58600 51.25100 30.27100
H  10.54000 51.76000 28.82400
H  8.37000 46.88700 29.88400
H  7.53000 47.97300 30.87500
H  9.85900 48.64100 31.87600
H  10.30200 47.00900 31.23200
H  15.66800 48.56600 26.63500
H  14.55700 49.14200 27.78900
H  14.98800 50.22300 26.39900
H  16.55800 49.31900 24.50900
H  17.16800 48.16100 23.32700
H  16.32900 47.56200 24.86500
H  10.88400 46.64400 20.29100
H  8.31000 47.83100 19.94000
H  11.58900 49.21300 20.06700
H  9.92300 49.30800 19.39000
H  11.11600 48.22000 18.68400
H  8.53400 45.77500 19.21100
H  7.35000 45.75000 20.64000
H  9.80400 44.93300 21.72100
H  9.69200 44.14900 20.02800
H  8.39200 44.01900 21.15500
H  3.70900 48.55500 23.23800
H  3.33900 47.25900 24.30800
H  4.22500 46.84900 22.82100
H  5.74700 49.46200 28.76200
H  6.06900 46.43000 31.36100
H  4.54400 45.88400 31.02300
H  4.69600 47.18000 32.23200

