79

Mg 2.05800 -2.26100 44.28300
C  5.35900 -1.35800 43.59900
C  0.94000 0.31400 42.32600
C  -0.99400 -3.71700 44.48600
C  3.38000 -5.37900 45.55200
N  3.12700 -0.80200 42.87000
C  4.43800 -0.46100 42.99400
C  4.74800 0.85000 42.32500
C  3.26100 1.45000 42.14300
C  2.36000 0.25600 42.40200
C  3.05000 2.62300 43.15300
C  5.60600 0.66400 41.04800
C  6.89400 1.52600 40.96000
H  7.29700 2.19900 39.58800
N  0.20800 -1.69400 43.57600
C  -0.09200 -0.57500 42.78400
C  -1.52900 -0.46500 42.54000
C  -2.10200 -1.60100 43.30700
C  -0.93200 -2.37800 43.89900
C  -2.27900 0.61900 41.87700
C  -3.61500 -1.87300 43.46500
O  -4.47700 -1.21100 42.85500
C  -4.11500 -3.04000 44.26300
N  1.26500 -4.23900 45.08500
C  -0.02800 -4.56800 45.02500
C  -0.24900 -6.10100 45.18800
C  1.16600 -6.65200 45.35000
C  2.01300 -5.31200 45.35100
C  -1.39400 -6.50500 46.25700
C  1.70800 -7.61000 44.26300
C  1.06700 -8.96400 44.20000
N  3.98200 -3.12800 44.86100
C  4.30600 -4.33800 45.35500
C  5.78300 -4.31300 45.54400
C  6.23100 -3.14700 44.99000
C  5.11500 -2.51500 44.43300
C  6.61000 -5.38700 46.22400
C  7.34200 -2.31100 44.74300
O  8.53700 -2.46000 45.02600
C  6.90800 -1.25100 43.70000
C  7.34000 0.07700 44.31200
O  6.96600 0.57700 45.34700
O  8.32900 0.59600 43.54200
C  8.81200 1.92800 43.93700
H  0.45000 1.18100 41.88000
H  -1.92500 -4.28700 44.44200
H  3.82400 -6.36600 45.70100
H  5.35200 1.39000 43.05400
H  3.01800 1.86500 41.16500
H  3.95300 3.19800 43.35900
H  2.74300 2.26700 44.13600
H  2.30600 3.27000 42.68800
H  4.92900 0.94600 40.24200
H  5.82200 -0.40500 41.02100
H  7.68900 0.82100 41.20500
H  6.88300 2.29700 41.73000
H  -2.74200 0.24500 40.96400
H  -1.60200 1.42800 41.60300
H  -3.07600 0.94400 42.54600
H  -5.17400 -2.96500 44.51000
H  -3.54400 -2.88700 45.17900
H  -3.99900 -3.90700 43.61200
H  -0.57600 -6.57800 44.26400
H  1.19100 -7.20300 46.29000
H  -2.11300 -5.69000 46.34200
H  -1.00300 -6.71600 47.25200
H  -2.00700 -7.24400 45.74100
H  2.74600 -7.81500 44.52600
H  1.59200 -7.07500 43.32100
H  0.65500 -8.93600 43.19100
H  0.19400 -9.02800 44.85000
H  1.77600 -9.77000 44.38700
H  5.95000 -5.70900 47.02900
H  7.52800 -4.98800 46.65600
H  6.69200 -6.17200 45.47200
H  7.45600 -1.59300 42.82200
H  9.86800 2.02400 43.68100
H  8.66900 2.27200 44.96100
H  8.35900 2.65800 43.26700

