79

Mg 35.39000 1.95200 29.06100
C  33.21700 3.09400 31.76800
C  37.86800 2.14600 31.40900
C  37.44800 1.42500 26.64600
C  32.70900 2.41500 26.81400
N  35.52300 2.54500 31.40900
C  34.48900 2.86000 32.28500
C  35.00700 2.93100 33.70300
C  36.52100 2.82600 33.48000
C  36.68000 2.37700 32.01900
C  37.35700 4.14600 33.61500
C  34.44100 1.77100 34.66900
C  34.06100 2.18300 36.13000
H  34.80000 3.49900 36.68800
N  37.40800 1.72600 29.08000
C  38.24500 1.77200 30.12700
C  39.60700 1.51500 29.70500
C  39.51900 1.39000 28.27100
C  38.07600 1.49700 27.90400
C  40.67900 1.49300 30.61600
C  40.68900 1.22100 27.22400
O  40.42800 1.00500 26.06200
C  42.14700 1.32800 27.59000
N  35.07200 1.82100 27.03800
C  36.13100 1.49600 26.23000
C  35.65200 1.22300 24.79400
C  34.10700 1.34400 24.91900
C  33.95000 1.93700 26.30400
C  36.20000 2.29300 23.77600
C  33.43200 -0.01500 24.74500
C  31.93400 0.00400 24.32800
N  33.35000 2.68600 29.15400
C  32.41100 2.79900 28.19300
C  31.20600 3.28800 28.76800
C  31.45700 3.39800 30.18400
C  32.80900 3.06300 30.34700
C  29.91900 3.53900 28.08600
C  30.86600 3.69700 31.47200
O  29.73100 4.00800 31.76300
C  32.04100 3.55900 32.60200
C  32.24100 4.81200 33.31200
O  32.79700 5.80600 32.86500
O  31.65200 4.61900 34.60200
C  31.80800 5.88500 35.36900
H  38.75100 2.08100 32.04800
H  38.12600 1.27400 25.80300
H  31.89900 2.52200 26.08900
H  34.65700 3.86900 34.13500
H  36.93800 2.09100 34.16900
H  37.32900 4.70700 32.68100
H  38.36400 3.86900 33.92700
H  37.17600 4.79600 34.47100
H  35.09200 0.89700 34.68200
H  33.50100 1.51500 34.17900
H  34.42500 1.35100 36.73200
H  32.99400 2.17700 36.35600
H  41.47700 0.80200 30.34600
H  40.29600 0.93600 31.47100
H  41.03300 2.47300 30.93700
H  42.60200 0.50700 28.14400
H  42.24500 2.27500 28.12000
H  42.70500 1.29600 26.65300
H  35.95300 0.20500 24.54600
H  33.73100 2.08300 24.21200
H  37.17500 2.63700 24.12000
H  35.57200 3.17100 23.62300
H  36.29800 1.77500 22.82200
H  33.57800 -0.58000 25.66500
H  33.92700 -0.54600 23.93300
H  31.80300 -0.44400 23.34300
H  31.59900 1.02400 24.14200
H  31.24000 -0.42600 25.05000
H  29.57200 2.64100 27.57500
H  30.28400 4.23100 27.32800
H  29.10100 4.02900 28.61600
H  31.60900 2.78600 33.23700
H  31.85600 5.74200 36.44900
H  30.93400 6.46400 35.07100
H  32.68100 6.50500 35.16800

