79

Mg 44.61800 3.18400 47.09600
C  42.44500 5.87700 46.89700
C  41.74500 1.03100 46.87900
C  46.60600 0.58300 46.66700
C  47.29800 5.35100 46.83300
N  42.39800 3.39700 46.85900
C  41.77300 4.63300 46.82400
C  40.23000 4.51600 46.65100
C  40.12000 2.92600 46.91300
C  41.52500 2.39500 46.75600
C  39.49400 2.58300 48.25500
C  39.73700 5.01100 45.28200
C  38.36800 5.72800 45.25400
H  37.67400 6.03200 43.93400
N  44.24100 1.05500 46.81300
C  42.99100 0.35300 46.76100
C  43.20500 -1.05800 46.47500
C  44.61000 -1.15600 46.19900
C  45.25600 0.21800 46.64100
C  42.11000 -2.12500 46.32700
C  45.27800 -2.36400 45.58900
O  44.76500 -3.46900 45.47900
C  46.76700 -2.38200 45.26100
N  46.66500 2.99700 46.93200
C  47.29900 1.78000 46.77900
C  48.79800 1.94700 46.54400
C  49.03000 3.53200 46.77300
C  47.56800 3.99100 46.86700
C  49.59300 0.96500 47.49000
C  49.83400 4.19800 45.63000
C  51.08800 4.89700 46.09200
N  44.87500 5.23000 46.96300
C  46.05600 5.95200 46.81000
C  45.66000 7.31100 46.73500
C  44.24800 7.37000 46.79900
C  43.84800 6.04700 46.88300
C  46.60000 8.49600 46.62800
C  43.08500 8.24900 46.85900
O  43.01800 9.46300 46.90500
C  41.83700 7.29100 46.71400
C  41.00000 7.55900 47.90300
O  41.30100 7.26900 49.08200
O  39.76500 8.15700 47.49500
C  38.87400 8.32200 48.62400
H  40.86100 0.41700 46.69400
H  47.24800 -0.29100 46.54500
H  48.08400 6.08700 46.64700
H  39.72800 5.16100 47.37100
H  39.42300 2.44800 46.22500
H  39.44800 3.45300 48.91100
H  40.19500 1.89600 48.72900
H  38.55100 2.04200 48.18100
H  39.58500 4.10700 44.69200
H  40.54300 5.61500 44.86500
H  38.41900 6.68800 45.76800
H  37.66200 5.16300 45.86100
H  42.29900 -3.17700 46.54000
H  41.91700 -2.10100 45.25500
H  41.18500 -1.89300 46.85400
H  47.12500 -1.45300 44.81800
H  46.92700 -3.14300 44.49700
H  47.40900 -2.71300 46.07700
H  49.09400 1.78300 45.50800
H  49.36600 3.79600 47.77600
H  48.99500 0.48100 48.26200
H  50.37600 1.56500 47.95400
H  49.92100 0.17300 46.81700
H  49.28600 4.82700 44.92900
H  50.27000 3.44600 44.97400
H  51.93500 4.23300 45.91800
H  51.03000 5.13700 47.15300
H  51.23800 5.74800 45.42800
H  47.26300 8.58500 47.48900
H  45.96700 9.38200 46.58100
H  47.17000 8.42100 45.70200
H  41.43200 7.45900 45.71700
H  37.97400 8.90200 48.41800
H  39.15200 8.73200 49.59500
H  38.54500 7.34200 48.97100

