79

Mg 40.40800 9.92900 29.03900
C  42.26300 11.31900 31.61100
C  38.31400 8.66100 31.45000
C  38.70200 8.52400 26.45600
C  42.99600 10.64600 26.76900
N  40.36500 9.99700 31.25900
C  41.10500 10.73100 32.10000
C  40.62500 10.62800 33.49100
C  39.54900 9.53600 33.52100
C  39.32200 9.45000 31.96300
C  39.96900 8.14100 34.13800
C  40.24800 11.96900 34.09700
C  39.92800 11.79100 35.59900
H  40.83100 12.42600 36.75600
N  38.69800 8.84200 28.96100
C  38.01000 8.39100 30.08100
C  36.90100 7.59600 29.63900
C  36.94100 7.63100 28.21500
C  38.16000 8.34400 27.77000
C  36.08800 6.73100 30.52500
C  35.92100 7.07000 27.26600
O  36.14300 7.09500 26.05500
C  34.61200 6.58600 27.77400
N  40.89200 9.45700 26.93700
C  39.94900 9.03800 26.08400
C  40.52600 9.04000 24.61100
C  41.89500 9.76000 24.80000
C  41.94300 9.97900 26.24200
C  40.48700 7.70900 23.81900
C  41.94100 11.08700 23.92800
C  41.39500 12.43000 24.62900
N  42.29200 10.76400 29.12100
C  43.22500 10.97700 28.10600
C  44.35700 11.72800 28.65000
C  44.01400 11.83500 30.06100
C  42.73800 11.19300 30.27200
C  45.42500 12.34500 27.84900
C  44.45700 12.38000 31.33400
O  45.48400 12.96600 31.65700
C  43.32000 12.16100 32.35300
C  43.92900 11.43900 33.53400
O  44.41800 10.31800 33.48700
O  43.71100 12.19000 34.60800
C  44.03400 11.65000 35.90400
H  37.66000 8.27100 32.23300
H  38.15900 8.33000 25.52900
H  43.70000 11.02600 26.02600
H  41.40700 10.30600 34.17800
H  38.58000 9.74500 33.97500
H  39.19000 7.87400 34.85200
H  40.94200 8.31100 34.59800
H  40.01500 7.36400 33.37400
H  39.36200 12.34100 33.58200
H  41.02800 12.69100 33.85700
H  39.85300 10.74500 35.89700
H  38.96900 12.21700 35.89400
H  36.60000 6.55100 31.47000
H  36.11400 5.79000 29.97600
H  35.02600 6.96600 30.59400
H  34.80800 5.57900 28.14200
H  33.85600 6.48300 26.99500
H  34.20600 7.27300 28.51600
H  39.81300 9.72400 24.14900
H  42.73600 9.13500 24.50100
H  40.27800 6.90200 24.52100
H  41.42700 7.59400 23.27800
H  39.58700 7.82400 23.21500
H  41.44200 10.93000 22.97200
H  43.01600 11.24600 23.84800
H  42.18500 13.17900 24.68700
H  40.91800 12.20000 25.58200
H  40.55300 12.63400 23.96800
H  45.19200 13.36700 27.55000
H  45.70700 11.74600 26.98300
H  46.29000 12.47800 28.50000
H  42.88500 13.14500 32.53400
H  43.38600 10.79800 36.10800
H  43.96700 12.35400 36.73300
H  45.09500 11.40300 35.92400

