79

Mg 47.93000 34.78600 26.50300
C  45.71700 33.67900 29.14400
C  48.52500 37.61000 28.30500
C  49.25500 35.99800 23.77300
C  46.83700 31.88700 24.71200
N  47.00300 35.58800 28.43400
C  46.25600 34.95300 29.37100
C  46.37600 35.70100 30.73500
C  46.98700 37.07800 30.29800
C  47.52600 36.78400 28.91100
C  46.06000 38.28800 30.34200
C  47.40800 34.90300 31.69200
C  47.05300 34.78000 33.24200
H  47.99900 35.37000 34.33000
N  48.91800 36.43900 26.12100
C  49.10000 37.45500 27.07300
C  49.94000 38.41700 26.47900
C  50.08500 38.01200 25.04900
C  49.43300 36.75800 24.94700
C  50.35200 39.76000 27.11000
C  50.83200 38.77500 23.97900
O  50.80800 38.41400 22.79300
C  51.71300 39.98100 24.32200
N  48.14800 33.93000 24.58900
C  48.67900 34.70800 23.59100
C  48.87200 33.91900 22.25900
C  48.40800 32.42700 22.72300
C  47.69600 32.74300 24.02500
C  48.06800 34.45200 21.06300
C  49.54100 31.26600 22.88800
C  50.98700 31.64000 22.58800
N  46.57200 33.04900 26.80600
C  46.27300 32.00500 25.96900
C  45.30900 31.08500 26.62800
C  45.07000 31.68800 27.88600
C  45.89900 32.84100 27.95600
C  44.64200 29.77800 26.19700
C  44.38500 31.58600 29.17800
O  43.58800 30.74700 29.61800
C  44.64500 32.89700 29.93300
C  44.86900 32.60500 31.37000
O  45.79700 31.86600 31.73000
O  43.83700 33.14800 32.14600
C  43.78200 32.76700 33.58100
H  48.80600 38.50900 28.85800
H  49.61400 36.46200 22.85200
H  46.60500 30.96700 24.17200
H  45.38400 35.81800 31.17100
H  47.81100 37.43400 30.91600
H  46.52000 38.94700 29.60700
H  45.90000 38.77700 31.30300
H  45.05800 38.16000 29.93300
H  48.43600 35.25400 31.78900
H  47.47900 33.88200 31.31500
H  46.91500 33.71300 33.42000
H  46.02600 35.07200 33.45800
H  51.41800 39.98100 27.07600
H  50.12600 39.90600 28.16700
H  49.88000 40.56400 26.54500
H  51.14900 40.57800 25.03900
H  51.83400 40.60600 23.43700
H  52.70500 39.68800 24.66700
H  49.93500 34.04800 22.05400
H  47.55900 32.10400 22.12100
H  48.79900 34.34300 20.26200
H  47.97400 35.53400 21.16500
H  47.08800 34.02900 20.84400
H  49.30400 30.44500 22.21100
H  49.44500 30.81800 23.87700
H  51.37600 32.25900 23.39600
H  51.07000 32.27500 21.70600
H  51.63800 30.77200 22.49400
H  43.56100 29.87200 26.30000
H  45.11200 29.10200 26.91200
H  45.00600 29.50000 25.20800
H  43.74300 33.50300 29.85100
H  43.90500 33.62000 34.24800
H  44.51600 32.00600 33.84500
H  42.78500 32.34900 33.72300

