79

Mg 45.24000 5.37700 48.21100
C  42.83500 7.90900 47.64900
C  42.60900 3.10000 48.12200
C  47.54100 2.90400 48.29000
C  47.74500 7.75400 48.02300
N  43.04900 5.44500 47.85200
C  42.35300 6.59900 47.57500
C  40.89500 6.27800 47.22500
C  40.73100 4.81100 47.60200
C  42.18600 4.39300 47.95200
C  39.76600 4.64600 48.83300
C  40.59200 6.68200 45.75700
C  39.19200 7.37100 45.68500
H  38.50500 6.91300 44.46900
N  45.07200 3.28400 48.19600
C  43.92000 2.51400 48.19000
C  44.31900 1.14100 48.16100
C  45.77800 1.08000 48.16500
C  46.21900 2.45600 48.22500
C  43.32000 -0.00800 48.22000
C  46.57300 -0.30100 48.10100
O  45.91900 -1.36100 47.98200
C  48.06400 -0.43800 48.26200
N  47.32300 5.35000 48.04400
C  48.01900 4.21400 48.19700
C  49.53600 4.47700 48.32500
C  49.64500 6.00000 48.27900
C  48.16600 6.43500 48.10100
C  50.41000 3.82500 49.49800
C  50.64100 6.50900 47.13400
C  52.11900 6.61700 47.55400
N  45.34000 7.43200 47.92800
C  46.42800 8.26600 47.89800
C  45.97200 9.68500 47.85700
C  44.60600 9.56600 47.80100
C  44.26400 8.19500 47.79700
C  46.70800 10.96600 47.87100
C  43.38500 10.24700 47.64000
O  43.12600 11.42800 47.50700
C  42.20500 9.19600 47.43300
C  41.30300 9.57000 48.58200
O  41.25100 9.03400 49.68900
O  40.31800 10.45700 48.02000
C  39.15200 10.69200 48.83500
H  41.87900 2.30100 47.97500
H  48.25700 2.08100 48.34400
H  48.47900 8.56100 48.08000
H  40.39300 7.05400 47.80400
H  40.34500 4.27900 46.73300
H  39.16500 5.54600 48.95700
H  40.43800 4.57300 49.68800
H  39.14400 3.76900 48.65000
H  40.74200 5.84000 45.08100
H  41.38400 7.31300 45.35400
H  39.27200 8.45200 45.57300
H  38.56600 7.10300 46.53600
H  43.71700 -0.80800 48.84400
H  43.39000 -0.48400 47.24200
H  42.29900 0.32700 48.40400
H  48.54000 0.31300 47.63100
H  48.25500 -1.48800 48.03900
H  48.38800 -0.23300 49.28300
H  49.92300 4.08800 47.38300
H  49.91000 6.36900 49.27000
H  49.77400 3.21100 50.13600
H  50.80700 4.58700 50.16900
H  51.21200 3.28700 48.99100
H  50.35800 7.54500 46.94500
H  50.54900 5.81900 46.29500
H  52.79300 6.39700 46.72700
H  52.26900 6.02600 48.45800
H  52.35000 7.64300 47.84200
H  46.94100 11.06200 48.93100
H  46.17600 11.83400 47.48000
H  47.61800 10.83300 47.28500
H  41.61000 9.27200 46.52300
H  39.15900 10.09900 49.75000
H  38.27200 10.44600 48.23900
H  39.10900 11.74400 49.11700

