79

Mg 15.46600 51.72500 25.08400
C  17.47200 50.79800 27.88500
C  12.85700 52.18700 27.27800
C  13.52500 52.42200 22.41000
C  17.85400 50.43000 23.00700
N  15.25400 51.61000 27.30300
C  16.24200 51.30400 28.27700
C  15.70200 51.68900 29.66300
C  14.14100 51.83200 29.40100
C  14.07100 51.87700 27.90400
C  13.26700 50.74100 29.96900
C  16.46000 52.89700 30.17100
C  16.47100 53.24900 31.69500
H  15.67600 52.34000 32.66100
N  13.49000 52.34500 24.86600
C  12.56100 52.35500 25.84600
C  11.26800 52.68100 25.38200
C  11.40700 52.64900 23.97200
C  12.85000 52.48600 23.69300
C  10.07600 52.87400 26.24700
C  10.36900 52.70200 22.85400
O  10.56400 52.78700 21.64900
C  8.88900 52.66500 23.28200
N  15.68900 51.56600 23.00100
C  14.79500 52.05100 22.11600
C  15.44300 52.19400 20.72100
C  16.80100 51.36500 20.89400
C  16.77200 51.02400 22.35700
C  14.70600 51.66400 19.45700
C  18.13000 51.96800 20.37100
C  18.77000 51.37000 19.18000
N  17.33300 50.86600 25.38200
C  18.16700 50.36500 24.43600
C  19.33500 49.78300 25.08200
C  19.11200 49.89700 26.44800
C  17.87900 50.56500 26.58000
C  20.46200 49.07000 24.34200
C  19.58400 49.56500 27.72000
O  20.61000 49.01800 28.06600
C  18.57100 50.19600 28.73400
C  18.10500 49.09900 29.48900
O  17.27700 48.28400 29.19600
O  18.74900 49.16800 30.71700
C  18.46800 48.23500 31.79900
H  12.06000 52.26600 28.02000
H  13.01700 52.72500 21.49200
H  18.63000 50.07000 22.32900
H  15.90100 50.92500 30.41500
H  13.83100 52.81300 29.76000
H  12.72900 51.21100 30.79200
H  13.93300 49.91800 30.22900
H  12.62900 50.42800 29.14300
H  16.07700 53.77800 29.65600
H  17.48300 52.68900 29.85600
H  16.20300 54.30300 31.77400
H  17.51800 53.06700 31.93700
H  10.43700 53.28100 27.19200
H  9.50000 51.95800 26.38200
H  9.41700 53.66900 25.89900
H  8.91900 51.75200 23.87600
H  8.35900 52.31700 22.39500
H  8.67000 53.56000 23.86300
H  15.66100 53.24300 20.52200
H  16.69900 50.36100 20.48100
H  15.31600 50.97900 18.86900
H  14.48000 52.50500 18.80100
H  13.82000 51.11100 19.76800
H  18.83100 52.20700 21.17100
H  17.89800 52.95900 19.98100
H  18.83200 52.06200 18.34100
H  18.19000 50.54100 18.77600
H  19.76700 50.96000 19.34700
H  20.97500 49.79800 23.71400
H  20.03200 48.29200 23.71200
H  21.08100 48.62000 25.11900
H  19.16300 50.89700 29.32300
H  19.04900 48.39900 32.70700
H  18.64800 47.22200 31.44000
H  17.43800 48.26200 32.15500

