79

Mg 53.57900 23.75900 44.90300
C  51.19800 26.11600 44.01300
C  51.56900 21.26900 43.53900
C  56.20300 21.70900 45.26200
C  55.61200 26.43900 45.98000
N  51.71000 23.81600 43.74700
C  50.89500 24.84200 43.49000
C  49.71000 24.38500 42.62100
C  49.60200 22.86300 43.07200
C  51.05800 22.60200 43.47200
C  48.59000 22.55500 44.15000
C  49.97400 24.39400 41.05100
C  51.38700 24.76100 40.59900
H  51.55100 25.37500 39.17700
N  53.84000 21.70500 44.41400
C  52.90600 20.83000 43.92400
C  53.50800 19.48700 43.90700
C  54.79800 19.62900 44.46700
C  54.97400 21.05300 44.77400
C  52.87900 18.33100 43.33000
C  55.70000 18.44100 44.77900
O  55.44100 17.36400 44.29900
C  56.85300 18.46400 45.70000
N  55.70200 24.09600 45.43700
C  56.50000 23.03200 45.59300
C  57.86600 23.52000 46.22500
C  57.75500 25.08600 46.22900
C  56.23400 25.27800 45.86400
C  58.11900 22.88600 47.64100
C  58.82000 25.84100 45.26100
C  58.43800 25.96200 43.77800
N  53.47300 25.83500 45.07000
C  54.32600 26.74300 45.58600
C  53.72900 28.09900 45.62000
C  52.43500 27.85000 44.99300
C  52.38400 26.46700 44.66000
C  54.32800 29.32400 46.22700
C  51.26100 28.51500 44.50200
O  50.93300 29.69700 44.57700
C  50.45000 27.38600 43.81300
C  50.18600 27.86400 42.38900
O  51.02800 28.13200 41.55900
O  48.85000 27.81400 42.19800
C  48.33600 27.84600 40.83500
H  50.93600 20.39000 43.40100
H  57.10500 21.12500 45.45700
H  56.20300 27.25100 46.40700
H  48.69500 24.73000 42.82200
H  49.32200 22.21200 42.24300
H  47.61500 22.23800 43.78100
H  48.39900 23.46700 44.71500
H  48.99200 21.79900 44.82600
H  49.43500 25.27200 40.69500
H  49.72400 23.50000 40.47900
H  51.87100 23.78500 40.56200
H  51.77200 25.48600 41.31700
H  53.48800 17.99200 42.49300
H  51.88000 18.65400 43.03700
H  52.72800 17.46800 43.97800
H  56.83100 17.50400 46.21600
H  56.70600 19.23400 46.45700
H  57.78700 18.58400 45.15000
H  58.69300 23.21500 45.58400
H  57.87000 25.49000 47.23400
H  58.60200 23.69800 48.18400
H  58.76200 22.01100 47.54100
H  57.16300 22.58100 48.06600
H  59.80500 25.37600 45.31400
H  58.90800 26.86800 45.61400
H  57.94800 26.92900 43.66300
H  57.68100 25.23100 43.49500
H  59.22600 25.86500 43.03100
H  53.85900 30.22900 45.84000
H  55.32500 29.53100 45.84000
H  54.25700 29.27600 47.31400
H  49.47100 27.42400 44.29100
H  48.11500 28.88900 40.60900
H  47.49400 27.19100 40.61100
H  49.05400 27.44200 40.12200

