79

Mg 25.00700 -6.38500 47.73800
C  26.23600 -3.56500 46.08000
C  22.13700 -6.20000 45.55600
C  24.15800 -9.38600 48.59200
C  28.00600 -6.65800 49.34700
N  24.34600 -5.15300 45.99700
C  25.00100 -3.99500 45.58000
C  24.28300 -3.29900 44.36700
C  22.87300 -3.95300 44.51200
C  23.10800 -5.15200 45.39100
C  21.68500 -3.07800 44.95300
C  25.04000 -3.66200 43.05000
C  25.48500 -2.44800 42.18100
H  24.72100 -2.35800 40.83000
N  23.31300 -7.59600 47.19000
C  22.25600 -7.35800 46.39400
C  21.27400 -8.42500 46.51100
C  21.81700 -9.39900 47.43100
C  23.21100 -8.86800 47.74300
C  19.98100 -8.45800 45.68500
C  21.11200 -10.63100 47.93600
O  20.00200 -10.80600 47.51700
C  21.66000 -11.61500 49.01800
N  25.95600 -7.84600 48.86400
C  25.37800 -8.99900 49.12900
C  26.26600 -9.97200 50.01500
C  27.54700 -9.02900 50.22400
C  27.21200 -7.78900 49.39700
C  25.56300 -10.35600 51.29900
C  28.87400 -9.78100 49.85900
C  29.34400 -9.85800 48.39300
N  26.80300 -5.34700 47.83900
C  27.82800 -5.50600 48.63800
C  28.66500 -4.34000 48.53200
C  28.11100 -3.54600 47.48700
C  26.94900 -4.23200 47.08400
C  29.98000 -4.17400 49.22300
C  28.20300 -2.38200 46.59800
O  29.11700 -1.54000 46.52300
C  26.90900 -2.32200 45.81200
C  26.00500 -1.24700 46.44700
O  26.27000 -0.01600 46.27600
O  24.92700 -1.70600 47.21500
C  24.05500 -0.75500 47.81900
H  21.27200 -6.09900 44.89800
H  23.86700 -10.41900 48.79500
H  28.93300 -6.66400 49.92500
H  24.16100 -2.22300 44.49100
H  22.60000 -4.25200 43.50000
H  21.74900 -1.99300 44.87600
H  21.52500 -3.28400 46.01100
H  20.78800 -3.38700 44.41600
H  24.39700 -4.24900 42.39400
H  25.88800 -4.29900 43.30000
H  26.55600 -2.42800 41.97700
H  25.27000 -1.49600 42.66500
H  19.74500 -9.43500 45.26200
H  20.17000 -7.85100 44.79900
H  19.14800 -8.06900 46.27000
H  22.50400 -12.14300 48.57500
H  20.92500 -12.37900 49.27100
H  21.88100 -11.02300 49.90600
H  26.50500 -10.81900 49.37200
H  27.55000 -8.72700 51.27100
H  24.72000 -9.75700 51.64600
H  26.23700 -10.42200 52.15400
H  25.29700 -11.40100 51.14200
H  28.67700 -10.79500 50.20800
H  29.69600 -9.35600 50.43600
H  30.35900 -9.49400 48.24000
H  28.66600 -9.27300 47.77200
H  29.27300 -10.89900 48.07600
H  29.79000 -4.32900 50.28500
H  30.44900 -3.19500 49.12800
H  30.66200 -4.98300 48.95700
H  27.14600 -2.12400 44.76700
H  23.56300 -1.19400 48.68700
H  23.22800 -0.50700 47.15200
H  24.51700 0.16700 48.17100

