79

Mg 1.44800 8.00200 26.48500
C  1.93700 10.22200 29.10900
C  2.18800 5.35700 28.65600
C  1.53200 6.08100 23.77900
C  1.28900 10.78500 24.36300
N  1.98700 7.77600 28.63100
C  2.02800 8.89000 29.52000
C  2.01500 8.39800 30.98000
C  2.29900 6.83600 30.75700
C  2.08500 6.63600 29.27600
C  3.62500 6.27600 31.20200
C  0.71800 8.76100 31.71900
C  0.57200 7.99500 33.09300
H  1.81600 7.61000 33.87200
N  1.82100 6.00900 26.30300
C  2.19200 5.08600 27.26200
C  2.29700 3.80900 26.63300
C  2.11700 3.98700 25.22200
C  1.82100 5.43900 25.04500
C  2.51600 2.49500 27.38500
C  2.34900 3.00400 24.10900
O  2.26600 3.32200 22.91400
C  2.68700 1.59700 24.41900
N  1.27400 8.35400 24.32000
C  1.28500 7.37900 23.45800
C  1.16900 7.91600 21.94900
C  1.15600 9.45000 22.17800
C  1.25500 9.53400 23.72200
C  2.33200 7.29600 21.02900
C  -0.10700 10.11900 21.62300
C  0.11700 11.13300 20.47600
N  1.53200 10.13500 26.61000
C  1.41300 11.08900 25.67700
C  1.57000 12.41400 26.25300
C  1.78200 12.12700 27.66600
C  1.76100 10.73200 27.82800
C  1.52200 13.79900 25.56300
C  1.93200 12.74400 28.93300
O  2.03300 13.92300 29.21900
C  1.91600 11.49300 29.92000
C  3.10300 11.66800 30.71100
O  4.28000 11.61400 30.22200
O  2.81400 11.61000 32.08400
C  3.90400 11.83400 33.07000
H  2.32100 4.52300 29.34900
H  1.60000 5.50000 22.85700
H  1.16500 11.67000 23.73500
H  2.81600 8.90100 31.52200
H  1.49500 6.32100 31.28300
H  4.23800 5.89700 30.38400
H  3.51000 5.45800 31.91200
H  4.17300 7.14300 31.57200
H  -0.09700 8.47300 31.05500
H  0.87000 9.83300 31.84800
H  0.01700 7.08400 32.87300
H  -0.05800 8.56700 33.77500
H  2.66200 2.61800 28.45800
H  3.37000 1.94900 26.98400
H  1.67100 1.80700 27.40500
H  2.59000 0.90200 23.58500
H  2.09800 1.18600 25.23900
H  3.75200 1.62100 24.64900
H  0.24600 7.52800 21.51800
H  2.02000 9.87000 21.66200
H  2.97900 8.15600 20.85900
H  2.09300 6.79200 20.09300
H  2.94200 6.61000 21.61800
H  -0.66400 10.70100 22.35700
H  -0.77900 9.31900 21.31300
H  -0.14800 10.55400 19.59200
H  1.15700 11.45700 20.46500
H  -0.50900 12.01100 20.63400
H  0.70300 13.93000 24.85700
H  2.49500 13.88600 25.07800
H  1.55700 14.76000 26.07600
H  1.01400 11.52200 30.53100
H  4.90700 11.99400 32.67400
H  3.98300 10.96300 33.72100
H  3.65300 12.67300 33.71900

