79

Mg 42.79000 41.61500 26.02300
C  42.10600 43.77700 28.67500
C  44.36000 39.62800 28.33700
C  43.81000 39.68100 23.51100
C  41.53100 43.95700 23.86700
N  43.02400 41.65800 28.25700
C  42.57600 42.52600 29.12700
C  42.89300 42.22400 30.57900
C  44.03100 41.14200 30.42400
C  43.83300 40.75300 28.90200
C  45.40500 41.55400 30.86000
C  41.58700 41.66600 31.23200
C  41.06800 42.46800 32.42700
H  41.78400 42.40300 33.66300
N  43.80000 39.82600 25.90600
C  44.33200 39.15500 26.95500
C  44.91000 37.95200 26.47700
C  44.82400 37.94800 25.05900
C  44.18100 39.20400 24.77300
C  45.48400 36.93700 27.39700
C  45.25400 36.98800 24.02600
O  45.31500 37.27200 22.80700
C  45.46200 35.55600 24.36900
N  42.71400 41.79500 24.02400
C  43.12200 40.85800 23.16300
C  42.81300 41.31900 21.75800
C  41.92100 42.61300 21.86700
C  42.02400 42.78900 23.34900
C  44.01600 41.45100 20.79400
C  40.41700 42.45200 21.32500
C  39.43600 41.53000 22.14000
N  42.01700 43.47200 26.17900
C  41.59900 44.34900 25.18900
C  41.33600 45.62100 25.77000
C  41.40300 45.38200 27.15800
C  41.83000 44.09800 27.34300
C  41.08800 46.96400 25.11000
C  41.18300 45.98200 28.43300
O  40.71500 47.07900 28.67500
C  41.56000 44.97100 29.51900
C  42.46000 45.63800 30.50800
O  43.62700 45.95700 30.31200
O  41.60300 46.03200 31.48700
C  42.24800 46.89100 32.49300
H  44.81200 39.06700 29.15800
H  43.87400 39.07000 22.60800
H  41.08200 44.58600 23.09500
H  43.13000 43.04900 31.25000
H  43.77800 40.23600 30.97500
H  45.44000 42.60400 31.15100
H  45.88600 41.61300 29.88400
H  45.81200 40.76200 31.48700
H  41.73200 40.59400 31.36100
H  40.88300 41.82100 30.41500
H  40.13100 42.03300 32.77700
H  40.97600 43.50600 32.10900
H  45.46400 37.08900 28.47600
H  46.50400 36.67600 27.11600
H  44.83900 36.05800 27.38900
H  45.17300 34.86000 23.58100
H  44.82400 35.39100 25.23700
H  46.47000 35.36300 24.73700
H  42.12100 40.61400 21.29700
H  42.38600 43.47100 21.38300
H  44.95000 41.12600 21.25100
H  44.19200 42.50500 20.58100
H  43.88600 41.06600 19.78300
H  40.35800 42.04400 20.31600
H  40.04600 43.47600 21.37300
H  39.79200 41.07700 23.06600
H  39.19800 40.64600 21.54900
H  38.49900 42.07900 22.22900
H  42.04500 47.18000 24.63400
H  40.96600 47.73900 25.86600
H  40.18200 46.83800 24.51800
H  40.68300 44.53700 29.99900
H  41.54700 47.65600 32.82700
H  43.24700 47.22700 32.21500
H  42.53500 46.25400 33.33000

