79

Mg 53.69500 23.91800 44.65500
C  51.40200 26.46000 43.54800
C  51.50300 21.58900 43.36400
C  56.15800 21.59000 44.96700
C  55.89800 26.41100 45.64500
N  51.79700 24.07100 43.37700
C  51.01600 25.16700 43.15200
C  49.63700 24.73900 42.54300
C  49.52700 23.28200 43.20100
C  51.01200 22.89800 43.26700
C  48.76900 23.33800 44.62700
C  49.66900 24.70900 41.01200
C  50.92000 25.03100 40.21100
H  50.79900 25.59500 38.81500
N  53.84900 21.85600 44.10900
C  52.83300 21.06200 43.61400
C  53.25500 19.64300 43.47900
C  54.67800 19.64900 43.80200
C  54.99500 21.08500 44.35300
C  52.31900 18.53100 43.03700
C  55.59600 18.47300 43.63200
O  55.21400 17.38900 43.17300
C  57.07700 18.62800 43.86900
N  55.73100 23.92800 45.27300
C  56.50300 22.83300 45.36100
C  58.00400 23.20000 45.67100
C  57.88300 24.78300 45.94100
C  56.38500 25.09900 45.61800
C  58.62500 22.32700 46.73900
C  58.94200 25.65600 45.18200
C  59.63600 26.71100 46.03500
N  53.69600 26.01500 44.74600
C  54.63000 26.86600 45.26200
C  54.12900 28.19000 45.13600
C  52.90700 28.08100 44.54400
C  52.64700 26.69700 44.26200
C  54.59900 29.30500 45.87300
C  51.69000 28.80400 44.17600
O  51.40700 30.00400 44.22600
C  50.63600 27.73800 43.55200
C  50.13900 28.25000 42.28500
O  50.75300 28.55100 41.29100
O  48.78800 28.31500 42.35000
C  48.16300 28.70900 41.08900
H  50.68300 20.93900 43.05000
H  56.94300 20.83700 45.06200
H  56.50500 27.21800 46.06000
H  48.87300 25.42400 42.91100
H  49.06300 22.64700 42.44600
H  47.92400 22.66100 44.75400
H  48.29100 24.30200 44.80200
H  49.60800 23.23300 45.31500
H  48.90700 25.45900 40.80000
H  49.18300 23.83800 40.57300
H  51.54700 24.14000 40.23500
H  51.46900 25.77300 40.79100
H  51.32000 18.93200 42.86500
H  52.37100 17.80000 43.84300
H  52.60500 18.25600 42.02200
H  57.26000 18.67500 44.94200
H  57.51100 19.46900 43.32900
H  57.61900 17.90400 43.26000
H  58.60000 23.02000 44.77600
H  58.14600 24.84800 46.99700
H  58.11600 21.36500 46.78800
H  58.77500 22.82200 47.69900
H  59.63700 22.17800 46.36100
H  58.46400 26.06300 44.29100
H  59.75600 25.04200 44.79700
H  59.21800 26.79600 47.03800
H  59.53000 27.65100 45.49300
H  60.68400 26.41300 46.05700
H  55.35600 29.91300 45.37600
H  54.98600 28.97000 46.83500
H  53.73600 29.94200 46.06500
H  49.87800 27.68500 44.33300
H  48.35000 29.73400 40.77100
H  47.08200 28.61500 41.18900
H  48.42200 28.09300 40.22800

