79

Mg 16.97600 -1.17400 27.69700
C  15.96200 0.87000 30.33100
C  19.09500 -2.83800 29.81700
C  18.34200 -2.87100 25.05400
C  15.29100 0.91600 25.47800
N  17.60600 -0.84400 29.84700
C  16.88800 -0.07500 30.74100
C  17.27400 -0.40300 32.17100
C  18.38100 -1.49400 31.95500
C  18.37000 -1.78200 30.42600
C  19.82800 -1.16300 32.32300
C  16.03300 -0.82200 33.07100
C  16.19900 -0.20700 34.51200
H  17.47100 0.50700 35.05300
N  18.47900 -2.66200 27.46600
C  19.18800 -3.22400 28.47200
C  20.00300 -4.35400 27.92100
C  19.72600 -4.44500 26.49400
C  18.86200 -3.30500 26.25200
C  21.01000 -5.12800 28.79900
C  20.17900 -5.49600 25.55700
O  19.97300 -5.39300 24.36700
C  21.03800 -6.67800 26.01700
N  16.92000 -0.93400 25.55700
C  17.49000 -1.82400 24.67300
C  17.06600 -1.59200 23.25200
C  15.94900 -0.49500 23.41000
C  16.06800 -0.12500 24.92700
C  18.22800 -1.05800 22.30100
C  14.50400 -1.09200 23.18600
C  13.52100 -0.05200 22.80100
N  15.86800 0.49000 27.77700
C  15.21500 1.25000 26.79200
C  14.52100 2.32400 27.45300
C  14.75600 2.22900 28.78600
C  15.59300 1.10000 28.95800
C  13.71700 3.32500 26.74100
C  14.54900 2.84600 30.06700
O  13.90100 3.85900 30.32300
C  15.28000 2.01200 31.14900
C  16.22500 2.76100 31.86400
O  17.46100 2.87900 31.59900
O  15.57700 3.54300 32.82500
C  16.43400 4.53000 33.62100
H  19.61500 -3.48400 30.52700
H  18.56900 -3.54500 24.22600
H  14.72700 1.54100 24.78300
H  17.75700 0.47700 32.59600
H  18.16600 -2.43600 32.46000
H  20.51800 -1.31100 31.49200
H  20.11400 -1.82700 33.13800
H  19.99000 -0.16200 32.72200
H  15.91000 -1.90400 33.11100
H  15.09700 -0.44500 32.65900
H  15.82100 -1.03500 35.11200
H  15.45100 0.57800 34.62800
H  22.05400 -5.00000 28.51300
H  20.75100 -6.18700 28.79100
H  20.83300 -4.95900 29.86100
H  22.10200 -6.44900 25.96000
H  20.96000 -7.39100 25.19600
H  20.66800 -7.09800 26.95200
H  16.55900 -2.36900 22.67900
H  16.11100 0.35600 22.74900
H  18.11000 -0.06300 21.87300
H  18.57900 -1.69800 21.49100
H  19.08900 -0.82900 22.92800
H  14.17100 -1.67800 24.04300
H  14.58600 -1.82100 22.38000
H  12.68800 0.09400 23.48900
H  13.21900 -0.16900 21.76000
H  14.01700 0.90900 22.93200
H  12.69100 2.97500 26.62700
H  14.21100 3.64000 25.82200
H  13.60400 4.25300 27.30200
H  14.46900 1.68200 31.79900
H  16.66800 5.44700 33.08000
H  17.38300 4.07600 33.90700
H  15.87800 4.86700 34.49600

