79

Mg 49.31600 46.85600 43.61100
C  45.79200 46.75400 42.77800
C  49.44600 43.39900 43.05600
C  52.50200 47.10500 43.91700
C  48.91100 50.43300 43.70900
N  47.76800 45.32900 42.81500
C  46.43900 45.52600 42.58400
C  45.84900 44.13600 42.17600
C  46.98200 43.15700 42.40400
C  48.15600 44.02200 42.77200
C  46.63600 42.04600 43.51100
C  45.20200 44.01700 40.70800
C  46.17800 44.47900 39.55900
H  45.67200 44.25200 38.08500
N  50.74500 45.41000 43.62900
C  50.67600 44.05900 43.36800
C  51.93500 43.42800 43.62000
C  52.92100 44.52900 43.79600
C  52.08300 45.74800 43.79700
C  52.19200 41.98200 43.61600
C  54.41000 44.32800 44.03600
O  54.97700 43.25400 44.02900
C  55.26100 45.50200 44.45600
N  50.50200 48.53000 43.70300
C  51.85900 48.34900 43.88700
C  52.56600 49.65700 44.13400
C  51.43400 50.80900 44.14300
C  50.19400 49.87900 43.77600
C  53.58400 49.75200 45.31500
C  51.70200 51.98000 43.15500
C  51.45400 53.39800 43.76900
N  47.70600 48.35000 43.45500
C  47.71000 49.71200 43.52400
C  46.40200 50.22700 43.29400
C  45.59800 49.11800 43.00200
C  46.42400 48.02000 43.07900
C  45.93800 51.67800 43.54400
C  44.25500 48.65300 42.64000
O  43.26100 49.36400 42.33900
C  44.33200 47.03500 42.54900
C  43.42900 46.37400 43.54800
O  43.65200 46.43200 44.72500
O  42.34200 45.77700 43.00200
C  41.28100 45.32400 43.94100
H  49.49700 42.32300 42.87400
H  53.55800 47.28800 44.12700
H  48.75000 51.51200 43.74700
H  44.96500 43.97900 42.79500
H  47.22900 42.59300 41.50500
H  47.10600 42.34200 44.44900
H  46.93800 41.04700 43.19600
H  45.56400 41.97800 43.69600
H  44.30400 44.59800 40.49600
H  44.96300 42.98800 40.44200
H  47.07100 43.85400 39.59100
H  46.43200 45.52700 39.71900
H  53.01900 41.66600 44.25200
H  52.40700 41.63900 42.60400
H  51.34200 41.37900 43.93900
H  54.87200 45.97500 45.35800
H  55.37400 46.14900 43.58600
H  56.25100 45.10500 44.68200
H  53.11900 49.83000 43.21100
H  51.24500 51.15200 45.16000
H  53.54800 48.87300 45.96000
H  53.39500 50.62400 45.94100
H  54.59900 49.67300 44.92400
H  50.98300 51.79400 42.35800
H  52.71600 51.98900 42.75400
H  50.59000 53.84100 43.27300
H  52.34100 54.00000 43.56900
H  51.25300 53.38300 44.84000
H  46.08800 52.30300 42.66300
H  46.65800 52.06900 44.26300
H  44.88900 51.72300 43.83600
H  43.96900 46.78700 41.55200
H  40.43500 45.11200 43.28700
H  40.87700 45.98100 44.71100
H  41.31400 44.38700 44.49700

