79

Mg 44.61200 3.59100 48.12600
C  42.51600 6.44600 47.66500
C  41.90500 1.57100 47.86200
C  46.66300 0.92600 47.46100
C  47.35200 5.75500 48.01100
N  42.44000 4.01200 47.55100
C  41.80900 5.24500 47.57200
C  40.24100 5.04600 47.29200
C  40.07600 3.48800 47.70100
C  41.62700 2.96500 47.74800
C  39.30900 3.28000 49.03900
C  39.86400 5.41000 45.78600
C  38.57600 6.08900 45.63800
H  38.02200 5.96700 44.26600
N  44.28500 1.52800 47.81800
C  43.12300 0.84900 47.84400
C  43.38200 -0.56600 47.60200
C  44.73500 -0.74900 47.45400
C  45.28300 0.60500 47.46600
C  42.25600 -1.60400 47.72700
C  45.39600 -2.13400 47.16400
O  44.77400 -3.20700 47.14700
C  46.89700 -2.22600 46.89700
N  46.61900 3.39400 47.67900
C  47.25300 2.16800 47.64500
C  48.81700 2.31400 47.71500
C  48.99000 3.82400 47.78800
C  47.57000 4.36700 47.93800
C  49.31000 1.47600 48.90700
C  49.76100 4.37000 46.49000
C  51.28800 4.08600 46.51200
N  44.87900 5.68000 47.92700
C  46.09200 6.36100 47.95300
C  45.75400 7.85000 47.87500
C  44.39800 7.88200 47.74200
C  43.92200 6.55600 47.74900
C  46.80800 8.95600 48.00000
C  43.22000 8.79400 47.66300
O  43.18200 9.98700 47.63600
C  41.98800 7.85600 47.56900
C  41.15900 8.06400 48.72100
O  41.29100 7.50400 49.83400
O  40.24800 9.02900 48.36800
C  39.22600 9.47200 49.40200
H  40.96600 1.02300 47.96900
H  47.42700 0.14600 47.45100
H  48.19800 6.43100 48.15000
H  39.67100 5.65200 47.99700
H  39.54000 2.92600 46.93700
H  38.77800 4.18800 49.32700
H  40.02500 2.86100 49.74600
H  38.55600 2.51700 48.84300
H  39.88500 4.43800 45.29500
H  40.65700 5.99800 45.32400
H  38.94500 7.10600 45.76900
H  37.86500 5.86400 46.43300
H  42.44500 -2.38300 46.98800
H  41.33100 -1.13700 47.38800
H  42.29900 -2.08900 48.70200
H  47.47600 -1.91900 47.76800
H  47.19000 -1.52600 46.11600
H  47.31200 -3.21000 46.67900
H  49.19000 1.78300 46.83900
H  49.55900 4.14700 48.65900
H  49.67300 2.13500 49.69600
H  50.06600 0.75300 48.60000
H  48.51100 1.02000 49.49100
H  49.55100 5.39600 46.18700
H  49.36300 3.82500 45.63400
H  51.79400 4.73000 45.79200
H  51.60000 3.08700 46.20700
H  51.60300 4.38500 47.51200
H  46.60000 9.67500 47.20800
H  47.82000 8.55400 48.02800
H  46.72500 9.40000 48.99200
H  41.56400 8.12300 46.60100
H  38.25000 9.01900 49.22900
H  39.15400 10.55100 49.27000
H  39.45600 9.29000 50.45200

