79

Mg 46.92700 46.65800 43.78600
C  43.61300 46.76900 42.75300
C  47.41400 43.67700 42.01600
C  50.13500 46.88800 44.19200
C  46.42300 49.83300 45.14800
N  45.65100 45.60000 42.32200
C  44.33600 45.74500 42.16500
C  43.83600 44.57600 41.22000
C  44.93500 43.50600 41.28400
C  46.09000 44.30100 41.96900
C  44.73800 42.16200 42.13600
C  43.53600 45.11100 39.80000
C  42.26200 44.59500 39.14100
H  42.51600 43.25800 38.32300
N  48.55700 45.32100 43.28600
C  48.61300 44.21900 42.52800
C  49.93200 43.60200 42.60000
C  50.77000 44.57000 43.24200
C  49.84400 45.66600 43.55200
C  50.24600 42.22100 41.92700
C  52.23300 44.33100 43.48000
O  52.79600 43.24700 43.30700
C  53.15400 45.42900 44.11900
N  48.04500 48.12800 44.67600
C  49.42900 48.01600 44.63800
C  50.07400 49.29100 45.16500
C  48.86700 50.24900 45.48200
C  47.68600 49.37100 45.08500
C  51.22800 49.16100 46.18600
C  48.97000 51.58700 44.74800
C  49.36000 52.81700 45.55700
N  45.35000 48.11200 43.92200
C  45.24500 49.25100 44.60100
C  43.89700 49.76700 44.68100
C  43.24000 48.78100 44.02000
C  44.14100 47.83300 43.53600
C  43.41700 50.96700 45.35800
C  41.91700 48.35500 43.61200
O  40.82000 48.86600 43.77000
C  42.16900 47.00200 42.78900
C  41.48000 45.92600 43.55200
O  40.69200 45.06400 43.13000
O  41.89300 45.99100 44.82300
C  41.73300 44.78600 45.71500
H  47.45000 42.64900 41.65000
H  51.21200 47.06300 44.23700
H  46.32600 50.81300 45.62100
H  42.90200 44.13700 41.57100
H  45.37600 43.30000 40.30800
H  43.71000 41.80900 42.05600
H  44.90500 42.48200 43.16500
H  45.41600 41.38600 41.78100
H  44.37800 44.76100 39.20400
H  43.49200 46.19400 39.91700
H  41.96500 45.34500 38.40700
H  41.46900 44.34500 39.84500
H  51.23800 42.20100 41.47600
H  49.52500 42.05000 41.12800
H  50.17700 41.38400 42.62300
H  53.40300 46.16400 43.35300
H  54.10600 44.96700 44.38300
H  52.65500 45.83900 44.99600
H  50.59900 49.68400 44.29400
H  48.87300 50.40400 46.56100
H  51.09100 49.89900 46.97600
H  52.14400 49.49000 45.69400
H  51.13800 48.17100 46.63200
H  48.02400 51.75900 44.23500
H  49.72700 51.43100 43.97800
H  50.39200 53.10600 45.35800
H  49.04400 52.84300 46.59900
H  48.83000 53.67900 45.15100
H  44.15700 51.53700 45.92000
H  42.77800 50.57200 46.14800
H  42.80500 51.49500 44.62700
H  41.69700 47.07200 41.80900
H  42.04400 45.00200 46.73800
H  42.31600 43.91300 45.41900
H  40.65700 44.66200 45.83300

