79

Mg 17.00400 -3.07200 27.45500
C  16.35200 -1.16200 30.47100
C  18.68900 -5.25000 29.37700
C  18.25000 -4.40100 24.63200
C  15.50500 -0.53500 25.65700
N  17.52100 -3.11000 29.71200
C  17.03000 -2.35400 30.72900
C  17.36700 -2.94700 32.09700
C  18.27100 -4.21300 31.72300
C  18.12200 -4.20600 30.16600
C  19.69800 -4.03500 32.19300
C  16.07300 -3.17700 32.98900
C  16.16900 -2.91300 34.46500
H  17.57300 -2.64700 35.05500
N  18.05100 -4.74400 27.02700
C  18.69800 -5.55200 27.96000
C  19.35300 -6.65900 27.21400
C  19.17000 -6.44000 25.78300
C  18.50100 -5.12700 25.80600
C  20.15200 -7.72600 27.96600
C  19.63800 -7.27800 24.64600
O  19.45400 -7.01700 23.47300
C  20.27400 -8.62500 25.04800
N  16.89300 -2.51500 25.48600
C  17.62500 -3.19200 24.49400
C  17.40900 -2.61100 23.07100
C  16.27100 -1.51900 23.38600
C  16.10500 -1.55700 24.95500
C  18.65300 -2.02900 22.37000
C  15.02700 -1.78000 22.52900
C  13.74700 -2.29900 23.18000
N  16.07000 -1.18000 27.95800
C  15.48500 -0.32100 27.05800
C  14.95100 0.82600 27.80100
C  15.29400 0.60600 29.14000
C  15.96000 -0.69200 29.19800
C  14.19100 1.98600 27.13000
C  15.13100 1.07100 30.50700
O  14.52300 2.03700 30.98800
C  15.91000 -0.09000 31.40900
C  16.92800 0.56700 32.31800
O  18.13400 0.44600 32.23600
O  16.11400 1.16300 33.34900
C  17.08500 1.67300 34.30300
H  19.05200 -6.08200 29.98300
H  18.63700 -4.75200 23.67300
H  15.05300 0.23100 25.02300
H  17.97200 -2.16800 32.56200
H  17.86800 -5.16400 32.07000
H  20.32500 -4.02700 31.30200
H  20.13700 -4.72900 32.91000
H  19.79600 -3.08700 32.72400
H  15.93900 -4.25700 32.92600
H  15.18600 -2.63500 32.65800
H  15.65100 -3.69500 35.01900
H  15.63800 -1.99300 34.70900
H  19.60200 -8.61900 28.26300
H  20.47800 -7.29900 28.91400
H  21.08100 -7.94700 27.44000
H  21.28700 -8.53500 25.43900
H  20.49000 -9.03200 24.06100
H  19.56100 -9.29700 25.52700
H  16.90800 -3.39100 22.49800
H  16.59100 -0.52900 23.05900
H  18.87100 -0.96500 22.45000
H  18.54500 -2.08500 21.28600
H  19.56900 -2.52900 22.68600
H  15.27900 -2.52800 21.77800
H  14.70900 -0.87900 22.00400
H  13.73800 -1.89400 24.19200
H  13.73700 -3.38200 23.30700
H  12.76500 -2.07400 22.76400
H  13.11300 1.83200 27.17300
H  14.48200 2.28700 26.12300
H  14.47600 2.83400 27.75300
H  15.12400 -0.40200 32.09600
H  17.64800 2.41200 33.73200
H  17.74800 0.90300 34.69800
H  16.51500 2.22800 35.04800

