79

Mg 35.21200 1.43500 29.26500
C  33.13200 2.85800 31.67600
C  37.75300 1.49400 31.60900
C  37.36700 0.48000 26.80200
C  32.71100 1.91800 26.93500
N  35.44900 2.21900 31.31000
C  34.37900 2.53900 32.14800
C  34.87000 2.63200 33.59900
C  36.39100 2.52800 33.47400
C  36.58600 2.11100 32.04400
C  37.15200 3.84500 33.83700
C  34.14400 1.45200 34.41600
C  33.56400 2.00900 35.78000
H  34.21300 3.17300 36.38400
N  37.21500 0.89800 29.28400
C  38.05000 0.91100 30.34800
C  39.27400 0.31000 29.92200
C  39.13800 -0.06500 28.56400
C  37.87000 0.47900 28.14100
C  40.40000 0.19100 30.89600
C  40.18500 -0.76700 27.62500
O  39.98500 -1.07700 26.44100
C  41.47600 -1.31600 28.14700
N  35.16900 1.47200 27.17700
C  36.10500 0.92800 26.40200
C  35.69100 0.80500 24.98800
C  34.13200 0.91200 25.03600
C  33.97000 1.43000 26.48000
C  36.39100 1.82600 24.01700
C  33.24400 -0.43300 24.84700
C  32.18700 -0.29200 23.70400
N  33.30700 2.38900 29.19400
C  32.41600 2.46100 28.17600
C  31.16400 2.95600 28.74100
C  31.38300 3.15400 30.07100
C  32.75000 2.75100 30.30500
C  29.95300 3.13700 27.96000
C  30.81200 3.58700 31.32800
O  29.66300 3.96500 31.49000
C  31.87900 3.33200 32.37200
C  32.05100 4.62100 33.09100
O  32.61200 5.59100 32.60700
O  31.49900 4.54900 34.38100
C  31.39800 5.87200 35.02200
H  38.49100 1.34100 32.40000
H  38.00300 0.04300 26.02900
H  31.94900 1.97300 26.15500
H  34.58300 3.59500 34.02100
H  36.70600 1.63600 34.01500
H  37.83500 4.15700 33.04600
H  37.71100 3.62000 34.74500
H  36.42200 4.60700 34.10900
H  34.86100 0.64800 34.57600
H  33.38500 1.01500 33.76600
H  33.76000 1.24400 36.53100
H  32.50600 2.24500 35.66400
H  41.13400 -0.55900 30.60200
H  39.93600 0.01600 31.86700
H  40.89700 1.16000 30.95600
H  41.22500 -1.99100 28.96500
H  42.01500 -0.41300 28.43500
H  42.00400 -1.89900 27.39300
H  35.90800 -0.21700 24.67700
H  33.86400 1.74100 24.38100
H  37.16800 1.36900 23.40400
H  36.91800 2.53500 24.65600
H  35.68700 2.28900 23.32600
H  32.80200 -0.63400 25.82300
H  33.87600 -1.31300 24.72500
H  32.46200 -0.93800 22.87100
H  31.90300 0.69400 23.33800
H  31.23500 -0.62200 24.11900
H  29.76900 2.29400 27.29400
H  29.95400 4.11100 27.47000
H  29.07100 3.08200 28.59900
H  31.45600 2.53900 32.98900
H  31.01000 6.61700 34.32700
H  32.24700 6.19700 35.62400
H  30.71900 5.88900 35.87500

