79

Mg 16.67700 -2.31200 28.89000
C  15.70200 -0.14400 31.48000
C  18.97600 -3.69900 31.00100
C  17.75800 -4.02000 26.26300
C  14.59700 -0.42600 26.64700
N  17.17600 -1.98700 31.05200
C  16.55100 -1.14800 31.92700
C  16.97400 -1.36800 33.32500
C  18.05300 -2.50200 33.19500
C  18.18300 -2.70700 31.65500
C  19.38900 -2.27700 33.96400
C  15.82900 -1.81800 34.36200
C  15.69500 -1.17200 35.72300
H  17.04000 -0.65800 36.24000
N  18.13000 -3.69600 28.67600
C  19.01300 -4.17300 29.61500
C  19.81500 -5.24000 29.06100
C  19.52600 -5.23600 27.68300
C  18.42200 -4.35000 27.46200
C  20.74100 -6.10000 29.91200
C  20.11400 -6.18000 26.58800
O  19.73800 -6.15200 25.41100
C  21.07500 -7.25300 26.98100
N  16.18200 -2.37600 26.79400
C  16.75800 -3.14200 25.91900
C  16.28000 -2.93600 24.49400
C  15.04600 -2.05600 24.73400
C  15.32000 -1.53100 26.15600
C  17.46300 -2.24500 23.63900
C  13.70100 -2.73600 24.63200
C  12.96500 -2.47300 23.25300
N  15.38000 -0.62700 28.98400
C  14.69800 0.03800 27.95500
C  13.91400 1.09800 28.54200
C  14.32900 1.09000 29.93500
C  15.21400 0.05800 30.14300
C  12.93400 2.04300 27.93700
C  14.20400 1.75000 31.20600
O  13.59800 2.73700 31.57100
C  14.93500 0.90700 32.23800
C  15.69100 1.77600 33.26700
O  16.70100 2.42000 33.04500
O  14.91200 1.91400 34.40800
C  15.23400 3.01300 35.25600
H  19.61600 -4.18900 31.73700
H  18.05700 -4.68500 25.45000
H  13.95400 0.00700 25.87800
H  17.45900 -0.46300 33.68800
H  17.64900 -3.42900 33.60200
H  20.14000 -1.93900 33.25100
H  19.58000 -3.20800 34.49900
H  19.38700 -1.53100 34.75900
H  15.94600 -2.89000 34.52300
H  14.87400 -1.76600 33.84100
H  15.44100 -1.95000 36.44400
H  14.96800 -0.36400 35.64300
H  20.87100 -5.64100 30.89200
H  21.69100 -6.26600 29.40500
H  20.29200 -7.06700 30.13900
H  20.63700 -7.68300 27.88200
H  22.07400 -6.90300 27.24200
H  21.15600 -7.96600 26.16100
H  15.96400 -3.83400 23.96200
H  15.05700 -1.26500 23.98400
H  17.25900 -1.17500 23.60400
H  17.28400 -2.68200 22.65600
H  18.42000 -2.55500 24.05800
H  12.99700 -2.47000 25.42000
H  13.87300 -3.81000 24.69800
H  12.21300 -1.69000 23.34600
H  12.47800 -3.37300 22.87700
H  13.55500 -2.15800 22.39300
H  13.30500 2.50400 27.02200
H  12.61800 2.73600 28.71700
H  12.09800 1.42500 27.61100
H  14.32400 0.24500 32.85100
H  15.73700 3.77400 34.66000
H  15.89500 2.59800 36.01600
H  14.32400 3.43200 35.68600

