79

Mg 0.60100 8.25600 26.84600
C  1.19600 10.16900 29.65800
C  0.84800 5.42300 28.92300
C  0.56700 6.22600 24.14800
C  0.79500 11.01500 24.83700
N  0.99800 7.85600 29.08400
C  0.96000 8.82100 30.02800
C  0.86200 8.21500 31.39700
C  1.17100 6.65400 31.15000
C  1.01400 6.61200 29.64200
C  2.55200 6.18700 31.58600
C  -0.51500 8.49300 32.13300
C  -0.49800 8.29800 33.68800
H  0.63600 7.71600 34.50600
N  0.65400 6.09300 26.54900
C  0.64700 5.15000 27.55900
C  0.36100 3.85800 26.99500
C  0.28000 4.07600 25.60600
C  0.46200 5.48900 25.36300
C  0.29500 2.59000 27.78400
C  0.10900 3.02800 24.37100
O  -0.18400 3.42400 23.20200
C  0.32000 1.63700 24.71200
N  0.91200 8.54500 24.76200
C  0.71500 7.55400 23.83000
C  0.83900 8.10700 22.45900
C  0.62700 9.64800 22.72400
C  0.73500 9.75200 24.22300
C  2.12000 7.75500 21.57400
C  -0.75300 10.19800 22.24600
C  -0.82200 11.42700 21.28300
N  0.87000 10.17500 27.13800
C  0.88700 11.21200 26.21200
C  1.14700 12.47000 26.85000
C  1.27400 12.08800 28.19800
C  1.13700 10.70100 28.30900
C  1.27900 13.84600 26.29100
C  1.47600 12.62400 29.50000
O  1.66500 13.80800 29.90600
C  1.28800 11.44100 30.51100
C  2.23000 11.44000 31.67600
O  3.45100 11.69800 31.60500
O  1.56400 11.13900 32.81600
C  2.41600 11.02000 34.03900
H  0.76200 4.52700 29.54100
H  0.55200 5.59800 23.25500
H  0.82100 11.90600 24.20600
H  1.63400 8.72600 31.97200
H  0.38600 6.01400 31.55200
H  2.93200 5.46300 30.86500
H  2.42000 5.61700 32.50500
H  3.28000 6.98200 31.74500
H  -1.30500 7.80900 31.82400
H  -0.76600 9.46700 31.71300
H  -1.35600 7.65200 33.87200
H  -0.68900 9.28800 34.10300
H  1.27100 2.11600 27.68200
H  -0.46600 1.99300 27.28000
H  0.15100 2.78900 28.84600
H  0.63600 0.94600 23.93000
H  -0.52100 1.25800 25.29200
H  1.19000 1.68000 25.36700
H  -0.06400 7.68100 22.02200
H  1.46600 10.26200 22.39800
H  2.75300 7.16900 22.24000
H  2.65200 8.61300 21.16300
H  1.83600 7.10600 20.74500
H  -1.27500 10.55800 23.13300
H  -1.35000 9.36800 21.86900
H  0.20300 11.60300 20.95600
H  -1.30100 12.23700 21.83300
H  -1.53400 11.10100 20.52500
H  0.28800 14.13500 25.94100
H  1.95200 13.73200 25.44100
H  1.70100 14.53200 27.02500
H  0.35000 11.77200 30.95700
H  2.76800 11.96200 34.46000
H  3.36800 10.53500 33.82200
H  1.80600 10.45900 34.74700

