79

Mg 8.40600 3.82400 26.77900
C  9.95800 2.27200 29.51000
C  6.41000 5.46900 28.77500
C  6.92300 4.87400 23.91600
C  10.43500 1.62200 24.70300
N  8.10800 3.56400 28.83600
C  8.86500 3.06200 29.86200
C  8.49500 3.50800 31.23700
C  7.23000 4.42100 30.94100
C  7.23800 4.50100 29.38700
C  5.94000 4.05200 31.61300
C  9.64600 4.20100 31.99900
C  9.09500 5.12900 33.15000
H  9.75400 5.11500 34.54100
N  6.93000 5.08400 26.41000
C  6.20900 5.62800 27.36800
C  5.27500 6.55500 26.72500
C  5.55400 6.56200 25.34300
C  6.48800 5.49300 25.16000
C  4.31100 7.46000 27.61100
C  4.96300 7.36400 24.17500
O  5.24600 7.28200 23.01800
C  3.94400 8.36100 24.54600
N  8.63600 3.27100 24.59900
C  7.88200 3.88100 23.59800
C  8.16200 3.39300 22.21600
C  9.36100 2.42300 22.50900
C  9.52700 2.39300 24.01800
C  7.04000 2.76700 21.40400
C  10.77500 2.76600 21.80600
C  11.15700 1.92500 20.68000
N  9.90600 2.28700 26.95600
C  10.69700 1.61700 26.05900
C  11.54200 0.67500 26.77700
C  11.33200 0.93900 28.12800
C  10.36100 1.99400 28.19400
C  12.43500 -0.51100 26.25300
C  11.75400 0.48100 29.47700
O  12.54400 -0.37600 29.83200
C  10.87500 1.41600 30.39600
C  10.17700 0.63900 31.43900
O  9.31200 -0.14400 31.27700
O  10.73700 0.90900 32.65300
C  10.08200 0.41900 33.85300
H  5.93300 6.21300 29.41600
H  6.44300 5.16900 22.98000
H  10.92500 0.97600 23.97200
H  8.23400 2.56100 31.70900
H  7.38200 5.44300 31.28800
H  5.95000 2.96200 31.64400
H  5.00600 4.42900 31.19700
H  5.93400 4.40400 32.64400
H  10.12300 4.75200 31.18800
H  10.29800 3.45000 32.44600
H  8.09100 4.86500 33.48500
H  9.16400 6.17000 32.83500
H  4.46800 8.50200 27.33000
H  4.39600 7.36200 28.69300
H  3.26800 7.20600 27.42000
H  3.19400 7.90000 25.18900
H  3.39700 8.70400 23.66800
H  4.45200 9.22300 24.97900
H  8.57600 4.20100 21.61300
H  9.01700 1.42500 22.23700
H  6.90700 3.44500 20.56100
H  6.10800 2.76500 21.97000
H  7.17500 1.73800 21.07100
H  11.62200 2.71100 22.49000
H  10.85500 3.73700 21.31600
H  11.59500 2.53300 19.88900
H  10.28000 1.48600 20.20400
H  11.76000 1.04500 20.90300
H  12.72100 -0.34100 25.21600
H  12.00400 -1.49500 26.44300
H  13.32500 -0.52100 26.88300
H  11.58300 2.10700 30.85500
H  9.09100 0.83500 34.03100
H  10.68000 0.82400 34.67000
H  10.22800 -0.63800 34.07700

