79

Mg 24.31300 -5.04000 46.45400
C  26.44400 -2.58000 45.24700
C  21.86300 -3.91500 44.27000
C  22.61300 -8.00700 46.88800
C  26.86900 -6.32900 48.45600
N  24.20800 -3.45700 44.85700
C  25.19400 -2.55100 44.55000
C  24.78200 -1.82800 43.26400
C  23.20200 -2.02100 43.12500
C  23.04000 -3.12800 44.23900
C  22.47300 -0.70800 43.49200
C  25.58400 -2.42700 42.04200
C  26.14100 -1.32300 41.15000
H  25.38400 -1.06800 39.87400
N  22.41300 -5.79100 45.81100
C  21.61000 -5.17900 44.91900
C  20.37300 -5.93100 44.78000
C  20.55500 -7.07700 45.52000
C  21.90900 -7.03400 46.03700
C  19.25200 -5.34800 43.98100
C  19.46300 -8.17000 45.82400
O  18.33300 -8.00600 45.34200
C  19.77300 -9.40600 46.62000
N  24.63300 -6.84500 47.62200
C  23.74600 -7.92700 47.66100
C  24.37400 -9.13000 48.42700
C  25.72700 -8.51300 48.93500
C  25.74200 -7.12400 48.35200
C  23.35000 -9.61700 49.47600
C  26.90800 -9.46100 48.35100
C  28.14100 -9.62000 49.24000
N  26.21900 -4.59800 46.87900
C  27.16800 -5.16600 47.72400
C  28.33500 -4.31600 47.73600
C  28.11800 -3.32900 46.77100
C  26.84000 -3.53100 46.25000
C  29.60700 -4.70600 48.45800
C  28.72900 -2.23900 46.08000
O  29.84800 -1.77700 46.34100
C  27.69100 -1.84100 44.94400
C  27.48600 -0.34700 45.05800
O  26.65900 0.19100 45.78100
O  28.23400 0.30100 44.15600
C  28.11800 1.80200 44.11400
H  20.98500 -3.52300 43.75200
H  22.19200 -8.98700 47.12400
H  27.63600 -6.54600 49.20300
H  25.05900 -0.77400 43.30200
H  22.91100 -2.33000 42.12100
H  21.48600 -0.96400 43.87500
H  22.28200 -0.10000 42.60700
H  23.00400 -0.05300 44.18300
H  24.91000 -2.97100 41.38000
H  26.32400 -3.12900 42.42600
H  27.14200 -1.65400 40.87400
H  26.41600 -0.45700 41.75200
H  19.60000 -4.88200 43.06000
H  18.53100 -4.73900 44.52700
H  18.68800 -6.14200 43.49100
H  19.83900 -9.00800 47.63200
H  20.72500 -9.87900 46.38100
H  19.00500 -10.16900 46.49500
H  24.43700 -9.92500 47.68400
H  25.93400 -8.40100 50.00000
H  22.50600 -8.95300 49.66200
H  23.88300 -9.68200 50.42500
H  22.98700 -10.56900 49.08800
H  27.20200 -9.02400 47.39700
H  26.50600 -10.40400 47.98100
H  28.01000 -9.03900 50.15300
H  29.00000 -9.30100 48.65100
H  28.24400 -10.68800 49.43500
H  30.29500 -5.24300 47.80500
H  29.46000 -5.36700 49.31200
H  30.19400 -3.87600 48.85000
H  28.05900 -2.12200 43.95700
H  27.12600 1.94500 43.68500
H  28.90000 2.29400 43.53500
H  28.13900 2.23200 45.11500

