79

Mg 53.44600 24.29200 44.33400
C  50.62100 26.33100 43.25400
C  52.07800 21.72000 42.61200
C  56.45000 22.67500 44.46000
C  55.10500 27.24400 45.11600
N  51.61600 24.20300 42.95000
C  50.55000 25.07100 42.70900
C  49.45800 24.37500 41.92200
C  49.85400 22.92200 42.02400
C  51.24700 22.90500 42.69900
C  48.83500 22.01700 42.76000
C  49.31800 24.86400 40.41400
C  50.71100 25.06400 39.69300
H  50.50800 25.80000 38.33200
N  54.07400 22.41200 43.80200
C  53.37300 21.47300 43.17600
C  54.05300 20.23400 43.12900
C  55.29000 20.45600 43.69800
C  55.35600 21.90100 44.02000
C  53.49800 18.97300 42.54500
C  56.34000 19.39100 43.95300
O  56.13500 18.31800 43.50100
C  57.58100 19.63900 44.74600
N  55.46900 24.84400 44.77100
C  56.50500 23.98300 44.90300
C  57.87300 24.72100 45.07900
C  57.40500 26.19700 44.96000
C  55.88900 26.10900 45.02000
C  58.47100 24.45300 46.50100
C  57.88400 26.84700 43.68400
C  58.90900 27.99300 43.65400
N  52.96200 26.41700 44.41300
C  53.73100 27.35600 44.84800
C  52.84900 28.50700 44.98200
C  51.66900 28.22400 44.31500
C  51.75000 26.88000 43.98800
C  53.18200 29.67000 45.88300
C  50.45600 28.75100 43.85800
O  50.05400 29.89500 43.98900
C  49.70400 27.53400 43.16300
C  49.34200 28.09700 41.78300
O  50.08000 28.69300 40.98200
O  47.97000 28.04500 41.63400
C  47.36700 28.73400 40.45700
H  51.56600 20.86000 42.17500
H  57.42700 22.18800 44.47200
H  55.63000 28.14600 45.43700
H  48.47700 24.67700 42.29100
H  49.88400 22.59400 40.98500
H  48.25500 21.42400 42.05300
H  48.11700 22.71600 43.19000
H  49.32700 21.45000 43.55000
H  48.78100 25.80400 40.28800
H  48.67900 24.18800 39.84500
H  50.87000 24.04900 39.33000
H  51.54300 25.47800 40.26300
H  54.10400 18.59900 41.72000
H  52.56600 19.20700 42.03000
H  53.24300 18.24400 43.31400
H  57.87700 18.65800 45.11900
H  57.36200 20.33600 45.55500
H  58.36600 20.07200 44.12600
H  58.59700 24.45300 44.30900
H  57.73600 26.82800 45.78500
H  59.51900 24.15900 46.45300
H  57.80500 23.74900 46.99900
H  58.45900 25.40200 47.03800
H  56.96100 27.20600 43.22900
H  58.20200 26.03200 43.03300
H  59.38900 28.29000 44.58600
H  58.44700 28.87900 43.21700
H  59.66400 27.69300 42.92600
H  54.09100 30.21000 45.61700
H  53.18300 29.35000 46.92500
H  52.38700 30.41600 45.88800
H  48.81000 27.21400 43.69900
H  46.48100 29.28700 40.77100
H  46.97000 27.97500 39.78300
H  48.00300 29.35800 39.82800

