79

Mg 34.55300 2.71800 28.61500
C  32.88500 3.51500 31.50700
C  37.52600 2.36300 30.51500
C  36.30400 2.54300 25.78500
C  31.61000 3.54200 26.73800
N  35.12000 2.85800 30.75600
C  34.24300 3.18600 31.80600
C  34.93700 3.13200 33.18800
C  36.43900 2.82400 32.79900
C  36.38400 2.65500 31.22800
C  37.56000 3.85600 33.15400
C  34.25600 2.12600 34.16700
C  33.79300 2.61600 35.51600
H  34.49400 3.84700 36.20000
N  36.62600 2.36100 28.24300
C  37.67900 2.28300 29.14900
C  38.85600 1.96300 28.42700
C  38.48000 2.01500 27.00300
C  37.11400 2.33500 26.94400
C  40.26000 1.83300 29.06500
C  39.40300 1.90700 25.73300
O  38.96100 1.93700 24.58700
C  40.82700 1.59900 25.84300
N  34.03700 3.06500 26.57000
C  34.98000 2.89500 25.60200
C  34.35400 2.99900 24.28400
C  32.83400 2.85000 24.52800
C  32.81500 3.23300 26.07200
C  34.83200 4.36400 23.62300
C  32.27700 1.42400 24.29400
C  30.73000 1.37700 24.15100
N  32.64900 3.41800 28.93500
C  31.52800 3.58100 28.14600
C  30.35300 3.76800 29.01200
C  30.87800 3.84300 30.30800
C  32.22700 3.56400 30.23700
C  28.91700 4.07600 28.56600
C  30.48900 3.98600 31.69300
O  29.43500 4.13500 32.24000
C  31.76100 3.93700 32.46300
C  32.07700 5.15300 33.26100
O  32.81900 6.07500 32.98500
O  31.29000 5.24600 34.43000
C  31.08200 6.59900 34.92300
H  38.38900 2.16200 31.15400
H  36.68500 2.34800 24.78000
H  30.65700 3.61100 26.20900
H  34.99100 4.07400 33.73400
H  36.64700 1.83800 33.21500
H  37.28700 4.50500 33.98700
H  37.78200 4.31400 32.19000
H  38.43400 3.32200 33.52900
H  34.90100 1.28000 34.40600
H  33.40800 1.74400 33.59800
H  33.89800 1.79900 36.23000
H  32.74100 2.86200 35.37000
H  40.96400 2.42200 28.47800
H  40.65000 0.81700 29.01200
H  40.29100 2.20400 30.08900
H  40.94100 0.59800 26.26000
H  41.37400 2.38600 26.36200
H  41.11500 1.41800 24.80800
H  34.82100 2.21200 23.69200
H  32.35200 3.65200 23.96900
H  34.01500 5.03000 23.34400
H  35.27900 4.07300 22.67200
H  35.55100 4.97700 24.16500
H  32.50800 0.91900 25.23200
H  32.81700 0.94300 23.47900
H  30.47900 0.84100 23.23600
H  30.28500 2.36400 24.02300
H  30.16400 0.85200 24.92000
H  28.40100 4.47300 29.44100
H  28.41000 3.18000 28.20900
H  28.90800 4.77300 27.72900
H  31.62300 3.13400 33.18700
H  31.00200 7.39100 34.17800
H  31.80700 6.93700 35.66300
H  30.10200 6.47200 35.38200

