79

Mg 16.31100 52.47600 24.52700
C  17.83900 51.62200 27.53800
C  13.46700 53.41700 26.47000
C  14.63000 53.23300 21.70400
C  18.85300 50.95300 22.71300
N  15.75500 52.46600 26.79100
C  16.63500 52.23100 27.76500
C  15.98300 52.50400 29.20700
C  14.57300 52.97900 28.80900
C  14.49300 52.95000 27.24600
C  13.36100 52.17400 29.45600
C  16.80200 53.48700 30.06600
C  17.20000 52.99700 31.54400
H  16.35100 51.95600 32.23700
N  14.39300 53.23500 24.15900
C  13.34000 53.51600 25.06000
C  12.23200 54.10800 24.42000
C  12.52100 54.21100 22.98800
C  13.91700 53.50100 22.90200
C  11.06100 54.57700 25.24500
C  11.69400 54.75700 21.82900
O  12.10700 54.88000 20.68900
C  10.27600 55.28400 22.01700
N  16.63100 52.16100 22.49700
C  15.77800 52.54600 21.53300
C  16.32700 52.17800 20.19900
C  17.87100 51.69600 20.47300
C  17.80500 51.57600 21.96100
C  15.47900 50.99100 19.67100
C  19.03100 52.59900 20.00700
C  19.17700 52.99200 18.53000
N  18.00500 51.50400 24.95900
C  18.93900 50.91400 24.11500
C  20.04100 50.52600 24.89500
C  19.62600 50.70700 26.24400
C  18.40500 51.28400 26.24700
C  21.21300 49.92400 24.44100
C  20.02500 50.53400 27.61600
O  21.15600 50.20100 28.05500
C  18.89500 51.10000 28.48100
C  18.38800 50.01600 29.28900
O  17.64800 49.06800 29.04200
O  19.09700 50.01200 30.48600
C  18.95600 48.87300 31.38300
H  12.67500 53.82400 27.10300
H  14.02800 53.52100 20.84000
H  19.68700 50.54900 22.13500
H  15.95900 51.51200 29.65700
H  14.39100 54.01000 29.11500
H  12.56000 52.06300 28.72500
H  12.81900 52.74000 30.21400
H  13.78900 51.31800 29.97700
H  16.16500 54.36900 30.13600
H  17.72000 53.72300 29.52900
H  17.12500 53.86200 32.20400
H  18.20700 52.58100 31.53300
H  10.15000 54.55100 24.64700
H  11.19900 55.60300 25.58600
H  10.81200 53.98200 26.12400
H  10.29700 56.12900 22.70600
H  9.60200 54.45800 22.24600
H  9.93800 55.69000 21.06300
H  16.30300 53.03000 19.52000
H  17.98000 50.66400 20.14000
H  16.01800 50.04700 19.59000
H  15.23400 51.32700 18.66400
H  14.66200 50.67500 20.32000
H  19.82600 51.87900 20.20200
H  19.24900 53.39100 20.72300
H  19.44200 54.04700 18.47200
H  18.22100 52.82200 18.03600
H  19.93700 52.33900 18.10000
H  21.08200 49.54900 23.42600
H  21.36200 49.13400 25.17800
H  21.95800 50.71500 24.52000
H  19.21200 52.01600 28.97900
H  18.88800 47.92100 30.85500
H  18.13300 48.94900 32.09400
H  19.90600 48.80300 31.91200

