79

Mg 47.66600 35.08800 27.53500
C  45.67200 33.51200 30.09900
C  48.24000 37.63700 29.88200
C  49.09400 36.75900 25.06400
C  46.84500 32.47000 25.32600
N  47.20700 35.37000 29.80300
C  46.39200 34.59500 30.58800
C  46.64900 34.98700 32.08100
C  47.03800 36.48900 31.86800
C  47.50600 36.56000 30.41500
C  45.91100 37.43000 32.28500
C  47.75900 33.98000 32.63200
C  47.80800 33.79900 34.18600
H  47.11000 34.82700 35.03300
N  48.70100 36.74400 27.54100
C  48.87300 37.66000 28.56000
C  49.65300 38.79200 28.05900
C  49.89500 38.58300 26.71300
C  49.15000 37.30400 26.41100
C  49.98200 40.00100 29.01100
C  50.51700 39.54300 25.66200
O  50.57400 39.33800 24.49600
C  51.07600 40.81900 26.01800
N  47.69700 34.72500 25.46400
C  48.47400 35.53100 24.64300
C  48.48800 35.03100 23.20500
C  47.90000 33.57500 23.36100
C  47.47400 33.54200 24.78300
C  47.71200 35.85100 22.17200
C  48.85000 32.44100 22.86800
C  50.06700 32.10500 23.75400
N  46.59300 33.29800 27.62500
C  46.23700 32.39800 26.62000
C  45.47700 31.28200 27.18300
C  45.19000 31.73400 28.47600
C  45.87900 32.97100 28.78000
C  45.07500 30.02000 26.47000
C  44.44400 31.41400 29.67200
O  43.80400 30.43800 29.90600
C  44.62100 32.56500 30.75700
C  44.85000 32.01200 32.11700
O  45.66800 31.16000 32.40500
O  43.94400 32.54300 33.08000
C  43.91600 31.91500 34.43400
H  48.36900 38.46300 30.58500
H  49.55700 37.31100 24.24400
H  46.60300 31.60800 24.70000
H  45.72400 34.93700 32.65500
H  47.90100 36.83400 32.43700
H  46.32700 38.43300 32.37800
H  45.48500 37.03500 33.20700
H  45.20200 37.58500 31.47200
H  48.78000 34.28500 32.40100
H  47.59300 33.02300 32.13600
H  48.85600 33.74500 34.48100
H  47.37200 32.83900 34.46100
H  49.09000 40.60200 29.19000
H  50.74200 40.72600 28.71900
H  50.30000 39.65700 29.99500
H  50.34400 41.48500 26.47500
H  51.53400 41.25500 25.13000
H  51.92100 40.64500 26.68400
H  49.52800 34.89400 22.91000
H  46.96500 33.28400 22.88100
H  46.81900 35.29800 21.88300
H  48.28500 36.08800 21.27500
H  47.37800 36.77900 22.63700
H  49.15400 32.82300 21.89400
H  48.17400 31.60900 22.67000
H  51.03900 32.49200 23.44600
H  50.11100 31.01500 23.74300
H  49.96800 32.40900 24.79600
H  45.95200 29.37900 26.38500
H  44.63500 30.30000 25.51300
H  44.34300 29.44100 27.03300
H  43.63300 33.01600 30.65900
H  44.33000 32.70100 35.06600
H  44.58400 31.05700 34.49700
H  42.86700 31.69600 34.63600

