79

Mg 46.03300 34.82700 28.22000
C  44.43300 32.80600 30.58800
C  46.07200 37.41000 30.46800
C  47.29200 36.93300 25.78700
C  45.84100 32.22700 25.88100
N  45.40500 35.00700 30.33700
C  44.85000 34.03100 31.12900
C  44.89500 34.47200 32.63100
C  45.10800 36.01900 32.47100
C  45.58500 36.16300 31.01800
C  43.79400 36.84100 32.69600
C  46.16200 33.77200 33.33100
C  46.19800 33.61600 34.86000
H  45.28500 34.59200 35.64600
N  46.78100 36.85400 28.20600
C  46.62100 37.79200 29.20900
C  47.21000 39.05900 28.85700
C  47.58100 38.91600 27.45600
C  47.23900 37.53100 27.09800
C  47.33800 40.23200 29.78200
C  48.29200 39.89100 26.46300
O  48.63000 39.50200 25.35600
C  48.52000 41.35600 26.90000
N  46.43800 34.60400 26.18000
C  46.87600 35.63500 25.45500
C  47.05000 35.19200 23.94100
C  46.71400 33.65200 23.98900
C  46.34600 33.41900 25.44900
C  46.37900 36.06600 22.87000
C  47.80600 32.64800 23.47800
C  47.47800 31.71100 22.30700
N  45.27900 32.89300 28.16500
C  45.36400 31.94900 27.16900
C  44.77000 30.70600 27.61100
C  44.38600 30.93900 29.00900
C  44.69700 32.30600 29.26900
C  44.73000 29.36500 26.84400
C  43.90400 30.39900 30.25000
O  43.53000 29.24600 30.46200
C  43.54500 31.65500 31.18600
C  43.85100 31.25800 32.58900
O  44.83400 30.73100 33.01400
O  42.82000 31.68200 33.36900
C  42.86500 31.28300 34.80400
H  46.08900 38.21800 31.20200
H  47.48500 37.55500 24.91000
H  45.83300 31.44800 25.11600
H  44.00300 34.17500 33.18200
H  45.82300 36.38000 33.21000
H  43.10300 36.27300 33.31900
H  43.20000 37.09100 31.81700
H  43.78300 37.77000 33.26700
H  47.11800 34.08900 32.91300
H  46.13500 32.77900 32.88400
H  47.24300 33.84500 35.06600
H  46.02400 32.57700 35.14200
H  46.66900 41.04800 29.50900
H  48.41800 40.37700 29.76700
H  47.15000 39.85700 30.78800
H  48.86500 41.30200 27.93200
H  47.56600 41.88400 26.92700
H  49.17800 41.84100 26.17900
H  48.11600 35.31200 23.74700
H  45.77200 33.39800 23.50500
H  47.17200 36.44500 22.22500
H  45.85600 36.92200 23.29600
H  45.66400 35.52200 22.25200
H  48.28300 32.04100 24.24700
H  48.66900 33.22100 23.13900
H  48.20700 31.90400 21.52100
H  46.45300 31.86700 21.96900
H  47.48500 30.63900 22.50100
H  45.41100 29.27400 25.99800
H  43.74200 29.13400 26.44600
H  44.97500 28.63500 27.61500
H  42.49800 31.86800 30.96800
H  43.48800 30.40500 34.97300
H  41.89800 31.25600 35.30700
H  43.21200 32.07800 35.46500

