79

Mg 30.97800 58.30500 40.63100
C  28.18700 56.42700 39.39000
C  33.01800 55.75800 39.48500
C  33.48400 60.44600 40.61800
C  28.65000 60.88700 41.34300
N  30.63000 56.38500 39.34700
C  29.39200 55.81400 39.05600
C  29.74200 54.47100 38.50500
C  31.11900 54.04000 39.17900
C  31.62500 55.45600 39.42600
C  31.04400 53.06600 40.44000
C  29.81300 54.56400 36.94900
C  28.56800 54.17300 36.17800
H  28.21900 54.63900 34.76500
N  33.03000 58.13500 40.28600
C  33.64800 57.04700 39.71700
C  35.04400 57.31100 39.67500
C  35.26100 58.67500 39.94700
C  33.90100 59.17500 40.34100
C  36.00700 56.24100 39.18500
C  36.50700 59.42600 39.75700
O  37.53500 58.85900 39.48200
C  36.50300 60.92800 39.85700
N  31.06400 60.35800 40.87800
C  32.24700 60.97400 40.90200
C  32.11700 62.48400 41.21600
C  30.53800 62.71400 41.32800
C  30.03900 61.20300 41.26700
C  32.96000 63.06500 42.41900
C  29.97400 63.68400 40.16800
C  29.65100 65.11600 40.67400
N  28.83900 58.64300 40.40700
C  28.05500 59.68300 40.84000
C  26.61300 59.38500 40.65500
C  26.66700 58.10100 40.18900
C  28.01300 57.67600 39.96400
C  25.38300 60.27200 40.82700
C  25.78800 56.99900 39.84300
O  24.55500 56.78700 39.93200
C  26.72900 55.87600 39.17300
C  26.58100 54.62900 39.92700
O  26.73400 54.49900 41.14600
O  26.12600 53.54000 39.08200
C  25.67700 52.31200 39.80900
H  33.58300 54.83300 39.35400
H  34.23900 61.23400 40.57500
H  27.99100 61.70300 41.64700
H  29.04100 53.68800 38.79600
H  31.76600 53.59600 38.42200
H  31.03900 53.61400 41.38200
H  31.95300 52.46500 40.40500
H  30.20500 52.37100 40.39600
H  30.70500 54.02700 36.62600
H  29.93000 55.62200 36.71500
H  27.80200 54.47500 36.89300
H  28.59200 53.08900 36.06500
H  35.68000 55.31000 39.64700
H  37.06500 56.40500 39.39300
H  35.93300 56.01300 38.12100
H  36.31800 61.18100 40.90100
H  35.71400 61.26700 39.18600
H  37.48000 61.30100 39.55000
H  32.53500 62.97500 40.33700
H  30.33400 63.06400 42.34000
H  32.35200 63.79800 42.95000
H  33.78200 63.64800 42.00400
H  33.36400 62.28800 43.06800
H  29.00600 63.40700 39.75000
H  30.70400 63.59400 39.36500
H  28.56900 65.08300 40.80500
H  29.96400 65.82600 39.90900
H  30.15500 65.34500 41.61300
H  24.58600 59.60100 41.14900
H  25.03700 60.63500 39.85900
H  25.50100 61.13300 41.48600
H  26.41600 55.75900 38.13600
H  26.54500 51.65800 39.88200
H  24.95700 51.73200 39.23200
H  25.24800 52.46500 40.79900

