79

Mg 52.44100 22.70100 43.52100
C  49.66000 24.68100 42.68500
C  50.69000 19.89300 43.09200
C  55.39000 21.01500 43.15600
C  54.34400 25.82400 43.17800
N  50.53800 22.35400 42.66000
C  49.53600 23.27700 42.47000
C  48.20600 22.53400 42.11900
C  48.52800 21.14900 42.69100
C  49.97500 21.11900 42.89100
C  47.80400 20.76100 44.05900
C  47.85900 22.63500 40.58200
C  46.32800 22.28000 40.34600
H  46.03500 21.00900 39.47100
N  52.95300 20.67700 43.39500
C  52.05000 19.67200 43.18400
C  52.78300 18.43600 43.13000
C  54.16300 18.72300 43.20000
C  54.26000 20.19200 43.27100
C  52.06300 17.12300 42.89400
C  55.22800 17.62000 43.18700
O  54.92800 16.42600 43.21700
C  56.68700 17.90000 43.19900
N  54.44500 23.29500 43.07600
C  55.48800 22.38800 43.06200
C  56.83800 23.09000 42.87600
C  56.51200 24.65200 42.84900
C  55.01000 24.63000 42.97400
C  57.92800 22.73400 43.86400
C  57.00900 25.34100 41.53100
C  56.40700 24.76700 40.19100
N  52.07000 24.83200 43.19100
C  52.95300 25.98000 43.24800
C  52.05700 27.17600 43.37200
C  50.77700 26.65400 43.04500
C  50.85000 25.27800 42.95400
C  52.49800 28.63600 43.47100
C  49.38100 27.16200 42.88700
O  48.86800 28.28300 42.84700
C  48.63700 25.87200 42.45100
C  48.27800 26.06500 40.98000
O  49.07000 26.28400 40.09000
O  46.91400 26.12500 40.82600
C  46.33700 26.29000 39.47300
H  50.07300 18.99700 43.18100
H  56.34000 20.50900 42.97300
H  54.92000 26.75100 43.19800
H  47.41200 23.13000 42.56900
H  48.23500 20.33600 42.02700
H  47.15200 21.58800 44.34300
H  48.48300 20.64800 44.90400
H  47.22800 19.83600 44.05400
H  48.47500 21.88400 40.08800
H  47.99500 23.61900 40.13300
H  45.87300 23.07600 39.75600
H  45.71000 22.11100 41.22800
H  52.34900 16.65100 41.95400
H  50.98100 17.20100 42.78900
H  52.27700 16.52300 43.77800
H  57.34100 17.03000 43.25400
H  56.99100 18.60900 43.96900
H  56.85900 18.38300 42.23700
H  57.19200 22.84500 41.87500
H  56.97000 25.22200 43.65700
H  58.56000 23.59700 44.07400
H  58.61800 21.98200 43.48000
H  57.54200 22.37900 44.81900
H  58.08400 25.17300 41.47000
H  56.74500 26.38900 41.67400
H  55.85300 25.61900 39.79700
H  55.73600 23.92500 40.36400
H  57.19000 24.48200 39.48900
H  51.95600 29.33200 44.11100
H  52.56300 29.01700 42.45200
H  53.51800 28.72200 43.84300
H  47.68900 25.72700 42.96900
H  45.57400 25.51200 39.45100
H  46.98400 26.53500 38.63100
H  45.77800 27.22400 39.41200

