79

Mg 48.67000 45.81000 43.07000
C  45.22300 46.35200 42.12100
C  48.43200 42.82900 41.41800
C  51.88100 45.63900 43.38400
C  48.65200 49.21700 44.14800
N  46.98100 44.81700 41.87500
C  45.74000 45.23800 41.54700
C  45.00000 44.21000 40.57200
C  45.98700 42.98300 40.73000
C  47.23000 43.59900 41.37600
C  45.45800 41.77100 41.48800
C  44.80100 44.76200 39.16800
C  43.36800 44.51700 38.65500
H  43.22400 44.40700 37.13200
N  50.00800 44.43000 42.53700
C  49.70400 43.22100 41.90700
C  50.90400 42.38900 41.91900
C  51.92400 43.28700 42.44300
C  51.28900 44.51400 42.84300
C  51.09700 40.98200 41.48100
C  53.40900 42.84700 42.60300
O  53.81800 41.73100 42.25200
C  54.42400 43.65300 43.23200
N  50.08000 47.25800 43.68000
C  51.38100 46.90000 43.74100
C  52.23500 48.06800 44.37100
C  51.11500 49.14900 44.75700
C  49.90300 48.56000 44.06400
C  53.11700 47.50200 45.44800
C  51.40000 50.66500 44.58000
C  51.35400 51.49600 45.85500
N  47.24500 47.40100 43.26800
C  47.39900 48.70500 43.73000
C  46.13600 49.37600 43.66700
C  45.21400 48.42000 43.09200
C  45.99200 47.29000 42.82400
C  45.94400 50.74400 44.17700
C  43.81900 48.19400 42.71500
O  42.82200 48.92700 42.77600
C  43.90100 46.92300 41.88600
C  42.76400 46.05900 42.45300
O  41.71500 45.81100 41.83400
O  43.08300 45.57200 43.70000
C  42.11300 44.65200 44.33500
H  48.45600 41.90000 40.84300
H  52.95800 45.62500 43.56200
H  48.64700 50.18400 44.65500
H  44.04000 44.07200 41.07000
H  46.25900 42.67800 39.72000
H  44.88400 42.11700 42.34800
H  46.26600 41.05400 41.63700
H  44.85000 41.17800 40.80400
H  45.54000 44.56800 38.39000
H  44.94600 45.82000 39.39100
H  42.83800 45.38200 39.05300
H  42.87700 43.65900 39.11600
H  50.09600 40.55600 41.41100
H  51.57000 40.32900 42.21400
H  51.57500 40.88300 40.50600
H  54.25500 44.07700 44.22100
H  54.50800 44.53100 42.59200
H  55.39200 43.15100 43.23900
H  52.73500 48.38200 43.45500
H  50.87500 48.96100 45.80400
H  52.80200 48.03100 46.34800
H  54.11500 47.92000 45.31600
H  53.22900 46.43000 45.60800
H  50.84400 51.15600 43.78100
H  52.44400 50.67900 44.26600
H  51.39500 50.86900 46.74500
H  50.44500 52.08700 45.96300
H  52.20700 52.17300 45.80200
H  46.52300 50.86000 45.09300
H  44.90300 50.98600 44.39000
H  46.22100 51.50500 43.44600
H  43.73400 47.24300 40.85700
H  42.48500 44.25400 45.27900
H  41.96300 43.80800 43.66200
H  41.11700 45.08100 44.43900

