79

Mg 52.64600 24.22700 44.44000
C  49.77900 26.19300 43.90900
C  50.91200 21.46200 43.54800
C  55.47000 22.40400 44.54200
C  54.47200 27.15900 45.04000
N  50.57300 23.89600 43.73300
C  49.55600 24.81300 43.68700
C  48.29900 24.04200 43.46300
C  48.62600 22.55400 43.47700
C  50.14900 22.66400 43.53900
C  48.01500 21.68400 44.70200
C  47.48000 24.40900 42.16400
C  48.25900 24.32700 40.81300
H  47.60000 23.46300 39.70200
N  53.17200 22.19800 43.96500
C  52.29600 21.21200 43.76000
C  52.94300 19.95300 43.68000
C  54.36000 20.18300 43.93200
C  54.41800 21.65100 44.16300
C  52.32000 18.60700 43.36100
C  55.49400 19.16300 44.00700
O  55.20500 17.99000 43.81800
C  56.92800 19.47100 44.50500
N  54.72200 24.76500 44.48800
C  55.63200 23.74900 44.80400
C  56.99700 24.35800 45.12100
C  56.68200 25.93700 45.13200
C  55.17000 25.96700 44.82300
C  57.57900 23.73300 46.48700
C  57.51800 26.81000 44.11700
C  58.69400 27.64700 44.71300
N  52.26600 26.25800 44.56000
C  53.06500 27.33800 44.88700
C  52.24900 28.50800 45.09800
C  50.95100 28.12700 44.64900
C  51.00800 26.75900 44.31500
C  52.69400 29.92100 45.59100
C  49.57000 28.48000 44.51500
O  48.96400 29.55500 44.71800
C  48.77200 27.34800 43.88500
C  48.33000 27.83500 42.60100
O  48.95400 27.63300 41.51800
O  47.15600 28.51200 42.71400
C  46.61100 28.95600 41.43100
H  50.33600 20.57500 43.27800
H  56.35800 21.84600 44.84700
H  55.06700 28.04700 45.26400
H  47.71700 24.19400 44.37200
H  48.19900 22.06100 42.60300
H  47.92800 22.30100 45.59700
H  48.78000 20.92800 44.88100
H  47.07700 21.20100 44.43100
H  47.12100 25.43800 42.16700
H  46.62800 23.73200 42.23100
H  49.26000 23.91600 40.93800
H  48.34500 25.35500 40.46000
H  52.49700 18.24400 42.34800
H  51.24700 18.56200 43.54700
H  52.65600 17.73000 43.91400
H  57.52500 18.56200 44.43900
H  56.88100 19.67100 45.57500
H  57.45000 20.31500 44.05400
H  57.67400 24.09400 44.30800
H  56.87800 26.30800 46.13800
H  58.50100 23.19000 46.27800
H  56.83300 23.09700 46.96300
H  57.79100 24.58600 47.13100
H  56.87700 27.36900 43.43600
H  57.97800 26.03100 43.50800
H  59.59100 27.26200 44.22900
H  58.67900 27.57100 45.80000
H  58.70800 28.72200 44.53300
H  52.26000 30.57800 44.83700
H  53.76500 30.08800 45.47600
H  52.44800 30.07300 46.64200
H  47.96600 27.24100 44.61100
H  46.90100 30.00200 41.33200
H  45.53200 28.93700 41.58600
H  46.71400 28.27500 40.58700

