79

Mg -1.13800 17.28100 26.07400
C  -1.58200 15.02900 28.66600
C  -1.88800 19.84200 28.25000
C  -0.86500 19.32500 23.45800
C  -1.15400 14.58300 23.82400
N  -1.52500 17.40100 28.27100
C  -1.50900 16.37900 29.15100
C  -1.74400 16.93800 30.57900
C  -1.99000 18.42800 30.36100
C  -1.78400 18.59000 28.92000
C  -3.23300 19.22800 30.99900
C  -0.70100 16.38800 31.66900
C  -0.36600 17.27500 32.82000
H  -0.43100 16.61700 34.24700
N  -1.31600 19.34300 25.87500
C  -1.69500 20.16700 26.88000
C  -1.82900 21.51700 26.24400
C  -1.41000 21.43400 24.88700
C  -1.18300 19.98100 24.67300
C  -2.25800 22.82300 27.05600
C  -1.38600 22.50700 23.86300
O  -1.28600 22.30800 22.65500
C  -1.53800 23.90100 24.23900
N  -1.03800 16.97100 23.92600
C  -0.80800 18.01600 23.02600
C  -0.52100 17.48400 21.61400
C  -0.54300 15.93400 21.86400
C  -1.03400 15.83200 23.26400
C  -1.57500 17.97900 20.43600
C  0.91200 15.32800 21.62800
C  2.10000 15.69400 22.57700
N  -1.29900 15.19000 26.17000
C  -1.33400 14.24800 25.18800
C  -1.47100 12.94000 25.86000
C  -1.47700 13.19000 27.26800
C  -1.47700 14.61600 27.35800
C  -1.61800 11.65400 25.17900
C  -1.65900 12.51200 28.53200
O  -1.85200 11.38500 28.84500
C  -1.63800 13.70700 29.55200
C  -0.50100 13.49600 30.43300
O  0.64600 13.73000 30.18300
O  -1.02900 12.93400 31.59200
C  0.12000 12.79600 32.60900
H  -2.00700 20.62900 28.99700
H  -0.65400 19.92300 22.56900
H  -1.15200 13.69200 23.19300
H  -2.72000 16.53300 30.84500
H  -1.08200 18.97500 30.61500
H  -3.62900 18.60900 31.80400
H  -4.08200 19.51500 30.37900
H  -2.95300 20.19700 31.41200
H  0.14900 16.14200 31.03300
H  -1.20000 15.50300 32.06300
H  -1.04700 18.12000 32.91600
H  0.65500 17.65400 32.76700
H  -1.33900 23.25400 27.45200
H  -2.79800 22.50000 27.94700
H  -2.83200 23.55600 26.48900
H  -2.59300 24.01300 24.48900
H  -1.33900 24.64700 23.47000
H  -0.91300 24.11200 25.10700
H  0.46500 17.84200 21.31600
H  -1.23400 15.45000 21.17400
H  -2.21000 18.69500 20.95800
H  -2.33700 17.30800 20.03900
H  -1.06600 18.56600 19.67200
H  1.02100 15.48400 20.55500
H  0.73600 14.25200 21.63700
H  2.84000 16.15500 21.92200
H  2.54000 14.77700 22.97100
H  1.78200 16.48000 23.26100
H  -1.39500 11.83300 24.12700
H  -2.65500 11.32000 25.21200
H  -0.99100 10.88000 25.62100
H  -2.52400 13.77200 30.18400
H  0.61300 13.71600 32.92200
H  0.93900 12.11900 32.36400
H  -0.31700 12.30400 33.47800

