79

Mg 46.24400 17.06200 28.61300
C  44.35300 16.51100 31.47300
C  48.21800 19.27800 30.51200
C  47.65700 18.19400 25.79500
C  43.92400 15.19700 26.80100
N  46.37500 17.66700 30.73500
C  45.63000 17.16200 31.74100
C  46.12200 17.53200 33.14000
C  47.24300 18.59400 32.76700
C  47.35000 18.44900 31.23000
C  46.88500 20.05500 33.28100
C  46.60600 16.24900 33.86000
C  46.92300 16.26300 35.36100
H  46.86100 17.55300 36.10200
N  47.59400 18.63400 28.21100
C  48.31900 19.40200 29.13200
C  49.16300 20.33800 28.38200
C  49.00200 20.01400 27.03900
C  47.96200 18.91100 26.99500
C  50.00400 21.45000 29.02100
C  49.68200 20.66300 25.77000
O  49.35600 20.41600 24.62900
C  50.68800 21.73000 25.98800
N  45.89600 16.78700 26.57600
C  46.70200 17.19000 25.59400
C  46.26600 16.70300 24.21200
C  45.07000 15.73300 24.57700
C  44.93300 15.92500 26.10800
C  45.79700 17.82200 23.28400
C  45.35500 14.31600 24.02800
C  44.55700 13.69700 22.82700
N  44.49900 15.97000 28.97400
C  43.60000 15.33700 28.18700
C  42.36300 14.97800 28.90200
C  42.68900 15.40500 30.20100
C  43.95400 16.00400 30.20700
C  41.13900 14.47300 28.26600
C  42.13300 15.56500 31.57400
O  41.04000 15.26500 32.04000
C  43.34100 15.99000 32.38900
C  42.83300 17.05500 33.31700
O  42.15100 18.03200 32.96300
O  43.19400 16.85800 34.61200
C  42.67300 17.90600 35.52200
H  48.79700 19.97300 31.12300
H  48.15700 18.49000 24.87100
H  43.22800 14.59000 26.21900
H  45.45300 18.09900 33.78800
H  48.11500 18.31000 33.35600
H  45.90100 20.26300 33.70300
H  46.90400 20.64500 32.36500
H  47.54100 20.40100 34.08000
H  47.45400 15.86400 33.29400
H  45.74800 15.59200 33.71400
H  47.95800 15.96400 35.52900
H  46.37300 15.50700 35.92100
H  49.58700 21.67000 30.00300
H  49.96600 22.37600 28.44800
H  51.01700 21.07200 29.16500
H  51.47700 21.60500 26.72900
H  49.99800 22.52300 26.27500
H  51.04100 22.12500 25.03500
H  47.18000 16.26600 23.81000
H  44.13400 16.05700 24.12200
H  44.74500 17.66500 23.04700
H  46.42500 17.72400 22.39900
H  45.85900 18.79200 23.77900
H  45.26300 13.61500 24.85800
H  46.42000 14.22500 23.81600
H  44.01100 12.83600 23.21300
H  45.31700 13.32400 22.14100
H  43.88900 14.42500 22.36700
H  41.27300 13.39800 28.14400
H  40.92100 14.86900 27.27400
H  40.39700 14.64200 29.04700
H  43.56700 15.14900 33.04600
H  41.60000 18.09100 35.58700
H  43.15500 18.80500 35.13900
H  42.88400 17.84400 36.59000

