79

Mg -11.99100 15.40200 41.78400
C  -8.93400 13.88300 41.80000
C  -10.65100 18.28100 40.31200
C  -15.19500 16.57900 41.01000
C  -13.34900 12.44900 43.16800
N  -10.03100 15.92400 40.93300
C  -8.90500 15.18500 41.18700
C  -7.68100 15.92500 40.66600
C  -8.20300 17.44500 40.58100
C  -9.73000 17.22300 40.64400
C  -7.76300 18.23800 41.81800
C  -7.18900 15.36000 39.25000
C  -5.68300 15.47500 39.06600
H  -5.14200 16.32700 37.95500
N  -12.86200 17.25300 40.89100
C  -12.07100 18.30300 40.41500
C  -12.97000 19.42200 40.03100
C  -14.34500 18.86100 40.10600
C  -14.19200 17.51800 40.69300
C  -12.52800 20.85300 39.64800
C  -15.64900 19.49600 39.67800
O  -15.66300 20.69900 39.43900
C  -16.92500 18.63500 39.33400
N  -14.01300 14.43300 41.80200
C  -15.12300 15.24600 41.54500
C  -16.34500 14.39500 41.99100
C  -15.78600 13.22300 42.88400
C  -14.31100 13.35200 42.54500
C  -17.56400 15.06400 42.69000
C  -16.36600 11.82100 42.64600
C  -16.69100 11.02700 43.86800
N  -11.38500 13.46800 42.23200
C  -12.00900 12.44500 42.96600
C  -11.02800 11.43700 43.34900
C  -9.83000 11.88100 42.82100
C  -10.08800 13.12200 42.17300
C  -11.26200 10.23200 44.20700
C  -8.42700 11.68200 42.65400
O  -7.71700 10.74400 42.98600
C  -7.76700 12.92700 42.02800
C  -6.74700 13.52200 42.95400
O  -6.98700 14.20300 43.97700
O  -5.48100 13.28200 42.46700
C  -4.37600 13.91900 43.19600
H  -10.21100 19.18200 39.88000
H  -16.24200 16.88100 40.95300
H  -13.70700 11.50200 43.57700
H  -6.86500 15.99400 41.38400
H  -7.87300 17.94800 39.67200
H  -7.58200 17.57100 42.66100
H  -8.54200 18.94600 42.10100
H  -6.83000 18.75500 41.59500
H  -7.59600 15.90200 38.39700
H  -7.39900 14.29200 39.18800
H  -5.30300 14.47900 38.83700
H  -5.12800 15.79200 39.94900
H  -13.19000 21.61000 40.06800
H  -12.58200 20.87700 38.55900
H  -11.51900 21.08800 39.98900
H  -16.57600 17.64600 39.03600
H  -17.51000 19.16600 38.58400
H  -17.67000 18.63600 40.12900
H  -16.58000 13.82700 41.09000
H  -15.82600 13.47700 43.94300
H  -17.36500 16.12700 42.83100
H  -17.75600 14.58200 43.64900
H  -18.36700 14.93200 41.96500
H  -15.61700 11.17700 42.18500
H  -17.16300 11.85400 41.90200
H  -16.17700 10.06800 43.81500
H  -17.75900 10.82000 43.93500
H  -16.44300 11.54100 44.79700
H  -12.32800 10.01100 44.25900
H  -10.92700 10.40000 45.23100
H  -10.75100 9.36600 43.78600
H  -7.25400 12.63600 41.11100
H  -3.52100 13.86200 42.52300
H  -4.09400 13.42800 44.12700
H  -4.64000 14.94700 43.44500

