79

Mg 24.71200 -6.29700 46.10700
C  26.75600 -4.02000 44.28900
C  22.05900 -5.42500 44.00700
C  23.01300 -9.10300 47.06600
C  27.53000 -7.39400 47.67600
N  24.45400 -4.76900 44.38500
C  25.35900 -3.84600 43.95000
C  24.70700 -2.97600 42.81000
C  23.19900 -3.38200 42.99900
C  23.18700 -4.65400 43.78200
C  22.27500 -2.31900 43.62600
C  25.24900 -3.09900 41.36200
C  25.98900 -1.89500 40.70300
H  25.73000 -1.76000 39.16600
N  22.80000 -7.13500 45.58300
C  21.85800 -6.57800 44.75700
C  20.61600 -7.33200 44.81400
C  20.86500 -8.38400 45.82500
C  22.24300 -8.29300 46.18100
C  19.40900 -7.22100 43.95200
C  19.91200 -9.38600 46.24400
O  18.74500 -9.41200 45.82200
C  20.20900 -10.37400 47.36800
N  25.19500 -8.08400 47.11500
C  24.34000 -9.02600 47.51400
C  25.10700 -10.11300 48.35100
C  26.53600 -9.63400 48.24000
C  26.42200 -8.25100 47.67500
C  24.57400 -10.12200 49.81900
C  27.49900 -10.62300 47.39700
C  28.73200 -11.17500 48.13000
N  26.71700 -5.60000 46.24200
C  27.68100 -6.18700 47.01000
C  28.95800 -5.62200 46.56500
C  28.60700 -4.79400 45.52900
C  27.25400 -4.77900 45.36400
C  30.33600 -5.93400 47.04800
C  29.18700 -3.96900 44.45200
O  30.32400 -3.60900 44.20200
C  27.96800 -3.24600 43.75000
C  27.92900 -1.81000 44.16200
O  27.76300 -0.94400 43.34900
O  27.98700 -1.68800 45.50800
C  27.43900 -0.42600 46.09200
H  21.18900 -5.03300 43.47600
H  22.54200 -9.96500 47.54300
H  28.50800 -7.65000 48.08900
H  24.86500 -1.93000 43.07000
H  22.70200 -3.79200 42.12100
H  22.78000 -1.39100 43.89600
H  21.94600 -2.82700 44.53300
H  21.47100 -2.30200 42.89100
H  24.40800 -3.35000 40.71700
H  25.89400 -3.97400 41.44200
H  27.06400 -1.99000 40.85900
H  25.81800 -0.99100 41.28800
H  19.61800 -6.81400 42.96200
H  18.70700 -6.55100 44.44800
H  18.87900 -8.14800 43.73300
H  20.89100 -11.14200 47.00500
H  19.18400 -10.72000 47.50400
H  20.65400 -9.85200 48.21600
H  25.07900 -11.08300 47.85500
H  27.02500 -9.61300 49.21300
H  25.19000 -9.57000 50.52900
H  24.36900 -11.09700 50.26100
H  23.61800 -9.60200 49.76800
H  27.78200 -10.11500 46.47500
H  26.95900 -11.45800 46.95300
H  28.34600 -12.16800 48.35900
H  28.82400 -10.60900 49.05700
H  29.65200 -11.11900 47.55000
H  30.79500 -6.78400 46.54200
H  30.28800 -5.95100 48.13700
H  31.11200 -5.18300 46.90200
H  28.07300 -3.37600 42.67300
H  26.93000 -0.63900 47.03200
H  26.70200 0.05700 45.45000
H  28.23200 0.29400 46.29300

