79

Mg 47.28100 25.08500 28.47000
C  47.97500 27.53100 30.91400
C  46.49500 23.00500 31.08300
C  46.84600 22.69200 26.22300
C  48.75100 27.13700 26.17200
N  47.22200 25.19900 30.78200
C  47.43300 26.38400 31.51400
C  47.09500 26.15900 32.99500
C  46.62000 24.66000 33.03600
C  46.75600 24.24000 31.58400
C  47.38900 23.77900 33.97000
C  46.02800 27.15000 33.46900
C  46.44600 28.05500 34.65300
H  45.61500 28.34100 35.89200
N  46.70800 23.18500 28.58700
C  46.40800 22.45800 29.75200
C  45.95800 21.14000 29.46400
C  45.99300 21.03700 28.05100
C  46.55100 22.28400 27.57200
C  45.53500 20.19900 30.52400
C  45.74800 19.82000 27.23500
O  45.95400 19.72400 26.01100
C  45.37100 18.54500 27.89700
N  47.55000 24.98800 26.54500
C  47.40200 23.86700 25.79300
C  47.78400 24.00200 24.29800
C  48.23200 25.47800 24.28200
C  48.20300 25.90800 25.72500
C  48.64600 22.87300 23.68700
C  47.44900 26.40200 23.21300
C  48.06500 26.41000 21.78600
N  48.11600 26.91400 28.44000
C  48.72400 27.64200 27.46000
C  49.14500 28.91000 27.87900
C  48.87200 28.94200 29.24300
C  48.26100 27.65400 29.55000
C  49.81100 29.89900 26.92700
C  48.91200 29.72000 30.44000
O  49.28000 30.81200 30.64400
C  48.52400 28.74500 31.58100
C  49.72300 28.51500 32.42300
O  50.71600 27.96400 32.00200
O  49.55800 29.03600 33.75200
C  50.73900 28.73100 34.56800
H  46.28400 22.18000 31.76600
H  46.53300 22.01000 25.42900
H  49.30700 27.60900 25.35900
H  48.00600 26.34800 33.56300
H  45.55500 24.57500 33.25000
H  48.25400 23.26200 33.55500
H  46.79200 23.02800 34.48500
H  47.57700 24.38200 34.85900
H  45.09800 26.64000 33.71800
H  45.78000 27.83200 32.65700
H  46.81700 29.00900 34.27900
H  47.34300 27.62000 35.09400
H  46.19800 19.35400 30.71200
H  44.54500 19.79400 30.31700
H  45.34300 20.51600 31.54900
H  45.26200 17.77900 27.12900
H  44.41100 18.62200 28.40900
H  46.15200 18.22300 28.58600
H  46.90900 23.97100 23.64900
H  49.29100 25.50900 24.02300
H  49.60900 23.25400 23.34800
H  48.03400 22.38100 22.93100
H  48.86500 22.07100 24.39200
H  47.48400 27.40000 23.65000
H  46.41800 26.04700 23.21000
H  49.12200 26.16800 21.89900
H  47.98200 27.39500 21.32700
H  47.50000 25.70000 21.18200
H  49.22800 29.88000 26.00600
H  50.85300 29.67100 26.69900
H  49.75100 30.88300 27.39100
H  47.81300 29.22900 32.25200
H  51.68000 28.88100 34.03900
H  50.66700 27.67300 34.82200
H  50.62600 29.29900 35.49100

