79

Mg 42.40400 42.19100 26.93900
C  41.55000 44.54200 29.53600
C  43.59100 40.04500 29.53000
C  43.81000 40.27800 24.69200
C  41.58200 44.63000 24.65400
N  42.55900 42.28500 29.36500
C  42.03800 43.29000 30.12100
C  42.00800 42.86700 31.64700
C  42.82600 41.51700 31.55300
C  42.98200 41.21800 30.06700
C  44.30300 41.38900 32.14000
C  40.58100 42.78300 32.13900
C  40.20200 43.33500 33.52600
H  41.23300 43.58600 34.59900
N  43.43300 40.31900 27.03600
C  43.75700 39.59600 28.17800
C  44.36000 38.33500 27.83200
C  44.30200 38.30800 26.40700
C  43.83600 39.66800 25.98300
C  44.96500 37.40700 28.82300
C  44.62900 37.25600 25.45300
O  44.37500 37.36600 24.23100
C  44.95900 35.85000 26.01300
N  42.64500 42.34900 25.01700
C  43.25800 41.44700 24.24200
C  43.18700 41.82500 22.75800
C  42.36000 43.12300 22.73400
C  42.19500 43.42800 24.20900
C  44.60500 41.94400 22.12900
C  41.08400 43.09900 21.90300
C  39.80100 42.57300 22.52100
N  41.84400 44.21100 26.96700
C  41.48900 45.08300 25.96400
C  41.02000 46.33300 26.50800
C  41.00100 46.14200 27.92200
C  41.55800 44.89700 28.16900
C  40.55500 47.61800 25.67500
C  40.55600 46.78800 29.20000
O  39.95000 47.86300 29.39000
C  40.98400 45.72200 30.30900
C  42.00400 46.41000 31.13300
O  43.15900 46.69800 30.75300
O  41.52800 46.52000 32.40900
C  42.37100 47.26300 33.31800
H  43.74500 39.31600 30.32900
H  44.26100 39.67600 23.90100
H  41.21800 45.30100 23.87400
H  42.59100 43.61700 32.18200
H  42.28100 40.64000 31.90400
H  44.44600 42.11400 32.94100
H  45.10900 41.56700 31.43000
H  44.47800 40.37900 32.51100
H  40.24800 41.74700 32.20000
H  40.01800 43.24600 31.32800
H  39.46200 42.64200 33.92600
H  39.69200 44.28500 33.36500
H  45.22300 37.71900 29.83500
H  45.83200 37.03500 28.27600
H  44.23300 36.64600 29.09100
H  44.71500 35.20500 25.16900
H  44.33700 35.47300 26.82500
H  46.00400 35.75100 26.30600
H  42.66000 41.00100 22.27900
H  42.92000 44.00700 22.42900
H  44.60300 41.48900 21.13800
H  45.37500 41.44400 22.71500
H  44.87900 42.99100 21.99900
H  41.37500 42.43900 21.08600
H  40.89200 44.09100 21.49600
H  39.10500 42.32000 21.72000
H  39.27200 43.35100 23.07000
H  40.03200 41.74700 23.19300
H  39.63800 48.03100 26.09600
H  40.48600 47.37800 24.61400
H  41.39600 48.27900 25.88200
H  40.09400 45.57500 30.92000
H  41.70600 47.89300 33.90900
H  42.96000 48.08800 32.91600
H  42.95800 46.59700 33.94900

