79

Mg 46.74900 44.47500 42.28900
C  43.39100 43.42500 42.25100
C  47.79600 41.20600 41.87600
C  49.93100 45.66000 42.25000
C  45.52000 47.76000 42.34900
N  45.67000 42.59500 42.00000
C  44.31000 42.37100 42.04200
C  44.02800 40.86100 41.78300
C  45.40400 40.18700 41.98900
C  46.36500 41.38000 41.93000
C  45.45600 39.29100 43.26800
C  43.21400 40.54100 40.49300
C  43.63400 41.27000 39.24000
H  43.37600 40.65900 37.84400
N  48.62500 43.57500 42.07700
C  48.81700 42.19600 41.98400
C  50.22900 41.96200 41.95200
C  50.96500 43.18300 42.11700
C  49.88800 44.21500 42.15200
C  50.75700 40.51800 41.78300
C  52.48400 43.37900 42.04300
O  53.20000 42.41200 41.87900
C  52.99800 44.73900 42.32200
N  47.61500 46.43600 42.01200
C  48.92600 46.68700 42.19800
C  49.34300 48.16600 42.36300
C  47.88000 48.76800 42.17400
C  46.85600 47.57000 42.12800
C  50.07300 48.46500 43.74000
C  47.55500 49.81100 41.04100
C  48.17800 51.21000 41.35700
N  44.86900 45.50900 42.33800
C  44.46400 46.83800 42.44900
C  43.04200 47.00900 42.77800
C  42.61600 45.65500 42.61700
C  43.72100 44.82800 42.33200
C  42.31900 48.28400 43.15500
C  41.43600 44.87000 42.52900
O  40.26600 45.09800 42.81200
C  41.84200 43.39700 42.21300
C  41.17100 42.40200 43.11700
O  41.44700 42.22000 44.27100
O  40.20600 41.71200 42.28600
C  39.52300 40.59300 42.86600
H  47.97800 40.14800 41.67700
H  50.84500 46.21600 42.46600
H  45.13100 48.75700 42.56800
H  43.29900 40.58800 42.54600
H  45.72400 39.52000 41.18900
H  44.48000 38.98500 43.64400
H  46.01100 39.91500 43.96800
H  46.14700 38.45600 43.15400
H  42.19900 40.79500 40.79900
H  43.29500 39.46700 40.32200
H  44.71900 41.35500 39.29500
H  43.21200 42.26600 39.37600
H  50.79600 40.12600 40.76700
H  50.11500 39.88700 42.39800
H  51.76900 40.37500 42.16200
H  52.63400 45.45500 41.58600
H  54.08600 44.77500 42.27300
H  52.58900 45.11200 43.26100
H  49.96600 48.60000 41.58200
H  47.51900 49.31200 43.04700
H  50.37700 47.49100 44.12400
H  49.32600 48.82200 44.44800
H  50.93300 49.13300 43.69400
H  46.50800 50.04300 40.84700
H  48.13000 49.52200 40.16200
H  48.68600 51.25000 42.32100
H  47.50700 52.05200 41.18600
H  49.08100 51.31300 40.75700
H  42.46900 48.44600 44.22300
H  41.27500 48.14100 42.87500
H  42.85500 49.10100 42.67200
H  41.49300 43.11900 41.21900
H  40.21900 40.13100 43.56600
H  39.19800 39.79800 42.19500
H  38.63100 40.96900 43.36600

