79

Mg 36.22400 49.91500 24.61100
C  36.70700 48.32500 27.86000
C  34.81200 52.57700 26.38500
C  35.69100 51.16800 21.69900
C  37.74800 47.10400 23.18300
N  35.97700 50.42600 26.91400
C  36.20000 49.64100 28.00900
C  35.80700 50.34000 29.33000
C  35.14900 51.74300 28.77500
C  35.30000 51.62700 27.27300
C  33.73200 51.99500 29.26900
C  37.08500 50.53800 30.29400
C  36.79800 50.60600 31.79600
H  35.38000 50.35500 32.38900
N  35.46100 51.61600 24.08200
C  34.93300 52.61900 24.88500
C  34.32000 53.62700 24.05900
C  34.61200 53.23900 22.73100
C  35.29900 51.96800 22.77500
C  33.54900 54.80300 24.65400
C  34.41700 54.03300 21.43300
O  34.96200 53.77600 20.32800
C  33.55100 55.29400 21.40000
N  36.79300 49.22400 22.78000
C  36.40000 49.92600 21.73000
C  36.77900 49.23900 20.36400
C  37.70600 48.03200 20.86700
C  37.42300 48.09900 22.36500
C  35.56100 48.89000 19.49000
C  39.25200 48.23000 20.60100
C  40.08300 49.15800 21.48700
N  37.02000 48.12100 25.33300
C  37.52600 47.00100 24.59800
C  37.85500 45.98900 25.49200
C  37.55600 46.46100 26.71700
C  37.01400 47.75900 26.62700
C  38.54900 44.77300 25.13900
C  37.61800 46.03300 28.10100
O  37.98000 44.97000 28.62300
C  36.98600 47.17400 28.89100
C  35.84300 46.74000 29.68100
O  34.63800 47.04200 29.51100
O  36.28200 45.81500 30.59000
C  35.20300 45.42000 31.47400
H  34.34800 53.46800 26.81400
H  35.38600 51.46800 20.69500
H  38.11000 46.18100 22.72500
H  35.07900 49.68500 29.80800
H  35.69000 52.62200 29.12600
H  33.38000 51.20700 29.93600
H  32.99800 52.10200 28.47100
H  33.82800 52.89800 29.87100
H  37.62300 51.47600 30.15900
H  37.78400 49.71100 30.17600
H  37.21700 51.56300 32.11000
H  37.51700 49.88000 32.17500
H  32.63400 54.93500 24.07700
H  34.18400 55.68500 24.57100
H  33.29000 54.60300 25.69300
H  34.06300 55.92700 22.12500
H  32.60600 54.85800 21.72300
H  33.46000 55.71700 20.39900
H  37.35300 50.01100 19.85200
H  37.38400 47.07200 20.46600
H  34.71400 48.75200 20.16100
H  35.65500 47.97800 18.90000
H  35.41000 49.64900 18.72200
H  39.31700 48.57800 19.57000
H  39.65300 47.21600 20.61000
H  39.48500 49.80500 22.12800
H  40.78000 49.73000 20.87300
H  40.69000 48.54200 22.15100
H  39.47700 44.96000 24.59900
H  37.96100 44.27000 24.37100
H  38.75000 44.24700 26.07200
H  37.76500 47.51600 29.57100
H  34.48300 44.79000 30.95200
H  34.51800 46.18400 31.83900
H  35.61000 44.78100 32.25800

