79

Mg 17.39600 -1.13100 28.11300
C  16.20000 0.81100 30.80700
C  19.18000 -2.95200 30.38100
C  18.85900 -2.73900 25.57400
C  15.82800 1.06300 25.91300
N  17.61800 -0.98600 30.24700
C  17.02000 -0.25800 31.18400
C  17.52500 -0.50100 32.61600
C  18.60300 -1.54300 32.33700
C  18.44800 -1.85700 30.86300
C  20.10400 -1.31800 32.74000
C  16.43100 -0.98800 33.55500
C  16.72200 -0.52100 35.00600
H  18.09400 0.10400 35.39400
N  18.67500 -2.68600 28.00000
C  19.22500 -3.35000 29.01000
C  19.87700 -4.49100 28.53300
C  19.72100 -4.52100 27.09800
C  19.02100 -3.26600 26.83200
C  20.56400 -5.58500 29.51500
C  20.24100 -5.52500 26.08500
O  20.09500 -5.38200 24.88200
C  21.01300 -6.81600 26.61000
N  17.53100 -0.78300 26.02000
C  18.07600 -1.68100 25.17100
C  17.82800 -1.28100 23.71000
C  16.80300 -0.06400 23.82300
C  16.82300 0.18400 25.36400
C  19.10100 -1.03200 22.90700
C  15.43100 -0.24400 23.11300
C  14.13700 -0.79700 23.80400
N  16.18300 0.58700 28.27800
C  15.58200 1.31800 27.26700
C  14.83200 2.36500 27.89200
C  14.97100 2.22800 29.23600
C  15.86700 1.15200 29.45200
C  14.14800 3.49800 27.23400
C  14.58900 2.78200 30.54800
O  13.84900 3.73900 30.87000
C  15.55200 1.95600 31.62200
C  16.54900 2.80400 32.30500
O  17.73500 2.60100 32.15100
O  15.99600 3.71400 33.23800
C  16.97400 4.45600 34.06100
H  19.69800 -3.60200 31.08900
H  19.27000 -3.27900 24.71800
H  15.22300 1.58800 25.17100
H  17.99400 0.42100 32.95700
H  18.36800 -2.48400 32.83500
H  20.44600 -2.23200 33.22700
H  20.14400 -0.39500 33.31700
H  20.66400 -1.23700 31.80800
H  16.43700 -2.07700 33.49800
H  15.50000 -0.56000 33.18300
H  16.39900 -1.30100 35.69500
H  15.94300 0.23400 35.11700
H  20.02800 -5.68900 30.45800
H  21.63100 -5.38600 29.61800
H  20.40100 -6.55500 29.04600
H  21.39100 -7.26400 25.69100
H  20.22100 -7.44300 27.01900
H  21.86700 -6.61300 27.25700
H  17.31000 -2.06300 23.15500
H  17.29000 0.80600 23.38200
H  19.36800 0.02400 22.94100
H  18.92500 -1.44100 21.91200
H  19.97400 -1.52100 23.34100
H  15.46400 -0.85000 22.20800
H  15.22600 0.77400 22.78000
H  13.69300 -1.50000 23.10000
H  13.30400 -0.12200 24.00200
H  14.37300 -1.37300 24.69900
H  13.08400 3.27900 27.13500
H  14.60800 3.81600 26.29900
H  14.35400 4.27900 27.96600
H  14.85500 1.63800 32.39700
H  17.78100 4.95700 33.52600
H  17.48400 3.90800 34.85300
H  16.40500 5.21400 34.59900

