79

Mg 44.60300 4.23900 46.41000
C  42.68600 7.18400 46.00800
C  41.60800 2.52600 46.30600
C  46.37500 1.47600 45.99500
C  47.43200 6.18500 46.35900
N  42.46600 4.83300 45.95600
C  41.90000 6.04200 45.94500
C  40.37600 6.01700 45.57900
C  40.05100 4.55000 46.07100
C  41.47400 3.93200 46.11200
C  39.33800 4.51200 47.40500
C  40.06700 6.30000 44.05400
C  39.36000 7.60300 43.71100
H  39.90700 8.52900 42.63300
N  44.05500 2.27600 46.22600
C  42.79300 1.73300 46.28700
C  42.89900 0.32800 46.32600
C  44.28200 -0.01700 46.19000
C  44.98400 1.26400 46.20600
C  41.76100 -0.66600 46.40900
C  44.85300 -1.39200 46.17200
O  44.09800 -2.31800 46.12700
C  46.34700 -1.68500 46.18000
N  46.58000 3.84900 46.29400
C  47.10600 2.62200 46.04000
C  48.63300 2.63700 45.96100
C  48.95800 4.20800 46.05000
C  47.58200 4.77100 46.26800
C  49.44700 1.67700 46.97200
C  49.79200 4.80100 44.81800
C  51.19700 5.43800 45.06500
N  45.03400 6.25700 46.24300
C  46.21600 6.88100 46.31300
C  46.02800 8.29000 46.18900
C  44.63500 8.47200 46.14900
C  44.08200 7.21500 46.13200
C  47.04800 9.33000 46.19700
C  43.57300 9.45700 46.07400
O  43.58200 10.68200 46.05500
C  42.29300 8.61200 45.89900
C  41.37800 9.03600 46.93300
O  41.32900 8.70000 48.11500
O  40.56400 10.03500 46.36700
C  39.52200 10.59000 47.23800
H  40.61800 2.07900 46.42200
H  47.02600 0.60900 45.86900
H  48.32400 6.81300 46.31300
H  39.88600 6.71400 46.25900
H  39.50800 4.00200 45.30200
H  38.99200 5.50400 47.69600
H  39.80300 4.08200 48.29300
H  38.48500 3.85800 47.22600
H  39.44100 5.49400 43.67100
H  40.98400 6.17500 43.47800
H  39.41400 8.20200 44.62000
H  38.31600 7.38000 43.49000
H  40.78500 -0.26500 46.68300
H  41.98800 -1.42500 47.15800
H  41.52600 -1.13500 45.45300
H  46.63500 -1.42100 45.16200
H  46.37500 -2.77300 46.23400
H  46.85300 -1.17500 47.00000
H  48.82800 2.27600 44.95200
H  49.56900 4.37800 46.93600
H  48.86000 1.03200 47.62500
H  50.24800 2.16600 47.52700
H  49.96200 0.99600 46.29500
H  49.18700 5.59100 44.37500
H  49.90700 4.09500 43.99500
H  52.00600 4.74400 44.84000
H  51.30500 5.80600 46.08500
H  51.20300 6.37700 44.51100
H  48.06700 8.95000 46.27500
H  46.85400 9.93900 47.08100
H  46.97600 9.99600 45.33700
H  41.93200 8.93500 44.92300
H  39.23900 11.50900 46.72600
H  39.87300 10.72700 48.26100
H  38.64000 9.95000 47.22600

