79

Mg 16.68400 52.05200 26.26400
C  18.81000 50.35600 28.50400
C  14.38800 52.29200 28.68700
C  14.69600 53.57100 24.07700
C  19.03200 51.45700 23.76500
N  16.67300 51.41300 28.36600
C  17.67200 50.81900 29.16000
C  17.15700 50.56500 30.58200
C  15.63700 50.95900 30.51400
C  15.47300 51.54200 29.08900
C  14.61400 49.93400 31.02000
C  17.98700 51.17900 31.77500
C  17.95100 50.49000 33.11600
H  17.27600 51.32300 34.21000
N  14.79800 52.92900 26.38300
C  14.04000 52.94900 27.48400
C  12.89100 53.75400 27.17700
C  12.85800 54.06400 25.81400
C  14.17100 53.54700 25.39100
C  11.84800 54.15600 28.25900
C  11.84800 54.77100 24.99400
O  12.05400 54.94800 23.77700
C  10.46500 55.22300 25.50800
N  16.87500 52.34900 24.14100
C  15.89400 53.07800 23.49200
C  16.21100 53.13100 21.99400
C  17.68500 52.44500 21.92600
C  17.92500 52.11800 23.35700
C  15.23800 52.38700 21.07200
C  18.77900 53.34600 21.26700
C  19.17900 54.58300 21.95200
N  18.52100 51.04600 26.09700
C  19.34500 50.84400 24.99200
C  20.53400 50.10300 25.31400
C  20.34900 49.96500 26.72500
C  19.14400 50.50800 27.12600
C  21.66200 49.73700 24.44500
C  20.96800 49.34300 27.87100
O  21.98500 48.69800 27.98000
C  20.08800 49.81700 29.13900
C  19.74600 48.59700 29.96200
O  19.12100 47.62600 29.64700
O  20.34600 48.74300 31.17000
C  20.04000 47.74200 32.21800
H  13.75300 52.37100 29.57100
H  14.10200 54.17900 23.39200
H  19.86200 51.28600 23.07600
H  17.17400 49.48100 30.70300
H  15.42100 51.75800 31.22300
H  14.08100 50.27800 31.90700
H  15.21000 49.10300 31.39900
H  13.94300 49.44800 30.31100
H  17.54200 52.16100 31.93600
H  19.04200 51.23900 31.50800
H  18.93200 50.21100 33.50100
H  17.33900 49.58900 33.11800
H  12.26800 53.98500 29.25100
H  10.81500 53.80800 28.26800
H  11.83100 55.24600 28.27600
H  10.06600 54.35200 26.02800
H  9.83400 55.51100 24.66700
H  10.50800 56.00700 26.26400
H  16.16600 54.19000 21.74200
H  17.71400 51.49500 21.39100
H  14.54700 53.11700 20.65000
H  14.80400 51.64300 21.74000
H  15.77700 51.98400 20.21500
H  18.45100 53.61600 20.26300
H  19.69800 52.78000 21.11500
H  19.90700 54.43000 22.74900
H  18.45600 55.18800 22.49800
H  19.74800 55.17400 21.23500
H  21.40900 48.79600 23.95700
H  22.52400 49.53700 25.08100
H  21.83300 50.49000 23.67600
H  20.44300 50.62900 29.77300
H  20.66200 46.85000 32.15300
H  19.04100 47.30600 32.21000
H  20.09400 48.25200 33.18000

