79

Mg 34.76900 2.91000 29.92400
C  32.41700 3.71700 32.39100
C  37.26800 3.55300 32.24900
C  36.96700 2.24900 27.68600
C  32.35700 3.45100 27.52900
N  34.85600 3.61500 32.05300
C  33.73200 3.55000 32.87700
C  34.19200 3.59200 34.35300
C  35.71500 3.93900 34.25100
C  35.97600 3.67700 32.75600
C  36.29400 5.34900 34.76900
C  33.73400 2.33300 35.05400
C  33.39700 2.52900 36.54600
H  34.27900 3.37600 37.45900
N  36.86500 2.87300 29.98200
C  37.68800 3.15500 31.00800
C  39.07300 2.89900 30.63700
C  39.07500 2.35600 29.34900
C  37.59200 2.44600 28.94200
C  40.22600 3.07400 31.56600
C  40.16800 1.82600 28.49300
O  39.90700 1.36700 27.37100
C  41.61700 1.76800 28.92900
N  34.70000 2.88400 27.87500
C  35.69400 2.41200 27.14400
C  35.41900 2.56400 25.58100
C  33.91500 3.05800 25.63300
C  33.64700 3.10000 27.09700
C  36.37700 3.51600 24.75500
C  32.94700 2.01200 24.93500
C  31.81200 2.63400 24.12300
N  32.74200 3.28900 29.90700
C  31.88700 3.50500 28.83400
C  30.54100 3.80100 29.36100
C  30.72000 3.87900 30.73400
C  32.07700 3.64300 31.01500
C  29.26800 3.84800 28.47000
C  30.04700 4.01500 32.04000
O  28.85400 4.19600 32.28900
C  31.19900 3.99100 33.18900
C  31.19400 5.31600 33.82500
O  31.15300 6.42400 33.31700
O  31.31300 5.13300 35.17200
C  31.54700 6.31300 35.96000
H  37.99500 3.69200 33.05300
H  37.73500 2.00200 26.94900
H  31.65000 3.76500 26.75800
H  33.70300 4.46000 34.79500
H  36.29400 3.18500 34.78300
H  35.55800 6.06000 35.14500
H  36.75300 5.80700 33.89300
H  37.12600 5.09800 35.42800
H  34.50400 1.56700 34.95600
H  32.76500 2.03900 34.65000
H  33.39800 1.50700 36.92700
H  32.33700 2.78000 36.58700
H  41.12400 3.20900 30.96300
H  40.23700 2.25100 32.28100
H  39.97700 3.92000 32.20600
H  41.64100 1.30100 29.91300
H  42.14500 2.72100 28.97600
H  42.13500 1.21000 28.14900
H  35.50800 1.58600 25.10900
H  33.82500 4.09100 25.29700
H  35.82100 4.19300 24.10700
H  37.17500 3.00700 24.21400
H  36.92600 4.09800 25.49500
H  32.44900 1.46400 25.73400
H  33.45600 1.27100 24.31800
H  32.02700 2.38800 23.08300
H  31.92100 3.70900 23.97900
H  30.87300 2.28200 24.55100
H  29.49000 3.17200 27.64300
H  29.14700 4.91300 28.27500
H  28.48600 3.46500 29.12600
H  30.87500 3.21400 33.88100
H  30.81700 7.11600 35.86400
H  32.52200 6.73000 35.70700
H  31.79100 6.15400 37.01000

