79

Mg 45.76700 4.44900 47.89500
C  43.35000 6.88100 47.30500
C  43.21100 2.10600 47.81000
C  48.11000 2.04800 47.84200
C  48.14400 6.94000 47.69800
N  43.57600 4.41800 47.49100
C  42.79600 5.60200 47.40000
C  41.38100 5.25500 47.14600
C  41.27800 3.82900 47.81300
C  42.75400 3.40500 47.73600
C  40.76900 3.93900 49.23000
C  41.05900 5.34700 45.60200
C  39.90300 6.37500 45.18900
H  40.18900 7.51600 44.17100
N  45.67900 2.34400 47.79800
C  44.51600 1.59200 47.68600
C  44.89800 0.22700 47.61700
C  46.33200 0.11500 47.53000
C  46.78900 1.51800 47.78300
C  43.82900 -0.93000 47.55700
C  47.09900 -1.17600 47.19300
O  46.57500 -2.28400 47.15600
C  48.60300 -1.18600 47.03500
N  47.75800 4.50000 47.87000
C  48.57700 3.32600 47.91000
C  50.06000 3.70400 47.82200
C  49.98000 5.24200 47.89700
C  48.53900 5.62600 47.82700
C  50.91700 2.97700 48.85600
C  50.94800 5.90100 46.80200
C  52.19200 6.73300 47.30200
N  45.80100 6.58600 47.62700
C  46.86100 7.41800 47.59200
C  46.29900 8.74700 47.36600
C  44.93600 8.61900 47.28200
C  44.70300 7.25000 47.43000
C  47.05900 10.00400 47.11400
C  43.69600 9.31600 47.18400
O  43.56600 10.54100 47.07500
C  42.62600 8.25100 47.13500
C  41.65400 8.58600 48.20600
O  41.53600 7.96700 49.28200
O  40.79500 9.62700 47.88000
C  39.71800 9.94900 48.80400
H  42.42900 1.34500 47.75300
H  48.98600 1.39900 47.78000
H  48.93400 7.69400 47.65000
H  40.81100 5.95200 47.76000
H  40.56600 3.25100 47.22200
H  41.09800 3.03800 49.74800
H  39.68200 4.01300 49.25600
H  41.16400 4.83200 49.71300
H  40.70900 4.36200 45.29400
H  41.96400 5.66700 45.08500
H  39.48600 6.78800 46.10800
H  39.09400 5.77100 44.77700
H  42.96700 -0.75900 46.91200
H  43.42900 -1.02700 48.56600
H  44.18800 -1.93100 47.31900
H  49.06500 -2.09400 46.64800
H  49.12200 -0.84400 47.93100
H  48.75700 -0.42400 46.27100
H  50.25700 3.18800 46.88200
H  50.32500 5.64500 48.84900
H  51.63500 3.70900 49.22400
H  51.41100 2.17200 48.31100
H  50.34200 2.55400 49.67900
H  50.40500 6.55600 46.12000
H  51.40900 5.11300 46.20800
H  52.21700 7.59800 46.64000
H  53.11600 6.19200 47.09500
H  52.14100 7.03000 48.34900
H  46.50000 10.87000 46.76000
H  47.78900 9.72200 46.35500
H  47.67600 10.30000 47.96300
H  42.04800 8.34700 46.21600
H  39.88800 10.79900 49.46400
H  39.42300 9.09300 49.41000
H  38.82600 10.12900 48.20400

