79

Mg 0.28300 43.70600 26.06900
C  2.35500 43.66300 28.97000
C  -2.40600 42.82100 28.01900
C  -1.38200 42.81000 23.38000
C  3.22500 44.16000 24.18100
N  0.04700 43.14600 28.27600
C  0.93000 43.43000 29.25800
C  0.20000 43.41900 30.60400
C  -1.21000 42.90900 30.30900
C  -1.21300 42.96200 28.76100
C  -1.52200 41.46600 30.80700
C  0.27100 44.82600 31.29800
C  1.01600 44.87000 32.67900
H  0.87300 43.72400 33.67900
N  -1.71600 43.27800 25.70200
C  -2.67700 42.86700 26.60400
C  -3.95400 42.63500 25.94500
C  -3.57300 42.57700 24.54100
C  -2.16300 42.86700 24.54200
C  -5.29500 42.54500 26.73700
C  -4.46300 42.14000 23.34100
O  -4.01200 42.11100 22.19100
C  -5.97800 41.82700 23.62400
N  0.82200 43.63600 23.98400
C  -0.10300 43.25800 23.16600
C  0.52000 43.07200 21.81200
C  1.95500 43.77600 21.93400
C  2.04500 43.87700 23.41200
C  0.63300 41.53600 21.36600
C  1.97300 45.16800 21.24700
C  1.67300 46.47700 22.03000
N  2.41300 43.88300 26.43400
C  3.43100 44.06000 25.57100
C  4.64300 44.37000 26.35400
C  4.25600 44.13800 27.66400
C  2.90100 43.86700 27.67400
C  5.91600 44.97100 25.84700
C  4.76700 44.10300 29.01700
O  5.89200 44.31800 29.46500
C  3.49500 44.03400 29.99800
C  3.77600 42.89400 30.89400
O  3.55400 41.68600 30.64600
O  4.42800 43.27900 32.08700
C  4.84200 42.14700 33.03200
H  -3.33300 42.53200 28.51800
H  -1.83900 42.41700 22.46900
H  4.17700 44.22400 23.65000
H  0.58000 42.72000 31.34900
H  -2.02400 43.55300 30.64200
H  -2.33500 41.44300 31.53200
H  -0.62100 41.04900 31.25700
H  -1.97700 40.92100 29.98000
H  -0.67800 45.32700 31.48900
H  0.83000 45.45800 30.60700
H  0.78300 45.75400 33.27100
H  2.08500 44.92700 32.47500
H  -6.15400 42.94000 26.19400
H  -5.15400 42.84400 27.77600
H  -5.41300 41.46900 26.86200
H  -6.13300 41.10300 24.42400
H  -6.43000 41.53100 22.67700
H  -6.47400 42.73400 23.96700
H  -0.15200 43.52300 21.08200
H  2.71300 43.08200 21.57200
H  0.23800 40.87100 22.13400
H  1.67400 41.26400 21.19000
H  0.15700 41.25300 20.42800
H  1.23800 45.21600 20.44300
H  3.00400 45.22800 20.90000
H  1.02000 46.39100 22.89900
H  1.32100 47.14900 21.24800
H  2.53000 46.96900 22.49100
H  6.51300 45.51700 26.57700
H  5.71800 45.64900 25.01700
H  6.50300 44.16500 25.40600
H  3.36900 44.92900 30.60800
H  5.92600 42.13000 33.14400
H  4.48400 41.16900 32.70800
H  4.40600 42.39800 33.99900

