79

Mg -2.07800 16.93300 27.41200
C  -2.31700 14.95000 30.37000
C  -2.34800 19.74400 29.31200
C  -1.78000 18.72100 24.60500
C  -1.41200 14.06200 25.65500
N  -2.41300 17.30700 29.61300
C  -2.30700 16.36100 30.56100
C  -2.47400 17.05000 31.94100
C  -2.45900 18.54700 31.62800
C  -2.31900 18.55100 30.11500
C  -3.62100 19.40000 32.25000
C  -1.45500 16.61600 33.00400
C  -1.08600 17.53800 34.16300
H  -0.67700 16.98800 35.49000
N  -2.23000 18.87900 26.95400
C  -2.30400 19.88600 27.88300
C  -2.24300 21.20400 27.23800
C  -2.10900 20.87100 25.83400
C  -2.05500 19.44800 25.72000
C  -2.22700 22.48500 27.97200
C  -2.05400 21.82300 24.58500
O  -2.14800 21.51200 23.34600
C  -1.76100 23.33400 24.89200
N  -1.66100 16.48800 25.41600
C  -1.62800 17.40900 24.40500
C  -1.35300 16.73300 23.06800
C  -0.95500 15.27300 23.49800
C  -1.38500 15.22900 24.93100
C  -2.65000 16.76900 22.13700
C  0.55200 14.85400 23.23100
C  1.62500 15.86600 23.62300
N  -1.99800 14.90800 27.88000
C  -1.75700 13.84500 27.01400
C  -1.82000 12.60400 27.74500
C  -2.02300 12.97300 29.08500
C  -2.09900 14.39500 29.08700
C  -1.96000 11.23700 27.17600
C  -2.35500 12.48400 30.40400
O  -2.46800 11.28400 30.72100
C  -2.28600 13.75400 31.30900
C  -0.92600 13.59700 31.98200
O  0.17300 13.74000 31.53500
O  -1.28800 13.20000 33.22600
C  -0.29200 13.50900 34.22800
H  -2.30700 20.62500 29.95700
H  -1.68600 19.30000 23.68400
H  -1.21900 13.10600 25.16500
H  -3.44600 16.74200 32.32500
H  -1.51600 18.96700 31.97700
H  -4.38000 18.67100 32.53300
H  -4.15400 19.95500 31.47800
H  -3.37500 20.08300 33.06300
H  -0.48900 16.30500 32.60800
H  -1.98200 15.81700 33.52600
H  -2.01800 18.08800 34.29700
H  -0.25100 18.18900 33.90400
H  -2.08400 22.46800 29.05200
H  -3.14300 23.04400 27.78200
H  -1.42500 23.12800 27.60800
H  -2.02500 23.97900 24.05400
H  -0.67300 23.30100 24.94800
H  -2.21400 23.76900 25.78200
H  -0.46400 17.14800 22.59200
H  -1.53400 14.50700 22.98200
H  -3.35400 17.36400 22.71900
H  -3.04500 15.77800 21.91100
H  -2.50100 17.32800 21.21400
H  0.69400 14.50900 22.20700
H  0.56900 13.92500 23.80100
H  2.13800 16.12000 22.69600
H  2.27500 15.41300 24.37200
H  1.21200 16.79000 24.02700
H  -3.03000 11.02900 27.16300
H  -1.48900 10.55600 27.88400
H  -1.47400 11.17000 26.20300
H  -3.05800 13.80400 32.07700
H  0.29500 14.36900 33.90700
H  0.41300 12.72300 34.49900
H  -0.85300 13.79700 35.11700

