79

Mg 6.19200 53.20000 41.86000
C  5.43100 49.82600 41.28100
C  9.32800 52.60100 40.83200
C  6.44900 56.45500 41.64000
C  2.66500 53.54000 42.58900
N  7.23000 51.44600 41.12100
C  6.74900 50.22100 40.93600
C  7.87800 49.28200 40.56600
C  9.17900 50.05800 40.81700
C  8.53700 51.48500 41.02300
C  10.07500 49.44600 41.90800
C  7.80300 48.68600 39.15300
C  6.80400 49.35900 38.08700
H  6.14200 48.50200 37.03000
N  7.70300 54.38200 41.28800
C  8.97100 53.96200 40.92500
C  9.82700 55.03500 40.56800
C  9.02700 56.22100 40.93700
C  7.65500 55.72600 41.29400
C  11.28000 54.91600 40.14400
C  9.55700 57.61100 40.79900
O  10.71700 57.81100 40.45600
C  8.61100 58.76400 41.05800
N  4.73100 54.77400 42.20300
C  5.12400 56.05300 42.00200
C  3.97500 57.06600 42.16400
C  2.70900 56.06800 42.32400
C  3.42900 54.72100 42.51700
C  4.29800 58.03300 43.41800
C  1.79700 56.09700 41.08800
C  0.28900 55.94800 41.33100
N  4.39200 51.98700 42.07700
C  3.06400 52.22100 42.30200
C  2.23200 51.05200 42.36000
C  3.20300 50.00200 42.09000
C  4.44900 50.67000 41.78200
C  0.79100 50.98400 42.72300
C  3.47900 48.58800 41.92200
O  2.84700 47.55700 42.14100
C  4.94900 48.40200 41.47100
C  4.85300 47.56300 40.24000
O  4.14600 47.78000 39.29200
O  5.47500 46.38100 40.43400
C  5.31600 45.23900 39.59400
H  10.33800 52.45100 40.44600
H  6.52800 57.53100 41.47100
H  1.60400 53.75500 42.73300
H  7.86200 48.43000 41.24600
H  9.74900 50.19000 39.89700
H  9.88900 49.96300 42.85000
H  11.09900 49.53600 41.54800
H  9.81500 48.39500 42.03600
H  7.51500 47.63600 39.20900
H  8.70700 48.88700 38.57900
H  7.43800 50.00700 37.48300
H  5.98200 49.90800 38.54500
H  11.65900 53.94800 39.81700
H  11.82600 55.16400 41.05400
H  11.45000 55.66400 39.36900
H  9.20700 59.67000 40.94900
H  8.24500 58.82700 42.08300
H  7.83000 58.60000 40.31700
H  3.86700 57.67600 41.26700
H  2.15400 56.33900 43.22200
H  3.50200 57.93400 44.15500
H  4.24800 59.03000 42.98000
H  5.25500 57.85500 43.90800
H  2.00200 55.30700 40.36600
H  1.79300 57.05800 40.57300
H  -0.30800 56.50200 40.60700
H  0.12300 56.25000 42.36500
H  -0.10300 54.93300 41.26900
H  0.47500 49.99200 43.04500
H  0.26000 51.19000 41.79300
H  0.52600 51.81000 43.38200
H  5.44800 47.81100 42.23900
H  6.00900 45.38000 38.76500
H  4.32100 45.17900 39.15200
H  5.39700 44.27200 40.09100

