79

Mg 46.97400 34.17000 27.40700
C  45.29700 32.88100 30.11400
C  47.70500 36.80200 29.21200
C  48.26000 35.60600 24.61800
C  45.98300 31.39700 25.52800
N  46.76600 34.51900 29.64700
C  46.00400 33.97500 30.53100
C  45.96200 34.72500 31.81900
C  46.57700 36.08200 31.44600
C  47.13600 35.83400 30.02900
C  45.70200 37.27700 31.70600
C  46.69100 33.91900 32.98300
C  46.18800 34.01700 34.38100
H  45.78500 35.38800 34.92700
N  47.76400 36.04800 26.92000
C  47.98100 37.00400 27.85700
C  48.73900 38.06600 27.29000
C  48.91600 37.83300 25.90200
C  48.30600 36.45200 25.74500
C  49.19000 39.25300 28.05000
C  49.55400 38.65600 24.72700
O  49.84800 38.07700 23.67900
C  49.86400 40.19500 24.92100
N  47.16500 33.53500 25.45700
C  47.78400 34.30300 24.49400
C  47.78900 33.57900 23.14900
C  47.32900 32.16700 23.55200
C  46.73000 32.38300 24.93000
C  46.78900 34.07300 21.92700
C  48.48600 31.03600 23.50100
C  49.07800 30.80900 22.12200
N  46.00400 32.43800 27.71000
C  45.62300 31.42300 26.88000
C  44.78100 30.46900 27.61400
C  44.62500 31.02200 28.79500
C  45.34100 32.21300 28.85200
C  44.22600 29.26400 27.08500
C  43.98200 30.82600 30.15100
O  43.35000 29.89600 30.56000
C  44.17000 32.13000 30.91500
C  44.42600 31.79300 32.40900
O  45.30900 31.07000 32.78700
O  43.34800 32.27700 33.12300
C  43.04600 31.71000 34.48600
H  47.91000 37.75600 29.70300
H  48.72600 36.01800 23.72100
H  45.61200 30.51700 24.99900
H  44.91800 34.90200 32.07900
H  47.38500 36.33200 32.13400
H  44.82300 37.05300 32.31100
H  45.39900 37.75200 30.77300
H  46.18700 37.95800 32.40500
H  47.66700 34.40000 33.05700
H  46.87000 32.88700 32.68000
H  46.95400 33.61700 35.04500
H  45.34300 33.33800 34.48900
H  50.27700 39.28100 28.12100
H  48.71700 39.35600 29.02600
H  48.93000 40.07300 27.38000
H  48.92500 40.74900 24.92200
H  50.48300 40.51700 24.08400
H  50.46800 40.40300 25.80400
H  48.82500 33.53800 22.81300
H  46.51100 31.75200 22.96300
H  45.88300 33.49300 21.75200
H  47.21200 34.03100 20.92400
H  46.64000 35.14600 21.81000
H  48.05100 30.18000 24.01600
H  49.24500 31.26800 24.24900
H  50.15500 30.68500 22.24100
H  49.07800 31.60700 21.38000
H  48.61700 29.90500 21.72200
H  44.37200 28.45800 27.80400
H  44.74700 28.86100 26.21700
H  43.21500 29.52700 26.77700
H  43.24200 32.68900 30.78900
H  43.91500 31.36400 35.04500
H  42.45500 30.81700 34.28100
H  42.45400 32.35100 35.13800

