79

Mg 16.83700 51.45200 26.50300
C  19.14100 49.97600 28.74300
C  14.79700 52.19800 29.13500
C  14.88700 52.96300 24.34100
C  19.16600 50.91300 23.94200
N  16.99300 51.08500 28.59300
C  18.06200 50.63000 29.33000
C  17.78100 50.73000 30.82800
C  16.21200 51.00500 30.84600
C  15.94700 51.47800 29.44800
C  15.23700 49.75600 31.20700
C  18.67800 51.74400 31.56300
C  18.72300 51.64300 33.10100
H  17.60600 50.88100 33.80400
N  15.04000 52.41500 26.68100
C  14.27100 52.52200 27.82800
C  13.06600 53.15800 27.47000
C  13.07800 53.47800 26.04700
C  14.37300 52.91700 25.63300
C  12.00500 53.49700 28.46000
C  12.08300 54.20000 25.18100
O  12.20200 54.46200 24.04200
C  10.70300 54.43700 25.73100
N  16.86800 51.62300 24.36700
C  16.03500 52.49500 23.74800
C  16.25400 52.60000 22.30900
C  17.76000 52.19100 22.17300
C  17.96800 51.51200 23.54800
C  15.29900 51.70400 21.39800
C  18.68200 53.40700 21.92900
C  19.12200 53.72900 20.56400
N  18.67300 50.42100 26.26000
C  19.51000 50.34500 25.15300
C  20.72600 49.67700 25.54600
C  20.55700 49.47100 26.95000
C  19.37000 50.03100 27.33900
C  21.89500 49.44200 24.63700
C  21.30200 48.96300 28.10800
O  22.37600 48.39600 28.15600
C  20.34200 49.29000 29.35800
C  20.05700 48.10200 30.16100
O  19.49800 47.13400 29.66900
O  20.39100 48.21800 31.44400
C  20.12800 47.15000 32.39400
H  14.11500 52.46000 29.94600
H  14.18400 53.55100 23.74700
H  19.89300 50.78100 23.13800
H  18.06800 49.78500 31.28900
H  16.03200 51.80600 31.56400
H  14.56100 49.67800 30.35600
H  14.59000 49.83600 32.08000
H  15.74800 48.79800 31.30600
H  18.19400 52.71200 31.43100
H  19.65800 51.66700 31.09100
H  18.79100 52.64600 33.52400
H  19.64900 51.10200 33.29400
H  11.13000 52.85400 28.36200
H  11.65400 54.51000 28.26100
H  12.29500 53.43100 29.50900
H  10.33000 53.53700 26.22000
H  9.89500 54.60400 25.01900
H  10.62300 55.23800 26.46600
H  16.12000 53.65600 22.07500
H  17.95400 51.46400 21.38500
H  14.48700 51.25800 21.97200
H  15.92700 51.03800 20.80500
H  14.86100 52.42200 20.70500
H  19.63700 53.33600 22.44800
H  18.26800 54.30500 22.38800
H  19.15500 54.81700 20.49800
H  18.40000 53.33100 19.85100
H  20.10800 53.28300 20.44000
H  22.03000 50.31500 23.99900
H  21.78700 48.52900 24.05100
H  22.79400 49.28400 25.23100
H  20.86600 50.02800 29.96600
H  21.06200 46.82700 32.85400
H  19.47800 46.41200 31.92400
H  19.55400 47.49000 33.25600

