79

Mg 9.21000 49.00700 25.62700
C  6.83300 49.39000 28.15100
C  11.54500 50.60300 27.63800
C  11.34300 48.54600 23.26100
C  6.49500 48.60500 23.33400
N  9.22000 49.60400 27.74400
C  8.18600 49.54200 28.60700
C  8.66700 49.75900 30.02800
C  10.07000 50.40600 29.81800
C  10.36100 50.18400 28.26800
C  10.13800 51.92400 30.15200
C  8.57700 48.43300 30.82200
C  9.45300 48.26400 32.15900
H  8.92800 47.51200 33.38000
N  11.22400 49.53300 25.45300
C  12.04500 50.17500 26.34700
C  13.39700 50.09500 25.91200
C  13.37300 49.44100 24.57500
C  11.94400 49.17200 24.37000
C  14.63500 50.39900 26.80800
C  14.49400 49.03200 23.72100
O  14.41800 48.40600 22.63800
C  15.85100 49.18800 24.36400
N  8.94500 48.83300 23.53800
C  10.05500 48.49700 22.82700
C  9.70400 47.91900 21.45300
C  8.21500 48.21000 21.39900
C  7.80800 48.60000 22.82900
C  10.55400 48.46500 20.27100
C  7.35300 46.99200 20.86700
C  6.07700 47.24400 19.93500
N  7.08300 48.80500 25.71300
C  6.12800 48.76500 24.65400
C  4.80500 48.89100 25.17500
C  5.02600 49.07500 26.59000
C  6.47500 49.07400 26.82000
C  3.51100 48.98200 24.48200
C  4.33800 49.32500 27.81600
O  3.13600 49.36900 28.05700
C  5.44300 49.60800 28.91700
C  5.30100 48.63400 30.04000
O  5.60900 47.47000 29.96200
O  4.94900 49.27100 31.19000
C  4.84100 48.47200 32.43500
H  12.30300 50.94800 28.34400
H  12.08800 48.20200 22.53900
H  5.76300 48.51100 22.52900
H  7.93800 50.49000 30.37900
H  10.87400 49.92300 30.37400
H  9.41000 52.15200 30.93100
H  9.97200 52.41000 29.19100
H  11.08300 52.31000 30.53700
H  8.52500 47.62300 30.09500
H  7.63200 48.50100 31.36100
H  9.82700 49.25800 32.40500
H  10.35000 47.72500 31.85500
H  14.31600 50.82900 27.75700
H  15.32700 51.15500 26.43700
H  15.22800 49.53200 27.09900
H  15.98000 48.36600 25.06800
H  15.93000 50.22000 24.70400
H  16.61000 49.17500 23.58100
H  9.88900 46.85100 21.56700
H  8.14500 49.02700 20.68100
H  9.98300 49.09700 19.59100
H  10.77800 47.60100 19.64500
H  11.36500 49.10400 20.62200
H  6.92600 46.45300 21.71300
H  8.03600 46.29700 20.37900
H  5.92700 46.31800 19.37900
H  6.30700 48.07900 19.27300
H  5.24900 47.51800 20.59000
H  3.47100 48.03800 23.93800
H  3.54700 49.90500 23.90300
H  2.80000 48.94500 25.30800
H  5.29900 50.65300 29.19100
H  4.40600 47.49800 32.21200
H  4.31600 49.08400 33.16900
H  5.86500 48.44400 32.80700

