79

Mg 36.28600 49.50100 24.08900
C  36.23000 48.06300 27.23400
C  34.99500 52.52600 25.41900
C  36.26100 50.92600 21.03500
C  37.45600 46.51300 22.82200
N  35.69000 50.10400 26.01900
C  35.86900 49.41800 27.19800
C  35.55300 50.37300 28.46800
C  35.01400 51.63900 27.81000
C  35.14900 51.38300 26.29800
C  33.60300 51.99300 28.36500
C  36.81400 50.42900 29.39400
C  36.62400 50.26800 30.89700
H  35.17900 50.10300 31.34600
N  35.76800 51.55100 23.30700
C  35.22300 52.57800 24.03100
C  34.96000 53.68300 23.10000
C  35.39600 53.23500 21.80700
C  35.80800 51.82400 22.00200
C  34.53800 55.04300 23.56700
C  35.51000 54.03600 20.55500
O  35.92100 53.56000 19.48200
C  35.20200 55.52300 20.44400
N  36.84200 48.84400 22.22800
C  36.68000 49.57400 21.10300
C  36.86700 48.72500 19.82500
C  37.23100 47.33900 20.44800
C  37.12000 47.56800 21.93100
C  35.51900 48.66900 18.93600
C  38.69000 46.99700 20.00200
C  39.77000 47.80800 20.69100
N  36.78900 47.59000 24.83700
C  37.26200 46.48200 24.24200
C  37.45500 45.32700 25.18900
C  37.04100 45.94100 26.41100
C  36.67400 47.28500 26.16200
C  37.72600 43.91200 25.02800
C  36.80400 45.73200 27.79700
O  36.85900 44.78400 28.49300
C  36.31200 47.09200 28.44100
C  35.02100 46.84200 29.15800
O  33.85300 46.91200 28.70200
O  35.26100 46.41500 30.42500
C  34.04300 45.90600 31.07500
H  34.59900 53.37400 25.98100
H  36.15100 51.32000 20.02200
H  37.70200 45.57700 22.31400
H  34.82200 49.77600 29.01400
H  35.77700 52.36700 28.08800
H  32.93000 52.09200 27.51300
H  33.55100 52.99600 28.78800
H  33.21900 51.25300 29.06600
H  37.27000 51.38100 29.12000
H  37.53500 49.70200 29.01900
H  36.93600 51.20800 31.35100
H  37.24800 49.45300 31.26500
H  34.07500 55.63600 22.77900
H  35.35900 55.65300 23.94400
H  33.87500 55.07100 24.43200
H  34.11600 55.61100 20.47300
H  35.52800 55.92100 19.48300
H  35.74800 55.94000 21.29000
H  37.64300 49.12000 19.17000
H  36.50000 46.54600 20.29000
H  34.75900 49.34500 19.32600
H  35.03600 47.69900 18.81600
H  35.61400 48.99900 17.90100
H  38.87300 47.18700 18.94400
H  38.90000 45.93100 20.09000
H  39.37300 48.67100 21.22600
H  40.59700 48.10900 20.04900
H  40.29500 47.31100 21.50800
H  38.64500 43.49900 25.44400
H  37.76800 43.68200 23.96400
H  36.86400 43.40300 25.46000
H  37.16400 47.33900 29.07500
H  33.55000 45.16100 30.45000
H  33.30200 46.67500 31.29400
H  34.26700 45.37100 31.99700

