79

Mg 26.36900 50.66100 26.51600
C  24.00300 51.55000 28.95900
C  28.56500 50.01900 29.06300
C  28.57600 49.68600 24.12100
C  24.25400 51.75400 24.06100
N  26.20500 50.68300 28.71800
C  25.22400 51.04800 29.48500
C  25.35100 50.70800 30.91400
C  26.85500 50.38700 30.97700
C  27.25600 50.42400 29.49800
C  27.65400 51.45400 31.76500
C  24.39700 49.57500 31.50700
C  23.87800 49.71000 32.89900
H  24.54100 50.73300 33.79700
N  28.36600 49.96500 26.54700
C  29.04000 49.69400 27.71500
C  30.31200 49.06400 27.32000
C  30.29200 48.91200 25.96100
C  29.04900 49.52100 25.44300
C  31.33800 48.58600 28.35500
C  31.38300 48.29900 25.11100
O  31.29500 48.31700 23.87500
C  32.66600 47.80800 25.75700
N  26.35500 50.76200 24.44200
C  27.33300 50.14200 23.70200
C  26.97300 49.97000 22.24600
C  25.48200 50.63400 22.10900
C  25.27100 51.01000 23.64600
C  27.92000 50.57100 21.21500
C  24.43900 49.59400 21.67300
C  23.35800 50.21200 20.81300
N  24.52600 51.55100 26.44400
C  23.81200 51.98700 25.39300
C  22.50500 52.56400 25.83700
C  22.56900 52.39100 27.27200
C  23.84800 51.76900 27.56800
C  21.41300 52.86100 25.03500
C  21.80700 52.64000 28.47000
O  20.71500 53.14700 28.69200
C  22.76900 52.17200 29.57700
C  23.11000 53.39700 30.43400
O  23.87400 54.27500 30.19200
O  22.49900 53.21500 31.59000
C  22.28000 54.39000 32.46400
H  29.23500 49.58000 29.80500
H  29.14600 49.20800 23.32200
H  23.62100 52.03400 23.21600
H  25.14900 51.64400 31.43400
H  26.96400 49.35100 31.29900
H  28.23100 52.11400 31.11700
H  28.33500 51.00400 32.48800
H  27.07100 52.02000 32.49200
H  24.82700 48.57500 31.45600
H  23.53800 49.48500 30.84100
H  23.93500 48.74300 33.39900
H  22.81700 49.94900 32.83300
H  31.25000 47.50400 28.25400
H  31.11500 48.79100 29.40200
H  32.24600 49.14100 28.12200
H  33.37100 47.36000 25.05700
H  32.46400 47.05500 26.51900
H  33.10400 48.71600 26.17100
H  26.83600 48.92600 21.96300
H  25.46700 51.47600 21.41700
H  28.85300 50.93700 21.64200
H  27.61400 51.43100 20.62000
H  28.17300 49.77900 20.51000
H  23.98900 49.06100 22.51000
H  24.91500 48.77400 21.13400
H  22.32400 49.91000 20.97900
H  23.61800 49.99800 19.77600
H  23.37500 51.29900 20.89800
H  20.60700 52.13500 25.14500
H  21.68900 52.83400 23.98100
H  21.09800 53.86300 25.32500
H  22.30100 51.37300 30.15300
H  22.61100 55.23300 31.85800
H  22.83800 54.40000 33.40100
H  21.22300 54.53600 32.68700

