79

Mg 16.92400 -1.68000 28.61900
C  15.69200 0.63800 30.95200
C  18.92100 -3.03600 31.08900
C  18.53100 -3.42800 26.17700
C  15.44700 0.30500 26.10800
N  17.38800 -1.00800 30.75200
C  16.59200 -0.20000 31.53200
C  16.97200 -0.26600 33.01700
C  18.07600 -1.43100 32.96000
C  18.16500 -1.87600 31.49700
C  19.51700 -1.11600 33.39400
C  15.74700 -0.55400 33.95600
C  15.98700 -0.99500 35.45200
H  17.17000 -0.60200 36.26400
N  18.43300 -3.19800 28.62000
C  19.11700 -3.58900 29.76900
C  20.08600 -4.59300 29.37900
C  19.98600 -4.70700 27.90600
C  18.92000 -3.77000 27.51700
C  20.96400 -5.34300 30.35900
C  20.68100 -5.60700 26.99400
O  20.61500 -5.56800 25.77800
C  21.67600 -6.62600 27.54800
N  16.96000 -1.52100 26.45900
C  17.75700 -2.33000 25.73200
C  17.58600 -2.04000 24.16300
C  16.41000 -1.10500 24.16600
C  16.21700 -0.74800 25.67900
C  18.85800 -1.49600 23.44600
C  15.11900 -1.73000 23.49900
C  14.12800 -0.73100 22.88400
N  15.61700 0.01700 28.49600
C  15.11200 0.65200 27.44500
C  14.24800 1.72300 27.89600
C  14.34800 1.63100 29.27400
C  15.33400 0.69400 29.57100
C  13.38500 2.74600 27.10600
C  13.97800 2.29400 30.52100
O  13.26600 3.27600 30.73400
C  14.69700 1.51200 31.67800
C  15.39100 2.49800 32.46300
O  16.49000 2.98600 32.15400
O  14.70600 2.81800 33.64300
C  15.46600 3.70100 34.56500
H  19.24800 -3.68400 31.90500
H  18.83800 -3.99700 25.29700
H  14.90200 0.96200 25.42700
H  17.47300 0.66600 33.27800
H  17.78300 -2.35200 33.46200
H  19.59500 -0.91500 34.46300
H  20.04500 -0.29300 32.91200
H  20.10200 -2.01500 33.20100
H  15.20700 -1.39300 33.51600
H  15.10400 0.30700 34.13800
H  16.11100 -2.07200 35.33800
H  15.11100 -0.97900 36.10000
H  21.98200 -4.99200 30.18900
H  21.03000 -6.41200 30.15800
H  20.76900 -5.19100 31.42100
H  22.29900 -7.16100 26.83100
H  21.02700 -7.38500 27.98400
H  22.32500 -6.08000 28.23300
H  17.29700 -3.03100 23.81200
H  16.55100 -0.20900 23.56100
H  18.90300 -0.40900 23.50800
H  18.73300 -1.77400 22.40000
H  19.73500 -2.02400 23.82000
H  14.72500 -2.17100 24.41500
H  15.25700 -2.49000 22.73000
H  14.08000 -0.94100 21.81600
H  14.36700 0.32900 22.97200
H  13.12200 -0.88800 23.27100
H  14.04600 3.05900 26.29800
H  13.18800 3.57900 27.78100
H  12.45900 2.28000 26.76900
H  13.96600 0.88700 32.19200
H  16.53600 3.82900 34.39900
H  15.36900 3.30200 35.57400
H  14.95300 4.66200 34.59900

