79

Mg 48.25000 35.13600 27.82700
C  46.43000 33.68200 30.42200
C  48.72000 37.81200 29.67500
C  49.50400 36.54200 25.02900
C  47.82000 32.12800 25.91900
N  47.66500 35.71800 29.83800
C  46.99200 34.90700 30.74800
C  46.99800 35.68400 32.09900
C  47.26200 37.19400 31.72800
C  47.81800 36.96800 30.31500
C  45.98600 38.06900 31.68600
C  48.29200 35.07800 32.77000
C  48.19300 34.93100 34.32100
H  47.42300 35.92600 35.08600
N  49.00700 36.94200 27.42500
C  49.21800 37.92000 28.29200
C  49.98100 39.01500 27.68100
C  50.29600 38.62900 26.33300
C  49.61300 37.34000 26.20100
C  50.42400 40.19100 28.50400
C  51.09800 39.36000 25.32500
O  51.14400 39.01400 24.16500
C  51.73400 40.60500 25.66900
N  48.47800 34.44700 25.66000
C  49.05900 35.30400 24.71700
C  49.34800 34.55100 23.39500
C  49.02000 33.02600 23.79100
C  48.45100 33.13700 25.19600
C  48.55200 35.15800 22.21500
C  50.28500 32.12800 23.69100
C  50.86600 32.00600 22.26200
N  47.27300 33.32700 28.05400
C  47.18300 32.18900 27.20000
C  46.40600 31.10700 27.82700
C  46.08700 31.69900 29.04000
C  46.63400 33.01900 29.16000
C  46.13200 29.70900 27.38400
C  45.37400 31.48100 30.26500
O  44.75200 30.47200 30.53900
C  45.54900 32.70300 31.22500
C  45.97400 32.34600 32.59600
O  46.99800 31.73200 32.91000
O  45.04100 32.76700 33.46200
C  45.07800 32.48000 34.82000
H  48.99800 38.70900 30.23200
H  49.98300 37.00100 24.16200
H  47.64200 31.18700 25.39500
H  46.15400 35.58700 32.78200
H  47.88500 37.80000 32.38400
H  45.14600 37.67500 32.25800
H  45.65500 38.13700 30.64900
H  46.24600 39.05300 32.07500
H  49.24000 35.56000 32.53200
H  48.26800 34.02600 32.48500
H  49.20300 35.02400 34.72000
H  47.77400 33.96700 34.61000
H  51.44400 40.16300 28.88700
H  49.66100 40.58800 29.17400
H  50.16200 40.98500 27.80400
H  52.17900 40.51800 26.66000
H  50.97500 41.37700 25.53900
H  52.45300 40.95600 24.92800
H  50.40700 34.65400 23.15900
H  48.29200 32.55500 23.13100
H  49.30900 35.41000 21.47400
H  47.99200 36.05400 22.48100
H  47.85100 34.44800 21.77500
H  49.96800 31.13600 24.01400
H  51.00600 32.51700 24.41000
H  50.17400 32.45700 21.55100
H  50.78600 30.95600 21.98100
H  51.88100 32.40400 22.25000
H  46.49600 29.41900 26.39800
H  45.08400 29.45300 27.53700
H  46.70400 29.14500 28.12100
H  44.53500 33.10200 31.23000
H  44.34000 31.72700 35.09400
H  44.79100 33.41600 35.29800
H  46.08000 32.17000 35.11700

