79

Mg 7.00500 53.13500 41.10200
C  6.44700 49.67300 40.43900
C  10.22700 52.63400 40.28200
C  7.28200 56.48000 40.77200
C  3.54100 53.45600 41.62400
N  8.11400 51.30500 40.38900
C  7.73100 50.05600 40.11600
C  8.96100 49.25100 39.86000
C  10.16100 50.14900 40.41300
C  9.47500 51.44600 40.39500
C  10.86300 49.70600 41.78000
C  9.07800 48.71100 38.42500
C  8.86700 49.69800 37.26100
H  7.59700 49.61600 36.47500
N  8.63900 54.48300 40.58900
C  9.88900 54.05600 40.30700
C  10.78700 55.18600 40.05100
C  9.92400 56.37900 40.30000
C  8.58900 55.85000 40.62200
C  12.20300 55.13500 39.57400
C  10.35700 57.87900 40.22200
O  11.48600 58.06400 39.80400
C  9.41800 59.03000 40.51400
N  5.56600 54.72100 41.03000
C  5.99400 55.99500 41.07400
C  4.84900 57.02900 41.30900
C  3.64200 56.06000 41.36300
C  4.27300 54.66700 41.35000
C  5.01700 57.96700 42.48100
C  2.69700 56.25900 40.16500
C  1.39000 56.95900 40.55000
N  5.32100 51.90700 41.21000
C  4.00400 52.15200 41.50400
C  3.23200 50.92100 41.49300
C  4.20100 49.88800 41.19100
C  5.41600 50.58600 40.92700
C  1.87500 50.77800 41.87800
C  4.42200 48.49400 41.01600
O  3.65900 47.62100 41.25800
C  5.82700 48.33900 40.52700
C  5.79000 47.73900 39.27100
O  5.10500 48.07600 38.25800
O  6.53400 46.65900 39.34600
C  6.55900 45.86000 38.11600
H  11.28300 52.48800 40.04700
H  7.42000 57.56200 40.83100
H  2.48700 53.48100 41.91100
H  8.88300 48.38900 40.52200
H  10.95500 50.14400 39.66600
H  10.64400 48.70000 42.13800
H  10.57800 50.46100 42.51400
H  11.94100 49.70800 41.61800
H  8.36000 47.91400 38.23300
H  10.12400 48.40400 38.38900
H  9.71800 49.61800 36.58400
H  8.95300 50.73600 37.58200
H  12.47000 55.62900 38.63900
H  12.56600 54.10700 39.54900
H  12.76600 55.59000 40.38800
H  9.11400 58.89800 41.55200
H  8.65900 58.89300 39.74400
H  9.94300 59.96000 40.29700
H  4.83600 57.69500 40.44600
H  3.02000 56.19800 42.24800
H  4.06300 58.14100 42.97800
H  5.34100 58.92300 42.06900
H  5.80000 57.60900 43.14900
H  2.33700 55.32000 39.74500
H  3.17700 56.73700 39.31100
H  1.48200 57.37700 41.55200
H  0.49300 56.33900 40.57500
H  1.29800 57.76700 39.82500
H  1.38500 51.74100 42.02100
H  1.89100 50.33000 42.87200
H  1.28700 50.20400 41.16200
H  6.38900 47.73500 41.24000
H  7.30900 45.07300 38.18900
H  6.74500 46.50900 37.26100
H  5.55300 45.55200 37.83000

