79

Mg 26.80200 50.34000 27.07400
C  24.73900 51.82200 29.69000
C  29.02400 49.66200 29.51300
C  28.72900 49.15600 24.65600
C  24.51400 51.69100 24.73700
N  26.90200 50.85600 29.37300
C  25.92100 51.29200 30.23000
C  26.27800 51.00900 31.69900
C  27.71900 50.33900 31.58800
C  27.91600 50.30700 30.06500
C  28.88500 51.06000 32.29900
C  25.20200 50.19100 32.56100
C  25.55000 49.23400 33.72800
H  24.91200 49.55100 35.16000
N  28.55900 49.44400 27.07400
C  29.36100 49.22300 28.20900
C  30.61400 48.59100 27.80300
C  30.54100 48.54000 26.39200
C  29.23600 49.01400 25.97800
C  31.76700 48.29800 28.74400
C  31.70600 48.07600 25.43800
O  31.56600 48.01000 24.21400
C  33.11100 47.89000 25.87900
N  26.67700 50.42800 24.98100
C  27.50500 49.73300 24.21600
C  26.93900 49.70900 22.77200
C  25.46400 50.30400 22.93800
C  25.58500 50.87800 24.25700
C  27.80500 50.52900 21.82900
C  24.33700 49.21000 22.77500
C  23.10700 49.58200 21.91800
N  25.07400 51.57000 27.10600
C  24.23600 51.97800 26.07100
C  23.13200 52.81900 26.63700
C  23.30400 52.70100 28.00900
C  24.47800 52.00300 28.31100
C  21.94300 53.49400 25.89900
C  22.63200 53.06800 29.29200
O  21.59800 53.67800 29.62200
C  23.59400 52.43200 30.46200
C  24.06900 53.65600 31.19900
O  25.15400 54.24500 31.05800
O  23.15400 53.83900 32.23000
C  23.54600 54.86400 33.19800
H  29.82200 49.29100 30.15900
H  29.24600 48.62200 23.85600
H  23.84900 52.04700 23.94700
H  26.36800 52.02500 32.08200
H  27.75800 49.27100 31.80200
H  28.48200 51.76100 33.03000
H  29.42800 51.58900 31.51500
H  29.47200 50.33700 32.86500
H  24.67400 49.59500 31.81600
H  24.43800 50.90100 32.87700
H  26.61100 49.36300 33.94500
H  25.29600 48.20100 33.49100
H  31.80000 47.25300 29.05100
H  31.84500 48.98700 29.58500
H  32.78200 48.34700 28.35200
H  33.34700 48.87000 26.29300
H  33.77800 47.69600 25.03900
H  33.15400 47.08000 26.60800
H  26.73100 48.72000 22.36400
H  25.22400 51.05400 22.18400
H  28.74500 50.58100 22.37800
H  27.44400 51.54300 21.66300
H  27.81700 50.05300 20.84800
H  23.96700 49.08300 23.79200
H  24.70700 48.23100 22.47000
H  23.09600 48.98600 21.00600
H  22.98700 50.60700 21.56700
H  22.26100 49.27000 22.53200
H  21.93700 53.40700 24.81200
H  21.64900 54.52500 26.09800
H  21.11100 52.89500 26.26800
H  23.15000 51.66400 31.09600
H  23.82800 55.81800 32.75200
H  24.30500 54.42300 33.84400
H  22.79000 55.00500 33.97100

