79

Mg -2.08300 34.66200 27.03300
C  -4.13600 33.44700 29.59200
C  -0.80600 36.90900 29.37700
C  -0.43400 35.99800 24.47200
C  -3.87900 32.59800 24.80100
N  -2.65800 35.35500 29.23100
C  -3.31500 34.52900 30.09100
C  -3.10600 34.88800 31.56700
C  -2.13300 36.09400 31.43000
C  -1.81900 36.14600 29.88400
C  -2.64100 37.45500 31.96800
C  -2.60900 33.66600 32.45700
C  -3.40800 33.44000 33.71500
H  -2.65600 32.70900 34.74400
N  -0.93300 36.30600 26.93200
C  -0.45400 37.04800 27.98000
C  0.49500 38.03400 27.54000
C  0.60500 37.72900 26.13000
C  -0.24500 36.60600 25.75300
C  1.11900 39.06600 28.41800
C  1.53700 38.40500 25.23300
O  1.70100 37.95500 24.10400
C  2.18000 39.68200 25.55100
N  -2.25300 34.36000 24.91600
C  -1.36100 34.97200 24.09600
C  -1.39100 34.44200 22.65000
C  -2.40800 33.20500 22.81100
C  -2.85600 33.39300 24.23600
C  -1.90800 35.37000 21.51300
C  -1.65600 31.89900 22.78200
C  -2.24500 30.67300 22.09400
N  -3.64800 33.29600 27.12600
C  -4.25200 32.55100 26.14700
C  -5.23400 31.71200 26.70100
C  -5.18600 32.01300 28.03900
C  -4.21400 33.02500 28.23600
C  -6.11800 30.71100 26.01600
C  -5.66700 31.68600 29.36500
O  -6.50200 30.90800 29.70400
C  -5.03700 32.59100 30.37800
C  -6.17100 33.27100 31.06000
O  -6.86200 34.24500 30.64200
O  -6.46700 32.62000 32.22300
C  -7.70000 33.07100 32.92600
H  -0.13800 37.36900 30.10800
H  0.22600 36.30000 23.65600
H  -4.28700 31.88000 24.08600
H  -4.06700 35.28600 31.89100
H  -1.21500 35.84600 31.96300
H  -2.71300 38.20500 31.18000
H  -2.06600 37.84600 32.80700
H  -3.64100 37.43600 32.40100
H  -1.61200 33.86500 32.85100
H  -2.62800 32.72600 31.90600
H  -4.20000 32.73400 33.46500
H  -3.85300 34.35200 34.11100
H  2.20900 39.08500 28.39100
H  0.82200 39.07300 29.46600
H  0.85200 40.09000 28.16100
H  1.48800 40.44700 25.90200
H  2.67300 39.99000 24.62900
H  2.93600 39.38100 26.27700
H  -0.38400 34.04900 22.51400
H  -3.25400 33.09500 22.13300
H  -2.70800 34.89000 20.94900
H  -1.13000 35.65800 20.80700
H  -2.36900 36.18100 22.07700
H  -1.27700 31.56100 23.74700
H  -0.79200 32.13300 22.16100
H  -1.72900 30.56700 21.14000
H  -3.31500 30.81300 21.93800
H  -2.13500 29.79000 22.72500
H  -6.01800 29.80100 26.60800
H  -5.87000 30.59500 24.96100
H  -7.06700 31.24700 26.05000
H  -4.47900 32.04600 31.13900
H  -7.33600 33.65900 33.76800
H  -8.23100 32.18700 33.27900
H  -8.40600 33.71800 32.40600

