79

Mg 6.40400 53.52800 41.00300
C  5.99900 49.97200 41.14600
C  9.67400 52.86800 39.81800
C  6.86600 56.83500 40.46300
C  3.09000 53.96500 41.49700
N  7.54200 51.64400 40.36400
C  7.23700 50.29700 40.54100
C  8.36000 49.36000 40.12200
C  9.54900 50.34600 40.11500
C  8.84000 51.73900 40.05500
C  10.54900 50.37800 41.31500
C  8.08000 48.67300 38.75100
C  7.12100 49.27000 37.81500
H  7.56800 50.45700 36.98700
N  8.07600 54.66900 40.30700
C  9.30600 54.25900 39.88100
C  10.14700 55.39600 39.73700
C  9.36400 56.58900 39.79300
C  8.01100 56.07900 40.19500
C  11.64200 55.28800 39.59700
C  9.91100 58.04400 39.77700
O  11.10400 58.27400 39.49700
C  9.00300 59.24400 39.86900
N  5.16600 55.05500 40.86500
C  5.53800 56.37900 40.74400
C  4.41400 57.29200 40.99400
C  3.20200 56.39500 41.02800
C  3.87200 55.04000 41.09900
C  4.73500 58.22900 42.27100
C  2.16800 56.49400 39.83800
C  0.75000 56.67000 40.31400
N  4.84700 52.25600 41.37200
C  3.53000 52.61500 41.51000
C  2.82200 51.38400 41.91500
C  3.73700 50.35500 41.70400
C  4.93500 50.92400 41.37500
C  1.49500 51.25700 42.38700
C  3.94900 48.96200 41.79500
O  3.14200 48.03700 42.06000
C  5.48200 48.65000 41.47100
C  5.25600 47.70600 40.31200
O  4.62400 47.89400 39.24000
O  5.90500 46.57000 40.56900
C  5.84600 45.54300 39.51100
H  10.65800 52.76900 39.35500
H  6.78900 57.89400 40.21000
H  2.08600 54.17700 41.86900
H  8.59700 48.66400 40.92700
H  10.20600 50.17300 39.26300
H  11.47100 49.92100 40.95500
H  10.13900 49.67900 42.04500
H  10.67300 51.38600 41.71100
H  7.94500 47.59200 38.76900
H  9.03100 48.72000 38.21900
H  6.21100 49.65200 38.27800
H  6.88300 48.55500 37.02700
H  11.95500 55.52000 38.57800
H  11.99900 54.27600 39.78700
H  12.27100 56.02400 40.09800
H  9.56000 60.18000 39.90500
H  8.51400 59.18700 40.84200
H  8.32100 59.25700 39.01900
H  4.32900 57.94300 40.12300
H  2.76100 56.49200 42.02000
H  4.46000 59.24700 41.99600
H  5.75700 58.12700 42.63700
H  4.05800 57.94200 43.07500
H  2.26300 55.56400 39.27700
H  2.47700 57.29900 39.17100
H  0.44400 57.68600 40.56300
H  0.74300 56.00400 41.17700
H  0.11600 56.28100 39.51700
H  0.78500 51.77300 41.74000
H  1.43500 51.72200 43.37000
H  1.28100 50.18900 42.43200
H  5.97700 48.11300 42.28000
H  6.54600 44.78600 39.86400
H  6.37100 45.80600 38.59200
H  4.87000 45.07500 39.38200

