79

Mg -5.11700 25.41500 26.02100
C  -3.73000 26.83900 28.79600
C  -6.57100 23.03300 28.00100
C  -6.47200 24.06500 23.32700
C  -3.26600 27.70300 24.08800
N  -5.16700 25.08300 28.18900
C  -4.65200 25.88900 29.15900
C  -5.06200 25.38300 30.55800
C  -5.70200 23.98800 30.21200
C  -5.83600 24.01000 28.68400
C  -4.99700 22.74800 30.84700
C  -6.02800 26.30000 31.23800
C  -6.53500 25.80300 32.64500
H  -5.64000 24.90300 33.49800
N  -6.44100 23.81400 25.69000
C  -6.88200 22.90000 26.66300
C  -7.84800 22.10100 26.07400
C  -7.77300 22.34700 24.69300
C  -6.80500 23.40000 24.49100
C  -8.79300 21.31200 26.90100
C  -8.65900 21.68700 23.68900
O  -8.70000 22.12500 22.53600
C  -9.53600 20.46900 23.95600
N  -4.76600 25.75400 24.04300
C  -5.52300 25.06200 23.09200
C  -5.43500 25.70500 21.72600
C  -4.49000 26.95000 22.02800
C  -4.03600 26.81800 23.43800
C  -5.09900 24.86200 20.50400
C  -5.16100 28.36300 21.65400
C  -4.37900 29.11700 20.57900
N  -3.64700 26.86000 26.34900
C  -3.02400 27.73400 25.48700
C  -2.17100 28.67500 26.16900
C  -2.35100 28.40200 27.52700
C  -3.32600 27.25600 27.57100
C  -1.46300 29.80900 25.56000
C  -2.02100 28.71900 28.88400
O  -1.15100 29.41200 29.30800
C  -2.93900 27.76500 29.78900
C  -2.18300 27.02800 30.79600
O  -1.50300 26.06500 30.61300
O  -2.36400 27.67700 32.01700
C  -1.68400 26.90800 33.07400
H  -7.07900 22.41300 28.74200
H  -7.01100 23.74800 22.43200
H  -2.77400 28.42000 23.42800
H  -4.14800 25.30700 31.14800
H  -6.78100 23.94400 30.36100
H  -5.66400 22.35600 31.61500
H  -4.11700 22.95300 31.45700
H  -4.74400 21.98300 30.11300
H  -6.88300 26.37900 30.56700
H  -5.38400 27.17800 31.30000
H  -7.43300 25.27600 32.32300
H  -6.76100 26.64900 33.29500
H  -9.04400 21.83600 27.82300
H  -8.40800 20.30700 27.07600
H  -9.74900 21.11400 26.41500
H  -9.00100 19.85200 24.67900
H  -9.67800 19.88700 23.04600
H  -10.56900 20.70000 24.21600
H  -6.45900 25.98900 21.48200
H  -3.57100 26.65300 21.52300
H  -4.75200 23.88200 20.83100
H  -4.32800 25.34800 19.90600
H  -5.96900 24.66600 19.87800
H  -5.18100 29.05800 22.49400
H  -6.19000 28.21400 21.32400
H  -5.05100 29.73700 19.98500
H  -3.69400 28.47200 20.02800
H  -3.72100 29.82500 21.08300
H  -2.04400 30.03800 24.66700
H  -0.41300 29.55100 25.42400
H  -1.56400 30.71600 26.15700
H  -3.63500 28.46300 30.25500
H  -1.69200 25.82100 33.00500
H  -2.18500 27.03600 34.03300
H  -0.64500 27.22000 33.17500

