79

Mg 17.88600 51.49700 26.27300
C  19.55200 49.97600 28.71400
C  15.38800 52.45100 28.50000
C  15.92300 52.43200 23.72200
C  20.10100 50.10400 23.89700
N  17.52200 51.17300 28.38400
C  18.38800 50.61800 29.24400
C  18.00100 50.79300 30.70100
C  16.50400 51.37100 30.51900
C  16.47300 51.68700 29.04700
C  15.32400 50.34000 30.88500
C  18.94600 51.81800 31.52000
C  18.32600 52.48800 32.81900
H  17.48300 51.61300 33.68200
N  16.04400 52.42800 26.10600
C  15.24100 52.80400 27.17600
C  14.05500 53.51000 26.70700
C  14.15100 53.44500 25.29100
C  15.38200 52.82200 24.98300
C  13.26600 54.41000 27.62100
C  13.12200 53.97300 24.25600
O  13.39700 54.26900 23.07900
C  11.79400 54.47200 24.74000
N  18.02000 51.38500 23.98400
C  17.01000 51.72000 23.23700
C  17.25800 51.31500 21.76900
C  18.71000 50.83700 21.79200
C  19.02300 50.86800 23.28700
C  16.24500 50.33700 21.14300
C  19.78100 51.72100 21.01700
C  19.77500 53.25100 21.29600
N  19.46100 50.24500 26.27000
C  20.34800 49.87200 25.27300
C  21.50000 49.15600 25.79500
C  21.30000 49.18500 27.22400
C  20.03400 49.82500 27.42300
C  22.58800 48.59300 24.90400
C  21.75600 48.76800 28.59100
O  22.68100 48.07100 29.02800
C  20.65500 49.40500 29.55500
C  20.17700 48.27300 30.41200
O  19.80100 47.16200 30.03600
O  20.12900 48.70500 31.71600
C  19.57100 47.73200 32.66600
H  14.57900 52.66200 29.20200
H  15.28200 52.72400 22.88800
H  20.78600 49.64200 23.18300
H  17.99900 49.82200 31.19600
H  16.35900 52.27500 31.11000
H  15.01500 50.50300 31.91700
H  15.70400 49.31900 30.93300
H  14.47700 50.31700 30.19900
H  19.30100 52.58700 30.83400
H  19.81500 51.27700 31.89600
H  17.74300 53.31100 32.40500
H  19.15300 52.86700 33.42000
H  13.83400 54.66700 28.51500
H  12.27500 54.00500 27.82500
H  13.06000 55.32700 27.07000
H  11.56500 54.00900 25.69900
H  11.08000 54.02700 24.04600
H  11.85200 55.55700 24.65400
H  17.11700 52.24100 21.21200
H  18.82300 49.85100 21.34000
H  15.59600 50.16200 22.00100
H  16.61400 49.34000 20.90000
H  15.79300 50.88600 20.31700
H  19.57600 51.66100 19.94800
H  20.71700 51.22600 21.27400
H  20.75200 53.65900 21.55800
H  19.08700 53.26300 22.14100
H  19.45000 53.81800 20.42400
H  23.31100 48.20900 25.62400
H  22.98200 49.37100 24.25000
H  22.24100 47.72700 24.34100
H  21.16000 50.12400 30.20000
H  19.87100 46.70800 32.44500
H  18.49800 47.92000 32.62700
H  20.00600 47.95600 33.64000

