79

Mg 26.16800 50.32900 26.22100
C  24.04900 51.48600 28.76400
C  28.58500 49.62200 28.52700
C  28.11100 49.29700 23.62700
C  23.78200 51.48600 23.88000
N  26.35100 50.74900 28.42500
C  25.32000 51.01800 29.24300
C  25.75200 50.85900 30.71100
C  27.25000 50.25700 30.69100
C  27.46000 50.18300 29.17000
C  28.29900 51.09500 31.48800
C  24.58300 50.13700 31.51900
C  25.03300 49.42400 32.76200
H  24.13600 49.40500 34.00100
N  28.09200 49.71600 26.08900
C  28.90700 49.39000 27.18000
C  30.12300 48.74400 26.68900
C  30.07700 48.84200 25.24500
C  28.71200 49.31800 24.94100
C  31.24200 48.28000 27.63500
C  31.19500 48.53200 24.27300
O  31.11400 48.71600 23.03600
C  32.58900 48.10200 24.75700
N  26.06100 50.57500 24.06400
C  26.91700 49.95300 23.25300
C  26.38300 50.03200 21.81800
C  24.93400 50.55700 21.91900
C  24.92500 50.88700 23.41500
C  27.29300 50.84900 20.84200
C  23.87500 49.44100 21.51800
C  23.89500 48.12900 22.31200
N  24.25800 51.26800 26.27200
C  23.46100 51.62400 25.26900
C  22.14200 52.11500 25.80900
C  22.32200 51.98900 27.22100
C  23.67300 51.53300 27.41500
C  21.05100 52.64800 24.98500
C  21.65500 52.20500 28.51900
O  20.53800 52.43100 28.85000
C  22.83400 51.98700 29.55200
C  23.14500 53.22400 30.30500
O  23.66100 54.21400 29.77600
O  23.03800 53.09900 31.64400
C  23.48900 54.30100 32.47200
H  29.26000 49.24700 29.29800
H  28.74100 48.85300 22.85400
H  23.06300 51.67700 23.08100
H  25.69800 51.89100 31.05600
H  27.27900 49.23400 31.06700
H  29.01200 50.40800 31.94500
H  27.78800 51.65200 32.27400
H  28.95600 51.66400 30.83100
H  24.04000 49.39400 30.93500
H  23.83700 50.90700 31.71600
H  26.03800 49.76300 33.01300
H  25.19800 48.35500 32.62700
H  32.10200 48.94700 27.57500
H  31.64800 47.31000 27.34900
H  30.91400 48.17100 28.66900
H  33.20800 47.91900 23.87800
H  32.45000 47.20000 25.35400
H  32.98200 48.80200 25.49500
H  26.24900 49.05000 21.36700
H  24.82600 51.47000 21.33400
H  28.15900 51.11100 21.45000
H  26.84700 51.75700 20.43700
H  27.54500 50.20200 20.00100
H  24.11900 49.21700 20.47900
H  22.90000 49.91600 21.41200
H  23.86200 47.33700 21.56500
H  23.03900 47.86600 22.93300
H  24.83000 48.00600 22.86000
H  20.90300 51.98800 24.13000
H  21.37000 53.61600 24.59700
H  20.13800 52.68500 25.57900
H  22.40400 51.23300 30.21100
H  24.44900 53.97800 32.87400
H  22.87300 54.59800 33.32100
H  23.61200 55.21300 31.88900

