79

Mg 35.46700 1.85600 29.31500
C  33.67100 3.20900 32.01600
C  38.32700 1.82400 31.31100
C  37.36200 1.41400 26.50100
C  32.71600 2.63200 27.23600
N  35.91400 2.36400 31.37500
C  35.02600 2.73800 32.34500
C  35.58300 2.65600 33.76000
C  37.10600 2.28900 33.53100
C  37.15900 2.12900 32.01700
C  38.24700 3.38400 33.90800
C  34.66200 1.60800 34.54100
C  34.40400 1.95900 36.02700
H  35.06800 3.19000 36.66600
N  37.58400 1.57900 28.97600
C  38.57200 1.56800 29.97200
C  39.82700 1.38000 29.34300
C  39.57700 1.29900 27.88900
C  38.13700 1.39700 27.70000
C  41.08300 1.13300 30.06800
C  40.68000 1.23200 26.83900
O  40.39900 1.11200 25.65100
C  42.13600 1.39300 27.14600
N  35.07200 1.78700 27.29500
C  35.99300 1.56600 26.29100
C  35.36400 1.72900 24.84300
C  33.89400 1.78600 25.25300
C  33.89600 2.14400 26.72900
C  35.86800 2.96300 24.06600
C  33.08800 0.50100 25.07500
C  33.05600 0.00500 23.63600
N  33.53100 2.63000 29.57000
C  32.54600 2.89700 28.58900
C  31.39900 3.43900 29.29000
C  31.73400 3.56000 30.68200
C  33.11100 3.10300 30.73100
C  30.14900 3.90700 28.61100
C  31.31300 4.03400 32.00900
O  30.19500 4.46600 32.27900
C  32.53900 3.74500 32.95000
C  32.79600 5.03300 33.73400
O  33.67900 5.82500 33.46200
O  31.83800 5.24300 34.70100
C  31.84300 6.59300 35.35000
H  39.22200 1.80500 31.93600
H  38.04100 1.41700 25.64600
H  31.79000 2.68000 26.66000
H  35.47600 3.65000 34.19200
H  37.32300 1.39900 34.12300
H  37.91800 4.13900 34.62200
H  38.78500 3.78900 33.05200
H  39.07400 2.90800 34.43500
H  35.24400 0.68800 34.48400
H  33.72200 1.47000 34.00700
H  34.61900 1.05400 36.59600
H  33.31800 2.05300 36.01100
H  41.66900 0.24900 29.81600
H  40.83700 0.88100 31.10000
H  41.65400 2.06200 30.05500
H  42.42600 1.98800 28.01200
H  42.57600 1.81000 26.24100
H  42.57100 0.41400 27.35000
H  35.50400 0.80400 24.28400
H  33.44300 2.58700 24.66700
H  36.37900 3.59300 24.79400
H  35.04400 3.57900 23.70700
H  36.47600 2.88800 23.16400
H  32.08400 0.73400 25.43100
H  33.54100 -0.25900 25.71300
H  32.04500 0.04700 23.23100
H  33.37000 -1.03900 23.65400
H  33.58400 0.57700 22.87300
H  29.49500 3.04600 28.47100
H  30.26300 4.30900 27.60400
H  29.62200 4.68400 29.16400
H  32.22400 2.89300 33.55200
H  31.79500 7.31200 34.53200
H  32.75500 6.52100 35.94300
H  30.99100 6.78000 36.00300

