79

Mg 0.34400 7.71900 25.66400
C  1.02600 9.59400 28.45700
C  0.33200 4.83100 27.68300
C  0.09900 5.87000 22.87300
C  0.38600 10.68700 23.75000
N  0.84200 7.21800 27.66900
C  1.00800 8.22500 28.69200
C  1.04700 7.57000 30.10100
C  1.07100 6.04700 29.81100
C  0.64300 6.03200 28.36300
C  2.46800 5.40900 30.24300
C  -0.22300 7.93500 30.90400
C  -0.09500 7.84100 32.40900
H  1.18300 7.42800 33.20900
N  0.27100 5.64300 25.28500
C  0.25100 4.68000 26.22800
C  0.16000 3.35000 25.52100
C  0.05800 3.66700 24.13200
C  0.08400 5.12300 24.06100
C  0.24400 1.96600 26.15700
C  0.12500 2.76000 22.96600
O  -0.12600 3.06200 21.79100
C  0.49300 1.24900 23.14200
N  0.34200 8.23100 23.53500
C  0.26300 7.27900 22.60600
C  0.08500 7.84800 21.20000
C  0.11400 9.40300 21.53300
C  0.29000 9.47100 22.99900
C  1.12200 7.39400 20.18100
C  -1.08700 10.22300 20.98800
C  -0.88400 10.78600 19.55900
N  0.48900 9.76600 25.98000
C  0.60000 10.81700 25.12000
C  0.94700 12.04700 25.86600
C  1.15200 11.59300 27.20300
C  0.81900 10.21700 27.20300
C  1.10800 13.42200 25.39500
C  1.54400 12.03100 28.53900
O  1.90300 13.14100 28.90300
C  1.32600 10.76300 29.46900
C  2.59100 10.47500 30.15800
O  3.59500 9.89900 29.72600
O  2.50600 11.03300 31.44300
C  3.71700 10.87000 32.27100
H  0.63900 3.90500 28.17400
H  -0.25100 5.40000 21.95100
H  0.40800 11.65900 23.25200
H  1.94200 7.96100 30.58600
H  0.23200 5.58300 30.33000
H  2.95800 4.78300 29.49700
H  2.37700 4.89500 31.20000
H  3.21900 6.19300 30.34000
H  -1.06300 7.25700 30.75200
H  -0.51600 8.93100 30.57200
H  -0.96300 7.35000 32.85000
H  -0.41100 8.83200 32.73500
H  1.06400 1.42200 25.68900
H  -0.69800 1.50800 25.85600
H  0.42900 1.88100 27.22800
H  -0.23500 0.92300 23.88500
H  1.48700 1.06500 23.55100
H  0.34000 0.64300 22.25000
H  -0.89900 7.63800 20.78100
H  0.95800 9.91500 21.07200
H  1.97300 6.97900 20.72200
H  1.43400 8.25300 19.58700
H  0.72100 6.62000 19.52700
H  -1.22500 11.07500 21.65500
H  -1.94000 9.55800 21.11800
H  -1.85000 10.69800 19.06000
H  -0.27400 10.13800 18.93100
H  -0.68800 11.85800 19.55900
H  0.11500 13.75000 25.70100
H  1.20400 13.50600 24.31200
H  1.86800 13.97700 25.94600
H  0.43500 10.82200 30.09400
H  4.47500 10.18200 31.89500
H  3.56400 10.62000 33.32100
H  4.26400 11.80800 32.36900

