79

Mg 44.11000 42.33100 26.60700
C  42.84900 44.25900 29.21700
C  45.66200 40.43600 28.98300
C  45.38900 40.46700 24.24900
C  43.14600 44.79100 24.39400
N  44.09000 42.29700 28.91600
C  43.57400 43.22200 29.74300
C  43.84200 42.92100 31.23300
C  44.91400 41.87200 31.10000
C  44.88700 41.41300 29.63200
C  46.24300 42.42900 31.59800
C  42.58200 42.43400 32.02900
C  42.11500 43.48400 33.11100
H  41.52300 43.02200 34.44300
N  45.15400 40.60500 26.59800
C  45.74900 39.97800 27.63700
C  46.38000 38.75800 27.17000
C  46.16000 38.61900 25.79400
C  45.51100 39.89600 25.50600
C  47.00700 37.87900 28.14900
C  46.48200 37.40400 24.95400
O  46.26900 37.39800 23.75900
C  47.03300 36.06100 25.57600
N  44.38000 42.67800 24.63400
C  44.83200 41.71300 23.84900
C  44.61200 42.08500 22.34600
C  43.67300 43.35200 22.43300
C  43.72800 43.67500 23.88500
C  45.93300 42.36900 21.58100
C  42.24600 43.14000 21.86600
C  41.13200 42.58200 22.82100
N  43.25200 44.15300 26.70400
C  42.90000 45.08100 25.74300
C  42.19700 46.21800 26.32900
C  42.07500 45.84000 27.65300
C  42.75500 44.63400 27.84700
C  41.59300 47.43400 25.68900
C  41.63600 46.30200 28.92700
O  41.10000 47.39300 29.21800
C  42.08800 45.30200 30.00800
C  43.08800 46.00200 30.86100
O  44.19700 46.22700 30.50700
O  42.53700 46.49200 32.00700
C  43.37800 47.28300 32.84700
H  46.25300 39.93100 29.75000
H  45.62800 39.78800 23.42700
H  42.78800 45.56400 23.71000
H  44.26400 43.81800 31.68500
H  44.72000 41.02300 31.75600
H  46.29500 43.51000 31.46700
H  47.14000 42.06900 31.09400
H  46.32000 42.13600 32.64500
H  42.83500 41.48800 32.50700
H  41.76600 42.29000 31.32000
H  41.20300 43.96100 32.75200
H  42.80800 44.30900 33.27600
H  47.54800 38.52800 28.83700
H  47.70100 37.08000 27.88600
H  46.31300 37.26600 28.72400
H  46.43400 35.76500 26.43700
H  48.11600 36.13000 25.68100
H  46.83000 35.20700 24.93000
H  44.08100 41.20600 21.98100
H  44.05900 44.15200 21.80100
H  46.06600 43.37100 21.17300
H  46.13900 41.58300 20.85400
H  46.77300 42.17100 22.24600
H  42.30500 42.37100 21.09500
H  41.96600 44.04800 21.33100
H  40.86100 41.55800 22.56500
H  40.30300 43.28900 22.80200
H  41.37900 42.73000 23.87300
H  41.12300 47.04600 24.78500
H  42.22500 48.21800 25.27200
H  40.78600 47.88700 26.26400
H  41.19900 45.06200 30.59100
H  43.45300 46.67200 33.74600
H  42.85700 48.17400 33.19700
H  44.37000 47.57500 32.50100

