79

Mg -9.52800 38.95400 41.18800
C  -7.51200 36.11400 40.56700
C  -7.23200 41.00800 39.81200
C  -11.67400 41.41100 41.54100
C  -12.08700 36.65600 42.10100
N  -7.72800 38.58900 40.17500
C  -6.96500 37.39700 40.15200
C  -5.57800 37.60700 39.59300
C  -5.44200 39.16100 39.67500
C  -6.88800 39.66500 39.94400
C  -4.38500 39.68600 40.67500
C  -5.40000 36.92200 38.25000
C  -6.65900 36.70500 37.37500
H  -6.40600 36.52100 35.84100
N  -9.38200 40.94500 40.82300
C  -8.41700 41.58200 40.16900
C  -8.84900 42.95000 39.91300
C  -9.96800 43.15200 40.70400
C  -10.39100 41.82500 41.04100
C  -7.95700 43.94700 39.06700
C  -10.70300 44.47600 40.89500
O  -10.32500 45.50800 40.40300
C  -11.85500 44.69000 41.88400
N  -11.58400 38.98700 41.58400
C  -12.19100 40.20200 41.90700
C  -13.62200 40.08100 42.17600
C  -13.70200 38.55900 42.44500
C  -12.33200 38.04500 41.97700
C  -14.15400 40.99100 43.28100
C  -14.93800 37.82700 41.76000
C  -16.39100 38.45600 41.86900
N  -9.72300 36.76500 41.35000
C  -10.81400 36.01000 41.85700
C  -10.45300 34.58200 41.89900
C  -9.14700 34.56300 41.34100
C  -8.75600 35.89100 41.01800
C  -11.21700 33.54000 42.48600
C  -7.94500 33.74100 41.07200
O  -7.70300 32.52900 41.13600
C  -6.82500 34.76800 40.53300
C  -5.58800 34.62800 41.27800
O  -5.19800 35.41200 42.15600
O  -4.86300 33.63100 40.70600
C  -3.53500 33.27500 41.18500
H  -6.49400 41.47700 39.15700
H  -12.47600 42.15100 41.57900
H  -12.84500 35.98200 42.50500
H  -4.88100 37.20500 40.32800
H  -5.23100 39.62900 38.71300
H  -4.50100 40.76500 40.77500
H  -3.44100 39.32600 40.26600
H  -4.44900 39.20200 41.65000
H  -4.97200 35.92800 38.38600
H  -4.61600 37.43600 37.69500
H  -7.39300 37.48800 37.56800
H  -7.20600 35.82000 37.70100
H  -7.91600 44.85800 39.66400
H  -8.48400 44.29200 38.17800
H  -6.96600 43.50300 38.97700
H  -11.79300 44.04000 42.75700
H  -12.76500 44.52500 41.30800
H  -11.83600 45.71200 42.26400
H  -14.14800 40.26400 41.23900
H  -13.63400 38.41200 43.52300
H  -13.47100 41.64400 43.82500
H  -14.51400 40.26800 44.01300
H  -15.00300 41.58500 42.94200
H  -15.06300 36.82000 42.16000
H  -14.61400 37.51600 40.76700
H  -16.74200 38.73700 40.87600
H  -16.44700 39.25700 42.60600
H  -16.97900 37.60700 42.22000
H  -12.16600 33.97000 42.80800
H  -10.75200 32.96800 43.28900
H  -11.24100 33.00800 41.53500
H  -6.67300 34.48000 39.49300
H  -2.94300 32.66500 40.50400
H  -3.69600 32.72100 42.11000
H  -2.91800 34.15200 41.38200

