79

Mg 9.51300 48.05800 25.34600
C  7.68300 48.10800 28.18300
C  12.14400 49.62900 26.84800
C  11.19700 47.97100 22.31700
C  6.72300 46.73500 23.58300
N  9.74700 48.99700 27.17600
C  8.88800 48.81000 28.29900
C  9.42100 49.57200 29.56500
C  10.81600 50.02100 29.01500
C  10.94200 49.61700 27.52100
C  11.13200 51.58300 29.14000
C  9.42100 48.76100 30.86600
C  10.50400 49.09400 31.93800
H  10.08300 49.09600 33.38600
N  11.48800 48.51800 24.76400
C  12.42000 49.13200 25.55400
C  13.65700 49.21900 24.81200
C  13.40400 48.72300 23.51000
C  11.93000 48.41900 23.48700
C  14.89300 49.86400 25.33400
C  14.21900 48.55400 22.27900
O  13.94500 48.19700 21.14000
C  15.64000 48.87000 22.37800
N  9.10200 47.38900 23.29100
C  9.92700 47.48700 22.18900
C  9.30000 46.90600 20.84800
C  7.96200 46.32000 21.36400
C  7.91200 46.75200 22.84600
C  9.27000 47.90700 19.70700
C  7.87900 44.75600 21.24300
C  8.70000 43.86000 22.16400
N  7.55600 47.64300 25.73100
C  6.58700 47.16400 24.91800
C  5.38500 47.04900 25.76300
C  5.77100 47.32100 27.06900
C  7.11200 47.65200 26.98500
C  4.03700 46.43800 25.35600
C  5.44400 47.26200 28.53400
O  4.44300 46.90500 29.14300
C  6.68200 47.76500 29.29000
C  7.06800 46.69200 30.17600
O  7.80400 45.73400 29.92900
O  6.64600 46.92600 31.43700
C  7.00800 45.88600 32.38300
H  12.98300 50.10900 27.35600
H  11.80400 47.80500 21.42500
H  5.88000 46.33800 23.01300
H  8.73400 50.40700 29.70300
H  11.54600 49.42100 29.55800
H  11.36800 51.93800 28.13600
H  12.07700 51.76200 29.65300
H  10.37300 52.21400 29.60300
H  9.53000 47.73200 30.52500
H  8.41600 48.94300 31.24700
H  10.78400 50.12200 31.70600
H  11.43700 48.55500 31.77400
H  15.47500 50.46000 24.63200
H  15.56600 49.05900 25.62900
H  14.67900 50.36900 26.27600
H  16.13200 48.63700 21.43400
H  16.03000 48.17900 23.12600
H  15.85000 49.92800 22.53200
H  9.99800 46.13000 20.53200
H  7.18300 46.80400 20.77400
H  8.77300 48.85000 19.93300
H  8.61300 47.45100 18.96600
H  10.28400 48.02500 19.32400
H  8.27800 44.54000 20.25200
H  6.82000 44.51200 21.15600
H  9.12500 43.02600 21.60500
H  8.01300 43.41800 22.88500
H  9.44800 44.39500 22.74900
H  3.47600 47.05200 24.65200
H  3.47600 46.24600 26.27100
H  4.22300 45.48600 24.85800
H  6.55400 48.59200 29.98800
H  6.15200 45.21100 32.40300
H  7.13600 46.27700 33.39200
H  7.94900 45.42000 32.09100

