79

Mg 40.04600 8.49200 29.77200
C  42.04700 9.51700 32.29800
C  37.73000 7.27800 31.93800
C  38.46200 6.78500 27.09900
C  42.71700 9.02900 27.45200
N  39.94300 8.38100 31.88000
C  40.78800 9.10500 32.75100
C  40.17600 9.33000 34.08200
C  38.91900 8.36400 33.96900
C  38.79800 8.00900 32.49600
C  39.03900 7.14200 34.90900
C  39.83700 10.79500 34.48800
C  39.14400 10.95700 35.90600
H  39.84700 11.83300 36.95100
N  38.24200 7.39600 29.53900
C  37.46600 7.02800 30.59300
C  36.32500 6.33400 30.08900
C  36.44000 6.31800 28.59800
C  37.79500 6.82800 28.35500
C  35.21300 5.62200 30.98200
C  35.60400 5.63400 27.61300
O  35.95800 5.34300 26.49700
C  34.30000 5.18600 28.03400
N  40.57500 7.75800 27.55600
C  39.73800 7.17300 26.69100
C  40.20500 7.22900 25.24700
C  41.37500 8.23600 25.38900
C  41.56400 8.41500 26.89400
C  40.56200 5.86500 24.57500
C  41.13500 9.66700 24.79300
C  39.81400 10.31900 25.19100
N  42.02400 9.05700 29.84600
C  42.97500 9.29300 28.86500
C  44.10400 9.96400 29.44500
C  43.78900 10.14800 30.79200
C  42.55800 9.47200 30.99500
C  45.28000 10.50300 28.78100
C  44.18700 10.73400 32.03200
O  45.13300 11.54300 32.23900
C  43.03600 10.39200 33.03500
C  43.51900 9.49600 34.15500
O  43.93500 8.33200 34.16000
O  43.52600 10.30400 35.27200
C  44.33600 9.74700 36.32800
H  36.95100 7.03900 32.66500
H  37.94900 6.35900 26.23400
H  43.43000 9.40000 26.71300
H  41.00200 8.95800 34.68800
H  37.99800 8.89600 34.20500
H  38.76500 6.24500 34.35400
H  38.60700 7.13100 35.91000
H  40.09300 7.13300 35.18600
H  39.18700 11.31000 33.78100
H  40.77500 11.34900 34.49300
H  38.97900 10.01000 36.41900
H  38.17900 11.43500 35.73800
H  35.47400 4.57700 31.15000
H  34.20200 5.61900 30.57400
H  35.12900 6.16500 31.92300
H  33.78100 4.72700 27.19300
H  33.73900 6.06000 28.36400
H  34.42200 4.44300 28.82200
H  39.36700 7.56100 24.63400
H  42.26700 7.77500 24.96500
H  40.37800 5.08600 25.31500
H  41.62400 5.81100 24.33500
H  39.85500 5.60500 23.78800
H  41.23800 9.22800 23.80000
H  41.94600 10.32600 25.10300
H  39.21900 9.67700 25.84000
H  39.11400 10.39400 24.35900
H  40.00500 11.36200 25.44600
H  45.14500 10.83800 27.75200
H  46.14100 9.83500 28.79700
H  45.60800 11.42300 29.26400
H  42.50400 11.26100 33.42100
H  45.23900 9.24600 35.97800
H  43.87200 9.21400 37.15800
H  44.67600 10.68500 36.76900

