79

Mg -1.98100 34.33200 26.32400
C  -3.16400 32.41900 29.06900
C  -0.70800 36.49200 28.56400
C  -1.47200 36.18000 23.62900
C  -3.42400 31.90100 24.24700
N  -2.04200 34.47500 28.61900
C  -2.45900 33.47500 29.48500
C  -2.15000 33.89500 30.97700
C  -1.31400 35.22100 30.72600
C  -1.42800 35.47000 29.18500
C  -1.81900 36.49500 31.50700
C  -1.39100 32.74900 31.78200
C  -2.17000 32.12900 32.99500
H  -1.42200 32.36600 34.40000
N  -1.20900 36.02000 26.11700
C  -0.69200 36.85400 27.15000
C  -0.07700 37.99500 26.58800
C  -0.25700 37.90100 25.15400
C  -1.05400 36.66900 24.90600
C  0.59300 39.09700 27.29800
C  0.28700 38.81000 24.06800
O  0.22000 38.57600 22.86600
C  1.12500 39.99200 24.42700
N  -2.40500 34.09400 24.28400
C  -2.07200 34.98100 23.28200
C  -2.58800 34.62500 21.92400
C  -3.06700 33.22200 22.14600
C  -2.91400 33.03000 23.67800
C  -3.53100 35.49000 21.10500
C  -2.27600 32.14400 21.33400
C  -0.81300 31.83500 21.68900
N  -3.07600 32.51500 26.52500
C  -3.65500 31.68600 25.61900
C  -4.43600 30.64800 26.26500
C  -4.20600 30.85700 27.60300
C  -3.38800 32.02500 27.73000
C  -5.24700 29.58500 25.59000
C  -4.62500 30.39800 28.85300
O  -5.43000 29.53000 29.16200
C  -4.00800 31.42600 29.85600
C  -5.02500 32.20200 30.51900
O  -5.47500 33.24900 30.23000
O  -5.30000 31.56100 31.66500
C  -5.98800 32.37600 32.69500
H  -0.22600 37.17300 29.26900
H  -1.43800 36.83600 22.75700
H  -3.93100 31.20500 23.57600
H  -3.12100 34.22900 31.34500
H  -0.28700 35.06700 31.05600
H  -1.03900 36.99800 32.07900
H  -2.55500 36.14300 32.23000
H  -2.45700 37.11200 30.87500
H  -0.41000 33.10000 32.10200
H  -1.07700 31.89500 31.18200
H  -2.24500 31.05200 32.84700
H  -3.16800 32.56700 32.97600
H  0.65600 38.99800 28.38100
H  0.08500 40.05200 27.15900
H  1.61800 39.14000 26.93100
H  2.10700 39.63100 24.73300
H  0.77500 40.66500 25.21000
H  1.27300 40.64300 23.56600
H  -1.67100 34.58700 21.33500
H  -4.12100 33.17800 21.87000
H  -4.26900 34.83200 20.64400
H  -3.03100 36.01700 20.29200
H  -4.00700 36.24000 21.73700
H  -2.27000 32.44800 20.28800
H  -2.86900 31.23000 21.33300
H  -0.35800 32.31800 22.55300
H  -0.25800 31.96200 20.75900
H  -0.88300 30.76400 21.87900
H  -5.43800 28.71400 26.21600
H  -4.72200 29.25600 24.69300
H  -6.26100 29.93800 25.40400
H  -3.37700 30.86600 30.54500
H  -6.89500 32.74700 32.21600
H  -5.39400 33.21700 33.05300
H  -6.25600 31.73000 33.53100

