79

Mg -1.61000 34.52400 26.68100
C  -3.41200 32.95300 29.20700
C  -0.16500 36.46600 29.07900
C  -0.05900 36.13300 24.30000
C  -3.49500 32.74600 24.31100
N  -1.86000 34.71900 28.83800
C  -2.57300 33.93300 29.73300
C  -2.27400 34.26800 31.20700
C  -1.26800 35.45500 31.04800
C  -1.11400 35.57700 29.54400
C  -1.68200 36.79800 31.77700
C  -1.60700 33.02000 31.92100
C  -2.35600 32.51300 33.15300
H  -1.53100 32.28000 34.42400
N  -0.10900 35.97700 26.66500
C  0.32200 36.70300 27.76500
C  1.30300 37.76600 27.38900
C  1.42200 37.59900 25.96700
C  0.47200 36.53400 25.53500
C  1.88600 38.77100 28.42700
C  2.29500 38.37400 25.03400
O  2.33000 38.18400 23.80300
C  3.22200 39.48500 25.64500
N  -1.72500 34.51400 24.68900
C  -1.00700 35.22500 23.84700
C  -1.33100 34.95100 22.35300
C  -2.15500 33.63400 22.49500
C  -2.47200 33.59000 23.94000
C  -2.07300 36.03100 21.59200
C  -1.38500 32.36000 21.96800
C  -0.04100 32.07300 22.67800
N  -3.22800 33.16600 26.72800
C  -3.84900 32.51600 25.67100
C  -4.69000 31.53000 26.27300
C  -4.63200 31.73500 27.62900
C  -3.65000 32.66800 27.86000
C  -5.45100 30.43700 25.62500
C  -5.08700 31.20700 28.93900
O  -5.90500 30.35600 29.13600
C  -4.26400 32.02200 30.04700
C  -5.35100 32.79000 30.77500
O  -6.04500 33.67600 30.35000
O  -5.41000 32.25800 32.11000
C  -6.44600 32.86400 32.96700
H  0.24800 37.03300 29.91600
H  0.40700 36.60000 23.42900
H  -3.90300 32.16200 23.48400
H  -3.16200 34.66900 31.69500
H  -0.27700 35.24500 31.44900
H  -2.55500 36.69800 32.42100
H  -1.91000 37.43300 30.92100
H  -0.78300 37.19400 32.24900
H  -0.63200 33.38400 32.24600
H  -1.41500 32.21700 31.20900
H  -2.80400 31.53200 32.99200
H  -3.18400 33.19700 33.33700
H  1.65800 39.81000 28.18800
H  2.97200 38.68000 28.42300
H  1.58700 38.61300 29.46300
H  3.87400 39.83900 24.84600
H  3.76600 39.03700 26.47600
H  2.60300 40.31000 25.99700
H  -0.36100 34.76700 21.89200
H  -3.08500 33.73500 21.93500
H  -2.90700 35.78800 20.93300
H  -1.31100 36.39400 20.90300
H  -2.27400 36.84200 22.29100
H  -1.27000 32.60700 20.91200
H  -1.99600 31.46200 22.05900
H  0.79600 32.33900 22.03200
H  -0.07100 31.01100 22.91900
H  0.03100 32.59500 23.63200
H  -6.49200 30.64900 25.86800
H  -5.41500 29.47900 26.14400
H  -5.17500 30.41300 24.57000
H  -3.82500 31.26500 30.69700
H  -7.24800 32.12700 32.99900
H  -6.88000 33.79700 32.60700
H  -6.04500 32.87000 33.98000

