79

Mg 41.30300 8.82700 30.51900
C  43.11700 10.31000 33.07100
C  38.87600 8.11800 32.80300
C  39.63200 7.49800 28.02800
C  43.80400 9.75900 28.34200
N  41.17000 9.12500 32.76300
C  41.98600 9.72600 33.65000
C  41.37800 9.87200 35.05700
C  40.07100 9.03900 34.97300
C  40.04300 8.66600 33.40600
C  40.00400 7.70800 35.86300
C  41.08800 11.37800 35.47500
C  40.07200 11.59000 36.65400
H  40.60900 12.50300 37.82000
N  39.52800 7.81700 30.51500
C  38.57100 7.73600 31.50500
C  37.38900 7.09600 31.01200
C  37.57600 6.97300 29.59800
C  38.98500 7.39400 29.31600
C  36.22800 6.68800 31.95500
C  36.64400 6.42700 28.56600
O  36.98900 6.16000 27.45600
C  35.14600 6.34800 28.86800
N  41.77100 8.41500 28.45800
C  40.89800 7.91000 27.62100
C  41.31500 7.92500 26.13000
C  42.71800 8.72800 26.26100
C  42.76300 9.01100 27.76300
C  41.29600 6.48900 25.43700
C  42.89300 10.04000 25.37600
C  41.85600 11.12700 25.54500
N  43.08000 9.76600 30.64300
C  44.01100 10.07900 29.68300
C  45.06800 10.90300 30.17600
C  44.74100 10.98900 31.58200
C  43.50400 10.27500 31.77400
C  46.26600 11.56900 29.49300
C  45.16900 11.63400 32.71400
O  46.14800 12.35000 32.98300
C  44.11300 11.26900 33.78900
C  44.84800 10.78300 34.99000
O  45.59000 9.80600 34.95500
O  44.38200 11.35800 36.09100
C  45.09200 10.93100 37.32500
H  38.04300 7.99500 33.49900
H  39.12300 7.24700 27.09500
H  44.56400 10.17400 27.67700
H  42.00400 9.53200 35.88200
H  39.20200 9.67300 35.15400
H  39.13800 7.68800 36.52500
H  40.90600 7.67400 36.47300
H  39.92100 6.75300 35.34400
H  40.52600 11.72300 34.60800
H  42.00000 11.96300 35.59100
H  39.83000 10.65400 37.15800
H  39.14800 12.01600 36.26100
H  35.33900 7.31900 31.93400
H  36.51800 6.56500 32.99900
H  35.81300 5.71600 31.68800
H  34.95800 7.25600 29.44100
H  34.81200 5.43100 29.35400
H  34.57500 6.37700 27.93900
H  40.61600 8.55200 25.57700
H  43.58800 8.16300 25.92500
H  40.47200 5.91700 25.86500
H  42.26200 6.01500 25.60800
H  41.15500 6.61700 24.36400
H  42.87500 9.68800 24.34500
H  43.91000 10.42700 25.43000
H  42.43400 11.99100 25.87300
H  41.07800 10.82200 26.24400
H  41.40000 11.50100 24.62800
H  46.98000 10.75500 29.36200
H  46.62200 12.34700 30.16800
H  46.09200 12.05100 28.53100
H  43.61900 12.19000 34.09800
H  44.36500 10.37700 37.91800
H  45.22400 11.81000 37.95600
H  46.07100 10.46500 37.21800

