79

Mg -12.88000 16.48600 41.12600
C  -10.02100 14.89900 40.31400
C  -11.56600 19.36000 39.86500
C  -16.09200 17.74500 40.92600
C  -14.34100 13.29900 41.54200
N  -10.97200 17.00600 39.95400
C  -9.90700 16.20500 39.87600
C  -8.62200 16.97100 39.44000
C  -9.18500 18.43200 39.37500
C  -10.69600 18.29200 39.79900
C  -8.36900 19.57300 40.11900
C  -8.08700 16.39500 38.14200
C  -6.52500 16.18900 38.14200
H  -5.62300 16.82600 37.07500
N  -13.71300 18.28000 40.62600
C  -12.95200 19.38100 40.20200
C  -13.79900 20.55700 40.10200
C  -15.12600 20.15600 40.35400
C  -15.04800 18.66700 40.67600
C  -13.33100 21.92900 39.68100
C  -16.31300 20.99700 40.27000
O  -16.29300 22.15700 40.02800
C  -17.70700 20.45800 40.45400
N  -14.94400 15.63500 41.42700
C  -16.04100 16.39900 41.24000
C  -17.33900 15.48000 41.19400
C  -16.71300 14.17500 41.70600
C  -15.27400 14.35900 41.38800
C  -18.58000 15.92700 42.05800
C  -17.31600 12.76200 41.15900
C  -17.90500 11.73800 42.13800
N  -12.34000 14.59400 41.18300
C  -13.00200 13.35300 41.40800
C  -12.09100 12.21100 41.29700
C  -10.86400 12.82500 41.02500
C  -11.06900 14.23100 40.86600
C  -12.33300 10.75800 41.50700
C  -9.49700 12.52700 40.77700
O  -8.86900 11.46100 40.76500
C  -8.92100 13.83700 40.25000
C  -7.65000 14.06600 40.83700
O  -7.38100 14.87100 41.72000
O  -6.68300 13.39800 40.17300
C  -5.25800 13.49600 40.57200
H  -11.07100 20.28000 39.54600
H  -17.14500 18.01500 40.81900
H  -14.78600 12.30900 41.66000
H  -7.91100 16.87100 40.25900
H  -9.19000 18.67800 38.31300
H  -7.29500 19.39100 40.11800
H  -8.67100 19.59900 41.16600
H  -8.55100 20.55900 39.69200
H  -8.36200 17.01200 37.28700
H  -8.45000 15.37300 38.04300
H  -6.36100 15.12200 37.99300
H  -6.07900 16.40400 39.11400
H  -13.78800 22.35400 38.78800
H  -12.26300 21.90500 39.46600
H  -13.55700 22.60900 40.50200
H  -18.49600 21.10100 40.06300
H  -18.01400 20.31700 41.49100
H  -17.85000 19.53700 39.88900
H  -17.63500 15.48900 40.14500
H  -16.64800 14.05400 42.78700
H  -18.36000 16.89700 42.50400
H  -18.60500 15.24700 42.90900
H  -19.51500 15.82700 41.50700
H  -16.67900 12.14800 40.52300
H  -18.12800 13.02900 40.48200
H  -18.95300 11.63600 41.85300
H  -17.91000 12.03000 43.18800
H  -17.36100 10.79400 42.17800
H  -12.59800 10.59900 42.55300
H  -11.41000 10.21700 41.30100
H  -13.12500 10.39400 40.85400
H  -8.69300 13.67400 39.19700
H  -4.79000 12.56900 40.90500
H  -5.05600 14.39400 41.15500
H  -4.66500 13.70500 39.68100

