79

Mg 35.58400 1.87000 29.97500
C  33.18400 2.91400 32.39900
C  37.96100 1.69500 32.57400
C  37.90900 1.24100 27.68200
C  33.17200 2.28100 27.43200
N  35.63400 2.35100 32.18400
C  34.50900 2.65900 32.94800
C  34.90600 2.75200 34.44400
C  36.47200 2.52300 34.44300
C  36.69100 2.10200 32.95300
C  37.38400 3.67600 34.86400
C  34.09500 1.69900 35.27800
C  33.18600 2.23600 36.50300
H  33.97900 3.33700 37.38300
N  37.75900 1.64300 30.05500
C  38.48100 1.49000 31.21000
C  39.86200 1.08400 30.82800
C  39.79800 0.89800 29.39400
C  38.44200 1.19200 28.96100
C  40.97900 0.88400 31.95900
C  40.89000 0.37100 28.47500
O  40.64700 0.07200 27.31700
C  42.33500 0.14200 28.95900
N  35.60400 2.01600 27.92000
C  36.67400 1.68800 27.17400
C  36.38800 1.77900 25.65400
C  34.89300 1.85800 25.56700
C  34.54900 2.08500 27.04100
C  37.15600 2.95800 24.96000
C  34.15100 0.60000 25.09500
C  32.96500 0.79500 24.16300
N  33.50800 2.28800 29.92900
C  32.68900 2.47100 28.78100
C  31.33600 2.75800 29.35200
C  31.54000 3.08200 30.75900
C  32.80500 2.63300 31.06500
C  30.16700 2.99000 28.46400
C  31.02900 3.56400 31.93100
O  29.93100 4.02300 32.18100
C  32.01500 3.39100 33.07500
C  32.14200 4.68000 33.77200
O  32.68000 5.66700 33.41100
O  31.40400 4.55600 34.86500
C  31.28700 5.72900 35.77300
H  38.60900 1.49000 33.42800
H  38.49800 0.94800 26.81000
H  32.39900 2.48500 26.68800
H  34.65000 3.73700 34.83300
H  36.68400 1.67900 35.09900
H  36.79300 4.50800 35.24800
H  37.89000 4.11000 34.00000
H  38.02300 3.43100 35.71200
H  34.70100 0.86200 35.62300
H  33.39700 1.22600 34.58700
H  32.71600 1.47300 37.12300
H  32.34600 2.73500 36.02000
H  40.66500 0.99900 32.99700
H  41.73300 1.64700 31.76800
H  41.45300 -0.09800 31.96700
H  42.65600 0.99200 29.56100
H  42.93000 -0.13400 28.08800
H  42.22800 -0.73200 29.60100
H  36.85500 0.86200 25.29300
H  34.52400 2.67800 24.95000
H  37.97900 2.69900 24.29400
H  37.42100 3.74300 25.66800
H  36.45700 3.38000 24.23900
H  33.91300 0.05000 26.00500
H  34.78300 -0.07900 24.52200
H  32.95400 1.80500 23.75400
H  32.13400 0.68400 24.86000
H  32.83700 0.17600 23.27400
H  29.33600 3.62500 28.77200
H  29.60600 2.09100 28.21100
H  30.51200 3.54200 27.59000
H  31.70600 2.59000 33.74600
H  30.42100 6.23200 35.34100
H  32.20200 6.32100 35.80300
H  31.01800 5.23300 36.70500

