79

Mg -8.78700 40.30200 43.07100
C  -8.03300 37.00700 41.79900
C  -5.83300 41.39300 41.62000
C  -9.86500 43.53600 43.51600
C  -11.75800 39.14400 44.30500
N  -7.21800 39.29600 41.69700
C  -7.11200 37.99100 41.37600
C  -5.75100 37.69200 40.71700
C  -5.02700 39.04700 40.89200
C  -6.09000 40.02100 41.40500
C  -3.78400 39.04800 41.81900
C  -5.81700 37.25700 39.16300
C  -5.18600 35.93600 38.80900
H  -3.98700 36.21100 37.85700
N  -7.97500 42.20200 42.69600
C  -6.69200 42.43500 42.06400
C  -6.48800 43.90800 42.03500
C  -7.60700 44.53800 42.60800
C  -8.59200 43.44300 42.94900
C  -5.20800 44.62700 41.46000
C  -7.83000 45.96200 42.76800
O  -7.00900 46.72600 42.21700
C  -8.90700 46.63400 43.62700
N  -10.57400 41.24800 43.70000
C  -10.73000 42.54100 43.92500
C  -12.02200 42.78100 44.60200
C  -12.74800 41.38200 44.77200
C  -11.61800 40.52400 44.27400
C  -11.88700 43.50900 45.99200
C  -14.14400 41.20200 44.07100
C  -15.22200 40.90700 45.08900
N  -9.68300 38.49200 43.15000
C  -10.88400 38.14800 43.80200
C  -11.12100 36.69800 43.72700
C  -10.00600 36.22500 42.98000
C  -9.22900 37.35700 42.57400
C  -12.27200 35.92600 44.19000
C  -9.49800 35.05100 42.34400
O  -9.82800 33.88000 42.54800
C  -8.19500 35.46200 41.61800
C  -7.03100 34.69700 42.06100
O  -6.46400 34.79800 43.12900
O  -6.84700 33.76400 41.08400
C  -5.61300 32.93800 41.31800
H  -4.83600 41.72600 41.32500
H  -10.20100 44.54300 43.77000
H  -12.66300 38.80100 44.81100
H  -5.26100 36.90300 41.28700
H  -4.69900 39.35700 39.89900
H  -4.08800 39.40400 42.80300
H  -3.01500 39.74800 41.49400
H  -3.48800 38.00000 41.85500
H  -5.33900 38.06000 38.60200
H  -6.88400 37.20400 38.94500
H  -5.86100 35.22500 38.33200
H  -4.71100 35.49900 39.68700
H  -5.42100 45.06400 40.48400
H  -4.40400 43.89100 41.44100
H  -4.80300 45.40100 42.11200
H  -8.65300 47.69100 43.69600
H  -9.08100 46.13900 44.58300
H  -9.85600 46.56300 43.09500
H  -12.64400 43.45900 44.01700
H  -12.77100 41.05900 45.81300
H  -10.84300 43.72300 46.21700
H  -12.20900 42.84500 46.79500
H  -12.39300 44.47400 46.01900
H  -14.21800 40.51400 43.22900
H  -14.40800 42.14200 43.58700
H  -15.47900 41.67600 45.81800
H  -14.86600 40.04300 45.65000
H  -16.15700 40.52600 44.67600
H  -13.16300 36.55500 44.20700
H  -12.11700 35.32800 45.08800
H  -12.33600 35.18400 43.39400
H  -8.37000 35.25200 40.56300
H  -4.80100 33.66500 41.33400
H  -5.40700 32.46000 40.36000
H  -5.64400 32.33200 42.22300

