79

Mg 6.82900 56.60700 42.61800
C  6.32900 53.08900 42.11500
C  9.97200 56.22500 41.29900
C  7.06900 60.01900 42.36300
C  3.46500 56.89100 43.57400
N  8.01800 54.81400 41.94300
C  7.64000 53.51000 41.74800
C  8.74700 52.61500 41.11800
C  9.95200 53.60900 41.21000
C  9.33700 54.97100 41.56900
C  11.09300 53.05800 42.04300
C  8.31100 52.15100 39.69900
C  8.77600 50.80600 39.26300
H  9.05300 50.53600 37.74300
N  8.31800 57.95200 41.90600
C  9.51600 57.56300 41.40700
C  10.35000 58.72600 41.14500
C  9.57200 59.84700 41.53100
C  8.28300 59.32000 41.94700
C  11.88500 58.57800 40.83400
C  10.04000 61.24000 41.47300
O  11.19100 61.52800 41.22200
C  9.06000 62.38300 41.71500
N  5.38300 58.25700 42.84400
C  5.80700 59.54500 42.89200
C  4.55600 60.48200 43.17400
C  3.37900 59.47800 43.52200
C  4.11800 58.16100 43.36700
C  4.77200 61.61000 44.20500
C  2.12100 59.60500 42.64800
C  0.88000 59.92800 43.51400
N  5.28600 55.31200 42.88700
C  4.04500 55.56900 43.40500
C  3.32600 54.32200 43.58100
C  4.22300 53.39900 43.12900
C  5.32300 53.98800 42.62500
C  1.92500 54.08700 44.19200
C  4.34700 51.95300 42.82000
O  3.49500 51.05100 42.79700
C  5.76200 51.71800 42.19800
C  5.33900 51.16300 40.84800
O  4.67100 51.77900 40.01800
O  5.74500 49.82000 40.73200
C  5.39000 48.98900 39.53100
H  10.96900 56.03100 40.89700
H  7.11100 61.10400 42.47500
H  2.48100 56.86900 44.04600
H  8.89800 51.72900 41.73600
H  10.38500 53.69600 40.21300
H  11.85100 52.73500 41.32900
H  10.85500 52.14100 42.58200
H  11.58100 53.72200 42.75700
H  8.85900 52.81600 39.03200
H  7.27300 52.34700 39.42700
H  8.05400 50.02500 39.50400
H  9.69500 50.54900 39.78900
H  12.08400 57.96300 39.95700
H  12.49300 58.11800 41.61300
H  12.22600 59.58200 40.58200
H  8.77000 62.43300 42.76500
H  8.18900 62.44000 41.06300
H  9.56400 63.34100 41.58300
H  4.24300 61.05700 42.30300
H  3.09600 59.45600 44.57400
H  4.64600 62.62900 43.83700
H  5.79400 61.58800 44.58300
H  4.03900 61.43400 44.99300
H  2.03400 58.69900 42.04800
H  2.23000 60.44500 41.96200
H  0.41200 58.94600 43.58500
H  0.32000 60.68300 42.96200
H  1.17900 60.36800 44.46600
H  1.28500 54.96900 44.18000
H  2.02300 53.81300 45.24300
H  1.37900 53.23200 43.79300
H  6.19100 50.94400 42.83400
H  5.15000 49.67900 38.72100
H  4.39100 48.63600 39.78900
H  6.04200 48.18100 39.19900

