79

Mg 42.67600 42.29100 25.88900
C  41.54200 44.46800 28.45200
C  43.87100 40.15500 28.18300
C  44.15300 40.69200 23.32300
C  41.66800 44.81400 23.54900
N  42.91900 42.44500 28.16100
C  42.21400 43.29800 28.99900
C  42.30900 42.83700 30.46300
C  43.15800 41.52800 30.33200
C  43.30000 41.34300 28.78900
C  44.49400 41.58700 31.09200
C  41.05800 42.67600 31.21600
C  41.28700 42.06600 32.62100
H  40.92500 43.00600 33.88200
N  43.71500 40.55600 25.73000
C  44.11700 39.77700 26.77200
C  44.62600 38.58300 26.32900
C  44.97900 38.80000 24.92900
C  44.33100 40.08300 24.59100
C  45.04100 37.45000 27.21500
C  45.66400 37.87200 23.87400
O  46.11800 38.32700 22.81400
C  46.00500 36.38400 24.28400
N  42.97700 42.75800 23.78900
C  43.56600 41.87100 22.96700
C  43.47300 42.28700 21.50600
C  42.25000 43.32300 21.60900
C  42.33300 43.69900 23.04700
C  44.73300 42.91300 20.88800
C  40.85100 42.85400 21.07100
C  40.13800 41.82100 21.99700
N  41.93000 44.25900 25.95000
C  41.45400 45.10800 24.95100
C  40.85900 46.25500 25.52000
C  40.80600 46.01300 26.87500
C  41.48300 44.78600 27.09500
C  40.39300 47.44800 24.68900
C  40.40000 46.53900 28.18100
O  39.86800 47.57900 28.59300
C  40.73800 45.44700 29.22600
C  41.61400 46.11700 30.33600
O  42.77700 46.24100 30.28500
O  40.88600 46.40000 31.39600
C  41.58500 46.83200 32.59500
H  44.19700 39.37300 28.87200
H  44.56100 40.24200 22.41600
H  41.16700 45.49600 22.85800
H  43.03900 43.52600 30.88800
H  42.54300 40.72200 30.73300
H  44.62500 42.49800 31.67600
H  45.35000 41.58900 30.41700
H  44.63300 40.77100 31.80100
H  40.35100 42.17600 30.55400
H  40.89900 43.73400 31.42300
H  42.26900 41.62600 32.79500
H  40.60700 41.21500 32.60400
H  46.11900 37.31800 27.11600
H  44.61000 36.57400 26.73100
H  44.60800 37.52700 28.21200
H  46.40500 35.73900 23.50100
H  45.11400 35.91400 24.70000
H  46.62800 36.50300 25.17000
H  43.07300 41.49700 20.87000
H  42.45600 44.24900 21.07300
H  44.41200 43.80300 20.34600
H  45.30300 42.27500 20.21300
H  45.35400 43.08400 21.76800
H  41.08400 42.51600 20.06100
H  40.26000 43.77000 21.06500
H  39.41100 42.41600 22.55000
H  40.83800 41.30300 22.65200
H  39.68500 40.97500 21.47900
H  39.86300 48.12900 25.35500
H  39.61800 47.18300 23.97000
H  41.21500 47.83700 24.08900
H  39.74500 45.15100 29.56400
H  41.49200 46.02200 33.31800
H  41.01400 47.70800 32.90100
H  42.62000 47.12300 32.41600

