79

Mg 26.73100 1.09100 28.91500
C  28.70400 0.56800 31.80000
C  23.99200 0.94200 30.92600
C  24.97200 1.30400 26.22400
C  29.61500 0.23400 27.01600
N  26.42000 0.73500 31.09300
C  27.32600 0.75400 32.10600
C  26.76000 0.83700 33.50900
C  25.22400 0.90400 33.13700
C  25.22200 0.75800 31.63100
C  24.23400 -0.06500 33.89600
C  27.22200 2.04900 34.33700
C  26.40800 2.67200 35.49600
H  26.87100 2.07600 36.85200
N  24.72300 1.39600 28.63900
C  23.73200 1.30800 29.57900
C  22.35600 1.39300 28.90400
C  22.69600 1.48300 27.45600
C  24.16600 1.47500 27.39800
C  21.04300 1.29100 29.58700
C  21.76100 1.75400 26.29500
O  22.19700 2.06700 25.15100
C  20.30600 1.72000 26.45700
N  27.22600 0.78800 26.90100
C  26.30800 0.97200 25.97100
C  26.82500 0.85900 24.52100
C  28.30500 0.52400 24.79400
C  28.45200 0.60600 26.29900
C  26.14900 -0.20200 23.60400
C  29.30700 1.51500 24.03300
C  29.99800 2.62100 24.69900
N  28.71700 0.46200 29.24900
C  29.78600 0.10700 28.41400
C  30.92700 -0.29000 29.18800
C  30.58000 0.01500 30.47700
C  29.19200 0.38700 30.46000
C  32.26900 -0.74400 28.68400
C  31.16600 -0.01500 31.85400
O  32.31700 -0.17700 32.29700
C  29.88600 0.29200 32.76200
C  29.60200 -0.78800 33.65300
O  29.22500 -1.91400 33.30600
O  29.80400 -0.40600 34.92600
C  29.49900 -1.40100 35.95000
H  23.09700 0.95800 31.55100
H  24.29000 1.24700 25.37300
H  30.49700 -0.02700 26.42700
H  27.04200 0.02900 34.18300
H  24.83600 1.85100 33.51200
H  24.22800 -1.04300 33.41500
H  23.22500 0.34600 33.91000
H  24.63100 -0.23400 34.89700
H  27.33100 2.92700 33.70100
H  28.23500 1.80900 34.66200
H  25.38900 2.29000 35.43500
H  26.42600 3.76200 35.47700
H  20.53700 2.24500 29.43600
H  21.21200 1.14000 30.65400
H  20.47700 0.42000 29.26000
H  19.88100 1.83400 25.46000
H  20.00900 2.39600 27.25900
H  20.10900 0.71300 26.82300
H  26.78800 1.86100 24.09400
H  28.58000 -0.50100 24.54200
H  26.76300 -1.09200 23.46600
H  25.94700 0.13200 22.58600
H  25.30000 -0.53500 24.20100
H  28.81200 1.86600 23.12800
H  30.14500 0.86400 23.78500
H  29.99000 3.46100 24.00400
H  31.00100 2.35300 25.03200
H  29.38100 3.10100 25.45800
H  32.64600 0.12900 28.15100
H  32.30300 -1.52000 27.92000
H  32.97100 -1.03000 29.46800
H  30.05400 1.23500 33.28100
H  30.09200 -2.28700 35.72100
H  28.46600 -1.73200 36.06100
H  29.85900 -1.05600 36.91900

