79

Mg 0.85400 7.89100 25.66400
C  1.49200 10.03500 28.37800
C  1.08200 5.16000 27.80600
C  0.84000 5.86900 23.00100
C  1.24900 10.67800 23.55100
N  1.26500 7.62200 27.79400
C  1.35300 8.71200 28.77100
C  1.54200 8.11600 30.22500
C  1.55900 6.51700 29.93300
C  1.27900 6.40400 28.40800
C  2.90900 5.77400 30.37400
C  0.33700 8.53700 31.11900
C  0.48300 8.50900 32.60900
H  1.73200 7.89500 33.20000
N  0.69500 5.85100 25.46900
C  0.84200 4.90000 26.46600
C  0.87300 3.59300 25.86400
C  0.85600 3.74500 24.45700
C  0.79000 5.17600 24.24400
C  0.97300 2.34800 26.73800
C  0.80300 2.73700 23.33800
O  0.60400 3.05200 22.19100
C  0.91100 1.34400 23.63800
N  1.11700 8.24700 23.63400
C  0.90100 7.24200 22.72300
C  0.94000 7.73500 21.24600
C  1.05100 9.31800 21.44000
C  1.09200 9.44200 22.97900
C  2.01800 7.11200 20.32700
C  -0.04800 10.14200 20.75400
C  -1.40000 10.19800 21.44800
N  1.20500 9.98400 25.86800
C  1.39900 10.95300 24.91100
C  1.73800 12.22700 25.53700
C  1.76200 11.92300 26.93700
C  1.48600 10.53400 27.06500
C  2.10600 13.57000 24.99000
C  1.91900 12.49500 28.23200
O  2.09200 13.68200 28.53600
C  1.74600 11.22700 29.23100
C  2.89700 11.13700 30.26100
O  4.08300 11.20900 29.97800
O  2.34900 11.10700 31.48900
C  3.25000 11.30500 32.58700
H  1.26000 4.38100 28.55000
H  0.94600 5.18000 22.16000
H  1.29800 11.52000 22.85800
H  2.44400 8.56400 30.64000
H  0.67200 6.03200 30.34200
H  3.52300 6.36900 31.05000
H  3.49300 5.43500 29.51800
H  2.66800 4.84000 30.88100
H  -0.47500 7.83900 30.91600
H  -0.09400 9.52200 30.94300
H  -0.45200 8.15700 33.04600
H  0.52500 9.55200 32.92100
H  1.59400 1.57600 26.28400
H  -0.06000 1.99900 26.76900
H  1.30000 2.55200 27.75800
H  0.60500 0.82500 22.73000
H  0.20000 1.05300 24.41100
H  1.97200 1.13900 23.77700
H  -0.02800 7.56000 20.77500
H  2.01600 9.69600 21.10400
H  2.79400 6.85700 21.05000
H  2.50400 7.79300 19.62900
H  1.57100 6.24800 19.83500
H  -0.10500 9.62700 19.79500
H  0.20200 11.17300 20.50500
H  -2.30300 9.96100 20.88400
H  -1.49600 11.19100 21.88800
H  -1.50000 9.42700 22.21100
H  2.88100 13.48200 24.22800
H  2.49100 14.20800 25.78600
H  1.26000 14.02700 24.47800
H  0.86700 11.45500 29.83400
H  2.62500 11.19500 33.47400
H  3.74500 12.27100 32.49000
H  4.03600 10.56800 32.75000

