79

Mg 44.05000 3.43800 47.44400
C  41.70300 6.12400 47.16700
C  41.50900 1.18100 47.19000
C  46.34900 0.96500 47.13300
C  46.54300 5.84300 46.88600
N  41.85800 3.64500 47.03100
C  41.10800 4.80600 47.08100
C  39.65300 4.48500 46.71800
C  39.56800 2.98500 47.14400
C  41.07700 2.53000 47.06700
C  39.01200 2.64900 48.60600
C  39.39600 4.75900 45.18200
C  38.44500 5.81300 44.79800
H  38.90100 6.64000 43.58300
N  44.00700 1.36700 47.32300
C  42.84800 0.68700 47.18400
C  43.15900 -0.74000 47.14100
C  44.59100 -0.92700 47.08300
C  45.05300 0.49500 47.10100
C  42.05200 -1.75900 47.20100
C  45.35200 -2.23100 46.93400
O  44.87200 -3.34600 47.05400
C  46.78300 -2.17700 46.65000
N  46.16000 3.39500 46.89800
C  46.88400 2.26500 47.06400
C  48.41200 2.51700 46.97200
C  48.50400 4.08300 46.84700
C  46.96700 4.48300 46.78800
C  49.16500 1.90600 48.15300
C  49.32900 4.51600 45.57900
C  50.78100 4.80800 45.85700
N  44.14300 5.60700 47.16900
C  45.19500 6.47000 46.94800
C  44.81300 7.82300 46.92900
C  43.39600 7.71900 47.11000
C  43.05900 6.40900 47.20600
C  45.76600 9.00000 46.86900
C  42.12200 8.54000 47.14100
O  41.96300 9.76700 47.01400
C  40.94100 7.40900 47.07400
C  40.06000 7.71100 48.21400
O  40.02700 7.18800 49.31300
O  39.26200 8.72200 47.76400
C  38.63600 9.57100 48.79900
H  40.68900 0.46500 47.28500
H  47.12700 0.19900 47.14100
H  47.24200 6.68100 46.84800
H  38.96900 5.01900 47.37800
H  39.07800 2.38500 46.37700
H  38.66400 3.58300 49.04800
H  39.78100 2.15100 49.19700
H  38.14000 2.02500 48.41000
H  39.17100 3.86500 44.60100
H  40.39300 5.05900 44.85900
H  38.35700 6.48900 45.64900
H  37.45300 5.40200 44.61200
H  42.53100 -2.69200 46.90200
H  41.30100 -1.35200 46.52400
H  41.77700 -1.81100 48.25500
H  47.11600 -1.71400 45.72100
H  47.19500 -3.18500 46.66900
H  47.28100 -1.75600 47.52300
H  48.88100 2.09700 46.08300
H  48.95400 4.57800 47.70700
H  49.51700 2.79600 48.67400
H  50.07300 1.38000 47.85900
H  48.54800 1.23300 48.74900
H  48.96700 5.45300 45.15600
H  49.29800 3.81100 44.74800
H  50.80500 5.89300 45.95000
H  51.34300 4.49100 44.97800
H  51.12400 4.32800 46.77300
H  46.29100 9.10000 45.91900
H  46.56600 8.96100 47.60700
H  45.18800 9.88200 47.14600
H  40.37200 7.62100 46.16900
H  38.96800 10.60900 48.78500
H  38.83200 9.13900 49.78000
H  37.56000 9.62000 48.63000

