79

Mg 53.54700 24.36800 44.70000
C  50.73200 26.38600 44.23700
C  51.73000 21.71900 44.23500
C  56.53500 22.55000 44.13400
C  55.49300 27.29000 45.13500
N  51.43200 24.16100 44.21300
C  50.45900 25.05700 44.01100
C  49.13100 24.36800 43.69600
C  49.45100 22.87600 43.92200
C  50.96100 22.89700 44.23200
C  48.58500 22.07200 44.97100
C  48.54600 24.64600 42.26400
C  49.50200 24.59700 41.10200
H  49.04600 24.37500 39.64500
N  54.05400 22.29300 44.31800
C  53.14500 21.37500 44.22800
C  53.76600 20.07100 43.98100
C  55.17900 20.24600 44.01000
C  55.32500 21.73500 44.11700
C  52.96900 18.82200 43.92800
C  56.24300 19.15200 44.01400
O  56.00100 17.98400 43.89800
C  57.68800 19.51700 44.24700
N  55.80700 24.91300 44.74700
C  56.78800 23.97500 44.35700
C  58.14900 24.75900 44.28600
C  57.78500 26.24700 44.58100
C  56.28100 26.15400 44.90700
C  59.26700 24.21100 45.23100
C  58.15600 27.36200 43.51600
C  59.51800 28.09500 43.74200
N  53.20400 26.36300 44.81500
C  54.13200 27.45200 45.02400
C  53.36500 28.67400 45.06700
C  52.06300 28.28900 44.73700
C  52.03300 26.91200 44.61500
C  53.93500 30.00400 45.22000
C  50.75000 28.81400 44.58800
O  50.24100 29.96400 44.70600
C  49.83200 27.65700 44.13000
C  49.38700 27.90800 42.74500
O  50.13900 28.12000 41.81200
O  48.10400 28.43000 42.86000
C  47.45600 28.97000 41.63400
H  51.10000 20.83200 44.14000
H  57.53000 22.12400 43.98800
H  56.00300 28.24900 45.24800
H  48.36600 24.73500 44.38000
H  49.23900 22.21900 43.07800
H  48.29700 22.64600 45.85200
H  49.08700 21.22600 45.44100
H  47.73000 21.74700 44.37900
H  48.02100 25.59400 42.14700
H  47.87000 23.85300 41.94600
H  50.31500 23.87300 41.15800
H  50.11100 25.49600 41.19200
H  53.52500 17.91400 43.69100
H  52.13900 18.75300 43.22500
H  52.67700 18.68500 44.96900
H  58.24600 18.59700 44.41900
H  57.69000 19.91700 45.26100
H  58.01400 20.20300 43.46400
H  58.50200 24.77700 43.25500
H  58.29600 26.55000 45.49500
H  58.81400 23.55900 45.97800
H  59.69700 25.01900 45.82300
H  60.04100 23.74400 44.62200
H  57.39000 28.13600 43.47300
H  58.21700 26.98100 42.49700
H  59.37500 29.17500 43.71500
H  60.29300 27.90600 42.99900
H  59.99700 27.87000 44.69500
H  53.91700 30.31800 44.17700
H  54.90000 30.00200 45.72700
H  53.18700 30.46400 45.86700
H  48.98400 27.59700 44.81200
H  46.53300 29.43300 41.98500
H  47.11900 28.04200 41.17400
H  47.91200 29.69500 40.96000

