79

Mg 49.27100 46.18300 42.07000
C  45.87400 46.31200 41.17900
C  49.46800 42.98700 40.78500
C  52.52900 46.39500 42.37500
C  49.01400 49.56600 43.07600
N  47.79600 44.76600 41.11200
C  46.46300 45.08900 40.77300
C  45.79700 43.88400 40.08300
C  46.86100 42.72200 40.27900
C  48.13000 43.49700 40.78300
C  46.44400 41.49700 41.20800
C  45.54200 44.34700 38.58400
C  44.06700 44.13500 38.00200
H  44.01100 43.20900 36.81300
N  50.85100 44.86900 41.51300
C  50.71500 43.60000 41.08100
C  52.04600 43.00000 41.05000
C  53.00500 44.01800 41.51000
C  52.12300 45.13100 41.92800
C  52.34300 41.71400 40.34100
C  54.52900 43.85400 41.57400
O  55.07400 42.77800 41.35600
C  55.40600 45.02200 41.88200
N  50.60700 47.71900 42.73100
C  51.89600 47.62500 42.66700
C  52.66100 48.96200 42.89800
C  51.45300 49.95400 42.96900
C  50.27300 48.99800 43.03800
C  53.57600 48.99000 44.17800
C  51.36300 51.04700 41.84600
C  51.22400 52.46000 42.34600
N  47.74400 47.63800 42.26800
C  47.80700 48.89300 42.72900
C  46.49500 49.58000 42.57300
C  45.69000 48.55000 41.93100
C  46.48600 47.41800 41.81100
C  46.12800 50.92900 42.99700
C  44.42500 48.31100 41.27600
O  43.45300 49.00400 41.11000
C  44.42700 46.78200 40.93900
C  43.53100 46.05600 41.84900
O  43.83000 45.75400 42.97600
O  42.27500 45.72700 41.23200
C  41.18000 45.30300 42.14700
H  49.59400 41.91000 40.66300
H  53.56700 46.72700 42.30600
H  49.05800 50.64900 43.21300
H  44.88600 43.66200 40.63800
H  47.02200 42.37000 39.26000
H  47.05200 41.60500 42.10700
H  46.62500 40.56000 40.68100
H  45.38500 41.51100 41.46400
H  46.13700 43.72500 37.91500
H  45.83400 45.38800 38.44000
H  43.71000 45.15400 37.84700
H  43.42100 43.72200 38.77600
H  51.55600 41.47100 39.62700
H  52.35100 40.92100 41.08900
H  53.25500 41.76000 39.74600
H  56.43400 44.65800 41.87300
H  55.16200 45.33600 42.89700
H  55.46100 45.84700 41.17100
H  53.23000 49.16200 41.99000
H  51.40900 50.45900 43.93300
H  54.05800 49.96700 44.21200
H  54.41000 48.30700 44.01800
H  53.05100 48.81000 45.11600
H  50.56100 50.81700 41.14500
H  52.29800 50.93800 41.29700
H  50.24100 52.73400 41.96000
H  51.93700 53.15600 41.90400
H  51.16200 52.60700 43.42400
H  46.75800 51.19400 43.84500
H  45.05400 51.10600 43.05500
H  46.56300 51.54700 42.21100
H  44.17300 46.57100 39.90100
H  40.21500 45.77500 41.95800
H  41.55700 45.67400 43.10000
H  41.15600 44.21300 42.13600

