79

Mg 47.69600 25.50200 27.72900
C  48.71600 27.79400 30.24300
C  46.61100 23.40900 30.17500
C  47.26700 23.32400 25.48800
C  49.88500 27.23400 25.43400
N  47.71600 25.70100 29.95900
C  47.97100 26.74200 30.75300
C  47.35500 26.58500 32.16300
C  46.92300 25.11400 32.04800
C  46.95000 24.71000 30.59700
C  47.43100 24.13700 33.14900
C  46.22700 27.64500 32.44600
C  46.36300 28.45300 33.80300
H  45.23200 28.14800 34.78700
N  46.94700 23.68000 27.79600
C  46.62800 22.88700 28.87100
C  45.89800 21.68900 28.37400
C  45.90300 21.74000 27.03900
C  46.70400 22.99800 26.70400
C  45.27800 20.71800 29.35500
C  45.25200 20.83800 26.06800
O  45.37400 21.01100 24.85000
C  44.59000 19.54000 26.60800
N  48.59000 25.20200 25.79600
C  47.99400 24.31800 25.04300
C  48.47500 24.32800 23.59200
C  49.09700 25.72200 23.53100
C  49.23200 26.07200 24.99800
C  49.54100 23.26800 23.35400
C  48.21400 26.74800 22.84300
C  48.45400 26.95400 21.35200
N  49.01900 27.15500 27.74800
C  49.75800 27.76500 26.74800
C  50.33700 28.98400 27.33600
C  49.98200 29.05500 28.61400
C  49.17700 27.91900 28.86000
C  51.20700 29.91400 26.56000
C  50.02700 29.86900 29.76400
O  50.55400 30.94300 29.99700
C  49.17600 29.15000 30.90500
C  49.92800 29.07800 32.20800
O  51.02800 28.69000 32.32800
O  49.20900 29.75800 33.13800
C  49.85000 29.91600 34.44100
H  46.36000 22.68900 30.95800
H  47.09700 22.62000 24.67200
H  50.41600 27.79300 24.66000
H  48.08900 26.71600 32.95800
H  45.84400 25.05900 32.19400
H  46.57700 23.55600 33.49500
H  47.80100 24.58600 34.07100
H  48.20500 23.52500 32.68500
H  45.27900 27.11900 32.55500
H  46.15300 28.34200 31.61100
H  46.34600 29.53600 33.68100
H  47.28600 28.12500 34.28100
H  44.20200 20.74500 29.18800
H  45.61700 20.81200 30.38700
H  45.64800 19.75700 28.99700
H  43.80100 19.77700 27.32200
H  45.39800 18.98300 27.08300
H  44.26400 18.92700 25.76800
H  47.60500 24.18900 22.94900
H  50.05200 25.83400 23.01800
H  50.47300 23.76100 23.07700
H  49.18600 22.47300 22.69700
H  49.70200 22.71900 24.28200
H  48.19900 27.73900 23.29500
H  47.18000 26.47700 23.05200
H  47.53500 26.86700 20.77200
H  49.16100 26.21100 20.98400
H  48.95900 27.91800 21.29200
H  50.86500 29.93700 25.52500
H  52.21200 29.49400 26.55000
H  51.37200 30.88500 27.02700
H  48.27500 29.75000 31.02900
H  49.59700 29.09900 35.11700
H  49.46200 30.87000 34.79600
H  50.92500 30.07600 34.34900

