79

Mg 27.49700 50.26900 26.98500
C  25.31700 51.44000 29.40500
C  29.77600 49.61100 29.40900
C  29.65000 49.56500 24.50200
C  25.33300 51.51700 24.58500
N  27.54900 50.56200 29.24500
C  26.43100 50.82600 30.01900
C  26.73300 50.68800 31.52700
C  28.28800 50.18500 31.47800
C  28.54200 50.11600 29.95500
C  29.38200 50.89900 32.34200
C  25.78700 49.64600 32.25400
C  25.12600 50.21900 33.45000
H  24.82900 49.31100 34.66000
N  29.40800 49.51400 26.96800
C  30.20100 49.36100 28.06200
C  31.52500 48.91900 27.66900
C  31.50900 48.99600 26.19800
C  30.17900 49.34500 25.81600
C  32.62700 48.64600 28.61800
C  32.71000 48.77900 25.26600
O  32.56300 48.83500 24.06400
C  34.08600 48.42400 25.78800
N  27.50500 50.46700 24.80700
C  28.46500 50.06800 24.00400
C  28.18900 50.43600 22.58300
C  26.68800 50.92600 22.60300
C  26.46300 50.92500 24.14200
C  29.29700 51.43800 22.08600
C  25.58200 50.11000 21.84600
C  24.90300 50.99000 20.72200
N  25.69900 51.24400 26.92000
C  24.94900 51.71300 25.91600
C  23.72700 52.26800 26.42700
C  23.81300 52.17600 27.78700
C  25.01000 51.54100 28.01900
C  22.61100 52.82400 25.57300
C  23.16500 52.47300 28.98800
O  22.05300 52.87500 29.25600
C  24.10600 52.03200 30.09700
C  24.36100 53.24700 30.90300
O  25.29800 54.02500 30.74500
O  23.43500 53.36000 31.97000
C  23.73200 54.35600 32.93100
H  30.47900 49.44000 30.22700
H  30.31700 49.40400 23.65200
H  24.59800 51.74400 23.81000
H  26.63800 51.65600 32.01900
H  28.31700 49.15500 31.83400
H  29.90000 51.58600 31.67400
H  30.05700 50.19400 32.82700
H  29.08800 51.53900 33.17400
H  26.28800 48.76300 32.65100
H  24.96700 49.37500 31.59000
H  24.15800 50.66500 33.22200
H  25.69400 51.09700 33.75900
H  32.44800 49.22700 29.52300
H  33.57300 49.01700 28.22400
H  32.72800 47.57300 28.77900
H  34.07000 47.62300 26.52700
H  34.42600 49.31800 26.31100
H  34.65900 48.21400 24.88400
H  28.30300 49.52000 22.00300
H  26.74000 51.96900 22.29300
H  28.78200 52.38800 21.94700
H  29.76300 51.12500 21.15200
H  30.07200 51.43100 22.85300
H  24.84100 49.87900 22.61100
H  25.81400 49.16900 21.34700
H  25.30600 51.99800 20.82600
H  23.84500 50.86100 20.94600
H  25.03700 50.67000 19.68900
H  22.89900 52.61400 24.54300
H  22.68100 53.91100 25.61200
H  21.60000 52.61600 25.92200
H  23.50700 51.34600 30.69500
H  23.81800 55.35000 32.49100
H  24.59800 54.15300 33.56000
H  22.82800 54.34800 33.54100

