79

Mg 7.99800 1.28300 28.83300
C  9.73200 0.12200 31.68100
C  6.07200 3.19600 30.82300
C  6.25600 2.21700 26.03500
C  9.63300 -1.21000 26.93000
N  8.00400 1.63900 31.07000
C  8.86800 1.17600 32.02800
C  8.65400 1.91500 33.41000
C  7.35400 2.76000 33.09700
C  7.14600 2.57900 31.52700
C  6.08600 2.21800 33.79900
C  9.98700 2.65400 33.88200
C  10.58800 2.32500 35.27400
H  9.64200 2.32300 36.50300
N  6.45000 2.49600 28.50800
C  5.80700 3.23300 29.44600
C  4.69800 3.90400 28.88100
C  4.85200 3.77700 27.43200
C  5.91200 2.78200 27.24200
C  3.64300 4.70400 29.71400
C  3.99600 4.37000 26.28100
O  3.99600 3.96300 25.15700
C  3.05000 5.46000 26.60900
N  8.07200 0.67800 26.82600
C  7.26900 1.27100 25.84700
C  7.47000 0.66600 24.45400
C  8.65500 -0.37100 24.74300
C  8.74400 -0.39500 26.26100
C  6.16700 -0.07200 23.88200
C  10.00600 0.01300 24.14500
C  10.78500 1.30000 24.42400
N  9.38800 -0.21700 29.20500
C  9.96800 -1.13200 28.32000
C  10.98900 -1.86800 28.99800
C  10.90200 -1.46000 30.32600
C  9.87400 -0.48200 30.37300
C  11.66900 -3.05100 28.57300
C  11.46500 -1.62500 31.63900
O  12.34000 -2.40000 32.01400
C  10.72500 -0.57600 32.57100
C  9.99200 -1.26200 33.79200
O  8.82700 -1.70400 33.71900
O  10.76000 -1.31400 34.96000
C  10.05100 -1.78600 36.09300
H  5.54900 4.00900 31.33100
H  5.69200 2.51600 25.14900
H  10.21000 -1.93900 26.35800
H  8.40500 1.14000 34.13600
H  7.48800 3.82100 33.31000
H  6.01000 2.80300 34.71600
H  6.20300 1.14700 33.96000
H  5.18100 2.38300 33.21500
H  9.75500 3.69500 34.10700
H  10.77900 2.65400 33.13300
H  11.25300 3.17200 35.44400
H  11.21600 1.43500 35.25800
H  4.07500 5.62900 30.09600
H  3.41400 4.23200 30.66900
H  2.67100 4.87500 29.25100
H  2.64000 6.01100 25.76300
H  3.77000 6.12000 27.09400
H  2.17000 5.16100 27.17800
H  7.72000 1.37500 23.66600
H  8.39600 -1.39500 24.47300
H  5.38500 0.15800 24.60600
H  6.37100 -1.14300 23.84800
H  5.80900 0.34200 22.93900
H  9.88700 0.00500 23.06200
H  10.63500 -0.86300 24.30000
H  10.44700 1.87400 25.28600
H  10.90100 1.84700 23.48800
H  11.75700 0.96500 24.78800
H  11.28600 -3.35700 27.59900
H  11.67500 -3.90500 29.25000
H  12.71800 -2.75600 28.56900
H  11.35400 0.18400 33.03500
H  8.97600 -1.60700 36.09900
H  10.54600 -1.30600 36.93800
H  10.05100 -2.87600 36.12500

