79

Mg 1.20600 42.99200 26.40200
C  3.29700 43.09600 29.20100
C  -1.39300 42.11600 28.50700
C  -0.62100 42.34400 23.72900
C  3.89100 43.72500 24.32300
N  1.00700 42.76000 28.61500
C  2.02600 42.75800 29.55200
C  1.46800 42.47300 31.01000
C  0.00400 41.89000 30.66400
C  -0.07900 42.16400 29.13600
C  -0.23900 40.45500 30.99600
C  1.52800 43.72900 31.91800
C  1.60800 43.40500 33.42400
H  1.22700 41.98300 33.95700
N  -0.72500 42.49200 26.19500
C  -1.67000 42.31300 27.18400
C  -2.98000 42.09500 26.53200
C  -2.72400 42.08300 25.09500
C  -1.34200 42.32200 24.96500
C  -4.33200 41.91600 27.37800
C  -3.73200 41.96100 24.03500
O  -3.48300 42.04000 22.81500
C  -5.18500 41.65900 24.43800
N  1.67000 42.82400 24.32500
C  0.67400 42.54700 23.44100
C  1.29800 42.45600 22.05600
C  2.56500 43.34800 22.16400
C  2.71000 43.30600 23.67300
C  1.70100 40.99200 21.84700
C  2.46600 44.73700 21.54800
C  2.30200 45.96600 22.51700
N  3.19300 43.38800 26.63600
C  4.19200 43.60900 25.71300
C  5.46100 43.79500 26.45300
C  5.11800 43.65000 27.80800
C  3.75600 43.29000 27.85900
C  6.73600 44.08800 25.81200
C  5.70200 43.62800 29.03300
O  6.88100 43.74000 29.35700
C  4.49800 43.39600 30.04600
C  4.88000 42.34500 31.05200
O  5.05700 41.16700 30.86500
O  4.89200 43.01900 32.26800
C  5.04900 42.08600 33.38200
H  -2.25100 41.72800 29.06000
H  -1.23700 42.19100 22.84100
H  4.71800 43.95800 23.65000
H  1.96800 41.69200 31.58300
H  -0.76000 42.49100 31.15700
H  -0.09900 39.85400 30.09700
H  -1.21100 40.36700 31.48100
H  0.35700 40.15300 31.85700
H  0.66700 44.28400 31.54500
H  2.38900 44.33800 31.64200
H  0.90800 44.08700 33.90500
H  2.58300 43.68700 33.82100
H  -5.04300 42.63500 26.97000
H  -4.21300 42.14700 28.43700
H  -4.68000 40.88500 27.31600
H  -5.59200 42.53500 24.94200
H  -5.19200 40.83400 25.15000
H  -5.84300 41.45200 23.59400
H  0.64500 42.83300 21.26900
H  3.48200 42.85400 21.84100
H  2.68000 40.83700 21.39300
H  1.08600 40.74200 20.98200
H  1.56500 40.33300 22.70500
H  1.70000 44.76600 20.77300
H  3.43300 44.88100 21.06700
H  3.27200 46.46400 22.52200
H  2.13700 45.69400 23.55900
H  1.55900 46.69600 22.19500
H  7.30000 43.97900 26.73800
H  6.57100 45.11000 25.46900
H  6.87200 43.38700 24.98800
H  4.37600 44.33000 30.59400
H  4.79700 41.04400 33.18400
H  4.25400 42.25400 34.11000
H  6.04200 42.21900 33.81200

