79

Mg 8.04900 2.44100 27.37000
C  9.72500 0.94000 30.29000
C  6.44200 4.59600 29.45200
C  6.18900 3.44600 24.73700
C  9.71700 0.10000 25.43900
N  8.08000 2.61100 29.58100
C  8.89500 2.01800 30.60200
C  8.66100 2.65600 31.90100
C  7.46400 3.55900 31.60200
C  7.34800 3.67800 30.07300
C  6.08400 3.15500 32.23100
C  9.89400 3.26800 32.65300
C  10.47900 2.52700 33.93300
H  11.12000 3.36700 35.07200
N  6.41900 3.68300 27.18400
C  5.95100 4.55900 28.10800
C  4.86000 5.38400 27.59100
C  4.81200 5.08700 26.23500
C  5.84700 3.98400 26.00300
C  4.04700 6.35600 28.46000
C  3.80600 5.57800 25.18400
O  3.74100 5.22400 23.99800
C  2.74800 6.46800 25.68000
N  7.92600 1.86900 25.41400
C  7.12400 2.46100 24.44200
C  7.45300 1.88600 23.05400
C  8.60000 0.90500 23.24000
C  8.73700 0.88800 24.80800
C  6.26000 1.27600 22.26400
C  9.95500 1.14500 22.52800
C  10.44300 0.14800 21.50800
N  9.49300 0.77000 27.73200
C  10.02700 -0.07400 26.79900
C  10.95700 -0.93600 27.49900
C  10.88200 -0.62000 28.85100
C  9.96700 0.46400 28.91700
C  11.78000 -2.06400 26.79200
C  11.35600 -0.94000 30.18700
O  12.15800 -1.78500 30.48600
C  10.75300 0.10700 31.17700
C  10.13100 -0.54200 32.38600
O  8.89100 -0.79000 32.52800
O  11.05200 -0.82300 33.38600
C  10.34800 -1.06000 34.64500
H  5.99000 5.31500 30.13800
H  5.64100 3.93600 23.92900
H  10.19600 -0.57900 24.73100
H  8.14500 1.94200 32.54200
H  7.56000 4.57600 31.98100
H  5.37000 3.91900 32.53900
H  6.31400 2.65200 33.17000
H  5.50000 2.65500 31.45900
H  9.64600 4.25700 33.03800
H  10.62300 3.34500 31.84600
H  11.24100 1.83400 33.57600
H  9.69000 1.98700 34.45700
H  4.47000 6.46100 29.45800
H  3.04000 5.94200 28.52200
H  4.09500 7.29500 27.90900
H  2.04000 5.94500 26.32200
H  2.12700 6.85000 24.86900
H  3.25100 7.33200 26.11400
H  7.79500 2.74000 22.47000
H  8.38800 -0.13100 22.97400
H  5.33200 1.47300 22.80200
H  6.28600 0.20400 22.06900
H  6.39400 1.83000 21.33600
H  10.67500 1.18400 23.34600
H  10.03400 2.14800 22.10800
H  10.75300 0.86100 20.74400
H  9.65600 -0.54800 21.21800
H  11.28800 -0.46500 21.82200
H  11.60600 -3.01600 27.29300
H  12.83300 -1.78500 26.84000
H  11.43500 -2.20200 25.76800
H  11.53600 0.72200 31.61900
H  9.75000 -0.22700 35.01400
H  11.05300 -1.23900 35.45700
H  9.57100 -1.82400 34.61600

