79

Mg 30.36300 57.80300 39.98900
C  27.55200 56.04600 38.98600
C  32.39200 55.36600 38.70800
C  32.90500 59.99300 40.04600
C  28.18700 60.55100 40.58500
N  30.01900 55.90400 39.01300
C  28.75500 55.37800 38.76700
C  28.89400 54.11700 37.88000
C  30.42300 53.72500 38.05700
C  31.01900 55.09800 38.61800
C  30.60400 52.61400 39.04600
C  28.54000 54.45400 36.34400
C  27.37000 53.78800 35.65900
H  26.66700 54.71100 34.62200
N  32.40300 57.67500 39.56800
C  33.06500 56.59000 39.03600
C  34.47600 56.90500 39.12400
C  34.64800 58.20600 39.63800
C  33.27100 58.66400 39.81000
C  35.43500 55.89500 38.66600
C  36.00400 58.86000 39.80200
O  37.05000 58.25300 39.60300
C  36.10800 60.31200 40.36100
N  30.48600 60.03600 40.17600
C  31.71900 60.67300 40.16900
C  31.52200 62.12700 40.61000
C  29.93300 62.28200 40.83300
C  29.52600 60.90400 40.53200
C  32.26300 62.70200 41.87400
C  29.22000 63.44200 40.01800
C  28.27100 64.39000 40.76300
N  28.20800 58.21300 40.01900
C  27.49500 59.28300 40.29900
C  26.08300 58.98200 40.26300
C  26.05300 57.66100 39.76100
C  27.44500 57.31300 39.52000
C  24.96300 59.85000 40.58100
C  25.19000 56.55000 39.22400
O  23.97500 56.56500 39.01000
C  26.15100 55.41600 38.72800
C  25.96100 54.22200 39.57900
O  26.54800 54.04000 40.65400
O  25.23900 53.27900 38.84100
C  24.51400 52.33600 39.65100
H  33.00800 54.49000 38.49800
H  33.69600 60.74500 40.08600
H  27.51000 61.39200 40.74600
H  28.17000 53.35400 38.16600
H  30.91700 53.51900 37.10700
H  29.72400 52.40700 39.65500
H  31.44200 52.89100 39.68600
H  30.98100 51.73100 38.53100
H  29.48600 54.41200 35.80300
H  28.28600 55.51300 36.33300
H  26.63800 53.42700 36.38200
H  27.71100 52.93500 35.07300
H  35.91500 56.10500 37.71000
H  35.00500 54.91000 38.48400
H  36.19700 55.91700 39.44500
H  35.62500 60.95800 39.62800
H  37.17700 60.47900 40.49600
H  35.65900 60.40900 41.34900
H  31.75100 62.70100 39.71200
H  29.75700 62.31500 41.90800
H  33.04100 62.06000 42.28900
H  31.60400 63.06600 42.66200
H  32.86700 63.54800 41.54700
H  28.70300 63.20100 39.09000
H  30.05200 64.09000 39.74300
H  27.34200 64.22800 40.21700
H  28.43800 65.46600 40.71200
H  28.13300 64.15500 41.81800
H  24.06200 59.24900 40.70300
H  24.76100 60.52100 39.74600
H  25.09200 60.44800 41.48300
H  26.09800 55.08400 37.69100
H  24.46100 52.69800 40.67800
H  25.00000 51.36000 39.66700
H  23.48300 52.14800 39.34900

