79

Mg -1.67400 17.53500 26.29600
C  -1.78700 15.16800 28.84200
C  -2.39200 19.95000 28.69900
C  -2.02000 19.84600 23.86600
C  -1.68100 14.90700 23.98300
N  -2.17300 17.50300 28.39800
C  -1.92400 16.47400 29.28900
C  -2.35200 16.84000 30.71700
C  -2.79000 18.33900 30.60500
C  -2.45100 18.62200 29.11100
C  -4.31900 18.63700 30.83100
C  -1.42600 16.59900 31.89300
C  -2.22800 15.97100 33.05400
H  -1.32800 15.38100 34.13500
N  -2.02100 19.66600 26.27100
C  -2.23500 20.44200 27.35600
C  -2.28600 21.83800 26.95200
C  -2.15900 21.80500 25.53300
C  -2.15000 20.41100 25.16600
C  -2.47200 22.97000 27.86600
C  -2.04600 22.89900 24.58800
O  -2.08300 22.76800 23.41600
C  -1.62700 24.35000 25.09500
N  -2.06900 17.36400 24.21900
C  -1.98800 18.49700 23.47800
C  -1.80700 18.15000 21.98800
C  -1.54500 16.61100 22.00100
C  -1.75600 16.26900 23.48100
C  -3.09900 18.57300 21.19500
C  -0.14300 16.28400 21.45700
C  -0.06100 15.50900 20.14200
N  -1.70500 15.45700 26.34700
C  -1.69800 14.51700 25.34100
C  -1.61900 13.25000 25.94000
C  -1.60600 13.46000 27.32100
C  -1.67400 14.80000 27.52900
C  -1.53300 11.95300 25.17400
C  -1.44000 12.84700 28.56900
O  -1.33200 11.63700 28.86700
C  -1.66200 13.86600 29.63300
C  -0.43500 13.79500 30.49500
O  0.65700 14.27600 30.25300
O  -0.73100 12.99900 31.56000
C  0.35700 12.77500 32.60200
H  -2.45700 20.70800 29.48300
H  -2.00100 20.51600 23.00400
H  -1.67300 14.00400 23.36800
H  -3.31300 16.36700 30.92000
H  -2.18700 19.00300 31.22400
H  -4.89600 17.83000 31.28100
H  -4.77600 18.97900 29.90200
H  -4.35700 19.55400 31.41900
H  -1.13100 17.58500 32.25200
H  -0.53800 16.07000 31.54800
H  -2.95900 15.19800 32.81700
H  -2.74900 16.85000 33.43400
H  -2.81400 22.65800 28.85300
H  -3.18600 23.71100 27.50700
H  -1.50900 23.43300 28.08300
H  -0.61200 24.36800 25.49200
H  -2.31600 24.81300 25.80100
H  -1.60600 25.10800 24.31200
H  -1.00300 18.77600 21.60100
H  -2.30800 16.08000 21.43000
H  -3.76800 19.09100 21.88300
H  -3.54600 17.76000 20.62200
H  -2.87900 19.37600 20.49300
H  0.36900 15.62400 22.15800
H  0.45800 17.17600 21.28100
H  0.51300 16.01800 19.36700
H  -1.04000 15.29700 19.71300
H  0.51100 14.61200 20.38000
H  -0.61900 11.39400 25.37600
H  -1.58200 12.05900 24.09100
H  -2.40300 11.38600 25.50600
H  -2.48300 13.52300 30.26200
H  -0.07800 12.77600 33.60100
H  1.06200 13.60600 32.62300
H  1.00000 11.91700 32.40500

