79

Mg 36.12500 49.27600 25.67000
C  36.56800 47.30100 28.62600
C  34.58300 51.64700 27.51600
C  35.13200 50.70300 22.84700
C  37.40400 46.56900 23.90700
N  35.44900 49.39700 27.91500
C  35.88800 48.56200 28.95200
C  35.50700 49.22300 30.29600
C  34.71300 50.54500 29.92300
C  35.01300 50.60500 28.36300
C  33.13900 50.54300 30.25800
C  36.82200 49.50800 31.03500
C  36.90600 49.24900 32.54500
H  35.69500 48.87300 33.41800
N  35.17800 51.00900 25.25400
C  34.63000 51.86600 26.12700
C  34.10600 53.01100 25.43500
C  34.12400 52.74800 24.04300
C  34.83700 51.41900 24.00600
C  33.72600 54.19700 26.31000
C  33.36700 53.54400 22.97400
O  33.32600 53.17400 21.80200
C  32.54800 54.72500 23.30600
N  36.33400 48.75700 23.60800
C  35.79200 49.47700 22.64400
C  36.36600 49.00300 21.19900
C  36.99800 47.59000 21.60400
C  36.98000 47.64700 23.16500
C  35.33100 49.01600 20.00700
C  38.43400 47.36000 20.96600
C  39.50800 48.40600 21.40300
N  36.80000 47.37800 26.10000
C  37.32000 46.40600 25.29100
C  37.73300 45.16200 26.00300
C  37.45100 45.56500 27.26500
C  36.91000 46.84900 27.33100
C  38.35300 43.93000 25.51000
C  37.57400 45.06200 28.69300
O  38.01300 44.05900 29.23700
C  37.04500 46.18000 29.56100
C  35.90300 45.68000 30.32800
O  34.75300 45.53200 29.87700
O  36.36800 45.26900 31.54700
C  35.41600 44.77400 32.51700
H  34.17400 52.49200 28.07400
H  34.99200 51.16600 21.86700
H  37.85700 45.80800 23.26800
H  34.97900 48.44300 30.84500
H  35.20000 51.31000 30.52700
H  32.86900 51.39600 30.88100
H  32.91800 49.63800 30.82400
H  32.55400 50.54300 29.33800
H  37.11000 50.55100 30.89900
H  37.59000 48.83200 30.66100
H  37.47900 50.03600 33.03800
H  37.64400 48.44700 32.55800
H  32.75400 54.12100 26.79700
H  33.81200 55.11400 25.72700
H  34.49100 54.26200 27.08400
H  33.25400 55.54700 23.42900
H  31.86900 54.56700 24.14400
H  31.94900 54.97200 22.43000
H  36.98800 49.87000 20.97500
H  36.28200 46.81100 21.34200
H  34.36000 49.21500 20.46100
H  35.26400 48.00900 19.59500
H  35.59600 49.77300 19.26900
H  38.20800 47.42500 19.90200
H  38.86500 46.40400 21.26400
H  40.08600 48.63000 20.50600
H  40.16100 47.90500 22.11800
H  39.09000 49.23200 21.97800
H  37.63600 43.11000 25.47200
H  39.26700 43.75400 26.07700
H  38.71900 44.13700 24.50400
H  37.86800 46.47600 30.21200
H  35.49200 43.69800 32.67700
H  34.39500 45.04800 32.25100
H  35.62600 45.22900 33.48500

