79

Mg -0.04700 34.43500 26.85100
C  -2.23700 32.83000 29.17400
C  0.61700 36.78600 29.49000
C  1.47000 36.31700 24.63700
C  -1.48500 32.50200 24.22900
N  -0.71700 34.76000 29.04700
C  -1.52000 33.86600 29.75000
C  -1.54700 34.20700 31.21800
C  -0.70600 35.53400 31.28300
C  -0.27700 35.75300 29.83600
C  -1.51800 36.71900 31.89000
C  -1.04600 33.06800 32.07100
C  -1.88800 32.69000 33.25000
H  -1.44600 33.33900 34.64800
N  1.04300 36.15700 27.06200
C  1.22400 36.99800 28.20400
C  2.14800 38.07400 27.78800
C  2.50000 37.89100 26.41100
C  1.65900 36.75900 25.98500
C  2.58500 39.10300 28.81200
C  3.40800 38.67900 25.52700
O  3.56200 38.45000 24.33300
C  4.30300 39.69700 26.08800
N  -0.04000 34.41100 24.69700
C  0.80000 35.24400 24.07300
C  0.69800 34.99300 22.50200
C  -0.21200 33.67400 22.41500
C  -0.62700 33.51000 23.83900
C  0.06400 36.22400 21.79100
C  0.57300 32.49200 21.81200
C  1.51100 31.79800 22.71200
N  -1.47100 32.94900 26.70500
C  -1.90700 32.22400 25.57100
C  -2.83000 31.16600 26.05300
C  -2.94800 31.36600 27.46500
C  -2.19300 32.52300 27.76900
C  -3.63300 30.11000 25.25800
C  -3.67100 30.87500 28.63600
O  -4.56400 30.03300 28.69800
C  -3.11800 31.72300 29.79900
C  -4.36700 32.23900 30.46200
O  -5.06200 33.17200 30.08800
O  -4.48000 31.64200 31.68200
C  -5.55100 32.01700 32.56600
H  1.00600 37.50300 30.21500
H  1.94900 37.00500 23.93800
H  -1.91100 31.89600 23.42600
H  -2.60800 34.29100 31.45500
H  0.11800 35.39300 31.98100
H  -2.31200 36.43900 32.58200
H  -1.78400 37.35300 31.04400
H  -0.77300 37.14800 32.56000
H  -0.06800 33.35000 32.46200
H  -0.88100 32.21200 31.41600
H  -1.98200 31.60900 33.34800
H  -2.88600 33.07300 33.03500
H  1.73300 39.64000 29.22900
H  3.36300 39.78200 28.46200
H  2.90600 38.52600 29.67900
H  3.61700 40.49600 26.37200
H  4.98400 40.02900 25.30500
H  4.86300 39.41400 26.98000
H  1.63900 34.76000 22.00400
H  -1.06900 33.89500 21.77900
H  -0.52400 36.68900 22.58200
H  -0.61000 36.02400 20.95800
H  0.83900 36.92600 21.48200
H  1.16900 32.84600 20.97100
H  -0.12800 31.77600 21.38200
H  1.75700 32.28400 23.65600
H  2.50500 31.64700 22.29000
H  1.11600 30.79300 22.86500
H  -3.90200 29.32800 25.96800
H  -3.12400 29.80200 24.34500
H  -4.55300 30.59900 24.93600
H  -2.53800 31.12600 30.50300
H  -5.21300 32.73000 33.31800
H  -6.02000 31.14000 33.01200
H  -6.30500 32.48600 31.93300

