79

Mg 29.73800 57.55800 39.20900
C  26.88900 55.51500 38.69900
C  31.69000 55.08100 37.79300
C  32.39100 59.65500 39.31700
C  27.58900 60.18800 40.03800
N  29.31700 55.57400 38.31400
C  28.06900 54.87100 38.36800
C  28.23500 53.43700 37.93000
C  29.72800 53.44600 37.53700
C  30.29400 54.78500 37.86500
C  30.53800 52.24700 38.25000
C  27.29700 52.81300 36.73100
C  27.01600 53.83200 35.59900
H  27.79600 53.78000 34.30800
N  31.75400 57.39000 38.68500
C  32.35500 56.25200 38.14300
C  33.78100 56.53400 38.03700
C  34.08600 57.88400 38.47100
C  32.74300 58.37600 38.89900
C  34.64000 55.52200 37.50200
C  35.39800 58.53500 38.28600
O  36.38200 57.91800 37.83400
C  35.57500 59.92400 38.65900
N  29.91400 59.60600 39.46100
C  31.15800 60.23000 39.57300
C  31.06400 61.68600 40.05600
C  29.49700 61.84400 40.22300
C  28.92100 60.45700 39.88600
C  31.89200 62.08800 41.26500
C  28.88900 62.91500 39.26500
C  27.74000 63.62800 39.92800
N  27.71300 57.79300 39.51000
C  26.98000 58.91100 39.83900
C  25.55200 58.64800 39.84500
C  25.46000 57.30300 39.42900
C  26.80100 56.81300 39.24400
C  24.37800 59.55500 40.12500
C  24.50300 56.22400 39.16300
O  23.25300 56.19100 39.18800
C  25.40400 55.02700 38.56500
C  25.13700 53.84500 39.41700
O  25.61200 53.61300 40.50200
O  24.11500 53.14600 38.85500
C  23.82600 51.86200 39.55600
H  32.33600 54.30900 37.36900
H  33.15900 60.43200 39.31800
H  26.94900 61.03400 40.29900
H  28.03800 52.87900 38.84500
H  29.85700 53.25700 36.47100
H  31.27400 51.77400 37.60000
H  29.76400 51.50300 38.43600
H  31.05800 52.60200 39.14000
H  26.41500 52.31200 37.12900
H  27.94000 52.02100 36.34700
H  27.02900 54.83900 36.01500
H  25.96800 53.61000 35.39500
H  34.83500 55.63300 36.43600
H  34.26300 54.50100 37.56600
H  35.57900 55.48800 38.05400
H  35.39700 59.95500 39.73400
H  34.98100 60.68200 38.14700
H  36.61600 60.22600 38.54900
H  31.42000 62.31500 39.24000
H  29.33500 62.19500 41.24200
H  32.40300 63.04300 41.14200
H  32.58900 61.28500 41.50500
H  31.18300 62.18100 42.08800
H  28.71200 62.40100 38.32100
H  29.67700 63.65400 39.11900
H  26.89600 63.54300 39.24300
H  27.88000 64.70300 40.04300
H  27.37800 63.32400 40.91000
H  24.01300 59.52700 41.15100
H  23.64600 59.30500 39.35600
H  24.62300 60.59500 39.91000
H  25.06500 54.78000 37.55900
H  24.65300 51.31800 40.01300
H  23.29400 51.16600 38.90800
H  23.22500 52.16000 40.41500

