79

Mg -0.03300 7.88500 26.19200
C  0.75800 10.19000 28.93700
C  0.12400 5.41600 28.53100
C  -0.02200 5.79800 23.71200
C  0.27800 10.58000 24.02800
N  0.21700 7.88800 28.47300
C  0.46500 8.94700 29.40300
C  0.26200 8.42200 30.82300
C  0.44100 6.91700 30.63800
C  0.10800 6.69800 29.13800
C  1.82000 6.35200 31.07400
C  -1.14900 8.81600 31.42600
C  -1.24900 8.52100 32.92400
H  0.03900 8.30700 33.76400
N  -0.01500 5.88100 26.12800
C  -0.01400 5.00300 27.21600
C  -0.22000 3.68600 26.78400
C  -0.26800 3.80100 25.30200
C  -0.11300 5.19200 25.01900
C  -0.40200 2.56000 27.73500
C  -0.48400 2.74400 24.26400
O  -0.66900 2.93200 23.09500
C  -0.49300 1.24700 24.68300
N  -0.00300 8.13700 24.24200
C  -0.12900 7.15600 23.36200
C  -0.22100 7.57600 21.86100
C  -0.58500 9.10100 22.06800
C  -0.08800 9.28900 23.56400
C  1.08700 7.39300 21.02400
C  -2.10700 9.65100 21.97600
C  -2.27700 11.03200 21.27200
N  0.28400 10.01900 26.38500
C  0.43700 10.95100 25.37500
C  0.85600 12.23800 25.98600
C  1.00200 11.98200 27.35800
C  0.59800 10.65100 27.59700
C  1.33300 13.51500 25.29600
C  1.51700 12.50400 28.64000
O  2.04500 13.62800 28.85800
C  1.18500 11.42100 29.66000
C  2.41000 11.00700 30.43500
O  3.24400 10.22700 30.11800
O  2.31100 11.55400 31.66700
C  3.37500 11.37500 32.68200
H  0.29100 4.61400 29.25300
H  0.09200 5.02800 22.94500
H  0.57900 11.31500 23.27900
H  0.99100 8.90500 31.47400
H  -0.37500 6.45600 31.19400
H  2.37400 7.16000 31.55000
H  2.45800 5.92800 30.29900
H  1.51700 5.56200 31.76100
H  -1.89500 8.15100 30.99000
H  -1.36600 9.87500 31.28700
H  -1.90500 7.65100 32.93000
H  -1.75700 9.36800 33.38500
H  0.58700 2.27500 28.09300
H  -1.03700 1.78700 27.30000
H  -1.04000 2.75300 28.59700
H  -0.39900 0.64900 23.77700
H  -1.38400 0.94200 25.23100
H  0.36200 1.22600 25.35800
H  -1.06000 7.07600 21.37900
H  0.06300 9.76100 21.49100
H  1.27000 8.33100 20.49800
H  0.89200 6.66100 20.24000
H  1.91000 7.00900 21.62600
H  -2.47300 9.80000 22.99200
H  -2.69500 8.97600 21.35300
H  -2.97700 10.72700 20.49400
H  -1.39900 11.34800 20.70800
H  -2.58200 11.83600 21.94200
H  0.70800 14.37900 25.52100
H  1.42600 13.33900 24.22400
H  2.29700 13.77200 25.73500
H  0.38400 11.77100 30.31100
H  3.47300 10.30100 32.84400
H  3.06700 11.95600 33.55100
H  4.28800 11.87400 32.35800

