79

Mg 46.63500 34.85600 28.59700
C  44.82600 33.14900 31.00700
C  46.55400 37.57700 30.66800
C  47.60100 36.90800 26.00900
C  45.73900 32.45800 26.31800
N  45.97300 35.20400 30.71700
C  45.22700 34.38100 31.50400
C  44.99400 34.95400 32.85900
C  45.12500 36.45900 32.50300
C  45.95200 36.41000 31.22500
C  43.85600 37.36200 32.33800
C  46.02700 34.38400 33.88800
C  45.42000 34.34600 35.30000
H  45.40900 35.69800 36.01400
N  47.31500 36.89100 28.46200
C  47.19300 37.84100 29.45500
C  47.87800 39.04500 29.00100
C  48.25800 38.79900 27.64500
C  47.78800 37.47400 27.31100
C  48.02800 40.23200 29.93500
C  49.02100 39.65900 26.70000
O  49.29900 39.34500 25.56700
C  49.31200 41.01100 27.05100
N  46.66700 34.75400 26.46800
C  47.15600 35.65100 25.59700
C  47.20400 35.09200 24.18000
C  46.75200 33.63000 24.32600
C  46.39100 33.59500 25.82300
C  46.42100 35.89700 23.00200
C  47.75500 32.54400 23.78900
C  47.16600 31.68400 22.68600
N  45.49400 33.17700 28.58800
C  45.32000 32.22500 27.60900
C  44.55700 31.05200 28.20500
C  44.41700 31.40600 29.53800
C  44.98700 32.65900 29.74400
C  44.06500 29.81300 27.40300
C  43.84300 30.89200 30.76700
O  43.33700 29.83900 31.07600
C  43.96600 32.09900 31.77900
C  44.64100 31.59700 32.99300
O  45.84000 31.33900 33.11500
O  43.63000 31.36500 33.88400
C  44.04000 30.77100 35.16100
H  46.42300 38.37700 31.39900
H  47.99100 37.54700 25.21400
H  45.53200 31.68900 25.57100
H  43.97800 34.65400 33.11600
H  45.63800 36.90300 33.35600
H  43.02500 36.70100 32.58200
H  43.83900 37.67900 31.29500
H  43.91900 38.26800 32.94100
H  46.84400 35.10400 33.94100
H  46.42700 33.41200 33.60000
H  46.02400 33.62700 35.85300
H  44.41400 33.92600 35.31500
H  48.02500 41.17300 29.38500
H  48.88400 40.07100 30.59000
H  47.08500 40.23200 30.48100
H  48.43900 41.55500 27.41100
H  49.72100 41.57800 26.21500
H  50.06100 40.96200 27.84100
H  48.25300 35.09300 23.88100
H  45.84200 33.52200 23.73600
H  45.63200 35.35000 22.48700
H  47.22200 36.05300 22.27800
H  45.89900 36.80900 23.29400
H  48.07100 31.99100 24.67400
H  48.65300 33.05500 23.44500
H  46.15200 31.95300 22.39200
H  47.24100 30.61500 22.88700
H  47.75600 31.72800 21.77100
H  44.78800 29.04300 27.67300
H  43.99900 29.93900 26.32300
H  43.11700 29.44200 27.79300
H  42.96000 32.43800 32.02800
H  43.50000 29.84100 35.34100
H  43.83200 31.37700 36.04300
H  45.08800 30.50700 35.30800

