79

Mg 49.00300 35.32000 25.60900
C  46.82200 34.51000 28.20200
C  49.83700 38.09100 27.34300
C  50.97500 36.19100 22.91800
C  47.66100 32.68000 23.63700
N  48.23500 36.30700 27.47000
C  47.49300 35.67200 28.43900
C  47.44800 36.49500 29.74300
C  48.24600 37.83100 29.25300
C  48.83100 37.38800 27.99100
C  47.40600 39.17700 29.07500
C  48.18600 35.85100 30.93400
C  47.30400 35.59700 32.11500
H  47.43600 36.64300 33.19200
N  50.33900 36.88100 25.29000
C  50.49800 37.87200 26.12800
C  51.50500 38.74300 25.56200
C  52.05100 38.12700 24.42700
C  51.15700 36.97600 24.18000
C  52.00300 40.04100 26.24400
C  53.23200 38.49100 23.49900
O  53.67900 37.79600 22.62200
C  53.93700 39.76800 23.74200
N  49.29500 34.57400 23.61300
C  50.14400 35.11400 22.63600
C  50.03800 34.35600 21.30300
C  49.32400 33.04100 21.70600
C  48.72500 33.40700 23.10800
C  49.46200 35.24300 20.10500
C  50.22700 31.76200 21.75500
C  49.72700 30.51100 20.94300
N  47.35000 33.97300 25.73800
C  46.98800 32.90000 24.89400
C  45.94400 32.14600 25.55300
C  45.85100 32.69500 26.87500
C  46.73200 33.79000 26.92800
C  45.42600 30.84200 25.12700
C  45.29700 32.59200 28.15100
O  44.45700 31.77000 28.54400
C  45.94900 33.62800 29.13400
C  46.74200 32.87500 30.15200
O  47.91400 32.51800 30.05000
O  45.84600 32.47200 31.20400
C  46.57100 31.77900 32.23600
H  50.23300 38.96300 27.86800
H  51.58900 36.62000 22.12400
H  47.34000 31.80000 23.07600
H  46.40600 36.70200 29.98900
H  49.10600 38.18100 29.82500
H  47.74500 39.82900 28.27000
H  47.50300 39.66700 30.04400
H  46.37600 38.83600 28.96500
H  48.92700 36.60200 31.21100
H  48.64500 34.92200 30.59600
H  47.46200 34.62600 32.58400
H  46.26100 35.64900 31.80200
H  51.39400 40.39900 27.07500
H  52.03000 40.87700 25.54600
H  53.07000 39.97000 26.45500
H  54.53500 40.04100 22.87300
H  54.52300 39.82400 24.66000
H  53.24500 40.61000 23.77200
H  51.03800 34.17200 20.91000
H  48.45800 32.89600 21.06100
H  49.25800 36.24700 20.47600
H  48.60800 34.76700 19.62300
H  50.26500 35.35900 19.37700
H  50.22900 31.33400 22.75700
H  51.24000 32.08200 21.50900
H  49.34000 29.74000 21.60800
H  50.55200 30.03800 20.41000
H  48.94100 30.66500 20.20400
H  46.10700 30.22600 24.53900
H  44.59400 31.07700 24.46300
H  44.99500 30.27200 25.95000
H  45.08000 34.19600 29.46500
H  46.47600 30.71300 32.02700
H  45.99400 31.82100 33.16000
H  47.60500 32.11800 32.29900

