79

Mg 45.43600 25.02100 28.33100
C  46.16300 27.03300 31.09800
C  44.48600 22.53100 30.43500
C  45.38800 22.88800 25.67000
C  46.74000 27.45500 26.22200
N  45.46200 24.81600 30.56800
C  45.68200 25.77700 31.50600
C  45.41700 25.30000 32.97800
C  44.99400 23.79600 32.70700
C  44.99900 23.67900 31.11600
C  45.73600 22.75200 33.48100
C  44.53200 26.11300 34.01700
C  45.11500 26.62800 35.34200
H  44.15800 26.82700 36.49200
N  45.09800 22.97200 28.07100
C  44.61500 22.14000 29.03800
C  44.28700 20.86300 28.47800
C  44.66400 20.92300 27.12000
C  45.02000 22.28100 26.90900
C  43.55800 19.82200 29.33100
C  44.64400 19.81600 26.07900
O  45.19200 19.85900 24.98000
C  43.97700 18.49100 26.48900
N  46.04900 25.15900 26.22400
C  45.86600 24.15500 25.39300
C  46.15900 24.54600 23.98200
C  46.43600 26.07100 24.09600
C  46.44100 26.26000 25.58700
C  47.33000 23.78500 23.32000
C  45.36700 26.92200 23.32800
C  45.95400 27.62600 22.07500
N  46.30000 26.91200 28.49400
C  46.82200 27.79300 27.58700
C  47.37900 28.97000 28.22500
C  47.11400 28.82000 29.60800
C  46.50000 27.46300 29.70600
C  47.91300 30.08400 27.52300
C  47.40400 29.31000 30.94700
O  48.04300 30.29400 31.33600
C  46.68200 28.22000 31.97100
C  47.74600 27.87300 32.90700
O  48.68100 27.06300 32.78000
O  47.53600 28.60900 34.04800
C  48.45100 28.34900 35.15300
H  44.32500 21.75900 31.19000
H  45.35700 22.20100 24.82100
H  47.14100 28.23400 25.57000
H  46.41900 25.43700 33.38600
H  43.97100 23.51900 32.96400
H  46.21600 22.13200 32.72400
H  45.03400 22.23600 34.13500
H  46.51000 23.21400 34.09400
H  43.62400 25.57300 34.28400
H  44.19700 27.03800 33.54700
H  45.38000 27.68200 35.26300
H  45.99300 26.05900 35.64600
H  42.78500 19.25800 28.80800
H  43.25800 20.29200 30.26800
H  44.24700 19.10700 29.78000
H  44.51500 17.92600 27.24900
H  44.14600 17.88600 25.59800
H  42.90400 18.55100 26.67400
H  45.33200 24.25400 23.33600
H  47.42300 26.32600 23.71100
H  48.26700 24.34200 23.34800
H  47.09800 23.67400 22.26100
H  47.66600 22.84000 23.74700
H  45.10100 27.78600 23.93700
H  44.45400 26.42700 22.99600
H  45.41900 27.40600 21.15100
H  47.01400 27.44000 21.90100
H  45.89100 28.71100 22.16600
H  47.69200 30.98700 28.09000
H  47.49000 30.02600 26.52000
H  48.97600 29.85800 27.43600
H  45.78000 28.57700 32.46800
H  49.49600 28.12700 34.93600
H  48.06500 27.54500 35.77900
H  48.25600 29.21900 35.78100

