79

Mg 0.46300 43.73700 26.28300
C  2.34100 43.13200 29.16600
C  -2.36700 42.73500 28.14300
C  -1.32500 43.58500 23.38300
C  3.30200 44.27300 24.50400
N  0.05000 43.10100 28.44900
C  0.98000 43.00700 29.43500
C  0.36200 42.72500 30.76800
C  -1.11600 42.32000 30.37700
C  -1.13900 42.75500 28.92500
C  -1.28000 40.79800 30.57100
C  0.44000 44.11400 31.59400
C  0.46300 43.97600 33.13200
H  0.31300 42.55600 33.62400
N  -1.62400 43.37700 25.79700
C  -2.58700 43.04900 26.75200
C  -3.88000 42.99100 26.12100
C  -3.60700 43.20200 24.71900
C  -2.12600 43.44300 24.56000
C  -5.30100 42.70500 26.75300
C  -4.55500 43.17200 23.47900
O  -4.07000 43.33600 22.35000
C  -6.02400 43.14300 23.57900
N  0.87100 43.91400 24.29500
C  0.02600 43.71800 23.23900
C  0.71200 43.73600 21.84500
C  2.13200 44.24400 22.33100
C  2.11600 44.17000 23.83600
C  0.74400 42.28100 21.14700
C  2.46600 45.57500 21.62300
C  2.22600 46.91600 22.49600
N  2.41100 43.63000 26.68000
C  3.41200 43.86900 25.87800
C  4.68500 43.73400 26.60100
C  4.26900 43.38500 27.93900
C  2.87000 43.43800 27.96100
C  6.06800 43.85400 26.15700
C  4.80100 43.01500 29.19600
O  5.97200 42.73600 29.56400
C  3.56300 42.97100 30.09100
C  3.63500 41.70200 30.93300
O  3.04300 40.65100 30.66700
O  4.34200 42.04400 32.04800
C  4.49800 40.86900 33.04600
H  -3.31400 42.51000 28.63700
H  -1.83200 43.57600 22.41600
H  4.21600 44.54600 23.97300
H  0.91100 41.87200 31.16700
H  -1.87100 42.93900 30.86200
H  -1.84100 40.43100 29.71100
H  -2.01100 40.68800 31.37200
H  -0.37900 40.20500 30.72700
H  -0.43100 44.74700 31.42900
H  1.29200 44.72700 31.29800
H  -0.23800 44.61700 33.66700
H  1.48600 44.24400 33.39800
H  -6.07900 43.43500 26.53200
H  -5.26900 42.61200 27.83900
H  -5.49800 41.71400 26.34400
H  -6.42300 44.11500 23.87100
H  -6.30300 42.49600 24.41000
H  -6.37100 42.83500 22.59200
H  0.02900 44.35100 21.25800
H  2.88700 43.52300 22.01700
H  0.14500 41.58200 21.73200
H  1.74400 41.84800 21.19300
H  0.47000 42.36900 20.09600
H  1.91000 45.81300 20.71600
H  3.48900 45.61400 21.25000
H  1.28100 46.94300 23.03800
H  2.30700 47.85100 21.94100
H  2.98200 46.96600 23.28000
H  6.05900 44.29800 25.16200
H  6.63000 42.92300 26.08700
H  6.48700 44.51100 26.91900
H  3.64700 43.92800 30.60600
H  4.50600 39.85400 32.64800
H  3.66600 40.89500 33.74900
H  5.43500 40.93500 33.59800

