79

Mg 1.54600 -1.59000 43.64100
C  4.90800 -0.79100 42.76600
C  0.54600 1.20100 41.97000
C  -1.57700 -2.76000 43.99400
C  2.74200 -4.82900 44.76700
N  2.63800 -0.09100 42.37300
C  3.96100 0.17600 42.32000
C  4.27500 1.47300 41.67300
C  2.89800 2.20300 41.57400
C  1.94300 1.00700 41.94800
C  2.59900 3.45200 42.40800
C  4.95800 1.40800 40.27900
C  4.64900 0.16900 39.42100
H  4.41300 0.34300 37.87000
N  -0.26800 -0.84700 43.19400
C  -0.48300 0.36700 42.54500
C  -1.89100 0.49400 42.22300
C  -2.57400 -0.62200 42.83200
C  -1.48400 -1.45600 43.40400
C  -2.39600 1.54100 41.33600
C  -4.08600 -0.86200 42.79100
O  -4.78900 0.01600 42.31800
C  -4.76900 -1.95000 43.59100
N  0.71700 -3.58700 44.15800
C  -0.66800 -3.65800 44.37600
C  -1.02200 -5.06100 44.93600
C  0.42800 -5.82200 45.06500
C  1.33400 -4.66100 44.65700
C  -2.08600 -5.22700 46.01700
C  0.61500 -7.04100 44.17000
C  1.26400 -8.20800 44.91800
N  3.43900 -2.56500 43.94600
C  3.75500 -3.83400 44.44700
C  5.17000 -3.98800 44.41400
C  5.64800 -2.79300 43.77500
C  4.55300 -1.98600 43.54100
C  5.78700 -5.24900 44.77300
C  6.79400 -2.15400 43.28100
O  7.99200 -2.41800 43.33900
C  6.39700 -0.83700 42.61600
C  7.06900 0.31500 43.07900
O  7.82900 1.00600 42.40800
O  6.93800 0.39000 44.45600
C  7.67400 1.43300 45.17300
H  0.19400 2.12900 41.51300
H  -2.57600 -3.18700 44.10800
H  3.14100 -5.75300 45.19300
H  5.01400 1.96800 42.30400
H  2.56000 2.39000 40.55500
H  3.37600 3.65400 43.14500
H  1.62900 3.19900 42.83500
H  2.36600 4.21100 41.66100
H  6.03800 1.33500 40.40500
H  4.68300 2.28900 39.69800
H  3.69000 -0.26200 39.71000
H  5.33300 -0.67200 39.53800
H  -3.46600 1.57200 41.12800
H  -1.81700 1.44600 40.41700
H  -2.20800 2.51100 41.79700
H  -5.84500 -1.95500 43.42000
H  -4.50200 -2.01900 44.64600
H  -4.32300 -2.75900 43.01300
H  -1.50700 -5.60200 44.12400
H  0.66600 -6.04800 46.10400
H  -2.84200 -5.96800 45.75700
H  -2.62100 -4.28400 46.13400
H  -1.56300 -5.50600 46.93100
H  1.27400 -6.79000 43.33800
H  -0.28700 -7.40300 43.67800
H  1.18700 -8.00500 45.98600
H  2.31900 -8.26300 44.64900
H  0.75700 -9.16800 44.82200
H  5.81900 -5.81000 43.83900
H  5.42100 -5.86000 45.59900
H  6.75200 -4.89500 45.13500
H  6.68100 -0.97500 41.57300
H  8.17000 2.23400 44.62500
H  8.50200 0.87700 45.61100
H  7.13600 1.91700 45.98800

