79

Mg 8.76800 2.64400 26.71000
C  10.11500 1.27400 29.65400
C  6.90400 4.70300 28.57400
C  7.35500 3.57100 23.87600
C  10.44400 -0.14100 25.03600
N  8.67600 2.98700 28.92900
C  9.32300 2.37500 29.91900
C  9.02600 3.04000 31.24400
C  7.89600 4.05600 30.89700
C  7.80300 3.97500 29.41200
C  6.47700 3.87800 31.64000
C  10.29000 3.63800 31.89400
C  10.20000 4.56700 33.11400
H  10.67500 3.96100 34.49800
N  7.36700 4.01400 26.30300
C  6.72500 4.80400 27.21700
C  5.78100 5.70400 26.47700
C  5.91000 5.40500 25.06200
C  6.85900 4.25400 25.02400
C  4.93200 6.66700 27.10900
C  5.13600 5.98300 23.87500
O  5.02400 5.41400 22.76300
C  4.37700 7.26900 24.07000
N  8.85900 1.68900 24.78100
C  8.17400 2.37900 23.74600
C  8.53600 1.81800 22.38900
C  9.47400 0.55400 22.69600
C  9.58900 0.68100 24.24100
C  7.25100 1.44500 21.47500
C  10.91800 0.76800 21.91000
C  11.31900 -0.36900 21.03400
N  10.11900 0.98000 27.15600
C  10.62000 -0.01900 26.39800
C  11.59800 -0.73800 27.17000
C  11.41700 -0.32600 28.45600
C  10.42900 0.71400 28.42900
C  12.41000 -1.85000 26.66500
C  11.65600 -0.67100 29.78900
O  12.30900 -1.56600 30.27100
C  10.91900 0.44400 30.71700
C  10.07100 -0.11800 31.79600
O  8.96500 -0.67300 31.61700
O  10.64700 0.05500 33.04000
C  10.04700 -0.55700 34.20700
H  6.40700 5.35500 29.29500
H  6.83800 3.62700 22.91600
H  10.86100 -0.98500 24.48200
H  8.64400 2.31200 31.96000
H  8.19800 5.09500 31.03700
H  6.60400 3.48700 32.64900
H  5.83200 3.36700 30.92400
H  6.07500 4.85500 31.90800
H  10.87000 4.06300 31.07500
H  10.80000 2.79100 32.35300
H  9.16700 4.87600 33.27500
H  10.69800 5.51000 32.88900
H  4.92000 6.73700 28.19700
H  3.88800 6.56200 26.81500
H  5.25200 7.62200 26.69200
H  3.97600 7.47900 23.07900
H  5.18600 7.97000 24.27600
H  3.58100 7.23500 24.81400
H  9.00600 2.63500 21.84000
H  8.98100 -0.39900 22.50600
H  6.32500 1.71000 21.98600
H  7.26000 0.35600 21.45000
H  7.40000 1.81900 20.46200
H  11.69600 1.02100 22.63000
H  10.88000 1.62800 21.24200
H  10.73600 -1.28500 21.13000
H  12.35900 -0.60900 21.25500
H  11.23900 -0.09900 19.98100
H  12.61600 -1.74700 25.60000
H  11.84300 -2.74200 26.93300
H  13.33700 -1.83200 27.23800
H  11.78200 0.95700 31.14200
H  8.96000 -0.53600 34.12800
H  10.23800 -0.05500 35.15600
H  10.46800 -1.53400 34.44700

