79

Mg 47.93600 24.77100 28.53700
C  49.00200 27.00100 30.93300
C  46.95600 22.63000 31.01100
C  47.26500 22.64400 26.04400
C  49.33200 26.95800 26.20000
N  47.93600 24.83200 30.67900
C  48.34000 25.91100 31.48700
C  47.91900 25.70200 32.99200
C  47.51400 24.19300 32.97500
C  47.43000 23.86400 31.45700
C  48.35500 23.30500 33.89200
C  46.82200 26.70900 33.53400
C  46.11500 26.26300 34.83200
H  46.24900 27.21900 36.15200
N  47.00800 22.93600 28.53400
C  46.77700 22.13800 29.70400
C  46.19500 20.88000 29.23900
C  46.09500 20.93300 27.76200
C  46.69600 22.24600 27.36900
C  45.67100 19.87200 30.19100
C  45.62800 19.88000 26.78000
O  45.84500 19.96900 25.59600
C  44.99600 18.68300 27.29200
N  48.16700 24.85200 26.34500
C  47.91300 23.75700 25.58400
C  48.30500 23.92600 24.13300
C  48.72600 25.47700 24.21800
C  48.75800 25.82000 25.69500
C  49.46300 22.96600 23.61300
C  47.79300 26.41800 23.48600
C  47.78700 26.27600 21.97500
N  48.99300 26.55600 28.54300
C  49.42400 27.34400 27.54000
C  49.93600 28.66300 28.01000
C  49.88400 28.53200 29.38600
C  49.25900 27.28200 29.59200
C  50.48800 29.71200 27.08300
C  50.05900 29.17300 30.66600
O  50.65500 30.20200 30.96700
C  49.45000 28.20500 31.71000
C  50.45300 27.84600 32.72000
O  51.39700 27.16000 32.47700
O  50.30400 28.49500 33.86300
C  51.29200 28.18500 34.88400
H  46.82500 21.94500 31.85100
H  47.26400 21.82100 25.32500
H  49.69000 27.66500 25.44900
H  48.69300 25.99300 33.70300
H  46.54000 24.08100 33.45200
H  49.38900 23.63700 33.80600
H  48.41300 22.26000 33.58700
H  47.93000 23.31000 34.89600
H  46.00000 26.70000 32.81700
H  47.15200 27.73800 33.67800
H  46.40500 25.24100 35.07600
H  45.03800 26.21200 34.67300
H  46.09100 18.89300 29.96100
H  44.58700 19.79300 30.10000
H  45.76800 20.15200 31.24000
H  44.39300 18.83700 28.18700
H  45.77400 17.92300 27.36700
H  44.36100 18.30500 26.49100
H  47.47900 23.85100 23.42600
H  49.71700 25.62100 23.78900
H  49.18400 22.24200 22.84800
H  49.96800 22.43000 24.41700
H  50.11500 23.63900 23.05600
H  48.12400 27.39900 23.82700
H  46.75100 26.34900 23.80000
H  47.04500 26.96300 21.56700
H  47.73300 25.30300 21.48800
H  48.74400 26.75000 21.75600
H  50.56700 30.65600 27.62200
H  49.80700 29.91500 26.25600
H  51.48300 29.50500 26.69000
H  48.58500 28.76400 32.06600
H  50.98700 27.23900 35.33200
H  51.06600 28.83200 35.73100
H  52.34600 28.20600 34.60700

