79

Mg 25.64600 1.28100 29.33100
C  27.53900 1.04700 32.23800
C  22.77700 1.84700 31.25700
C  23.86200 1.07500 26.44400
C  28.56400 0.62700 27.41000
N  25.19600 1.27600 31.42400
C  26.12200 1.36000 32.46200
C  25.54200 1.77000 33.78400
C  23.99900 1.67100 33.42600
C  23.99800 1.65300 31.92300
C  23.12200 0.60900 34.16600
C  26.09000 3.05600 34.43100
C  26.56700 2.82700 35.91900
H  26.20500 3.95500 36.95800
N  23.60700 1.44700 28.88100
C  22.56500 1.71800 29.83500
C  21.36700 1.84000 29.12500
C  21.63600 1.62100 27.78700
C  23.11800 1.38100 27.64800
C  20.11000 2.07800 29.77500
C  20.64400 1.65600 26.66300
O  21.01500 1.36700 25.50400
C  19.15300 1.90100 26.87600
N  26.13300 0.87000 27.23100
C  25.20800 0.84300 26.24300
C  25.85700 0.63900 24.83300
C  27.41000 0.51700 25.16700
C  27.37600 0.64000 26.67700
C  25.25400 -0.46000 23.90400
C  28.23100 1.73900 24.51300
C  27.89600 3.19700 24.90300
N  27.63500 1.00600 29.68400
C  28.67200 0.75600 28.85000
C  29.81300 0.40000 29.58900
C  29.45100 0.58800 30.92100
C  28.09900 0.87200 30.94000
C  31.14500 -0.05100 29.10900
C  29.92000 0.58200 32.33200
O  30.99000 0.36500 32.90400
C  28.67100 1.07300 33.18000
C  28.55400 0.16600 34.37000
O  27.88700 -0.87100 34.43000
O  29.48800 0.53300 35.28600
C  29.44600 -0.23600 36.53700
H  21.95400 1.88400 31.97400
H  23.39800 1.03300 25.45700
H  29.51300 0.45600 26.89800
H  25.74400 0.98000 34.50600
H  23.48400 2.61700 33.59500
H  22.10500 0.98600 34.27500
H  23.55300 0.28400 35.11300
H  23.17500 -0.22800 33.46900
H  25.28500 3.79000 34.42000
H  26.88400 3.44200 33.79200
H  27.63800 2.63700 35.83900
H  26.19400 1.90400 36.36300
H  19.52300 1.17600 29.60500
H  19.63100 2.98400 29.40400
H  20.31600 2.25200 30.83100
H  18.89200 2.95400 26.98300
H  18.77000 1.30200 27.70300
H  18.66900 1.67500 25.92600
H  25.75000 1.56900 24.27600
H  27.81800 -0.48600 25.03700
H  24.42600 -1.02300 24.33500
H  26.05500 -1.17700 23.72200
H  24.81300 -0.09500 22.97600
H  28.08000 1.65700 23.43600
H  29.28300 1.48000 24.63000
H  27.09200 3.13800 25.63600
H  27.60100 3.74600 24.00900
H  28.71100 3.75900 25.36100
H  31.30900 0.29500 28.08800
H  31.33600 -1.11300 28.95300
H  31.89100 0.36800 29.78500
H  28.88500 2.09000 33.51000
H  28.52800 -0.13400 37.11500
H  30.20100 -0.01500 37.29200
H  29.52400 -1.29700 36.30200

