79

Mg 48.74200 44.80900 43.89100
C  45.21900 45.33700 42.94300
C  48.54100 41.72100 42.27300
C  52.02900 44.83600 43.73100
C  48.71700 48.33800 44.53000
N  47.01200 43.61800 42.91900
C  45.75300 44.01200 42.64600
C  44.98200 42.84900 41.89400
C  46.00200 41.67400 41.90600
C  47.29000 42.39600 42.39100
C  45.62200 40.41300 42.76000
C  44.49000 43.24300 40.43900
C  45.58000 43.60500 39.42900
H  45.74400 42.71400 38.13800
N  50.03500 43.33300 43.42700
C  49.82400 42.10000 42.79300
C  51.06100 41.35500 42.74800
C  52.07300 42.27500 43.14600
C  51.42300 43.55700 43.46700
C  51.06100 39.99200 42.24600
C  53.63500 41.95100 43.26500
O  54.11500 40.81200 43.13700
C  54.73900 43.02000 43.59700
N  50.22300 46.43700 43.92000
C  51.51000 46.10500 43.95900
C  52.36600 47.37900 44.21900
C  51.36300 48.47500 44.56400
C  49.97200 47.77600 44.25100
C  53.52700 47.15800 45.25900
C  51.46800 49.79300 43.62700
C  52.17700 51.01500 44.38700
N  47.22900 46.49000 44.10000
C  47.45400 47.85300 44.29300
C  46.21800 48.59100 44.14900
C  45.33300 47.60400 43.66100
C  45.99200 46.39000 43.54600
C  46.01600 50.07900 44.38600
C  43.95700 47.39700 43.18800
O  42.99000 48.13100 43.07200
C  43.86300 45.93100 42.64900
C  42.61400 45.26500 43.21500
O  41.63200 45.04600 42.50100
O  42.73100 44.94200 44.51300
C  41.45400 44.33700 45.06000
H  48.43800 40.77500 41.73800
H  53.11100 44.94600 43.63400
H  48.90000 49.30700 44.99800
H  44.09700 42.58200 42.47100
H  46.10800 41.22500 40.91800
H  46.47700 40.12800 43.37400
H  45.52200 39.53100 42.12800
H  44.66500 40.53900 43.26700
H  43.88500 44.12300 40.65600
H  43.79800 42.50600 40.03300
H  46.57500 43.55200 39.87200
H  45.33100 44.63600 39.17500
H  51.78300 39.99200 41.42900
H  50.15600 39.54000 41.84200
H  51.51100 39.25400 42.91100
H  55.73400 42.57900 43.53100
H  54.55200 43.51100 44.55200
H  54.79800 43.79700 42.83500
H  52.89400 47.53800 43.27900
H  51.42300 48.67300 45.63400
H  53.37500 46.32900 45.95000
H  53.92400 47.97400 45.86400
H  54.37000 46.82400 44.65300
H  50.47500 50.20600 43.45000
H  51.88700 49.46000 42.67800
H  53.07100 51.09700 43.76900
H  52.53800 50.77200 45.38600
H  51.55200 51.90800 44.38800
H  46.65000 50.65000 43.70900
H  46.13400 50.45200 45.40400
H  44.95600 50.27100 44.22200
H  43.71900 45.94000 41.56800
H  41.34600 43.29300 44.76600
H  40.51100 44.83400 44.82900
H  41.45800 44.41100 46.14700

