79

Mg 41.13000 8.71800 29.56800
C  43.13900 10.13600 32.10200
C  39.06000 7.52600 31.98700
C  39.21600 7.24500 27.17400
C  43.41500 9.67300 27.34200
N  41.20900 8.79600 31.81600
C  42.12300 9.40600 32.67400
C  41.56800 9.36700 34.15200
C  40.45300 8.27500 34.05200
C  40.23200 8.12800 32.55400
C  40.71500 6.93400 34.74000
C  41.03600 10.85700 34.44100
C  40.34500 11.06800 35.82000
H  41.18200 11.78300 36.89100
N  39.45200 7.47300 29.57500
C  38.74100 7.25800 30.69900
C  37.41300 6.71200 30.22400
C  37.34300 6.80500 28.83900
C  38.68200 7.21000 28.47100
C  36.50700 6.07900 31.31400
C  36.17400 6.50900 27.83500
O  36.28400 6.62600 26.68400
C  34.84800 6.18500 28.46300
N  41.27700 8.47900 27.51900
C  40.48400 7.70200 26.75100
C  40.89000 7.89500 25.25100
C  42.28200 8.43700 25.43800
C  42.37100 8.88200 26.88100
C  40.88700 6.68400 24.38000
C  42.67500 9.55000 24.38900
C  43.85400 9.27400 23.44800
N  42.85600 9.86900 29.63400
C  43.73600 10.21600 28.59900
C  44.82600 11.00000 29.01100
C  44.61700 11.05900 30.45600
C  43.50100 10.25900 30.71500
C  45.84200 11.65900 28.12900
C  45.11700 11.53500 31.65300
O  46.11200 12.11500 31.94700
C  44.24400 10.92100 32.85100
C  44.89300 10.24300 34.00700
O  45.81000 9.48400 33.86200
O  44.45400 10.76800 35.18100
C  45.09100 10.21600 36.41500
H  38.41000 7.24100 32.81700
H  38.58000 6.85900 26.37500
H  44.09900 9.80800 26.50100
H  42.40200 9.04200 34.77400
H  39.61500 8.73900 34.57200
H  41.71200 6.78600 35.15500
H  40.62200 6.08700 34.06000
H  40.02100 6.73200 35.55600
H  40.27300 11.18600 33.73500
H  41.94600 11.42000 34.23700
H  40.08800 10.10300 36.25500
H  39.48900 11.70700 35.60200
H  36.29700 5.06100 30.98600
H  35.57700 6.64600 31.31500
H  36.90900 5.91500 32.31400
H  34.59400 7.10400 28.99100
H  34.94500 5.33500 29.13900
H  34.07200 5.95900 27.73200
H  40.23900 8.68400 24.87600
H  43.08400 7.70200 25.35900
H  41.91300 6.41100 24.13500
H  40.28100 6.67600 23.47400
H  40.44100 5.84000 24.90700
H  42.82100 10.53700 24.82900
H  41.88700 9.56500 23.63700
H  44.45800 10.17800 23.36700
H  43.43600 9.05300 22.46600
H  44.54300 8.45400 23.64900
H  45.98500 10.93100 27.33000
H  46.66800 11.79200 28.82800
H  45.47300 12.63600 27.82000
H  43.89700 11.87500 33.24800
H  44.37400 10.14200 37.23200
H  45.87700 10.85000 36.82500
H  45.39500 9.18200 36.24800

