79

Mg 29.75000 57.76800 40.66200
C  27.05000 55.77200 39.47800
C  31.84300 55.60700 39.11600
C  32.25500 60.01500 40.98800
C  27.49400 60.26000 41.57800
N  29.41200 55.97100 39.44900
C  28.31000 55.25100 39.08400
C  28.57700 53.93200 38.29300
C  30.12400 53.86900 38.48200
C  30.48100 55.23900 39.04400
C  30.69800 52.67900 39.28300
C  28.06900 54.02800 36.78700
C  27.86400 55.35100 36.12600
H  27.03300 55.39000 34.95700
N  31.83700 57.80500 40.22600
C  32.50700 56.70800 39.70500
C  33.92700 56.96700 39.76100
C  34.07500 58.24600 40.41100
C  32.70500 58.76300 40.56300
C  35.02200 55.96600 39.44800
C  35.36500 58.94500 40.63500
O  36.45900 58.45900 40.28500
C  35.45400 60.29300 41.29000
N  29.83000 59.95100 41.13200
C  31.02000 60.55400 41.25500
C  30.80800 62.02900 41.67600
C  29.25100 62.15800 41.92800
C  28.82300 60.71000 41.58100
C  31.69700 62.56500 42.90000
C  28.54300 63.34400 41.13600
C  28.21200 64.59400 41.90800
N  27.70400 57.94300 40.74700
C  26.93500 59.00200 41.16200
C  25.55200 58.58100 41.15200
C  25.55900 57.26500 40.47800
C  26.93500 57.00300 40.24500
C  24.39500 59.49900 41.46300
C  24.69000 56.30300 39.89000
O  23.45500 56.26800 39.74800
C  25.62700 55.27500 39.27100
C  25.38700 53.97600 39.98600
O  26.02600 53.53300 40.95800
O  24.25400 53.38300 39.55500
C  23.95000 52.02600 39.86000
H  32.52100 54.87200 38.67700
H  33.02600 60.78000 41.10300
H  26.68100 60.97500 41.72600
H  28.08800 53.20800 38.94400
H  30.70100 53.86700 37.55800
H  29.96900 51.86800 39.26900
H  30.78000 53.00400 40.32000
H  31.67500 52.40500 38.88400
H  27.17900 53.40600 36.67900
H  28.87200 53.60400 36.18400
H  28.82500 55.77700 35.83900
H  27.48700 56.13000 36.78900
H  35.75900 56.43600 38.79600
H  34.64800 55.06700 38.95900
H  35.67000 55.67900 40.27600
H  35.01500 61.06500 40.65800
H  36.53200 60.41600 41.39400
H  35.04100 60.45400 42.28600
H  31.10600 62.55300 40.76900
H  29.16500 62.27700 43.00800
H  32.63200 62.00500 42.86500
H  31.28800 62.49200 43.90800
H  31.96000 63.60100 42.68100
H  27.74700 62.91100 40.53100
H  29.25400 63.70000 40.39000
H  28.76800 65.45800 41.54300
H  28.49100 64.51500 42.95900
H  27.14900 64.79800 41.78200
H  24.68500 60.18800 42.25600
H  23.49200 58.95300 41.73500
H  24.22000 60.12700 40.58800
H  25.42600 55.17200 38.20500
H  23.17400 51.84100 40.60300
H  24.84300 51.45300 40.11300
H  23.48000 51.61000 38.96900

