79

Mg 1.78800 -1.04300 43.90800
C  5.07200 0.07300 43.15500
C  0.63600 1.79600 42.15600
C  -1.31500 -2.18300 44.03000
C  3.25100 -4.11300 45.19000
N  2.73100 0.55800 42.69300
C  4.07800 0.89600 42.59300
C  4.32100 2.17000 41.78400
C  2.89700 2.81500 41.80200
C  2.00100 1.64700 42.23200
C  2.84400 4.03900 42.86700
C  4.93800 1.87100 40.36800
C  6.13500 2.88100 40.12100
H  5.92700 3.88600 38.95800
N  -0.20700 -0.25800 43.24500
C  -0.41500 0.95600 42.61900
C  -1.83800 1.19700 42.60400
C  -2.47800 0.04100 43.24300
C  -1.32800 -0.89300 43.49900
C  -2.51800 2.43200 42.07900
C  -3.88600 -0.07500 43.61500
O  -4.72300 0.79200 43.26300
C  -4.49900 -1.18000 44.40700
N  1.12000 -2.99900 44.24800
C  -0.21800 -3.14100 44.42200
C  -0.43700 -4.56900 45.01100
C  0.95800 -5.06800 45.53500
C  1.88300 -4.03700 44.92200
C  -1.50600 -4.57000 46.15900
C  1.36800 -6.44800 45.00500
C  1.42500 -7.65700 46.05600
N  3.75700 -1.95800 44.12300
C  4.15500 -3.14600 44.65800
C  5.66900 -3.20300 44.66700
C  5.94800 -1.97000 44.02900
C  4.81400 -1.24300 43.69500
C  6.53900 -4.27600 45.17100
C  7.08800 -1.20100 43.62400
O  8.29700 -1.50500 43.81700
C  6.52400 0.11800 43.02500
C  7.20700 1.11000 43.86300
O  7.27200 1.10700 45.07100
O  7.84100 2.07600 43.08800
C  8.63000 3.16700 43.78400
H  0.25900 2.74900 41.77900
H  -2.29700 -2.64800 44.13200
H  3.64000 -4.94000 45.78800
H  4.92500 2.70900 42.51400
H  2.65800 3.21700 40.81700
H  3.60900 3.85200 43.62100
H  1.90000 4.20900 43.38500
H  3.12000 4.97000 42.37100
H  4.19100 1.85900 39.57500
H  5.26100 0.83100 40.32100
H  7.03200 2.31300 39.87500
H  6.37600 3.49400 40.98900
H  -3.19100 2.67000 42.90200
H  -3.07700 2.02100 41.23900
H  -1.81600 3.26300 42.02200
H  -5.56600 -0.99900 44.53600
H  -3.90300 -1.21600 45.31900
H  -4.34500 -1.94600 43.64700
H  -0.67100 -5.25000 44.19200
H  1.02700 -4.97600 46.61900
H  -1.93600 -3.58000 46.31200
H  -1.16800 -5.00100 47.10100
H  -2.36300 -5.14000 45.80000
H  2.28100 -6.40900 44.41200
H  0.75100 -6.89000 44.22400
H  2.36900 -8.18800 45.92500
H  0.62500 -8.37200 45.86800
H  1.34100 -7.32700 47.09100
H  7.39700 -3.98200 45.77700
H  6.92100 -4.80200 44.29700
H  5.93900 -5.02500 45.68900
H  6.85200 0.08900 41.98600
H  9.17400 3.69400 43.00000
H  9.38600 2.80600 44.48200
H  8.05200 3.92600 44.31100

