79

Mg 47.34600 34.47400 26.89000
C  45.32400 33.06800 29.42300
C  47.58000 37.22700 28.66800
C  48.97700 35.80100 24.25500
C  46.72900 31.58400 24.92300
N  46.59300 34.99300 28.82000
C  45.85200 34.27300 29.74100
C  46.12700 34.88000 31.16700
C  46.44500 36.43100 30.84400
C  46.86600 36.24700 29.34000
C  45.38000 37.39900 31.19900
C  47.31200 34.20200 31.80500
C  47.67200 34.48100 33.25800
H  46.70100 35.21700 34.21400
N  48.15800 36.23500 26.46900
C  48.16900 37.27900 27.37600
C  48.91000 38.37200 26.83600
C  49.18200 38.00200 25.50800
C  48.75000 36.65500 25.37600
C  49.26500 39.63300 27.57900
C  49.72100 38.83400 24.29600
O  49.73800 38.34000 23.15600
C  50.07100 40.30100 24.39000
N  47.67200 33.83200 24.79000
C  48.37700 34.63700 23.93200
C  48.59900 34.02500 22.58200
C  48.10800 32.52900 22.88500
C  47.47400 32.60700 24.26600
C  47.95300 34.79000 21.41700
C  49.20000 31.44300 22.79800
C  48.82100 30.35200 21.75300
N  46.21800 32.71000 27.05200
C  46.14400 31.56500 26.19700
C  45.42300 30.48800 26.90400
C  44.99800 31.05400 28.09400
C  45.52400 32.42500 28.14500
C  45.15900 29.05000 26.42000
C  44.29700 30.83500 29.32800
O  43.72700 29.80200 29.70000
C  44.30000 32.16800 30.08800
C  44.53900 31.80200 31.53800
O  45.45800 31.12100 31.99500
O  43.59000 32.40600 32.29200
C  43.61800 32.13600 33.68200
H  47.62700 38.16300 29.22800
H  49.67600 36.10000 23.47100
H  46.60700 30.66100 24.35300
H  45.24300 34.75500 31.79200
H  47.28800 36.73700 31.46400
H  45.30500 38.12600 30.39000
H  45.61400 37.79200 32.18800
H  44.41900 36.88600 31.24400
H  48.17000 34.32100 31.14400
H  47.07900 33.13900 31.87300
H  48.46700 35.18600 33.01600
H  48.08600 33.57100 33.69300
H  50.32700 39.87800 27.57900
H  49.03000 39.59700 28.64200
H  48.72000 40.53600 27.30300
H  49.62500 40.75700 25.27400
H  49.43900 40.61600 23.55900
H  51.11800 40.50000 24.16100
H  49.66700 34.02400 22.36100
H  47.33100 32.27800 22.16200
H  48.67200 35.43200 20.90900
H  47.00500 35.31000 21.55700
H  47.82600 34.04100 20.63500
H  49.28200 30.91100 23.74600
H  50.12500 31.89700 22.44200
H  47.86100 30.47900 21.25400
H  48.72100 29.50300 22.42900
H  49.63000 30.12100 21.06000
H  45.82100 28.87100 25.57300
H  44.09400 28.94700 26.20900
H  45.30900 28.47500 27.33300
H  43.27900 32.54700 30.13300
H  42.68900 32.53800 34.08600
H  44.43500 32.70600 34.12500
H  43.81400 31.10100 33.96400

