79

Mg 48.04600 15.73000 27.84600
C  46.08700 15.60800 30.74800
C  50.33200 17.67400 29.67000
C  49.64000 16.46300 24.94300
C  45.46000 14.30100 26.02800
N  48.08000 16.58500 29.96100
C  47.24100 16.33400 30.96400
C  47.86800 16.77900 32.31700
C  49.04300 17.69800 31.89700
C  49.11700 17.36800 30.37600
C  48.75900 19.19000 32.16000
C  48.39200 15.62800 33.24000
C  48.37800 16.02600 34.73100
H  47.62100 17.28100 35.23600
N  49.85100 16.69600 27.37500
C  50.63800 17.41200 28.31100
C  51.90700 17.83600 27.60300
C  51.76500 17.43900 26.17400
C  50.40000 16.79900 26.13400
C  52.98400 18.62500 28.31500
C  52.72900 17.58600 25.05500
O  52.38000 17.28900 23.94000
C  54.15400 18.15400 25.36800
N  47.49400 15.68500 25.82800
C  48.35300 15.96200 24.79700
C  47.63200 15.77900 23.41400
C  46.48400 14.82800 23.81300
C  46.53000 14.89400 25.36100
C  47.10700 17.20100 22.94000
C  46.42800 13.32200 23.16800
C  46.99500 12.12600 24.07800
N  46.15500 14.98300 28.22200
C  45.22200 14.43300 27.43400
C  44.14900 13.91100 28.26700
C  44.40800 14.39500 29.50200
C  45.67800 15.05700 29.49100
C  43.09700 13.01200 27.84900
C  43.89100 14.53600 30.84600
O  42.82100 14.14400 31.31800
C  44.99400 15.25400 31.72200
C  44.41200 16.21700 32.65100
O  44.27700 17.39000 32.26300
O  43.98600 15.73400 33.87400
C  43.34600 16.53200 34.91400
H  51.03000 18.23000 30.30000
H  50.08100 16.68000 23.96800
H  44.71900 13.74700 25.44800
H  47.00100 17.25100 32.77900
H  49.96500 17.47900 32.43500
H  47.70600 19.36400 32.37700
H  48.80100 19.70000 31.19700
H  49.34600 19.80700 32.84000
H  49.41800 15.34600 33.00700
H  47.75700 14.77200 33.01400
H  49.37200 15.82400 35.13200
H  47.76800 15.22000 35.13800
H  53.93400 18.11200 28.16600
H  52.75900 18.79800 29.36700
H  53.17500 19.59900 27.86400
H  54.03100 19.10500 25.88600
H  54.61100 18.32700 24.39400
H  54.88000 17.48700 25.83500
H  48.41600 15.34100 22.79600
H  45.52900 15.26800 23.52600
H  46.05100 17.42500 23.08700
H  47.41100 17.21900 21.89300
H  47.68300 18.01300 23.38500
H  46.95100 13.40200 22.21500
H  45.37500 13.13500 22.95800
H  46.16600 11.42200 24.15500
H  47.29600 12.38000 25.09400
H  47.86900 11.66200 23.62300
H  43.35400 12.28600 27.07800
H  42.39200 13.77100 27.50900
H  42.80800 12.25000 28.57200
H  45.31200 14.36300 32.26400
H  42.25900 16.57900 34.85000
H  43.63100 17.58000 34.81700
H  43.68800 16.08500 35.84700

