79

Mg 47.11900 34.98600 26.70500
C  45.43200 33.29100 29.38300
C  47.59800 37.52600 28.89100
C  48.90700 36.50400 24.28100
C  46.60100 32.19700 24.72900
N  46.62400 35.23400 28.90600
C  46.04900 34.41100 29.79600
C  46.05300 34.89000 31.22500
C  46.46600 36.35200 30.91100
C  46.90600 36.40600 29.44800
C  45.36300 37.40200 31.11700
C  47.13300 34.14500 32.14800
C  46.67500 33.93600 33.60000
H  47.52700 34.68700 34.68300
N  48.03500 36.79100 26.54200
C  48.03400 37.76300 27.56500
C  48.80000 38.91800 27.09400
C  49.25600 38.60000 25.79700
C  48.72900 37.24500 25.44600
C  49.14000 40.15100 27.97700
C  50.23800 39.33500 24.80500
O  50.52100 38.88800 23.68300
C  50.84700 40.70100 25.14400
N  47.55900 34.46500 24.84800
C  48.37400 35.22400 24.06200
C  48.49700 34.62500 22.60600
C  47.55800 33.32500 22.69500
C  47.29200 33.27700 24.16800
C  48.08000 35.52400 21.42600
C  48.12000 32.10500 21.98600
C  49.28900 31.33100 22.72300
N  46.18300 33.12500 26.94900
C  46.06700 32.12600 26.00700
C  45.29500 30.97400 26.59100
C  44.97100 31.45600 27.88100
C  45.56100 32.76800 28.08100
C  44.95600 29.67000 25.98600
C  44.26300 31.09900 29.11400
O  43.73900 30.03600 29.42800
C  44.43600 32.33700 30.06000
C  44.66400 31.86400 31.46800
O  45.64800 31.29100 31.89300
O  43.59700 32.25600 32.26700
C  43.67500 31.86500 33.65200
H  47.71200 38.43400 29.48600
H  49.41700 36.93200 23.41500
H  46.25300 31.40000 24.06900
H  45.03800 34.74600 31.59600
H  47.20200 36.62300 31.66900
H  44.52800 36.84500 31.54200
H  44.85000 37.74100 30.21700
H  45.66100 38.28300 31.68600
H  48.10600 34.63600 32.13500
H  47.24600 33.09500 31.87700
H  46.67900 32.87300 33.84300
H  45.65000 34.30500 33.58000
H  50.16000 39.95300 28.30700
H  48.48800 40.23700 28.84600
H  49.19300 41.04600 27.35700
H  50.16600 41.54400 25.03300
H  51.64500 40.92200 24.43500
H  51.40300 40.63000 26.08000
H  49.51900 34.29200 22.42200
H  46.53700 33.36900 22.31500
H  47.57100 36.30100 21.99600
H  47.32000 35.06200 20.79600
H  48.96400 35.81300 20.85900
H  48.57600 32.48000 21.07000
H  47.26600 31.46500 21.76600
H  50.00200 31.11900 21.92700
H  48.81400 30.41500 23.07600
H  49.70000 32.02300 23.45800
H  45.13300 28.85700 26.69000
H  45.51600 29.43500 25.08200
H  43.88100 29.64300 25.80600
H  43.48300 32.86000 30.13600
H  44.39600 31.07000 33.84300
H  42.70400 31.52700 34.01500
H  43.98300 32.72300 34.24900

