79

Mg 46.72900 25.48500 28.36300
C  47.36700 27.62400 31.06200
C  46.25900 22.89300 30.65900
C  46.16200 23.26300 25.89000
C  47.65300 27.91200 26.06500
N  46.85900 25.32800 30.60000
C  47.00400 26.38100 31.52800
C  46.89500 25.89100 32.96000
C  46.67400 24.32200 32.74200
C  46.66800 24.13300 31.26200
C  47.62700 23.30800 33.54400
C  45.77900 26.67100 33.88100
C  46.25000 26.71100 35.33400
H  45.40800 27.60100 36.30300
N  46.18100 23.45900 28.33500
C  46.08800 22.53700 29.38100
C  45.70900 21.21500 28.86900
C  45.60700 21.37100 27.45700
C  45.98300 22.78200 27.13600
C  45.66000 19.99700 29.70500
C  45.21300 20.27600 26.40300
O  45.18900 20.36800 25.20300
C  44.94700 18.96000 26.87000
N  47.03500 25.57100 26.28300
C  46.58000 24.50100 25.50800
C  46.77000 24.90000 24.02200
C  47.08100 26.42800 24.02900
C  47.27300 26.68800 25.53800
C  47.83800 24.03800 23.20200
C  45.85900 27.35500 23.54700
C  46.20200 28.55500 22.58400
N  47.43000 27.32000 28.45800
C  47.79400 28.21700 27.40300
C  48.23700 29.48800 28.04000
C  48.12300 29.26300 29.47900
C  47.68000 27.92500 29.64800
C  49.06300 30.44700 27.34900
C  48.42200 29.80500 30.72000
O  49.09600 30.79400 30.98600
C  47.78900 28.91400 31.72500
C  48.85900 28.72800 32.77800
O  49.93100 28.26400 32.66100
O  48.31600 29.18900 33.97400
C  49.06300 29.40000 35.15800
H  46.07700 22.12900 31.41800
H  45.98400 22.47400 25.15700
H  47.77600 28.66700 25.28500
H  47.85800 25.90400 33.47100
H  45.65500 24.16300 33.09400
H  48.29300 23.80000 34.25300
H  48.14000 22.70000 32.79900
H  46.99900 22.65800 34.15300
H  44.82300 26.14800 33.90900
H  45.53600 27.62600 33.41500
H  47.23600 27.17200 35.27400
H  46.25200 25.67000 35.65700
H  44.60500 19.74500 29.81000
H  46.11800 20.03200 30.69400
H  46.02800 19.01100 29.42100
H  44.12200 19.07400 27.57300
H  45.79200 18.51900 27.39900
H  44.60300 18.28500 26.08500
H  45.85200 24.74300 23.45500
H  47.98700 26.73600 23.50800
H  48.04800 23.05800 23.62900
H  48.70600 24.67000 23.01500
H  47.36600 23.87900 22.23300
H  45.29200 27.63000 24.43600
H  45.20500 26.71300 22.95600
H  47.26900 28.75900 22.49200
H  45.62800 29.44600 22.84000
H  45.87600 28.48700 21.54600
H  50.08400 30.07600 27.26000
H  48.98600 31.42200 27.83200
H  48.69900 30.56500 26.32800
H  46.90700 29.41800 32.12000
H  48.92500 30.38200 35.61100
H  50.11200 29.10600 35.13100
H  48.54100 28.76900 35.87800

