79

Mg -11.64300 17.02000 42.89800
C  -8.56600 15.60900 42.48400
C  -10.55500 19.98900 41.40700
C  -14.75400 18.12300 42.86900
C  -12.90500 13.65000 43.39400
N  -9.77900 17.71200 42.06500
C  -8.64800 16.96500 42.05200
C  -7.51600 17.69300 41.31600
C  -8.09600 19.16600 41.23300
C  -9.54900 18.95500 41.62200
C  -7.39700 20.30100 42.02700
C  -7.16100 16.98000 39.94100
C  -5.58500 16.65900 39.82500
H  -5.09200 15.70100 38.71900
N  -12.55000 18.83000 42.13800
C  -11.95500 19.88300 41.56400
C  -12.93600 20.85600 41.26200
C  -14.18500 20.45300 41.81000
C  -13.85600 19.08600 42.31600
C  -12.64000 22.16000 40.58300
C  -15.49700 21.26100 41.79700
O  -15.62600 22.42700 41.40000
C  -16.61200 20.66500 42.54500
N  -13.62400 15.96500 42.83000
C  -14.68000 16.75000 43.13900
C  -15.92300 15.84000 43.58800
C  -15.34100 14.39800 43.41100
C  -13.83200 14.62200 43.18000
C  -16.44200 16.04900 45.01300
C  -15.83300 13.51800 42.18200
C  -16.02100 12.03400 42.46300
N  -10.93900 14.99500 43.07900
C  -11.51200 13.81800 43.38100
C  -10.53500 12.76900 43.55400
C  -9.32600 13.48700 43.24000
C  -9.62400 14.79500 42.95100
C  -10.74200 11.36600 43.93300
C  -7.91300 13.30200 43.02800
O  -7.21600 12.33400 43.22600
C  -7.39400 14.64000 42.43500
C  -6.29800 15.06000 43.35500
O  -6.39300 15.53300 44.45000
O  -5.08500 14.80400 42.72000
C  -3.83500 15.25100 43.42300
H  -10.07700 20.91800 41.09000
H  -15.81500 18.35200 42.99200
H  -13.26500 12.66100 43.68600
H  -6.69200 17.69600 42.03100
H  -8.15300 19.35200 40.16000
H  -7.13600 21.01000 41.24200
H  -6.51200 19.91600 42.53300
H  -8.03300 20.83000 42.73600
H  -7.44000 17.62100 39.10400
H  -7.76400 16.07600 39.85300
H  -5.15200 16.33000 40.77000
H  -5.14700 17.64400 39.66600
H  -12.01000 21.87400 39.74100
H  -12.01000 22.75800 41.24200
H  -13.49500 22.71600 40.19900
H  -17.32700 21.46000 42.75300
H  -16.22600 20.24400 43.47400
H  -17.11500 19.90900 41.94200
H  -16.68800 16.11300 42.86100
H  -15.40900 13.76900 44.29800
H  -16.45500 15.16800 45.65500
H  -17.42500 16.51100 45.09600
H  -15.76200 16.82500 45.36400
H  -15.15000 13.53700 41.33200
H  -16.71000 14.06900 41.84200
H  -15.46800 11.81000 43.37400
H  -15.63300 11.32300 41.73300
H  -17.04800 11.71800 42.64400
H  -9.84700 10.77300 43.74400
H  -11.58400 10.96600 43.36700
H  -10.94700 11.30200 45.00200
H  -7.01800 14.55900 41.41600
H  -3.40000 14.28400 43.67600
H  -3.94100 15.72400 44.39900
H  -3.04900 15.73000 42.83900

