79

Mg 26.50900 51.98800 26.74200
C  24.25200 52.90800 29.31100
C  28.77800 51.24500 29.14800
C  28.71200 51.74300 24.33500
C  24.10500 53.14400 24.46200
N  26.48600 52.17700 29.02500
C  25.46200 52.39200 29.85700
C  25.90000 52.16200 31.35500
C  27.35900 51.72800 31.19100
C  27.56300 51.69400 29.66200
C  28.39400 52.66200 31.93900
C  25.00200 51.11400 32.15000
C  25.42200 50.86100 33.59600
H  24.56300 51.26600 34.76300
N  28.52500 51.46900 26.80900
C  29.23100 51.17500 27.85400
C  30.54000 50.79900 27.34900
C  30.51800 50.97200 25.94300
C  29.20900 51.41300 25.61800
C  31.66600 50.22900 28.23400
C  31.75600 50.83500 25.05500
O  31.63300 51.14200 23.89300
C  33.08200 50.43700 25.52000
N  26.37900 52.32700 24.71100
C  27.39000 52.02600 23.93300
C  27.05100 52.27500 22.38400
C  25.57500 52.54900 22.45500
C  25.31600 52.83400 23.92100
C  27.89000 53.32300 21.73500
C  24.63600 51.43200 21.80000
C  23.75200 51.96700 20.64700
N  24.58300 52.95700 26.83800
C  23.75100 53.23300 25.83400
C  22.51400 53.75300 26.32900
C  22.65700 53.57500 27.71500
C  23.93500 53.13900 27.99800
C  21.36900 54.37900 25.63400
C  21.97500 53.70800 29.05500
O  20.88700 54.15000 29.41500
C  23.00200 53.33200 30.07400
C  23.20700 54.51700 30.96500
O  23.68900 55.60000 30.63100
O  22.79100 54.17300 32.22800
C  22.56400 55.26500 33.17400
H  29.43800 50.90700 29.95000
H  29.37600 51.74800 23.46900
H  23.27600 53.58400 23.90500
H  25.77900 53.11100 31.87700
H  27.47200 50.74100 31.64100
H  29.23000 52.88800 31.27700
H  28.82100 52.07500 32.75200
H  28.08100 53.63400 32.32000
H  25.14600 50.22200 31.54000
H  23.95200 51.38500 32.03900
H  26.40400 51.32900 33.66500
H  25.49900 49.77800 33.70000
H  31.93800 49.20300 27.98600
H  31.40600 50.27500 29.29200
H  32.50000 50.92700 28.15500
H  33.31000 51.16500 26.29900
H  33.85100 50.51900 24.75300
H  33.07100 49.41700 25.90300
H  27.33200 51.29200 22.00700
H  25.42800 53.55400 22.05900
H  27.27900 54.09700 21.27100
H  28.46600 52.85400 20.93700
H  28.52100 53.70300 22.53800
H  23.93900 51.03700 22.54000
H  25.24300 50.58300 21.48700
H  23.85500 51.30700 19.78600
H  24.01500 52.99200 20.38500
H  22.70000 51.88400 20.91900
H  21.80800 55.16200 25.01500
H  20.80900 54.72100 26.50500
H  20.87100 53.60600 25.05000
H  22.64600 52.48100 30.65600
H  23.51100 55.79500 33.26900
H  22.33400 54.82700 34.14500
H  21.73800 55.90400 32.86200

