79

Mg 7.90700 2.27100 27.54400
C  9.31800 0.89300 30.75600
C  5.91000 4.14600 29.64900
C  6.31400 3.17500 24.81900
C  9.68000 -0.27300 25.98400
N  7.67200 2.33700 29.99200
C  8.38400 1.84800 31.04800
C  8.04100 2.55400 32.38100
C  6.79200 3.38000 31.96600
C  6.82100 3.34200 30.41100
C  5.40500 3.00400 32.75100
C  9.16100 3.38800 32.95200
C  8.84000 4.30900 34.09700
H  9.48000 3.98900 35.45000
N  6.37300 3.49800 27.27600
C  5.69800 4.23900 28.26900
C  4.79200 5.19700 27.62000
C  5.02900 4.94700 26.19900
C  5.92400 3.88000 26.07800
C  3.76100 6.00800 28.38100
C  4.30700 5.64000 25.04100
O  4.48900 5.28000 23.90300
C  3.26200 6.68100 25.32800
N  8.01400 1.54000 25.67300
C  7.23900 2.07300 24.74200
C  7.44800 1.44900 23.37300
C  8.71600 0.45400 23.64600
C  8.78300 0.53800 25.15600
C  6.21500 0.57200 22.97300
C  10.07200 0.83200 22.89200
C  10.43500 -0.03000 21.63900
N  9.31300 0.76600 28.12700
C  9.98800 -0.16700 27.37300
C  10.89800 -0.94300 28.13200
C  10.63400 -0.55100 29.49900
C  9.72100 0.52200 29.43400
C  11.83200 -2.09200 27.64500
C  11.11700 -0.78300 30.91600
O  12.00300 -1.53700 31.27500
C  10.19500 0.18600 31.82900
C  9.32000 -0.54300 32.76500
O  8.27700 -1.10100 32.54300
O  9.81600 -0.43400 34.07300
C  9.29100 -1.27400 35.17000
H  5.37200 4.76800 30.36800
H  5.87200 3.49700 23.87400
H  10.25900 -1.02400 25.44200
H  7.68600 1.84500 33.12800
H  6.97400 4.44500 32.11100
H  5.35700 3.68400 33.60200
H  5.42600 1.97000 33.09400
H  4.47900 3.05700 32.17800
H  9.56400 3.95100 32.11000
H  10.04600 2.86100 33.30900
H  7.75100 4.26300 34.07400
H  9.09800 5.33200 33.82500
H  2.75500 5.61900 28.22500
H  3.83300 7.07600 28.17800
H  4.00000 5.86100 29.43400
H  2.40500 6.25100 25.84600
H  2.99600 6.89600 24.29300
H  3.65500 7.51600 25.90900
H  7.77500 2.09000 22.55400
H  8.47800 -0.58800 23.43100
H  6.30400 -0.51400 23.02100
H  5.86200 0.74400 21.95700
H  5.42800 0.83800 23.67900
H  10.92200 0.93100 23.56800
H  9.91800 1.81600 22.44800
H  9.64800 -0.72900 21.35700
H  11.30700 -0.66300 21.80300
H  10.67600 0.63900 20.81300
H  12.03100 -1.84000 26.60400
H  11.37700 -3.08300 27.66600
H  12.76700 -2.02000 28.20000
H  10.91000 0.81400 32.35900
H  9.05100 -2.31000 34.93000
H  8.42700 -0.72100 35.53800
H  10.06900 -1.23700 35.93200

