79

Mg -11.45500 37.69800 42.72800
C  -8.81700 35.44600 41.91900
C  -9.57600 40.22200 41.34300
C  -14.03800 39.69200 42.63900
C  -13.54900 34.87100 43.34800
N  -9.57200 37.71400 41.53600
C  -8.56400 36.70000 41.43400
C  -7.38300 37.23300 40.78100
C  -7.49400 38.73600 41.06400
C  -8.96300 38.93800 41.30100
C  -6.70400 39.13500 42.31500
C  -7.60900 36.86400 39.24200
C  -6.40800 36.90100 38.25000
H  -6.25900 35.81500 37.15200
N  -11.72500 39.81400 42.23500
C  -10.85200 40.70700 41.65400
C  -11.40500 42.02900 41.44000
C  -12.75600 41.88700 41.99900
C  -12.91600 40.47900 42.37200
C  -10.59100 43.21700 40.87800
C  -13.67600 43.10800 42.12600
O  -13.44200 44.19800 41.66100
C  -15.09400 42.89500 42.75000
N  -13.47500 37.37200 42.89100
C  -14.39900 38.32000 42.89200
C  -15.83600 37.91600 43.04400
C  -15.54800 36.39200 43.47800
C  -14.14900 36.16800 43.15300
C  -16.53300 38.67500 44.13100
C  -16.52100 35.39200 42.92000
C  -17.01900 34.26500 43.90900
N  -11.30000 35.60500 42.82600
C  -12.19400 34.57000 43.13700
C  -11.43200 33.30600 43.10500
C  -10.22100 33.65000 42.59200
C  -10.12600 35.05600 42.44700
C  -12.04800 32.00700 43.33300
C  -8.95300 33.04300 42.16100
O  -8.59600 31.84300 42.15800
C  -7.96200 34.19400 41.74800
C  -6.83000 34.25200 42.70900
O  -5.64800 34.14800 42.38900
O  -7.28700 34.30400 44.00800
C  -6.29100 34.37000 45.08300
H  -8.91500 40.93600 40.84700
H  -14.98000 40.20600 42.43400
H  -14.24100 34.08400 43.65400
H  -6.38100 36.86200 40.99600
H  -7.19900 39.34500 40.21000
H  -7.41700 39.32200 43.11700
H  -6.17100 40.06300 42.11000
H  -6.01900 38.38900 42.71700
H  -8.39500 37.56200 38.95400
H  -8.07900 35.88300 39.16800
H  -5.45000 36.89600 38.77000
H  -6.40700 37.86000 37.73100
H  -10.95900 43.46400 39.88200
H  -9.58200 42.81200 40.80900
H  -10.59700 44.12300 41.48500
H  -15.56100 43.77700 43.18900
H  -15.12000 42.27200 43.64400
H  -15.75300 42.37800 42.05300
H  -16.35800 38.08100 42.10100
H  -15.60500 36.45900 44.56500
H  -15.84600 39.22700 44.77200
H  -17.12500 37.90600 44.62700
H  -17.14700 39.41300 43.61400
H  -16.06700 34.95700 42.02900
H  -17.37000 36.00500 42.62000
H  -16.40600 34.17100 44.80500
H  -16.93100 33.26200 43.49200
H  -18.03400 34.54300 44.19300
H  -11.54100 31.52100 44.16700
H  -11.92600 31.37600 42.45300
H  -13.09600 32.09000 43.61900
H  -7.74700 34.08400 40.68500
H  -6.78800 34.65600 46.01100
H  -5.44800 35.02700 44.87000
H  -5.90100 33.36300 45.23000

