79

Mg -1.41000 33.76700 27.26400
C  -3.07500 31.66200 29.61800
C  0.17700 35.21900 29.88400
C  -0.02500 35.92800 25.16900
C  -3.27800 32.33200 24.69000
N  -1.51100 33.42700 29.54500
C  -2.23900 32.55200 30.26900
C  -1.96000 32.75700 31.74700
C  -1.12900 34.07500 31.79600
C  -0.76800 34.30000 30.31100
C  -1.81600 35.30700 32.47800
C  -1.42800 31.47200 32.38500
C  -2.16500 31.04800 33.68100
H  -1.34800 30.92900 35.03800
N  -0.05100 35.32300 27.52600
C  0.54000 35.75400 28.69000
C  1.54900 36.78400 28.39200
C  1.45300 36.99700 26.99500
C  0.47500 36.01700 26.47600
C  2.39300 37.48400 29.44600
C  2.24900 38.00400 26.08000
O  2.11200 38.01900 24.84600
C  3.28500 38.90200 26.61400
N  -1.80800 34.21000 25.27500
C  -1.03100 35.14400 24.61600
C  -1.33900 35.05500 23.06400
C  -2.23400 33.79600 22.96500
C  -2.47100 33.40700 24.39300
C  -1.96000 36.35700 22.45900
C  -1.65900 32.64200 22.07500
C  -0.67900 31.63200 22.75700
N  -2.83000 32.28300 27.08300
C  -3.51600 31.79200 25.98700
C  -4.33600 30.70000 26.42600
C  -4.27000 30.65700 27.82200
C  -3.27400 31.57900 28.18900
C  -5.12300 29.83800 25.46300
C  -4.79500 29.99600 29.03900
O  -5.52900 29.04300 29.16900
C  -4.10400 30.65500 30.27100
C  -5.16100 31.28300 31.09200
O  -5.60000 32.39500 30.96100
O  -5.44500 30.45600 32.12900
C  -6.66000 30.76700 32.87400
H  0.66800 35.78100 30.68100
H  0.46300 36.55900 24.42300
H  -3.89600 31.98700 23.85800
H  -2.95300 32.98500 32.13500
H  -0.21000 34.05000 32.38100
H  -1.55600 35.42000 33.53100
H  -2.90400 35.25400 32.44700
H  -1.53000 36.24300 31.99900
H  -0.44900 31.77800 32.75200
H  -1.23700 30.66200 31.68100
H  -2.45000 30.04300 33.37000
H  -3.02000 31.70900 33.82000
H  3.43200 37.16300 29.51600
H  2.12800 37.23100 30.47300
H  2.25800 38.53600 29.19700
H  2.62400 39.69700 26.95900
H  4.05200 39.26100 25.92700
H  3.90900 38.35000 27.31600
H  -0.35900 35.01600 22.58800
H  -3.21200 34.08500 22.58100
H  -2.53700 36.06400 21.58200
H  -1.25100 37.12900 22.16100
H  -2.66100 36.71400 23.21500
H  -1.18600 33.00500 21.16200
H  -2.50300 32.09200 21.65900
H  -0.55500 32.01100 23.77100
H  0.25000 31.58800 22.18900
H  -1.10900 30.63000 22.74000
H  -6.07100 29.61600 25.95300
H  -4.58200 28.96100 25.10600
H  -5.26900 30.37200 24.52400
H  -3.56100 29.89900 30.84000
H  -7.55300 31.11700 32.35700
H  -6.27700 31.47700 33.60800
H  -6.94000 29.86000 33.41000

