79

Mg -9.63100 39.56400 42.66000
C  -8.84000 36.35700 41.80200
C  -6.64700 40.56200 41.22000
C  -10.84600 42.67000 42.42000
C  -12.90500 38.45900 43.66600
N  -8.12400 38.58900 41.41400
C  -7.90900 37.26300 41.40000
C  -6.57400 36.94200 40.60300
C  -5.78400 38.26200 40.82400
C  -6.91300 39.24800 41.23600
C  -4.60700 38.15100 41.79100
C  -6.74200 36.37900 39.16500
C  -5.92200 35.14500 38.72600
H  -5.09200 35.34200 37.47300
N  -8.78700 41.39300 41.92000
C  -7.53100 41.65600 41.50300
C  -7.26900 43.06700 41.44700
C  -8.52400 43.71100 41.75400
C  -9.44900 42.57700 42.00100
C  -5.89900 43.54300 40.96500
C  -8.79800 45.22600 41.73700
O  -7.88700 45.98000 41.51200
C  -10.12500 45.81800 41.99300
N  -11.61900 40.39100 42.98600
C  -11.83700 41.72900 42.79000
C  -13.26900 42.15100 43.11200
C  -13.88000 40.84000 43.70300
C  -12.79800 39.81900 43.41000
C  -13.41600 43.36200 44.01400
C  -15.33700 40.34100 43.30100
C  -16.21900 39.73200 44.43500
N  -10.62000 37.76900 42.98100
C  -11.89800 37.48500 43.33800
C  -12.01600 36.06100 43.31200
C  -10.83400 35.59800 42.76700
C  -10.02600 36.66700 42.47900
C  -13.30000 35.35600 43.68300
C  -10.13100 34.38900 42.34800
O  -10.41600 33.18200 42.42300
C  -8.75500 34.87500 41.74600
C  -7.67300 34.29200 42.59200
O  -7.24300 34.82700 43.61100
O  -7.00300 33.27900 41.93000
C  -5.61400 33.18100 42.25300
H  -5.60500 40.84200 41.05000
H  -11.26100 43.67600 42.51200
H  -13.84900 38.18400 44.14000
H  -5.97400 36.16800 41.08000
H  -5.36600 38.48300 39.84200
H  -3.70400 38.21100 41.18400
H  -4.64100 37.27900 42.44400
H  -4.58400 39.06500 42.38400
H  -6.57100 37.12100 38.38500
H  -7.77900 36.09300 38.98800
H  -6.63300 34.32200 38.79500
H  -5.07900 34.91000 39.37600
H  -5.16200 43.35300 41.74400
H  -5.98400 44.59700 40.69900
H  -5.62800 43.05500 40.02800
H  -10.51200 45.54500 42.97500
H  -10.65500 45.40200 41.13700
H  -10.17300 46.86600 41.69600
H  -13.75800 42.42600 42.17800
H  -13.95800 40.98200 44.78100
H  -12.48300 43.59500 44.52700
H  -14.19300 43.07000 44.72000
H  -13.74900 44.23200 43.44800
H  -15.24300 39.48700 42.63100
H  -15.91700 41.14100 42.83900
H  -16.57800 38.73300 44.18700
H  -17.05500 40.42200 44.54200
H  -15.74000 39.61400 45.40800
H  -13.74400 35.72600 44.60700
H  -13.03400 34.32100 43.89500
H  -14.00300 35.25400 42.85700
H  -8.60800 34.49500 40.73500
H  -5.15500 34.06400 42.69700
H  -5.14200 32.72400 41.38300
H  -5.56100 32.36100 42.97000

