79

Mg -1.91000 16.89300 25.11600
C  -2.16100 14.85500 27.90600
C  -2.92300 19.48900 26.96400
C  -1.78300 18.78600 22.27600
C  -1.20400 13.98500 23.21900
N  -2.59000 17.16800 27.25800
C  -2.59800 16.22000 28.18200
C  -2.96300 16.86800 29.60100
C  -3.52300 18.26300 29.13400
C  -3.05900 18.27700 27.67400
C  -5.07300 18.52200 29.21300
C  -1.80600 16.94600 30.59900
C  -1.78000 16.04600 31.84200
H  -2.47600 16.61200 33.00900
N  -2.20700 18.92100 24.71500
C  -2.56200 19.81500 25.64600
C  -2.56200 21.15200 25.05800
C  -2.26800 21.00000 23.68300
C  -2.13900 19.48300 23.47200
C  -2.70900 22.41400 25.86700
C  -2.21400 21.93200 22.57200
O  -1.94100 21.57400 21.47700
C  -2.43300 23.35500 22.87400
N  -1.63700 16.39300 22.96300
C  -1.42100 17.40000 22.10600
C  -1.04500 16.88100 20.72300
C  -0.68400 15.39300 21.15000
C  -1.20400 15.22300 22.54300
C  -2.05900 17.06300 19.47500
C  0.79400 15.07300 21.07600
C  1.64400 16.01300 21.90700
N  -1.82600 14.78400 25.43200
C  -1.55800 13.75500 24.54800
C  -1.69700 12.50300 25.24300
C  -1.86800 12.89800 26.61800
C  -1.97900 14.30800 26.63400
C  -1.56300 11.07000 24.67200
C  -1.95700 12.49700 27.97800
O  -1.91700 11.35200 28.46300
C  -1.95900 13.78100 28.84200
C  -0.74600 14.01900 29.54900
O  0.20200 14.68500 29.22000
O  -0.69100 13.28900 30.67500
C  0.61800 13.23300 31.29500
H  -3.23100 20.36500 27.54000
H  -1.63200 19.29000 21.31900
H  -1.01100 13.08800 22.62600
H  -3.76800 16.33100 30.10100
H  -3.09400 19.09800 29.68700
H  -5.64000 17.74600 29.72600
H  -5.52900 18.87800 28.28900
H  -5.10300 19.40200 29.85500
H  -1.55400 17.96000 30.90700
H  -0.93300 16.83800 29.95600
H  -0.77200 15.77000 32.15200
H  -2.14000 15.06900 31.52000
H  -1.87700 23.11800 25.84400
H  -2.81200 22.13300 26.91500
H  -3.59500 23.00900 25.64500
H  -2.84500 23.78400 21.96000
H  -1.48400 23.85600 23.06600
H  -3.21500 23.50600 23.61800
H  -0.13100 17.38900 20.41600
H  -1.21600 14.68000 20.52100
H  -1.62000 17.51600 18.58600
H  -2.92600 17.64600 19.78400
H  -2.33500 16.03800 19.22600
H  1.00400 15.08800 20.00600
H  0.87600 14.02100 21.34900
H  2.14700 15.42600 22.67600
H  1.26700 16.99000 22.21100
H  2.43900 16.40800 21.27500
H  -1.70700 11.01800 23.59200
H  -2.39300 10.67300 25.25700
H  -0.60200 10.61600 24.91200
H  -2.83700 13.81500 29.48700
H  1.50600 13.48100 30.71200
H  0.74800 12.23600 31.71500
H  0.64800 14.00000 32.06900

