79

Mg 44.83900 4.30200 46.35400
C  43.06200 7.25700 46.27000
C  41.90000 2.55100 45.72600
C  46.69500 1.53000 45.76900
C  47.86600 6.15300 46.52900
N  42.78500 4.84900 45.84900
C  42.24700 6.17000 45.83600
C  40.73100 6.13500 45.74200
C  40.32300 4.61800 45.76000
C  41.71300 3.98200 45.78900
C  39.31100 4.17500 46.89800
C  40.19900 6.80300 44.39800
C  40.93400 6.60800 43.06600
H  40.08700 6.46900 41.78300
N  44.34800 2.31700 45.79000
C  43.09700 1.76700 45.71900
C  43.19100 0.36200 45.54700
C  44.55600 0.02800 45.62600
C  45.29700 1.32800 45.72200
C  41.96100 -0.53200 45.35300
C  45.12000 -1.38700 45.65200
O  44.32100 -2.29100 45.65800
C  46.52900 -1.80800 45.84500
N  46.91600 3.89300 46.00500
C  47.46600 2.66400 45.88200
C  49.00700 2.62100 46.10000
C  49.25400 4.06600 46.52800
C  47.91800 4.76800 46.25600
C  49.60900 1.59200 47.08300
C  50.49600 4.71700 45.87400
C  51.60300 4.97500 46.90700
N  45.41700 6.36800 46.62000
C  46.65500 6.94400 46.63800
C  46.42900 8.38000 46.70900
C  45.01100 8.55000 46.69500
C  44.46200 7.28100 46.51500
C  47.52600 9.35800 46.70900
C  43.99200 9.51800 46.76800
O  44.01200 10.72900 47.00500
C  42.61600 8.73600 46.49100
C  41.74000 8.91200 47.67300
O  41.65000 8.09800 48.56900
O  40.82100 9.94200 47.52600
C  39.68900 9.98600 48.45400
H  40.97300 1.98400 45.62300
H  47.38400 0.68300 45.79000
H  48.82700 6.63200 46.72900
H  40.31800 6.73900 46.55000
H  39.83600 4.42700 44.80300
H  39.54600 3.25800 47.43700
H  38.40400 3.97100 46.32900
H  39.20800 5.01800 47.58100
H  40.26700 7.87200 44.60200
H  39.13300 6.60000 44.29800
H  41.55000 5.72600 43.24400
H  41.59400 7.47300 43.00800
H  42.10800 -1.08100 44.42300
H  40.95400 -0.12200 45.26800
H  42.05000 -1.40200 46.00200
H  47.17600 -1.49100 45.02600
H  46.59100 -2.89200 45.75600
H  46.77400 -1.31600 46.78600
H  49.53100 2.53800 45.14900
H  49.26800 3.99600 47.61600
H  50.13700 0.83200 46.50700
H  48.82600 1.13900 47.69100
H  50.38200 2.01200 47.72800
H  50.34600 5.66100 45.35100
H  50.93300 4.05100 45.13000
H  52.58700 4.79000 46.47500
H  51.41900 4.47000 47.85600
H  51.50600 6.02500 47.18100
H  48.30700 9.27600 47.46600
H  47.17600 10.36400 46.94100
H  47.99800 9.38400 45.72700
H  42.02500 9.22700 45.71800
H  40.01900 10.05200 49.49000
H  39.17700 9.02400 48.42200
H  38.96700 10.75900 48.19200

