79

Mg 36.21500 1.32200 29.81800
C  34.03200 2.58200 32.35100
C  38.60600 1.30900 32.35800
C  38.40200 0.70500 27.48800
C  33.69700 1.87500 27.46500
N  36.28600 1.97500 32.05500
C  35.32000 2.44200 32.82400
C  35.68500 2.42400 34.32100
C  37.21300 2.37200 34.24500
C  37.42900 1.89600 32.77600
C  38.06800 3.72600 34.55300
C  35.16500 1.16600 35.10500
C  34.74200 1.33100 36.56500
H  35.69000 2.15600 37.42300
N  38.18900 0.88900 29.91400
C  38.97400 0.84100 31.00700
C  40.31100 0.39500 30.67600
C  40.23400 0.27400 29.21900
C  38.91300 0.57800 28.80600
C  41.39800 0.17900 31.64700
C  41.28200 -0.18700 28.22100
O  41.15700 -0.39000 27.01600
C  42.58300 -0.68900 28.87400
N  36.03800 1.37300 27.75800
C  37.18700 1.21200 27.01800
C  36.92100 1.38300 25.51600
C  35.36500 1.53100 25.43500
C  34.94400 1.46300 26.95000
C  37.78900 2.54400 24.80100
C  34.62000 0.55200 24.46700
C  34.14800 -0.73700 25.07800
N  34.23300 2.03700 29.86400
C  33.37300 2.22800 28.88100
C  32.12600 2.71100 29.41700
C  32.30400 2.81700 30.78400
C  33.60500 2.39100 31.04800
C  30.91300 3.00800 28.54200
C  31.58000 3.20300 31.99700
O  30.41000 3.48600 32.16200
C  32.78100 2.93100 33.16500
C  32.85500 4.11800 33.95100
O  33.37500 5.15500 33.61300
O  32.43700 3.87800 35.25200
C  32.97300 4.93200 36.17200
H  39.28700 1.21700 33.20700
H  39.05100 0.44200 26.65000
H  32.88300 1.92400 26.73900
H  35.27300 3.36700 34.67900
H  37.64500 1.66000 34.94800
H  38.81300 3.93300 33.78400
H  38.62400 3.61200 35.48400
H  37.38700 4.57200 34.64100
H  35.83400 0.34100 34.86000
H  34.17900 0.89200 34.72900
H  34.83100 0.33800 37.00700
H  33.73800 1.73200 36.69700
H  41.80700 -0.80600 31.42300
H  41.03000 0.10500 32.67000
H  42.24900 0.85600 31.57500
H  42.94200 0.01500 29.62500
H  43.35500 -0.93800 28.14500
H  42.25600 -1.64600 29.28000
H  37.17900 0.45600 25.00300
H  35.17700 2.52700 25.03400
H  37.06300 3.35200 24.88800
H  37.99900 2.18900 23.79200
H  38.65200 2.82500 25.40400
H  35.37600 0.24200 23.74600
H  33.86800 0.96700 23.79700
H  34.92100 -1.50300 25.13100
H  33.30200 -1.08900 24.48800
H  33.87200 -0.72700 26.13200
H  30.53500 2.01300 28.30800
H  31.16500 3.46300 27.58500
H  30.16900 3.58400 29.09300
H  32.38900 2.10900 33.76400
H  32.39700 4.96000 37.09700
H  32.98100 5.97000 35.83900
H  34.00000 4.69600 36.45000

