79

Mg 16.51300 53.27200 26.50300
C  18.65500 51.81900 28.87700
C  14.27100 53.94600 29.09400
C  14.63800 54.90600 24.28800
C  18.87300 52.44300 24.03800
N  16.49500 52.98200 28.71600
C  17.52800 52.38400 29.51100
C  17.27400 52.40200 31.02700
C  15.77100 52.80900 30.96400
C  15.50600 53.32900 29.50600
C  14.74700 51.80300 31.41500
C  18.13800 53.43000 31.79300
C  18.37400 53.13700 33.31600
H  17.33400 52.36600 34.08200
N  14.71400 54.21200 26.63300
C  13.90100 54.29200 27.76200
C  12.70900 54.97800 27.45300
C  12.88300 55.46800 26.13000
C  14.10200 54.87600 25.61100
C  11.73000 55.36600 28.48600
C  12.03800 56.48100 25.35400
O  12.21300 56.68200 24.19600
C  10.75700 56.93700 25.93800
N  16.70100 53.59700 24.52100
C  15.77100 54.30300 23.77000
C  16.08700 54.23600 22.24600
C  17.49800 53.64700 22.21100
C  17.72300 53.17600 23.68200
C  15.15200 53.24500 21.52700
C  18.72100 54.56300 21.66900
C  19.63700 55.26100 22.78000
N  18.37700 52.30600 26.38200
C  19.22100 52.04200 25.30800
C  20.45700 51.45000 25.84700
C  20.22200 51.29800 27.19500
C  18.98600 51.88900 27.51400
C  21.64400 50.90900 25.16700
C  20.82800 50.78700 28.41300
O  21.92400 50.29800 28.63000
C  19.84100 51.19700 29.56500
C  19.48300 50.09600 30.49000
O  18.63500 49.21900 30.32900
O  20.32700 50.10400 31.63800
C  19.97700 49.08100 32.61800
H  13.62500 54.21200 29.93400
H  14.12300 55.54400 23.56600
H  19.66400 52.29700 23.29900
H  17.38400 51.43500 31.51800
H  15.60200 53.65900 31.62500
H  13.79200 52.21400 31.74300
H  15.10800 51.28600 32.30400
H  14.57200 51.07500 30.62300
H  17.59300 54.37400 31.79300
H  19.11100 53.54400 31.31600
H  18.50700 54.06700 33.86800
H  19.26000 52.50500 33.38000
H  10.71800 55.17400 28.12900
H  11.85700 56.42000 28.73300
H  11.71500 54.81900 29.42800
H  10.26700 57.61100 25.23500
H  10.77000 57.61800 26.78900
H  10.12200 56.06600 26.10100
H  16.09600 55.24100 21.82500
H  17.58800 52.84300 21.48100
H  14.77100 53.71700 20.62100
H  14.36800 52.79900 22.13900
H  15.65400 52.36400 21.12700
H  18.25300 55.38900 21.13300
H  19.29300 54.09500 20.86800
H  20.61200 54.77800 22.72600
H  19.24400 55.11700 23.78700
H  19.59500 56.33200 22.58300
H  21.49500 50.10600 24.44400
H  22.43700 50.58300 25.84000
H  22.18500 51.65500 24.58500
H  20.44200 51.90900 30.13100
H  20.26100 48.05000 32.40800
H  18.90200 49.09500 32.79700
H  20.48900 49.40600 33.52400

