79

Mg 36.66700 49.84300 26.09000
C  36.58900 47.92400 28.89100
C  35.94300 52.61000 27.89000
C  36.59900 51.70500 23.08700
C  37.17800 47.03900 24.08400
N  36.33600 50.22300 28.16400
C  36.37200 49.29800 29.19700
C  36.17300 49.98900 30.61600
C  35.81400 51.42000 30.19200
C  36.16700 51.45700 28.67900
C  34.38700 52.02400 30.49400
C  37.47700 49.79800 31.45500
C  37.38400 49.57400 32.94300
H  36.01300 49.68900 33.79800
N  36.32200 51.87300 25.59700
C  36.01600 52.87400 26.47900
C  35.89400 54.14100 25.78700
C  36.14000 53.84400 24.43200
C  36.31600 52.40100 24.32000
C  35.52800 55.43500 26.49900
C  36.10800 54.82300 23.24300
O  36.41200 54.61200 22.08500
C  35.78400 56.24300 23.52200
N  36.94700 49.43700 23.83800
C  36.86100 50.34200 22.88000
C  37.27100 49.78500 21.50200
C  37.63200 48.33100 21.84900
C  37.31900 48.26900 23.38700
C  36.10500 49.97500 20.41900
C  38.97200 47.81100 21.36700
C  40.23000 48.20200 22.12000
N  36.80200 47.86700 26.40300
C  37.08500 46.79900 25.50000
C  37.11100 45.59000 26.24000
C  37.00900 45.94100 27.57700
C  36.75200 47.33600 27.59200
C  37.31500 44.18400 25.61000
C  37.01900 45.49400 28.94100
O  37.18300 44.40700 29.42100
C  36.73200 46.80600 29.83900
C  35.49800 46.63700 30.69700
O  34.36200 46.86900 30.33500
O  35.81800 46.18900 31.90500
C  34.68600 45.95600 32.80000
H  35.60200 53.48500 28.44600
H  36.56800 52.29100 22.16600
H  37.34900 46.15900 23.46200
H  35.35200 49.51500 31.15400
H  36.47100 52.16200 30.64600
H  33.68300 51.25800 30.81900
H  33.94600 52.34200 29.54900
H  34.45000 52.73300 31.31900
H  38.07100 50.71000 31.39500
H  38.11600 48.99400 31.09100
H  38.15400 50.16900 33.43500
H  37.63400 48.56300 33.26200
H  34.61000 55.83600 26.07000
H  36.36100 56.12000 26.34000
H  35.43300 55.28500 27.57500
H  36.00100 56.86800 22.65600
H  36.37300 56.61100 24.36200
H  34.71300 56.30700 23.71400
H  38.15500 50.28900 21.11100
H  36.84400 47.65700 21.51200
H  35.08800 49.92700 20.80900
H  36.21900 49.32500 19.55200
H  36.30700 51.00800 20.13500
H  39.05800 47.91200 20.28500
H  38.88100 46.72500 21.34600
H  40.00100 48.89400 22.93000
H  40.82700 48.82200 21.45000
H  40.72300 47.27400 22.41000
H  37.93100 43.68500 26.35800
H  37.83000 44.09700 24.65400
H  36.31100 43.77700 25.48800
H  37.53100 47.03500 30.54400
H  34.37300 44.91700 32.69500
H  33.83100 46.63000 32.74900
H  34.96500 45.97000 33.85400

