79

Mg 1.95000 -1.47200 43.93400
C  5.48300 -1.16000 43.47600
C  1.57000 1.38900 42.02300
C  -1.25300 -2.10100 43.57100
C  2.55700 -4.60300 45.31800
N  3.37600 -0.25800 42.62000
C  4.76400 -0.21700 42.72600
C  5.25500 0.94600 41.85000
C  3.97200 1.84000 41.68900
C  2.86500 0.91200 42.11900
C  4.06900 3.11900 42.43900
C  5.80300 0.37100 40.51300
C  7.00200 1.14900 39.93400
H  6.76800 1.70700 38.53700
N  0.30700 -0.41200 43.11300
C  0.33200 0.76600 42.39800
C  -1.03500 1.35400 42.31100
C  -1.88200 0.31900 42.80300
C  -0.92600 -0.77700 43.16900
C  -1.31000 2.72200 41.73100
C  -3.35400 0.37000 42.75600
O  -4.07300 1.23000 42.21600
C  -4.08300 -0.74100 43.56200
N  0.90600 -3.23600 44.06100
C  -0.43100 -3.16700 43.98600
C  -1.00100 -4.44800 44.59200
C  0.17200 -5.10900 45.26800
C  1.31700 -4.28200 44.86700
C  -2.21400 -4.28500 45.49600
C  0.39800 -6.61300 44.89600
C  0.72500 -7.63100 46.02900
N  3.60100 -2.68600 44.44800
C  3.71400 -3.93000 44.99600
C  5.13700 -4.17800 45.37500
C  5.81900 -3.11100 44.80800
C  4.88500 -2.24300 44.23300
C  5.60000 -5.30000 46.28700
C  7.12600 -2.46100 44.71300
O  8.24400 -2.88500 45.11900
C  6.99900 -1.21300 43.79100
C  7.31200 0.04200 44.59700
O  6.93800 0.12200 45.74300
O  8.07600 0.90700 43.88200
C  8.38600 2.13600 44.56900
H  1.44300 2.37000 41.56100
H  -2.30100 -2.40800 43.55400
H  2.71100 -5.44600 45.99500
H  6.00700 1.50700 42.40400
H  3.77900 2.24500 40.69600
H  3.85100 2.92600 43.48900
H  3.59000 3.92900 41.88900
H  5.13100 3.35100 42.35700
H  5.06900 0.35000 39.70800
H  6.13400 -0.66700 40.51800
H  7.98700 0.70000 40.05800
H  7.04100 2.10000 40.46500
H  -2.39400 2.81500 41.66400
H  -0.83600 2.91400 40.76900
H  -0.95600 3.48100 42.42900
H  -5.09100 -0.40900 43.81100
H  -3.50500 -0.78400 44.48600
H  -4.09500 -1.64100 42.94800
H  -1.45700 -5.08400 43.83400
H  -0.01200 -5.10800 46.34200
H  -2.00200 -4.84600 46.40600
H  -3.16100 -4.61500 45.06900
H  -2.30900 -3.24400 45.80600
H  1.00100 -6.72200 43.99400
H  -0.59000 -7.00200 44.64900
H  -0.13600 -8.23800 46.30800
H  1.09000 -7.04000 46.86800
H  1.64500 -8.16300 45.78500
H  4.87500 -5.26200 47.10100
H  6.59200 -5.04300 46.65800
H  5.70800 -6.22000 45.71300
H  7.63400 -1.29500 42.90900
H  7.49300 2.74300 44.42100
H  9.18600 2.67900 44.06500
H  8.63400 2.05800 45.62800

