79

Mg 25.47700 0.52500 28.85500
C  27.46200 0.34000 31.62200
C  22.70700 0.99400 30.82300
C  23.75800 0.46000 25.96600
C  28.38600 -0.38100 26.87100
N  25.12400 0.55900 31.00600
C  26.10100 0.64000 31.93300
C  25.51200 1.01500 33.35000
C  23.94600 1.10800 33.00900
C  23.89700 0.87200 31.52000
C  23.05600 0.21500 33.90400
C  26.14800 2.32000 33.98300
C  25.59500 2.71500 35.38400
H  26.42000 2.36700 36.64200
N  23.51400 0.64800 28.43000
C  22.52100 0.91300 29.38700
C  21.21000 1.01900 28.73300
C  21.46000 0.62100 27.36700
C  22.98900 0.57300 27.19200
C  19.99800 1.37200 29.50400
C  20.48200 0.41100 26.21900
O  20.80100 -0.10400 25.12700
C  19.07500 0.72800 26.48100
N  26.03200 0.23000 26.67800
C  25.11100 0.37700 25.64700
C  25.66700 0.19400 24.26000
C  27.13500 0.04300 24.61500
C  27.25500 -0.12000 26.10600
C  25.02200 -0.90200 23.33700
C  28.19500 1.05400 24.07800
C  29.48600 0.51200 23.46700
N  27.50800 0.06600 29.13900
C  28.47900 -0.33400 28.23900
C  29.62400 -0.79800 29.06300
C  29.29300 -0.39200 30.35600
C  27.96300 0.05700 30.35400
C  30.81900 -1.42300 28.55500
C  29.80000 -0.42100 31.72000
O  30.90700 -0.73700 32.15900
C  28.59100 -0.05300 32.61000
C  28.09200 -1.22200 33.39700
O  27.19200 -1.91000 33.04100
O  28.55500 -1.11800 34.64700
C  28.13200 -2.11900 35.63100
H  21.94800 1.21700 31.57600
H  23.00900 0.48600 25.17200
H  29.25100 -0.67500 26.27200
H  25.64100 0.21700 34.08200
H  23.65200 2.15400 33.09400
H  22.45400 -0.50500 33.35000
H  22.36900 0.89500 34.40800
H  23.56600 -0.24100 34.75300
H  25.94400 3.20200 33.37600
H  27.22800 2.20100 34.07800
H  24.59800 2.31300 35.56600
H  25.53100 3.80000 35.46100
H  19.34300 2.08400 29.00300
H  20.28900 1.87100 30.42800
H  19.35400 0.50600 29.65800
H  18.87200 0.04800 27.30800
H  18.40500 0.53700 25.64300
H  18.97800 1.67100 27.01900
H  25.60400 1.16500 23.76700
H  27.40900 -0.94800 24.25400
H  24.64600 -1.76200 23.89200
H  25.69100 -1.36000 22.60900
H  24.26700 -0.50500 22.65900
H  28.46200 1.78900 24.83800
H  27.80200 1.67100 23.27000
H  29.60600 0.94600 22.47400
H  29.35200 -0.57000 23.46700
H  30.37000 0.77800 24.04700
H  30.49000 -2.25100 27.92600
H  31.51200 -1.83100 29.29000
H  31.23400 -0.60000 27.97400
H  28.85100 0.83900 33.18100
H  28.96200 -2.57100 36.17500
H  27.66700 -2.99100 35.17200
H  27.44000 -1.72900 36.37700

