79

Mg 47.52100 24.72500 29.29600
C  48.15100 27.24700 31.77700
C  46.86000 22.46900 31.74000
C  47.13600 22.34300 26.92900
C  49.27600 26.68500 27.03900
N  47.54000 24.86000 31.49000
C  47.54400 25.99900 32.28000
C  47.04100 25.69000 33.68100
C  47.00500 24.09300 33.74700
C  47.24100 23.77400 32.25200
C  48.04300 23.38100 34.68200
C  45.73600 26.46000 34.09400
C  45.56800 27.11900 35.44600
H  46.18700 26.63400 36.75700
N  46.84600 22.86100 29.31600
C  46.64600 22.07700 30.44500
C  46.10600 20.70800 30.04800
C  46.12300 20.72100 28.61100
C  46.65100 22.04200 28.22800
C  45.63400 19.69000 31.12600
C  45.61700 19.71700 27.61200
O  45.48400 19.94100 26.40100
C  45.05700 18.42900 28.12700
N  48.16300 24.54400 27.21500
C  47.85300 23.44000 26.44500
C  48.47100 23.55300 25.11300
C  49.03700 24.96500 25.09800
C  48.87300 25.46800 26.54900
C  49.47400 22.40100 24.82000
C  48.34400 25.98300 24.09100
C  46.89900 26.23900 24.10200
N  48.50300 26.53600 29.32900
C  49.11800 27.21500 28.28500
C  49.57200 28.54300 28.77700
C  49.22000 28.57900 30.10100
C  48.61100 27.34200 30.39000
C  50.28800 29.54600 27.96000
C  49.10900 29.41200 31.33700
O  49.32900 30.60000 31.48600
C  48.47600 28.55200 32.41700
C  49.54100 28.37500 33.48900
O  50.67200 27.96600 33.47700
O  48.94000 28.75100 34.68300
C  49.91200 28.71200 35.84300
H  46.46800 21.79900 32.50800
H  47.22300 21.47700 26.27000
H  49.76400 27.29800 26.27900
H  47.81900 26.04400 34.35700
H  46.00800 23.87500 34.13000
H  47.59900 22.98600 35.59500
H  48.81800 24.06100 35.03500
H  48.51100 22.53700 34.17500
H  44.95400 25.70100 34.06700
H  45.62000 27.13900 33.24900
H  44.48700 26.97600 35.45900
H  45.80600 28.18300 35.45600
H  44.86500 20.14400 31.75100
H  46.49500 19.54300 31.77800
H  45.33100 18.75700 30.65100
H  45.84300 18.01200 28.75700
H  44.78900 17.71300 27.35000
H  44.20200 18.62400 28.77400
H  47.74900 23.41300 24.30800
H  50.09700 24.99700 24.84700
H  50.12500 22.33600 25.69200
H  50.06200 22.60100 23.92400
H  49.02900 21.42100 24.64700
H  48.47000 25.45700 23.14500
H  48.90600 26.91600 24.04600
H  46.48100 25.76100 24.98700
H  46.37600 25.83200 23.23700
H  46.69100 27.30500 24.01100
H  50.77300 30.22600 28.66100
H  49.56700 30.04800 27.31500
H  50.92500 28.92000 27.33500
H  47.51800 28.94000 32.76100
H  49.27000 28.66900 36.72300
H  50.44700 29.65900 35.91400
H  50.61000 27.88400 35.97000

