79

Mg 36.44800 48.90600 25.58800
C  36.56000 46.98600 28.65900
C  35.50800 51.50300 27.47500
C  35.99400 50.51500 22.76600
C  37.41600 46.01000 23.87100
N  36.11600 49.16100 27.79800
C  36.23500 48.28200 28.88400
C  36.03400 48.93100 30.25400
C  35.51000 50.32500 29.74400
C  35.72300 50.33300 28.21600
C  33.99900 50.74300 30.17200
C  37.36300 48.86400 31.06700
C  37.27400 48.62500 32.54100
H  35.98100 48.75400 33.26700
N  35.80200 50.79000 25.19700
C  35.58200 51.79700 26.11300
C  35.32100 53.07500 25.44100
C  35.30400 52.70900 24.02400
C  35.62800 51.28500 23.90300
C  35.14100 54.35900 26.11200
C  35.05800 53.60000 22.84800
O  35.02100 53.23000 21.62600
C  34.87200 55.09700 23.09600
N  36.62400 48.34300 23.67300
C  36.45000 49.24900 22.63000
C  36.69900 48.62100 21.27000
C  37.25200 47.19500 21.58200
C  37.06300 47.14200 23.16300
C  35.43600 48.63800 20.34000
C  38.66300 46.89700 21.02200
C  39.80500 47.59800 21.73600
N  37.00200 46.94600 26.07700
C  37.42800 45.90700 25.28000
C  37.71100 44.72400 26.11000
C  37.27400 45.05000 27.43600
C  36.88600 46.44200 27.37200
C  38.31100 43.48300 25.61800
C  37.17700 44.55400 28.74600
O  37.46900 43.43800 29.13600
C  36.77900 45.80700 29.70700
C  35.56400 45.42700 30.45100
O  34.44200 45.85700 30.34400
O  35.95400 44.69900 31.59900
C  34.98800 44.32600 32.67800
H  35.20700 52.36700 28.07200
H  35.98000 51.06000 21.82000
H  37.68300 45.14700 23.25800
H  35.24700 48.43200 30.81800
H  36.19300 51.10300 30.08400
H  33.27200 50.73700 29.36000
H  34.20000 51.72700 30.59700
H  33.58200 50.03500 30.88800
H  37.89500 49.81500 31.04900
H  38.02900 48.06900 30.72800
H  38.10700 49.16900 32.98700
H  37.56200 47.57400 32.57100
H  34.32900 54.92900 25.66100
H  35.97200 55.02500 25.88300
H  35.14300 54.24000 27.19500
H  35.68100 55.55900 23.66200
H  33.94300 55.23700 23.64900
H  34.94600 55.57700 22.12000
H  37.45600 49.20800 20.75100
H  36.58600 46.40700 21.23100
H  34.62400 49.32200 20.58700
H  35.06300 47.65000 20.07100
H  35.81300 49.05700 19.40700
H  38.52900 47.30400 20.02000
H  38.80500 45.81700 20.97800
H  39.59800 48.01000 22.72400
H  40.15100 48.45800 21.16300
H  40.60500 46.87900 21.91100
H  38.80800 43.64300 24.66200
H  37.47600 42.78500 25.68600
H  39.03100 43.24000 26.40000
H  37.56300 45.99600 30.44100
H  34.89400 43.24600 32.79200
H  33.99600 44.77600 32.64500
H  35.42800 44.81600 33.54600

