79

Mg -9.97200 40.27500 38.91900
C  -8.94000 36.89000 38.12300
C  -6.86500 41.36800 37.95000
C  -11.31500 43.34300 38.83500
C  -13.29300 38.91000 39.32300
N  -8.18300 39.19000 37.96500
C  -7.92300 37.86700 37.95700
C  -6.43300 37.63900 37.72200
C  -5.79400 39.08200 37.84700
C  -7.05500 39.95500 38.06100
C  -4.88200 39.20500 39.10600
C  -6.15900 36.95500 36.36500
C  -6.71500 37.79100 35.17900
H  -7.81000 37.10500 34.27300
N  -9.18100 42.01000 38.45800
C  -7.87400 42.35600 38.14400
C  -7.73900 43.72000 37.82100
C  -9.03500 44.30500 37.90200
C  -9.91300 43.22600 38.39200
C  -6.47500 44.39900 37.34100
C  -9.41100 45.68100 37.38600
O  -8.57300 46.49800 36.98600
C  -10.83800 46.11500 37.31700
N  -11.99400 41.01600 39.15400
C  -12.22100 42.37500 39.10300
C  -13.75100 42.61200 39.21100
C  -14.34300 41.20500 39.55200
C  -13.18500 40.30200 39.35800
C  -14.05800 43.62700 40.26200
C  -15.68900 40.71300 38.89400
C  -16.66600 39.96300 39.85000
N  -10.95600 38.31300 38.86000
C  -12.26300 37.95900 39.11300
C  -12.38700 36.54700 39.00500
C  -11.10400 36.05100 38.72400
C  -10.31700 37.19100 38.52500
C  -13.68400 35.70200 39.20800
C  -10.31700 34.87400 38.41800
O  -10.56100 33.68400 38.44700
C  -8.89300 35.34600 38.02500
C  -7.86700 34.88200 39.11000
O  -8.00200 34.88100 40.30900
O  -6.79800 34.29000 38.39800
C  -5.76500 33.61100 39.21400
H  -5.85300 41.70900 37.72300
H  -11.78500 44.32500 38.91500
H  -14.27600 38.53500 39.61600
H  -6.05100 37.01200 38.52800
H  -5.18400 39.43400 37.01500
H  -4.79400 38.31400 39.72900
H  -5.28100 39.96100 39.78100
H  -3.88300 39.54200 38.82900
H  -6.64600 35.98000 36.32700
H  -5.09600 36.90900 36.13100
H  -5.80400 38.02700 34.62800
H  -7.07400 38.75700 35.53600
H  -6.55600 44.52200 36.26100
H  -5.60600 43.75200 37.46200
H  -6.11700 45.28900 37.85900
H  -11.22000 46.46800 38.27500
H  -11.52800 45.32600 37.01900
H  -10.86000 46.86500 36.52700
H  -14.16100 42.98600 38.27300
H  -14.37700 41.10600 40.63700
H  -13.14600 44.08100 40.65000
H  -14.46000 43.11800 41.13800
H  -14.79600 44.33900 39.89300
H  -15.59300 40.09300 38.00300
H  -16.26000 41.57200 38.54200
H  -16.15600 39.60900 40.74600
H  -16.78800 39.03200 39.29500
H  -17.60900 40.49700 39.96400
H  -14.11600 35.26700 38.30700
H  -14.49400 36.27700 39.65800
H  -13.48500 35.03800 40.05000
H  -8.69900 35.01600 37.00500
H  -5.94700 32.56300 39.45300
H  -5.81500 33.99400 40.23300
H  -4.71000 33.75900 38.98500

