79

Mg 8.39700 3.56200 28.22200
C  9.93100 1.93600 30.88800
C  6.40900 5.28900 30.34000
C  6.67100 4.54400 25.59800
C  9.97200 1.05200 26.15600
N  8.18900 3.57800 30.30400
C  9.01400 2.95800 31.21000
C  8.81900 3.47100 32.64200
C  7.40400 4.18400 32.48900
C  7.34300 4.44900 30.99800
C  6.20600 3.24500 32.90300
C  10.00900 4.37900 33.20700
C  10.65300 3.91300 34.50800
H  10.89300 4.86100 35.71300
N  6.84700 4.88800 27.96500
C  6.16200 5.49000 28.96100
C  5.16100 6.32800 28.37300
C  5.24500 6.20100 26.98700
C  6.24100 5.14800 26.79900
C  4.04900 7.11600 29.11100
C  4.41100 6.81800 25.85400
O  4.53700 6.57400 24.68900
C  3.35900 7.77400 26.15800
N  8.38900 2.94700 26.18100
C  7.62100 3.57500 25.29600
C  7.68700 2.86900 23.88600
C  8.93100 1.93900 24.03600
C  9.22300 2.04300 25.55500
C  6.25500 2.25500 23.43900
C  10.30900 2.43700 23.41300
C  11.21300 1.32000 22.71800
N  9.64700 1.78900 28.43400
C  10.21100 0.91600 27.53800
C  11.05800 -0.03000 28.21800
C  11.04000 0.33800 29.54100
C  10.11000 1.37300 29.60500
C  11.91400 -1.15400 27.52700
C  11.62500 0.10500 30.86700
O  12.50300 -0.64500 31.25800
C  10.83300 1.17800 31.77700
C  10.12000 0.33300 32.72900
O  9.06100 -0.32400 32.56700
O  10.86600 0.33900 33.91400
C  10.38200 -0.40400 35.12300
H  5.81700 5.93800 30.98900
H  6.01100 4.83700 24.77900
H  10.40600 0.28200 25.51500
H  8.78200 2.59700 33.29300
H  7.41800 5.10200 33.07700
H  6.49900 2.21000 33.08000
H  5.50100 3.22000 32.07300
H  5.73100 3.72300 33.76000
H  9.64800 5.39800 33.34500
H  10.74400 4.47500 32.40800
H  11.67000 3.61800 34.25000
H  10.15700 3.06100 34.97300
H  3.09800 6.78300 28.69500
H  4.26700 8.16200 28.89500
H  3.91900 7.02100 30.18900
H  2.61400 7.30800 26.80200
H  2.97300 8.12400 25.20100
H  3.67500 8.51100 26.89700
H  7.93900 3.61400 23.13100
H  8.82800 0.92700 23.64500
H  5.51100 2.47500 24.20400
H  6.53900 1.21000 23.31400
H  5.93600 2.73500 22.51300
H  10.89200 3.07400 24.07800
H  10.04400 3.09400 22.58400
H  10.97900 1.32200 21.65300
H  11.04000 0.37000 23.22300
H  12.23500 1.55400 23.01700
H  12.89200 -1.14100 28.00800
H  12.05300 -1.01500 26.45500
H  11.54200 -2.16200 27.71500
H  11.46100 1.84400 32.36800
H  10.34400 0.37700 35.88200
H  11.16600 -1.11600 35.37800
H  9.46900 -0.96300 34.91700

