79

Mg 29.88900 57.70400 41.11200
C  27.28500 55.52700 40.20100
C  32.05800 55.48300 39.89300
C  32.26300 60.17000 40.80800
C  27.40700 60.34900 41.56400
N  29.60600 55.75000 40.21400
C  28.46300 54.98900 39.94000
C  28.89500 53.64800 39.43200
C  30.41200 53.62000 39.52900
C  30.73800 55.03600 39.85800
C  30.94200 52.53800 40.59200
C  28.40400 53.38300 38.01500
C  28.48700 54.54100 36.97100
H  27.79500 54.26700 35.68900
N  31.95200 57.74500 40.59200
C  32.66700 56.64600 40.21700
C  34.05400 57.02000 40.09800
C  34.17900 58.45000 40.31600
C  32.73300 58.87100 40.55200
C  35.15100 56.15400 39.67600
C  35.50800 59.14900 40.20600
O  36.56700 58.51800 40.11600
C  35.57500 60.65900 40.36700
N  29.80100 59.99200 41.02100
C  30.95300 60.74300 40.98000
C  30.66300 62.19100 41.43800
C  29.18200 62.16900 41.88500
C  28.76000 60.67300 41.60700
C  31.74000 62.88800 42.47400
C  28.30700 63.33100 41.20100
C  27.71600 64.33000 42.19300
N  27.84400 57.90100 41.03500
C  26.93300 59.00800 41.22200
C  25.57600 58.56700 41.01700
C  25.67000 57.24900 40.63900
C  27.03100 56.88300 40.61500
C  24.37000 59.41400 41.05600
C  24.87300 56.09800 40.18900
O  23.67200 55.82400 40.06800
C  25.96400 55.00300 39.91600
C  25.76600 53.88200 40.97000
O  25.87400 53.91600 42.17800
O  25.32700 52.71000 40.37200
C  25.21700 51.49900 41.23300
H  32.79800 54.75800 39.54700
H  32.97600 60.98400 40.95700
H  26.60900 61.03600 41.85300
H  28.49400 52.90000 40.11600
H  30.80200 53.46900 38.52200
H  32.02000 52.64400 40.71900
H  30.73500 51.55000 40.18000
H  30.48200 52.58500 41.57900
H  27.34900 53.10900 38.03100
H  28.84600 52.46400 37.62900
H  29.53900 54.75200 36.78100
H  27.85700 55.32000 37.39900
H  35.78500 56.61500 38.92000
H  34.73900 55.25500 39.21900
H  35.76500 55.69200 40.45000
H  35.17500 60.95100 41.33800
H  34.95700 61.12600 39.60000
H  36.60900 60.99700 40.43200
H  30.69300 62.64200 40.44600
H  29.07100 62.35400 42.95300
H  31.25400 63.53000 43.20900
H  32.42900 63.54100 41.93800
H  32.39400 62.16900 42.96600
H  27.42100 62.89800 40.73600
H  28.98400 63.74600 40.45500
H  26.69000 64.01500 42.38600
H  27.65000 65.35700 41.83400
H  28.30800 64.29900 43.10700
H  23.68800 59.20000 41.87900
H  23.82300 59.27900 40.12300
H  24.59000 60.48000 41.10900
H  25.82400 54.64600 38.89600
H  26.15500 50.95200 41.32900
H  24.61100 50.75400 40.71900
H  24.68000 51.74500 42.14900

