79

Mg -2.53600 18.09100 26.23100
C  -2.87300 15.92900 28.88100
C  -3.32100 20.68400 28.28500
C  -2.73200 20.16500 23.53500
C  -2.35100 15.27600 24.03300
N  -3.12400 18.28000 28.36200
C  -3.17100 17.20700 29.29300
C  -3.43300 17.71200 30.75900
C  -3.45300 19.29600 30.46800
C  -3.33800 19.47400 28.92100
C  -4.72400 20.00000 31.01400
C  -2.40100 17.21800 31.75000
C  -2.29700 17.82700 33.16300
H  -2.13000 16.90100 34.40500
N  -2.85500 20.19900 25.90500
C  -3.12900 21.02700 26.92900
C  -3.21600 22.35800 26.35600
C  -3.39900 22.19600 24.95900
C  -2.94700 20.81300 24.71900
C  -3.36000 23.56900 27.23300
C  -3.73600 23.22400 23.96600
O  -3.73900 22.88000 22.80700
C  -4.08000 24.64300 24.27600
N  -2.41400 17.76600 24.07400
C  -2.42200 18.80400 23.19200
C  -2.54400 18.36000 21.74000
C  -2.47000 16.77300 21.89300
C  -2.45900 16.55700 23.44100
C  -3.73200 18.91900 20.92500
C  -1.30200 16.20700 21.03300
C  -1.71400 15.82700 19.64100
N  -2.48600 16.07400 26.36600
C  -2.36800 15.08600 25.40600
C  -2.12400 13.81700 26.13100
C  -2.42600 14.09000 27.50900
C  -2.57900 15.45100 27.55600
C  -1.83300 12.45300 25.48800
C  -2.60300 13.52200 28.80600
O  -2.63300 12.37500 29.15200
C  -2.70900 14.68700 29.78100
C  -1.39300 14.65500 30.45500
O  -0.34000 15.14400 30.00200
O  -1.48900 14.03600 31.62900
C  -0.24000 13.71000 32.34500
H  -3.49100 21.45300 29.04100
H  -2.76100 20.77100 22.62700
H  -2.28100 14.39900 23.38600
H  -4.43300 17.42200 31.08200
H  -2.58200 19.77100 30.91800
H  -5.38000 19.29800 31.52900
H  -5.40000 20.38100 30.24900
H  -4.33200 20.74400 31.70800
H  -1.39100 17.18000 31.34000
H  -2.81100 16.26100 32.07200
H  -3.16200 18.47500 33.30700
H  -1.43100 18.49000 33.16800
H  -4.39400 23.72900 27.54000
H  -3.00900 24.49100 26.76900
H  -2.68300 23.44600 28.07800
H  -4.20400 25.13600 23.31200
H  -3.17700 25.13800 24.63400
H  -4.92000 24.91500 24.91500
H  -1.60400 18.61000 21.24900
H  -3.45800 16.51100 21.51400
H  -3.30000 19.33100 20.01300
H  -4.26300 19.65400 21.52900
H  -4.43800 18.15400 20.60000
H  -1.04200 15.30400 21.58500
H  -0.50500 16.94700 20.96400
H  -1.28800 14.84400 19.43900
H  -1.16600 16.48500 18.96600
H  -2.78200 15.88000 19.43000
H  -1.08800 12.62900 24.71200
H  -2.72900 11.93800 25.14200
H  -1.41400 11.91700 26.34100
H  -3.55800 14.51100 30.44200
H  -0.40100 12.63200 32.36800
H  -0.28200 14.24100 33.29600
H  0.70700 13.83600 31.82100

