79

Mg -1.15200 35.28900 26.66700
C  -3.01700 33.60600 29.14700
C  -0.01900 37.43600 28.96600
C  0.36700 36.92900 24.06400
C  -2.59900 33.11100 24.17800
N  -1.45500 35.44800 28.82700
C  -2.23000 34.62200 29.61200
C  -2.15900 35.17200 31.07500
C  -1.33900 36.46900 30.98400
C  -0.85300 36.38500 29.47600
C  -2.21100 37.67600 31.42000
C  -1.44400 33.96500 31.87600
C  -2.18600 33.47700 33.13200
H  -1.34800 33.21600 34.41600
N  -0.01700 37.00800 26.48000
C  0.42800 37.71000 27.59800
C  1.24200 38.85000 27.13600
C  1.27600 38.74200 25.69600
C  0.51700 37.52600 25.33100
C  1.86400 39.80500 28.10900
C  1.78400 39.70700 24.64700
O  1.66600 39.51400 23.46400
C  2.55000 40.97300 25.12100
N  -1.01900 34.98400 24.43000
C  -0.32800 35.83600 23.62200
C  -0.32000 35.37800 22.16700
C  -1.29300 34.13000 22.16500
C  -1.64300 34.02400 23.67200
C  -0.66600 36.50300 21.17400
C  -0.73600 32.78100 21.65800
C  0.35400 32.18200 22.48800
N  -2.46200 33.72400 26.62400
C  -3.00600 32.97800 25.57200
C  -3.94400 31.97900 26.13000
C  -3.91600 32.17700 27.47800
C  -3.04000 33.24700 27.77600
C  -4.69600 30.85500 25.40900
C  -4.42900 31.69400 28.78200
O  -5.29100 30.81900 28.99300
C  -3.83200 32.52900 29.86300
C  -4.84200 33.24300 30.65000
O  -5.32000 34.33800 30.36600
O  -5.14500 32.51500 31.79200
C  -6.40200 32.88300 32.57500
H  0.33700 38.00200 29.83000
H  1.01900 37.33400 23.28600
H  -3.06300 32.54500 23.36800
H  -3.13500 35.37200 31.51700
H  -0.44900 36.32500 31.59700
H  -3.20200 37.47800 31.82900
H  -2.35900 38.25300 30.50800
H  -1.62700 38.29100 32.10400
H  -0.44700 34.22300 32.23400
H  -1.15500 33.16200 31.19900
H  -2.45800 32.43400 32.97000
H  -3.07000 34.08100 33.33900
H  2.94100 39.73600 27.96200
H  1.65600 39.63500 29.16500
H  1.58700 40.82900 27.86100
H  1.97600 41.70300 25.69100
H  2.85100 41.52300 24.22900
H  3.41200 40.67300 25.71500
H  0.68600 35.06800 21.88600
H  -2.23800 34.31500 21.65500
H  -1.13800 37.33500 21.69700
H  -1.26700 36.14100 20.33900
H  0.23000 36.86500 20.67100
H  -0.31100 32.94300 20.66800
H  -1.57900 32.09100 21.62500
H  -0.17600 31.38200 23.00500
H  0.85500 32.84300 23.19600
H  1.11900 31.75700 21.83800
H  -5.00800 30.02300 26.04100
H  -4.09500 30.42900 24.60500
H  -5.62700 31.30900 25.07000
H  -3.24600 31.91900 30.55100
H  -6.20400 33.20900 33.59600
H  -6.91900 31.92500 32.64700
H  -7.01200 33.56300 31.98100

