79

Mg -4.83000 25.54700 25.85600
C  -3.54900 27.26700 28.72800
C  -6.57000 23.56100 27.94400
C  -5.59700 23.95100 23.20700
C  -2.77700 27.78400 23.90900
N  -4.98100 25.42400 27.99900
C  -4.47300 26.25600 29.01000
C  -4.98200 25.86100 30.39400
C  -5.53700 24.41800 30.03900
C  -5.79000 24.50900 28.59200
C  -4.48000 23.21600 30.36800
C  -6.10100 26.77000 30.81500
C  -6.79800 26.52400 32.20100
H  -6.13200 25.52700 33.16200
N  -5.93100 24.04200 25.59800
C  -6.66100 23.34400 26.55300
C  -7.51100 22.37400 25.91200
C  -7.17600 22.39400 24.54400
C  -6.15100 23.47300 24.40400
C  -8.43300 21.42600 26.74500
C  -7.78700 21.59700 23.35800
O  -7.34400 21.76800 22.22000
C  -9.02300 20.69000 23.51600
N  -4.32400 25.94600 23.75200
C  -4.71500 25.01900 22.91300
C  -4.28500 25.32900 21.45400
C  -3.30300 26.63700 21.71700
C  -3.51600 26.87000 23.19800
C  -3.52000 24.18200 20.79500
C  -3.59800 27.95500 20.94100
C  -2.59800 28.29800 19.86700
N  -3.48800 27.21100 26.24200
C  -2.76700 27.96000 25.28700
C  -1.91900 28.86100 25.99600
C  -2.21900 28.68100 27.39600
C  -3.20300 27.63900 27.46100
C  -1.00400 29.97900 25.49800
C  -1.96500 29.12100 28.75700
O  -1.12300 29.88700 29.20800
C  -2.95600 28.23900 29.63300
C  -2.14200 27.46500 30.62900
O  -1.17600 26.75400 30.40800
O  -2.56700 27.77200 31.83000
C  -1.91100 27.08600 32.96600
H  -6.96200 22.86900 28.69200
H  -5.73700 23.42100 22.26300
H  -2.12800 28.43000 23.31200
H  -4.20400 25.83200 31.15700
H  -6.53200 24.32700 30.47500
H  -3.58800 23.66300 30.80600
H  -4.32000 22.72000 29.41100
H  -4.83800 22.43300 31.03700
H  -6.87400 26.73300 30.04800
H  -5.79400 27.81600 30.83600
H  -7.83100 26.20400 32.06800
H  -6.85200 27.51400 32.65300
H  -8.34800 21.54000 27.82500
H  -8.29400 20.36500 26.53500
H  -9.46400 21.74200 26.58300
H  -9.19400 20.18900 22.56400
H  -9.81700 21.32700 23.90700
H  -8.71300 19.98700 24.28900
H  -5.10600 25.57500 20.78000
H  -2.28500 26.28400 21.55500
H  -3.94200 23.89400 19.83200
H  -3.38200 23.20100 21.24900
H  -2.48200 24.46300 20.62300
H  -3.57400 28.78300 21.64900
H  -4.63000 27.97400 20.59300
H  -1.74800 27.61700 19.81600
H  -2.09500 29.21200 20.18300
H  -3.03900 28.61700 18.92300
H  -0.66000 29.69400 24.50400
H  -0.08100 29.95400 26.07600
H  -1.48700 30.94100 25.66800
H  -3.66900 28.80700 30.23200
H  -2.32600 27.47300 33.89600
H  -0.82100 27.11400 32.95800
H  -2.25400 26.05600 32.87600

