79

Mg 41.52700 8.63800 29.74500
C  43.31900 9.69300 32.36500
C  39.18500 7.32400 31.97700
C  39.95500 7.17100 27.08200
C  44.19400 9.44000 27.54800
N  41.35300 8.47700 31.87200
C  42.10100 9.19500 32.75800
C  41.65800 9.05600 34.16100
C  40.50000 8.04500 34.13700
C  40.32000 7.92000 32.59200
C  40.83800 6.63300 34.71800
C  41.37100 10.47400 34.67600
C  40.96200 10.67300 36.15100
H  41.73700 9.94800 37.25700
N  39.75800 7.47000 29.53600
C  38.90800 7.08000 30.59100
C  37.83100 6.25600 30.01900
C  37.94500 6.32300 28.59600
C  39.30400 6.90000 28.33300
C  36.68000 5.48800 30.82300
C  36.84100 6.01500 27.49400
O  37.10900 6.24700 26.30300
C  35.44600 5.63100 27.89400
N  42.09500 8.28500 27.71100
C  41.18700 7.77300 26.82200
C  41.63900 7.94300 25.35700
C  42.86700 8.85000 25.53500
C  43.09200 8.86200 26.96900
C  42.06600 6.59900 24.65600
C  42.68300 10.28000 25.04400
C  43.84200 10.78500 24.24000
N  43.40300 9.39400 29.90500
C  44.37300 9.65700 28.95400
C  45.52500 10.22300 29.66300
C  45.08800 10.29000 30.98700
C  43.88000 9.76800 31.11300
C  46.85000 10.68300 29.10300
C  45.49600 10.77300 32.27300
O  46.44200 11.40700 32.70300
C  44.37600 10.33300 33.25200
C  45.02300 9.37800 34.24600
O  44.85600 8.17200 34.16100
O  45.61700 10.13100 35.23100
C  46.07100 9.36700 36.42200
H  38.56300 6.88600 32.76000
H  39.56800 6.58800 26.24400
H  44.92000 9.92500 26.89200
H  42.43100 8.61700 34.79100
H  39.60600 8.42600 34.62900
H  41.88800 6.48200 34.97000
H  40.55200 5.86800 33.99700
H  40.16500 6.67300 35.57400
H  40.37200 10.73500 34.32800
H  42.02300 11.25000 34.27500
H  39.88000 10.62200 36.27700
H  41.26900 11.69600 36.36800
H  35.78700 6.10300 30.71200
H  36.91800 5.32300 31.87400
H  36.49300 4.50400 30.39400
H  34.92100 6.35700 28.51500
H  35.52300 4.66400 28.39100
H  34.95400 5.45200 26.93800
H  40.81500 8.41200 24.81900
H  43.85500 8.47500 25.26600
H  41.80200 5.77600 25.32000
H  43.13800 6.50800 24.48000
H  41.58300 6.41500 23.69700
H  42.45900 11.00800 25.82400
H  41.86400 10.26500 24.32500
H  44.27600 11.63400 24.76900
H  43.47700 11.26100 23.33000
H  44.69600 10.12100 24.10900
H  47.17800 10.06900 28.26500
H  47.58000 10.57900 29.90600
H  46.74600 11.72100 28.78700
H  44.14600 11.27500 33.75000
H  45.36300 9.59400 37.22000
H  47.05800 9.73900 36.69900
H  46.00600 8.29600 36.23000

