79

Mg -2.51600 33.85700 25.80900
C  -4.06500 32.54500 28.68900
C  -0.90600 36.08100 27.52300
C  -1.66900 35.20700 22.78700
C  -4.61500 31.63700 23.99000
N  -2.59700 34.26000 27.90200
C  -3.29500 33.64900 28.92600
C  -2.92600 34.20000 30.27900
C  -1.95000 35.40800 29.83700
C  -1.79400 35.25300 28.30600
C  -2.57100 36.80800 30.26900
C  -2.07500 33.26600 31.18300
C  -1.71500 33.67300 32.63300
H  -2.27200 32.85000 33.74100
N  -1.35100 35.31700 25.22900
C  -0.73100 36.20700 26.11000
C  0.17300 37.05000 25.42400
C  -0.04800 36.83500 24.02700
C  -1.04600 35.71500 23.90500
C  1.03500 38.02400 26.18600
C  0.58200 37.60100 22.86600
O  0.31700 37.37600 21.68700
C  1.68500 38.52900 23.12700
N  -3.07100 33.51000 23.57300
C  -2.61000 34.21600 22.57000
C  -3.21400 33.84600 21.24700
C  -3.70700 32.38600 21.65300
C  -3.87900 32.55200 23.17100
C  -4.33900 34.77900 20.76000
C  -2.60600 31.24600 21.48700
C  -3.14300 29.91900 21.01900
N  -3.95900 32.34800 26.17800
C  -4.56000 31.44800 25.37200
C  -5.28000 30.47600 26.16300
C  -5.08000 30.88800 27.48100
C  -4.30300 32.03000 27.39700
C  -6.20000 29.46400 25.64900
C  -5.49400 30.61800 28.85900
O  -6.25100 29.80700 29.33300
C  -4.82100 31.69300 29.68200
C  -5.92700 32.47900 30.30900
O  -6.94300 32.89100 29.82000
O  -5.76700 32.36500 31.67500
C  -6.99400 32.78000 32.37800
H  -0.30100 36.73200 28.15800
H  -1.27700 35.67000 21.87900
H  -5.16400 30.86200 23.45000
H  -3.76900 34.54900 30.87500
H  -0.94900 35.37200 30.26600
H  -2.85600 37.40000 29.39900
H  -1.83400 37.40700 30.80400
H  -3.49200 36.71500 30.84300
H  -1.17800 32.86900 30.70800
H  -2.69300 32.43400 31.52300
H  -2.10600 34.66100 32.87600
H  -0.63400 33.76900 32.73900
H  0.61000 38.20000 27.17400
H  1.11200 39.00300 25.71300
H  2.04300 37.61800 26.27900
H  2.18200 38.72400 22.17700
H  2.38100 38.05100 23.81600
H  1.34900 39.39900 23.69300
H  -2.49800 33.60200 20.46100
H  -4.61600 32.19900 21.08100
H  -4.53900 35.57300 21.48000
H  -5.25600 34.23600 20.53500
H  -4.11800 35.24200 19.79800
H  -2.11600 31.03300 22.43800
H  -1.87100 31.55300 20.74300
H  -2.97500 29.83500 19.94500
H  -4.21100 29.76000 21.16800
H  -2.59900 29.15700 21.57600
H  -5.73000 28.87200 24.86400
H  -6.91500 30.10800 25.13700
H  -6.70700 28.83700 26.38300
H  -4.28000 31.21200 30.49700
H  -7.89300 32.23800 32.08500
H  -7.18000 33.83300 32.16400
H  -6.90600 32.79800 33.46400

