79

Mg 9.76800 48.08600 25.98100
C  7.45000 47.91000 28.64300
C  12.10600 49.51100 28.08500
C  11.81000 48.31700 23.38000
C  7.12300 47.07500 23.92000
N  9.63100 48.92700 27.99300
C  8.70300 48.48500 28.99500
C  9.24100 48.67100 30.52100
C  10.61800 49.41300 30.18100
C  10.83200 49.25200 28.66300
C  10.60600 50.88100 30.71300
C  9.26200 47.28300 31.28300
C  10.27600 47.07000 32.42500
H  9.83400 46.09400 33.53500
N  11.73100 48.75700 25.77600
C  12.51100 49.30900 26.74300
C  13.87100 49.38100 26.24000
C  13.75200 49.07800 24.84900
C  12.37300 48.74000 24.61200
C  15.01700 49.85200 26.97800
C  14.84000 49.07300 23.77900
O  14.69800 48.83100 22.59900
C  16.25700 49.46800 24.18800
N  9.57600 47.75600 23.92200
C  10.52400 47.87100 22.97600
C  10.19400 47.23600 21.59600
C  8.69700 46.82500 21.85700
C  8.42900 47.18600 23.35300
C  10.43400 48.18000 20.42800
C  8.39300 45.37500 21.51300
C  8.63300 44.20700 22.52100
N  7.71000 47.65700 26.16500
C  6.83800 47.29400 25.24300
C  5.52300 47.08800 25.84200
C  5.72800 47.31400 27.20800
C  7.09000 47.62700 27.30500
C  4.24200 46.76500 25.09300
C  5.06600 47.29900 28.48900
O  3.93400 47.00600 28.82600
C  6.23400 47.61500 29.50100
C  6.37400 46.31900 30.20900
O  7.04000 45.37500 29.80400
O  5.74600 46.41100 31.41500
C  5.91000 45.28600 32.33500
H  12.90800 49.81600 28.76100
H  12.49900 48.21400 22.54000
H  6.35000 46.75200 23.21900
H  8.54500 49.36600 30.99000
H  11.36600 48.77400 30.65100
H  11.51800 50.92700 31.30800
H  9.78700 51.03100 31.41700
H  10.52200 51.56800 29.87100
H  9.49400 46.45100 30.61800
H  8.27600 47.07900 31.70100
H  10.26600 48.06600 32.86600
H  11.29400 47.08600 32.03600
H  14.77100 50.50900 27.81300
H  15.60000 50.60500 26.44800
H  15.79700 49.15700 27.28900
H  16.26700 50.52200 24.46600
H  16.90400 49.32100 23.32300
H  16.64900 48.85200 24.99800
H  10.77400 46.31800 21.50400
H  8.02500 47.35600 21.18200
H  9.51500 48.34100 19.86600
H  11.14900 47.69400 19.76400
H  10.94100 49.08900 20.75400
H  8.86500 45.14700 20.55800
H  7.31100 45.28500 21.40800
H  9.21900 44.51700 23.38600
H  9.16200 43.39100 22.02900
H  7.65100 43.77300 22.70900
H  3.66900 47.69100 25.06100
H  3.58600 46.09500 25.65000
H  4.45300 46.39500 24.08900
H  6.04100 48.37600 30.25800
H  6.21400 44.40800 31.76600
H  5.07000 45.06800 32.99500
H  6.75600 45.52000 32.98100

