79

Mg 5.04300 54.56000 39.90800
C  5.46700 51.02800 39.26000
C  8.21900 54.98300 38.63400
C  4.45300 57.86800 39.84500
C  1.75000 53.99100 40.74700
N  6.64000 53.08200 38.86400
C  6.61700 51.74200 38.83600
C  7.98200 51.17400 38.42400
C  8.93000 52.48700 38.54400
C  7.83300 53.63700 38.57800
C  10.01600 52.40600 39.70100
C  7.99100 50.31000 37.07200
C  8.69300 50.86700 35.79800
H  7.85100 50.75700 34.50600
N  6.16700 56.13900 39.35300
C  7.49800 56.13000 38.93800
C  8.03900 57.47600 38.80400
C  6.91900 58.34400 38.97100
C  5.75300 57.45400 39.39300
C  9.49700 57.75400 38.41100
C  6.96200 59.75400 38.72000
O  7.97200 60.30600 38.29000
C  5.69400 60.74100 38.66900
N  3.36500 55.68800 40.23800
C  3.36900 57.05000 40.21600
C  2.04400 57.58300 40.61500
C  1.06800 56.45300 40.62700
C  2.09900 55.27100 40.57200
C  2.07500 58.36300 41.92200
C  0.06700 56.35700 39.50400
C  -0.75600 57.60100 39.38400
N  3.81500 52.94900 40.06500
C  2.58600 52.85700 40.51700
C  2.28700 51.45200 40.72900
C  3.41200 50.70100 40.24600
C  4.31800 51.65900 39.84700
C  0.96300 50.97300 41.21500
C  3.97800 49.38400 40.05800
O  3.44500 48.30500 40.29100
C  5.35200 49.52900 39.41600
C  5.22700 48.84300 38.07800
O  4.47300 49.24000 37.20500
O  5.90000 47.61600 37.96800
C  5.52800 46.76400 36.89100
H  9.26300 55.15900 38.36200
H  4.32400 58.95200 39.86100
H  0.70500 53.85400 41.03400
H  8.31900 50.47000 39.18500
H  9.48500 52.62200 37.61600
H  10.01000 51.44600 40.21800
H  9.89100 53.09700 40.53500
H  11.05200 52.55300 39.39800
H  6.95300 50.10100 36.81300
H  8.36000 49.29300 37.19700
H  9.58300 50.24600 35.69800
H  8.90500 51.93500 35.73700
H  10.21600 56.98900 38.70200
H  9.75800 58.61700 39.02300
H  9.71300 57.93700 37.35800
H  6.14400 61.66700 38.31000
H  5.35500 60.74200 39.70500
H  5.02000 60.30800 37.93000
H  1.74700 58.25500 39.81000
H  0.62000 56.24100 41.59800
H  1.62800 59.31900 41.65000
H  3.13000 58.57000 42.10200
H  1.64200 57.82600 42.76600
H  -0.52700 55.50300 39.83200
H  0.68900 56.20400 38.62200
H  -0.38000 58.51700 39.83900
H  -1.79400 57.42500 39.66600
H  -0.78200 57.74100 38.30300
H  0.14700 51.64800 40.95800
H  1.04000 50.66100 42.25600
H  0.88600 50.07200 40.60700
H  6.15500 49.03200 39.96100
H  4.78000 46.14100 37.38100
H  6.45100 46.23200 36.66300
H  5.29900 47.28200 35.96000

