79

Mg 16.16800 51.80200 26.43300
C  18.22600 50.94100 29.11000
C  13.72200 52.77200 28.53100
C  14.50200 52.82600 23.72500
C  18.78400 50.68700 24.25000
N  15.99500 51.93200 28.65200
C  16.96500 51.45300 29.51000
C  16.49800 51.70800 30.97600
C  14.92900 51.98400 30.73300
C  14.81000 52.19800 29.21200
C  14.08600 50.80100 31.16700
C  17.30800 52.87200 31.58900
C  17.67800 52.69300 33.08800
H  16.80400 51.99800 34.11900
N  14.35500 52.73500 26.21400
C  13.48600 53.06300 27.17500
C  12.29500 53.61500 26.54800
C  12.50500 53.67600 25.07900
C  13.81100 53.02900 24.96400
C  11.07000 54.07100 27.41900
C  11.61500 54.31500 24.08200
O  11.84400 54.35000 22.86900
C  10.38000 54.93700 24.45300
N  16.65900 51.86600 24.38800
C  15.75200 52.33200 23.47100
C  16.30200 52.33800 22.02500
C  17.79500 51.84700 22.19300
C  17.80700 51.45500 23.71300
C  15.44400 51.43900 21.05700
C  18.79800 52.82300 21.58800
C  19.85000 53.51100 22.52900
N  17.96400 50.68200 26.62900
C  18.88900 50.29100 25.60400
C  20.01900 49.69700 26.27600
C  19.80700 49.93300 27.64600
C  18.56400 50.58700 27.81200
C  21.23300 48.99400 25.55800
C  20.32200 49.85000 28.94300
O  21.40900 49.42700 29.24700
C  19.32100 50.47200 29.96100
C  18.97400 49.40800 30.89900
O  18.37600 48.41400 30.61400
O  19.47200 49.64400 32.07500
C  19.28800 48.55600 33.09100
H  12.97000 53.04500 29.27500
H  13.87600 53.05200 22.85900
H  19.52200 50.25500 23.57100
H  16.53000 50.81400 31.59800
H  14.61700 52.88100 31.26900
H  14.59100 50.06800 31.79700
H  13.53600 50.28100 30.38300
H  13.33700 51.29600 31.78400
H  16.61700 53.71500 31.60200
H  18.18700 52.96800 30.95200
H  17.80100 53.74100 33.36100
H  18.61600 52.13900 33.13000
H  10.19000 53.56200 27.02600
H  10.84800 55.12300 27.23700
H  11.14000 53.94300 28.49900
H  9.78900 55.28700 23.60700
H  10.58200 55.85000 25.01300
H  9.81600 54.15000 24.95400
H  16.32300 53.37500 21.69100
H  17.85600 50.86000 21.73300
H  16.06300 50.82300 20.40500
H  14.81900 52.01100 20.37200
H  14.86600 50.80000 21.72500
H  18.30500 53.56100 20.95600
H  19.33200 52.26400 20.81900
H  20.23000 52.85100 23.30800
H  19.60700 54.47700 22.97000
H  20.67300 53.70700 21.84200
H  21.50100 49.58900 24.68500
H  20.78100 48.04900 25.25600
H  22.11300 48.93500 26.19800
H  19.83700 51.34500 30.36000
H  19.83900 47.62400 32.96500
H  18.36600 47.97600 33.12900
H  19.47600 49.07000 34.03400

