79

Mg 48.13500 45.63800 43.08700
C  44.72700 44.91400 42.42800
C  48.90100 42.37600 42.31900
C  51.40600 46.54300 43.03500
C  47.25500 48.93800 43.60500
N  46.89900 43.86200 42.14400
C  45.53500 43.76300 42.14000
C  45.10500 42.31900 41.74700
C  46.43200 41.50500 41.89400
C  47.50800 42.62900 42.21200
C  46.54600 40.29900 42.88700
C  44.44900 42.30700 40.29700
C  45.27200 42.79000 39.08400
H  45.13500 42.03200 37.67600
N  49.95200 44.61300 42.67400
C  50.04000 43.28500 42.38900
C  51.43200 42.90900 42.26800
C  52.22500 44.09000 42.54900
C  51.19500 45.14600 42.74400
C  51.89800 41.46300 42.21200
C  53.73300 44.21300 42.59800
O  54.46100 43.26800 42.54800
C  54.47800 45.49400 42.90500
N  49.19000 47.54000 43.25400
C  50.51000 47.62100 43.31800
C  50.98700 49.06300 43.50600
C  49.64900 49.84100 43.73700
C  48.63100 48.70300 43.53600
C  52.01800 49.30800 44.58600
C  49.41500 51.11900 42.81900
C  49.29800 52.51200 43.42700
N  46.38000 46.77100 43.15100
C  46.16600 48.08800 43.37100
C  44.75700 48.37400 43.46800
C  44.16800 47.13000 43.05500
C  45.18800 46.18100 42.86400
C  44.11700 49.62100 43.74100
C  42.93200 46.43100 42.75900
O  41.74900 46.76400 42.73300
C  43.21000 44.95500 42.51100
C  42.63000 44.21000 43.68100
O  41.75100 43.38800 43.50300
O  43.29200 44.38700 44.88000
C  42.76600 43.64800 46.02800
H  49.13500 41.31100 42.25900
H  52.41600 46.95500 42.97700
H  46.93000 49.91800 43.96000
H  44.33600 41.93100 42.41600
H  46.64700 41.03300 40.93500
H  46.77400 39.39200 42.32600
H  45.54900 40.29400 43.32900
H  47.36100 40.37800 43.60600
H  43.63100 43.02300 40.22700
H  43.89200 41.39800 40.07500
H  46.33700 42.67500 39.28900
H  45.15100 43.85100 38.86400
H  51.38500 40.90700 41.42800
H  51.69300 40.92100 43.13500
H  52.95700 41.35400 41.97800
H  54.04800 45.94200 43.80100
H  54.37400 46.16600 42.05400
H  55.50400 45.31200 43.22400
H  51.43400 49.31200 42.54300
H  49.50400 50.06200 44.79500
H  52.92000 49.53500 44.01800
H  52.30900 48.40200 45.11900
H  51.66800 49.92200 45.41500
H  48.40600 50.92600 42.45700
H  50.09300 51.07000 41.96700
H  49.70400 53.23300 42.71700
H  49.81000 52.52100 44.38900
H  48.25000 52.77700 43.56900
H  43.10600 49.61000 43.33300
H  44.70000 50.39600 43.24200
H  44.02500 49.74800 44.81900
H  42.78100 44.46500 41.63700
H  41.80100 43.99100 46.40100
H  43.47400 43.65700 46.85700
H  42.82900 42.57900 45.82200

