79

Mg 0.23400 44.10600 26.62400
C  2.51400 43.96500 29.27200
C  -2.22100 43.39400 29.03100
C  -1.88500 43.47000 24.03900
C  2.78200 44.64600 24.33900
N  0.17600 43.90200 28.99000
C  1.22300 43.84700 29.84200
C  0.83600 43.78000 31.28500
C  -0.62500 43.37000 31.13700
C  -0.93800 43.63300 29.60200
C  -0.84400 41.85100 31.50500
C  1.09400 45.08900 32.09700
C  1.39300 44.82500 33.60500
H  0.98300 43.58500 34.35600
N  -1.73600 43.46200 26.55600
C  -2.56000 43.20800 27.62300
C  -3.85900 42.77300 27.17900
C  -3.80000 42.85800 25.68000
C  -2.45800 43.36800 25.35200
C  -5.06500 42.49200 28.12500
C  -4.95000 42.55000 24.67000
O  -4.74800 42.44600 23.47600
C  -6.33700 42.21100 25.15200
N  0.40100 43.93400 24.50400
C  -0.58700 43.65900 23.64700
C  -0.14300 43.80900 22.16200
C  1.32400 44.28100 22.30700
C  1.52400 44.31400 23.82600
C  -0.24500 42.44600 21.44200
C  1.74600 45.47500 21.41800
C  0.73500 46.60500 21.43600
N  2.22600 44.26100 26.75500
C  3.15300 44.48700 25.73200
C  4.47800 44.37600 26.28300
C  4.25700 44.13500 27.68300
C  2.91700 44.05600 27.91900
C  5.81500 44.44000 25.54500
C  4.89200 43.78400 28.85800
O  6.07900 43.58400 29.10500
C  3.83600 43.85100 29.99700
C  4.04200 42.70500 30.95400
O  3.69400 41.55800 30.79600
O  4.81900 43.15100 32.00700
C  4.86900 42.16800 33.10600
H  -2.98700 43.12400 29.76000
H  -2.43300 43.37100 23.09900
H  3.57200 44.72100 23.58900
H  1.36700 42.94900 31.75000
H  -1.37200 44.01600 31.59700
H  0.01000 41.18900 31.65300
H  -1.41300 41.33700 30.73000
H  -1.54800 41.74100 32.33000
H  0.20000 45.70100 31.97800
H  1.95200 45.55700 31.61500
H  1.10600 45.75500 34.09500
H  2.48100 44.79200 33.66300
H  -5.27100 43.50200 28.48000
H  -4.62000 42.08400 29.03200
H  -5.89100 41.89000 27.74600
H  -6.37300 41.29400 25.74000
H  -7.01100 42.18200 24.29600
H  -6.71900 43.03300 25.75800
H  -0.85300 44.53000 21.75800
H  1.88900 43.44600 21.89200
H  -0.36900 41.63800 22.16300
H  0.61000 42.16100 20.82800
H  -1.13600 42.53600 20.82100
H  1.89500 45.03200 20.43300
H  2.76600 45.78000 21.65300
H  0.01200 46.48400 22.24300
H  0.15300 46.60900 20.51400
H  1.27900 47.51300 21.69600
H  6.02200 43.41700 25.22900
H  6.59000 44.69100 26.26900
H  5.79200 45.03400 24.63100
H  3.96900 44.79100 30.53200
H  4.99900 41.13300 32.79000
H  3.98500 42.16600 33.74200
H  5.73800 42.52600 33.65800

