79

Mg 30.28100 58.25700 39.91000
C  27.52800 56.39700 38.93900
C  32.32300 55.60000 39.02400
C  33.02900 60.43000 39.83300
C  28.14400 60.97200 40.32200
N  29.93900 56.15600 39.08000
C  28.74100 55.67300 38.71800
C  28.86700 54.23600 38.28700
C  30.43300 53.90200 38.41000
C  30.95500 55.30700 38.84300
C  30.89100 52.77900 39.40700
C  28.30200 53.96900 36.83600
C  28.85100 54.93900 35.79000
H  27.79800 55.80800 34.98400
N  32.44300 57.99400 39.68700
C  32.98200 56.85400 39.28300
C  34.41100 57.05600 39.22000
C  34.71500 58.49100 39.46800
C  33.34600 59.05300 39.67500
C  35.37500 55.87800 38.88000
C  36.06700 59.06200 39.42000
O  37.01600 58.32500 39.27800
C  36.37900 60.55400 39.50100
N  30.57700 60.35700 40.04600
C  31.79200 61.05800 40.04200
C  31.55200 62.49300 40.27000
C  30.05900 62.56900 40.77800
C  29.53000 61.21600 40.34500
C  32.63600 63.22400 41.06900
C  29.43900 63.92900 40.24100
C  29.03900 65.03900 41.28200
N  28.25700 58.60200 39.78700
C  27.51700 59.74100 39.98800
C  26.15400 59.45200 39.87600
C  26.07900 58.07200 39.51600
C  27.42600 57.61700 39.44700
C  24.98600 60.36200 40.06600
C  25.19200 57.05100 39.15200
O  23.99300 57.02500 39.01600
C  26.09600 55.87100 38.77600
C  25.75600 54.78700 39.72900
O  25.94700 54.77300 40.94800
O  25.36500 53.64800 38.96900
C  24.97500 52.46500 39.74300
H  32.97200 54.77000 38.73800
H  33.89400 61.07300 40.00200
H  27.45400 61.77900 40.57800
H  28.38000 53.69000 39.09600
H  30.94200 53.53700 37.51800
H  31.36400 51.89900 38.97300
H  29.97600 52.41400 39.87400
H  31.45700 53.28400 40.19000
H  27.21800 53.90400 36.93500
H  28.64900 52.96000 36.61600
H  29.39900 54.40700 35.01100
H  29.56700 55.56000 36.32900
H  35.32200 55.64400 37.81700
H  35.07500 54.97900 39.41800
H  36.45000 56.05700 38.89300
H  36.03800 60.93200 40.46400
H  35.81800 60.92800 38.64400
H  37.42100 60.77500 39.27200
H  31.54600 62.94200 39.27700
H  30.04100 62.56500 41.86800
H  32.28000 64.00300 41.74400
H  33.36300 63.68100 40.39700
H  33.08000 62.58800 41.83500
H  28.55400 63.57400 39.71400
H  30.02700 64.19500 39.36300
H  29.31000 64.81900 42.31400
H  27.96200 65.18200 41.20400
H  29.55000 65.96900 41.03200
H  25.02400 61.30100 39.51300
H  24.89600 60.55500 41.13500
H  24.11500 59.75500 39.82300
H  25.93500 55.68500 37.71400
H  25.82600 51.78500 39.74200
H  24.15100 51.88300 39.33000
H  24.71900 52.67500 40.78200

