79

Mg 7.25500 53.54200 40.82300
C  6.73100 50.11000 40.51100
C  10.60100 53.09100 40.16600
C  7.64700 56.88200 40.37200
C  3.83300 54.03400 41.16500
N  8.45800 51.74300 40.27700
C  8.07100 50.46700 40.22800
C  9.33000 49.53200 40.16900
C  10.56900 50.52000 40.18500
C  9.84000 51.93100 40.19400
C  11.53400 50.45100 41.33600
C  9.35000 48.57200 38.89400
C  9.22000 49.17100 37.47800
H  8.17300 48.62300 36.58100
N  8.89200 54.83700 40.24600
C  10.18000 54.46500 40.14800
C  10.99000 55.61500 39.79600
C  10.17100 56.75600 39.93400
C  8.88300 56.21100 40.23700
C  12.47600 55.46900 39.50100
C  10.59900 58.18500 39.73400
O  11.72400 58.42100 39.34300
C  9.69000 59.35100 39.91100
N  5.92200 55.17500 40.75200
C  6.38700 56.43100 40.61100
C  5.24700 57.47600 40.87200
C  4.00900 56.53700 40.87600
C  4.60000 55.14500 40.86100
C  5.48600 58.16600 42.22200
C  3.00700 56.86100 39.73000
C  1.49400 56.73600 40.06700
N  5.60100 52.37900 40.91100
C  4.30900 52.70000 41.22000
C  3.57100 51.47000 41.44400
C  4.49700 50.49900 41.24000
C  5.71900 51.05800 40.82800
C  2.14400 51.30700 41.93900
C  4.64300 49.07100 41.27800
O  3.85400 48.20200 41.60500
C  6.14700 48.76600 40.88200
C  6.13500 47.77100 39.79700
O  5.52900 47.99700 38.73500
O  6.65700 46.56100 40.15500
C  6.58500 45.51300 39.07300
H  11.67300 52.89100 40.12100
H  7.65800 57.97100 40.44100
H  2.75900 54.21600 41.24400
H  9.53300 48.78100 40.93400
H  11.14200 50.35100 39.27400
H  12.55300 50.18700 41.05500
H  11.19700 49.74000 42.09100
H  11.53100 51.38700 41.89600
H  8.45500 47.98500 39.10200
H  10.20000 47.89100 38.95300
H  10.09200 49.25700 36.82900
H  9.02600 50.24100 37.55700
H  13.14900 55.89700 40.24400
H  12.69300 55.99400 38.57100
H  12.86300 54.45200 39.42800
H  8.89600 59.37700 39.16400
H  10.24200 60.29000 39.89100
H  9.23700 59.36400 40.90200
H  5.25000 58.21300 40.06800
H  3.53800 56.67800 41.84900
H  4.65700 58.80900 42.51700
H  6.46100 58.64700 42.14600
H  5.59300 57.34500 42.93100
H  3.26200 56.05300 39.04400
H  3.17400 57.83900 39.28000
H  1.03400 57.70000 39.85000
H  1.28400 56.22500 41.00600
H  1.01800 56.05500 39.36000
H  2.00900 52.19700 42.55300
H  2.03300 50.43400 42.58300
H  1.39100 51.32100 41.15100
H  6.58700 48.34600 41.78600
H  7.11200 44.63600 39.44800
H  6.93000 45.92100 38.12200
H  5.53200 45.23800 39.01900

