79

Mg 47.38000 25.45900 29.22100
C  48.39400 27.63700 31.82200
C  46.19600 23.30600 31.56500
C  47.05700 23.18700 26.77200
C  49.11800 27.53700 26.95500
N  47.05600 25.60400 31.40200
C  47.59900 26.54600 32.30000
C  47.21400 26.14700 33.80200
C  46.66000 24.74400 33.59600
C  46.56400 24.55800 32.07200
C  47.57000 23.66700 34.27300
C  46.28900 27.25300 34.41300
C  46.70600 27.94500 35.75000
H  47.13100 26.96100 36.88000
N  46.62700 23.47800 29.11500
C  46.19100 22.81600 30.24900
C  45.64900 21.60900 29.75300
C  45.89800 21.52600 28.37100
C  46.56000 22.74300 28.01300
C  44.81500 20.66500 30.64500
C  45.53300 20.39900 27.36400
O  45.98900 20.34200 26.24400
C  44.68100 19.19500 27.69800
N  48.12000 25.37600 27.14800
C  47.65700 24.38400 26.35500
C  48.01500 24.58500 24.90900
C  48.48200 26.05200 24.93400
C  48.58900 26.33800 26.45900
C  49.07300 23.64700 24.37500
C  47.59700 27.00900 24.07600
C  48.16600 28.27100 23.61900
N  48.62800 27.23000 29.36900
C  49.23500 28.00000 28.35700
C  49.78800 29.17100 28.92000
C  49.44700 29.08900 30.29000
C  48.75500 27.87200 30.47300
C  50.32200 30.31900 28.18300
C  49.52600 29.79000 31.59100
O  49.98700 30.89300 31.92400
C  48.96800 28.81300 32.64200
C  50.08500 28.35800 33.52200
O  50.94500 27.62400 33.15400
O  49.96800 28.85000 34.81000
C  50.92800 28.26800 35.74400
H  45.98800 22.58000 32.35400
H  46.76500 22.47900 25.99300
H  49.66100 28.15400 26.23600
H  48.17100 26.07800 34.32000
H  45.63700 24.55000 33.91800
H  48.21300 24.06700 35.05700
H  48.09500 22.91700 33.68200
H  46.80500 23.05800 34.75300
H  45.26700 26.92100 34.59700
H  46.14900 28.08600 33.72400
H  45.82700 28.46300 36.13300
H  47.48100 28.69500 35.59200
H  44.40800 21.14300 31.53600
H  45.37500 19.76000 30.88300
H  43.94900 20.36800 30.05400
H  44.97200 18.73900 28.64300
H  44.79400 18.44800 26.91200
H  43.62400 19.45500 27.62800
H  47.13100 24.49900 24.27800
H  49.47100 26.15300 24.48900
H  50.04700 24.08700 24.15900
H  48.77700 23.21300 23.42000
H  49.21000 22.85000 25.10600
H  46.64700 27.16500 24.58700
H  47.38700 26.56100 23.10500
H  48.34900 28.41500 22.55400
H  49.18800 28.34200 23.98900
H  47.56100 29.07800 24.03100
H  49.51100 31.03200 28.32900
H  50.54900 30.11100 27.13700
H  51.19600 30.48300 28.81400
H  48.21300 29.34600 33.22100
H  51.03500 28.84300 36.66400
H  51.93400 28.23500 35.32700
H  50.53700 27.31700 36.10700

