79

Mg 44.67300 5.95100 48.15000
C  42.60900 8.69400 47.73800
C  42.04800 3.89000 47.26200
C  46.75700 3.41400 48.18900
C  47.39200 8.21100 48.28400
N  42.59700 6.20200 47.57500
C  41.97900 7.45700 47.43500
C  40.59600 7.26400 46.86000
C  40.27700 5.74100 47.02600
C  41.73800 5.22200 47.35900
C  39.17700 5.39900 47.99300
C  40.56000 7.66800 45.27100
C  39.10600 7.65300 44.63500
H  38.92700 6.75500 43.47300
N  44.44400 3.95100 47.83100
C  43.32900 3.26800 47.39500
C  43.54900 1.88400 47.12500
C  44.92400 1.68900 47.38900
C  45.45300 2.99200 47.91200
C  42.53900 0.97600 46.53500
C  45.68800 0.41600 47.14000
O  45.18400 -0.55700 46.65600
C  47.07800 0.27600 47.63900
N  46.77600 5.80100 48.22800
C  47.44700 4.60700 48.28000
C  48.91100 4.74200 48.63600
C  49.13000 6.31600 48.50700
C  47.69400 6.83900 48.39800
C  49.21100 4.04800 50.00300
C  49.96000 6.70300 47.27100
C  51.47600 6.95500 47.49200
N  44.98800 8.07800 48.16000
C  46.13700 8.83000 48.18300
C  45.80600 10.24700 48.28600
C  44.39300 10.28400 48.14400
C  43.96200 8.85500 48.03500
C  46.75100 11.33600 48.25800
C  43.21500 11.12500 48.06300
O  43.13400 12.32000 48.02700
C  41.96000 10.13500 47.84800
C  41.13700 10.29200 49.03700
O  41.42900 10.11100 50.21400
O  39.99700 10.99800 48.65900
C  39.09600 11.31600 49.75300
H  41.23000 3.25000 46.92300
H  47.46600 2.60600 48.38200
H  48.21900 8.92100 48.35200
H  39.90900 7.84000 47.48100
H  39.93200 5.32100 46.08200
H  38.59300 4.61600 47.51000
H  38.55500 6.25700 48.25100
H  39.63000 4.94000 48.87200
H  41.19800 6.93600 44.77500
H  40.82000 8.71600 45.12400
H  38.79600 8.68200 44.45200
H  38.36200 7.26500 45.33000
H  43.06500 0.48400 45.71700
H  41.68600 1.53800 46.15300
H  42.02100 0.27800 47.19200
H  47.72200 0.73600 46.89000
H  47.22600 -0.80200 47.70000
H  47.19600 0.65600 48.65400
H  49.57300 4.19400 47.96400
H  49.47300 6.65900 49.48300
H  50.08700 3.40500 49.91500
H  48.37500 3.52100 50.46300
H  49.27800 4.83300 50.75700
H  49.60200 7.62200 46.80500
H  49.85300 5.92900 46.51200
H  52.10900 6.21000 47.01000
H  51.69100 6.98300 48.56100
H  51.67500 7.93900 47.06800
H  47.43900 11.07300 47.45400
H  47.23900 11.47400 49.22300
H  46.23500 12.26600 48.01900
H  41.55500 10.46100 46.89000
H  38.22700 11.87900 49.41100
H  39.62100 11.91700 50.49500
H  38.82200 10.44600 50.35000

