79

Mg 8.72500 47.93100 26.56500
C  6.73500 48.03700 29.37700
C  11.45300 49.13000 28.57100
C  10.70500 48.09200 23.80900
C  5.98900 47.03200 24.67600
N  9.06900 48.51200 28.76100
C  8.08200 48.45700 29.69600
C  8.63300 48.69600 31.08800
C  10.01900 49.35800 30.64500
C  10.25200 48.86700 29.32100
C  10.06600 50.94700 30.70800
C  8.84300 47.37600 31.92200
C  8.98900 47.55600 33.46500
H  8.67800 46.46900 34.39800
N  10.81500 48.47500 26.26200
C  11.76900 48.91400 27.16700
C  13.00200 49.15600 26.45200
C  12.83100 48.93300 25.09900
C  11.38000 48.52800 25.00500
C  14.25400 49.55900 27.12600
C  13.76900 49.02300 23.96400
O  13.49600 48.78600 22.80300
C  15.19800 49.18400 24.31100
N  8.41200 47.69600 24.51600
C  9.39500 47.67300 23.56300
C  8.81200 47.27400 22.21300
C  7.35300 46.88400 22.51700
C  7.19800 47.24700 24.01600
C  9.08400 48.36100 21.11400
C  6.98800 45.44200 22.20500
C  6.04500 45.25200 20.99100
N  6.79600 47.71900 26.91900
C  5.74900 47.33500 26.04300
C  4.53700 47.33900 26.71500
C  4.84700 47.58200 28.08000
C  6.24400 47.72600 28.15900
C  3.23200 46.83700 26.14400
C  4.30800 47.66000 29.42000
O  3.10600 47.57900 29.79100
C  5.55500 47.80200 30.36300
C  5.65900 46.47700 30.98100
O  5.77200 45.42900 30.39000
O  5.49800 46.65800 32.35600
C  5.55400 45.33200 32.98700
H  12.23600 49.56600 29.19500
H  11.31900 48.08800 22.90600
H  5.15500 46.68800 24.06100
H  7.97500 49.39900 31.60000
H  10.82100 49.02600 31.30400
H  10.77700 51.14200 31.51000
H  9.07400 51.29200 31.00000
H  10.47700 51.42600 29.81900
H  9.75200 46.86800 31.60100
H  8.07500 46.63100 31.71600
H  8.47100 48.48400 33.71100
H  10.06700 47.65700 33.59200
H  14.13200 49.72800 28.19600
H  14.56300 50.50500 26.68100
H  15.03500 48.80800 27.01000
H  15.47200 48.31100 24.90300
H  15.27100 50.18100 24.74600
H  15.76900 49.30900 23.39100
H  9.31600 46.34800 21.93500
H  6.60900 47.47700 21.98400
H  8.16000 48.86300 20.82400
H  9.52400 47.81400 20.28000
H  9.83000 49.12200 21.34300
H  6.59900 44.98000 23.11200
H  7.87100 44.81600 22.08000
H  6.59000 44.71100 20.21700
H  5.85100 46.20400 20.49600
H  5.18100 44.62800 21.21800
H  2.90900 47.27900 25.20200
H  2.46300 46.94500 26.91000
H  3.27100 45.75500 26.01700
H  5.43600 48.65500 31.03100
H  5.39800 45.36500 34.06500
H  6.49900 44.88400 32.68000
H  4.69600 44.82900 32.54000

