79

Mg 40.69400 8.42000 28.90900
C  42.41200 9.79400 31.57600
C  38.75000 6.80500 31.06900
C  38.87500 7.53300 26.22300
C  43.21200 9.79400 26.78200
N  40.64300 8.17200 31.16100
C  41.37300 8.99500 31.94800
C  40.84000 8.78800 33.44500
C  39.75000 7.62900 33.30100
C  39.70000 7.48400 31.74300
C  39.90800 6.36100 34.07800
C  40.33400 10.17700 34.05400
C  40.43600 10.23300 35.59900
H  40.71600 11.54600 36.34100
N  39.14800 7.20600 28.69600
C  38.39800 6.68500 29.70900
C  37.23800 6.03400 29.16800
C  37.19200 6.34200 27.74800
C  38.43300 7.03300 27.46200
C  36.35700 5.18200 29.98900
C  36.12600 5.98000 26.77200
O  36.25000 6.30200 25.62100
C  34.80900 5.37400 27.18800
N  41.05800 8.47500 26.80400
C  40.10400 8.15200 25.90200
C  40.36400 8.63300 24.44200
C  41.84800 9.03400 24.65400
C  42.08200 9.15300 26.18600
C  40.20100 7.55500 23.36400
C  42.37800 10.18000 23.75800
C  41.71500 11.49500 24.14000
N  42.46600 9.43800 29.08500
C  43.30800 10.00300 28.13000
C  44.42300 10.56700 28.85200
C  44.13000 10.58700 30.16500
C  42.88900 9.91400 30.26300
C  45.49200 11.24200 28.26100
C  44.57400 11.09400 31.50700
O  45.58100 11.64000 31.85600
C  43.35700 10.69200 32.42200
C  43.95800 9.94700 33.61400
O  44.33700 8.78000 33.65600
O  43.98900 10.79000 34.76300
C  44.56500 10.27200 36.01200
H  38.11800 6.29800 31.80200
H  38.16200 7.44500 25.40100
H  44.02700 10.16500 26.15700
H  41.71200 8.35800 33.93800
H  38.72700 7.96200 33.47500
H  39.00200 6.22200 34.66900
H  40.64900 6.52500 34.85900
H  40.16300 5.51600 33.43800
H  39.26600 10.37600 34.14500
H  40.67400 11.07300 33.53400
H  41.12100 9.44300 35.90700
H  39.49100 9.94400 36.06000
H  35.81100 4.47100 29.36900
H  35.53600 5.72700 30.45300
H  36.87000 4.58100 30.74000
H  34.10500 5.49700 26.36500
H  34.53200 5.83800 28.13500
H  34.98900 4.31400 27.36600
H  39.72700 9.44600 24.09300
H  42.51800 8.20000 24.44700
H  40.93800 7.63900 22.56500
H  39.29600 7.55600 22.75700
H  40.19600 6.57000 23.83100
H  42.46100 9.91900 22.70300
H  43.44400 10.23300 23.97600
H  41.18300 11.84700 23.25700
H  42.41100 12.25600 24.49400
H  41.00100 11.45200 24.96300
H  45.22800 11.98000 27.50300
H  46.18000 10.45600 27.95200
H  45.99600 11.83400 29.02600
H  42.89200 11.62500 32.73900
H  43.69800 9.97600 36.60200
H  45.06800 11.03700 36.60300
H  45.28000 9.45100 35.96800

