79

Mg 43.84600 3.82700 46.20900
C  41.86500 6.93200 46.41200
C  41.02500 1.99100 46.02600
C  45.80300 1.21400 45.61400
C  46.72900 5.94200 46.02500
N  41.71400 4.45000 46.10600
C  41.12200 5.70300 46.20000
C  39.59000 5.53100 46.44700
C  39.37200 3.93100 46.56700
C  40.78400 3.39300 46.21500
C  39.03800 3.39500 47.96900
C  38.72900 6.12700 45.30200
C  38.95200 5.48100 43.90900
H  39.44700 6.46400 42.80200
N  43.47000 1.88300 45.74200
C  42.24200 1.27600 45.75200
C  42.38000 -0.13000 45.45200
C  43.74800 -0.34900 45.26200
C  44.43300 0.94900 45.54800
C  41.18600 -1.15900 45.40400
C  44.39000 -1.67000 44.93400
O  43.84400 -2.75500 44.94000
C  45.81700 -1.78300 44.47100
N  45.95700 3.62300 45.73900
C  46.49700 2.38600 45.76100
C  48.04000 2.42100 45.79000
C  48.37200 3.96000 46.03300
C  46.99700 4.55100 45.85400
C  48.75600 1.40800 46.75400
C  49.62800 4.60400 45.23000
C  50.77700 5.10700 46.12500
N  44.20800 5.95700 46.13500
C  45.45500 6.59000 46.14800
C  45.16900 8.06000 46.30900
C  43.79900 8.19100 46.41300
C  43.23100 6.89200 46.23900
C  46.24100 9.14000 46.23900
C  42.73700 9.11500 46.59400
O  42.79400 10.35100 46.74800
C  41.42700 8.26600 46.62300
C  40.78200 8.32700 47.92100
O  41.14600 7.76000 48.94100
O  39.81200 9.27600 47.87800
C  38.84500 9.18900 48.94800
H  40.11500 1.38900 46.08600
H  46.42500 0.32300 45.51100
H  47.59400 6.60300 46.11400
H  39.15600 5.77600 47.41700
H  38.67500 3.62200 45.78800
H  39.79000 2.69500 48.33300
H  38.15300 2.79400 47.75500
H  38.63300 4.06200 48.73000
H  38.93900 7.18800 45.16500
H  37.67000 6.03600 45.54600
H  38.04300 5.01700 43.52600
H  39.64900 4.65200 44.02900
H  40.86600 -1.43600 44.40000
H  40.37600 -0.61300 45.88800
H  41.50800 -2.00900 46.00600
H  46.50300 -1.69100 45.31300
H  46.04300 -1.04200 43.70500
H  45.87400 -2.76100 43.99300
H  48.51700 2.12500 44.85600
H  48.55600 4.25100 47.06700
H  48.07600 0.98000 47.49000
H  49.71700 1.74400 47.14400
H  49.11200 0.60100 46.11300
H  49.40000 5.53000 44.70200
H  50.15100 3.87500 44.61000
H  51.70900 4.70400 45.72800
H  50.80600 4.75200 47.15500
H  50.61600 6.17300 46.28500
H  45.94400 9.99800 46.84200
H  46.58500 9.41200 45.24100
H  47.19300 8.77000 46.62100
H  40.77900 8.49100 45.77600
H  38.94600 10.10200 49.53600
H  38.71400 8.30900 49.57800
H  37.96500 9.24500 48.30700

