79

Mg 48.01300 24.84300 27.98200
C  48.74400 27.06700 30.49500
C  47.53400 22.33700 30.49400
C  47.37000 22.49300 25.56100
C  48.69600 27.16700 25.62200
N  48.25400 24.71900 30.25800
C  48.54800 25.82900 31.08700
C  48.40200 25.54500 32.58100
C  48.08000 23.92200 32.54700
C  47.96100 23.60700 30.98100
C  49.04600 22.89500 33.32700
C  47.17300 26.36700 33.18700
C  47.45400 27.19500 34.51400
H  46.36600 27.19300 35.54000
N  47.40600 22.77700 28.00600
C  47.24800 21.94900 29.13600
C  46.80500 20.64400 28.61000
C  46.79800 20.62200 27.17000
C  47.21500 21.95300 26.85600
C  46.47600 19.51300 29.60500
C  46.35400 19.52100 26.14300
O  46.44100 19.65800 24.96300
C  45.82700 18.21700 26.62300
N  48.21800 24.72200 25.85200
C  47.84100 23.71000 25.02800
C  47.90400 24.06600 23.52700
C  48.13000 25.59700 23.60800
C  48.32800 25.88400 25.16300
C  48.90600 23.15300 22.67400
C  46.96900 26.38100 22.91000
C  45.76200 26.75500 23.75600
N  48.69000 26.77400 27.96100
C  48.95500 27.61500 26.95200
C  49.47400 28.87500 27.46500
C  49.25700 28.77400 28.92100
C  48.83600 27.43900 29.15600
C  50.06500 30.02900 26.65600
C  49.46900 29.39900 30.20800
O  49.87200 30.51100 30.46800
C  49.13100 28.28600 31.26300
C  50.28000 28.32000 32.19500
O  51.36700 27.83100 31.99500
O  49.92000 29.07700 33.29000
C  50.90200 29.01200 34.42800
H  47.38900 21.59800 31.28400
H  47.30000 21.80500 24.71500
H  49.07200 27.80000 24.81500
H  49.25700 25.81900 33.19800
H  47.05800 23.83700 32.91400
H  49.13300 21.96500 32.76400
H  48.55800 22.55200 34.24000
H  50.01500 23.38600 33.41400
H  46.39400 25.67200 33.50100
H  46.89000 27.05000 32.38600
H  47.58400 28.25400 34.29100
H  48.33800 26.64600 34.83900
H  46.80600 18.56000 29.19100
H  45.42800 19.54100 29.90600
H  46.94000 19.64000 30.58300
H  46.56900 17.61300 27.14600
H  45.54600 17.67300 25.72100
H  44.92700 18.50700 27.16600
H  46.96000 23.78800 23.06000
H  48.97000 25.75800 22.93200
H  48.50700 22.57400 21.84100
H  49.21100 22.34800 23.34200
H  49.79000 23.71200 22.36500
H  46.46500 25.89600 22.07400
H  47.39500 27.30000 22.50800
H  44.88600 26.29700 23.29600
H  45.67500 27.84000 23.81000
H  45.82300 26.41100 24.78800
H  50.33100 29.73300 25.64100
H  50.96500 30.24500 27.23200
H  49.43000 30.91400 26.65000
H  48.20500 28.61900 31.73200
H  50.39800 28.84600 35.38000
H  51.57100 29.86800 34.51400
H  51.48500 28.10600 34.26300

