79

Mg -2.13800 18.18900 27.39400
C  -2.58100 15.81900 30.09400
C  -2.99400 20.63300 29.63800
C  -2.06600 20.16400 24.83100
C  -2.22100 15.46100 25.17900
N  -2.68600 18.24600 29.66600
C  -2.73200 17.20000 30.57700
C  -2.98600 17.64800 32.06900
C  -3.32200 19.15500 31.79800
C  -2.98600 19.40800 30.27400
C  -4.78300 19.53100 32.22800
C  -1.75200 17.37400 32.94500
C  -1.56200 18.28100 34.18800
H  -1.12700 17.65300 35.51900
N  -2.39100 20.08700 27.29900
C  -2.66600 21.01700 28.34400
C  -2.71600 22.39100 27.80300
C  -2.41500 22.20600 26.39100
C  -2.28700 20.81200 26.11600
C  -2.91900 23.62800 28.64400
C  -2.26200 23.30400 25.38400
O  -1.91900 23.09800 24.20300
C  -2.35000 24.69700 25.88200
N  -2.36700 17.91700 25.24000
C  -2.00500 18.90900 24.39400
C  -1.95700 18.38700 22.84900
C  -1.62900 16.85900 23.19200
C  -2.10100 16.72600 24.59800
C  -3.30100 18.55100 22.07400
C  -0.10600 16.43300 23.01700
C  0.96400 16.89100 24.12600
N  -2.27300 16.07400 27.52500
C  -2.32000 15.15500 26.56400
C  -2.43600 13.86000 27.17000
C  -2.36000 14.10100 28.58000
C  -2.40900 15.44000 28.70500
C  -2.64300 12.58600 26.46400
C  -2.45800 13.38800 29.86200
O  -2.36200 12.23500 30.16800
C  -2.64800 14.48300 30.90100
C  -1.52600 14.29300 31.82600
O  -0.35800 14.64700 31.60400
O  -2.03500 13.79800 33.00800
C  -1.04100 13.45200 33.91100
H  -3.27200 21.43400 30.32700
H  -1.74700 20.80100 24.00400
H  -2.13700 14.63400 24.47000
H  -3.89200 17.15200 32.41700
H  -2.69300 19.90300 32.28100
H  -5.20500 18.68400 32.76800
H  -5.27600 19.77500 31.28700
H  -4.57500 20.40400 32.84700
H  -0.76400 17.41500 32.48800
H  -1.88000 16.36800 33.34400
H  -2.52200 18.77200 34.34700
H  -0.80200 19.01800 33.92700
H  -3.99600 23.77900 28.57400
H  -2.30700 24.49800 28.40300
H  -2.83600 23.42400 29.71100
H  -2.20700 25.41300 25.07300
H  -1.55200 25.05600 26.53100
H  -3.34400 24.75600 26.32600
H  -1.08000 18.78100 22.33300
H  -2.23500 16.08900 22.71400
H  -3.92900 19.25200 22.62400
H  -3.86200 17.62600 21.94000
H  -3.16800 19.08400 21.13300
H  0.12500 16.62600 21.96900
H  -0.05900 15.34400 22.99900
H  1.77100 16.17800 24.29600
H  0.43900 17.16000 25.04300
H  1.41700 17.81000 23.75400
H  -3.53700 12.02600 26.73900
H  -1.72300 12.01900 26.60600
H  -2.70800 12.67100 25.37900
H  -3.60800 14.46100 31.41700
H  -0.55500 12.58900 33.45500
H  -1.61200 13.23100 34.81300
H  -0.41900 14.33200 34.07700

