79

Mg -5.62400 25.07000 26.42800
C  -3.92600 26.15700 29.31800
C  -7.55900 23.06600 28.56900
C  -7.06000 23.65400 23.70300
C  -3.40100 26.91700 24.49400
N  -5.76400 24.67700 28.68500
C  -4.97600 25.33500 29.64900
C  -5.38300 24.94300 31.05600
C  -6.29500 23.73500 30.76700
C  -6.54200 23.79200 29.22600
C  -5.69000 22.45600 31.21700
C  -6.01000 26.16600 31.86800
C  -5.39600 26.51300 33.18700
H  -4.76400 25.38200 34.03500
N  -7.10800 23.57000 26.18600
C  -7.82300 22.97700 27.19600
C  -8.80900 22.08600 26.65100
C  -8.61800 22.20400 25.16300
C  -7.52300 23.16300 24.94200
C  -9.86800 21.44300 27.49700
C  -9.30000 21.35700 24.06900
O  -9.04300 21.52600 22.88600
C  -10.51800 20.51600 24.43800
N  -5.19200 25.15600 24.39700
C  -6.01100 24.55700 23.49800
C  -5.71800 25.07800 22.08500
C  -4.52800 26.14200 22.29600
C  -4.38700 26.07400 23.80300
C  -5.24100 23.92300 21.10100
C  -4.80400 27.53300 21.74800
C  -3.76600 28.00900 20.76900
N  -3.95600 26.28400 26.72300
C  -3.15900 27.00700 25.84900
C  -2.22800 27.80300 26.54900
C  -2.47700 27.45600 27.88900
C  -3.57900 26.58800 27.95900
C  -1.16900 28.79000 26.05200
C  -2.04600 27.79300 29.21900
O  -1.16700 28.51600 29.59800
C  -2.89200 26.86700 30.18900
C  -1.92300 26.00800 30.91700
O  -1.53100 24.92400 30.56200
O  -1.50700 26.66900 32.07600
C  -0.44900 26.02500 32.86900
H  -8.25100 22.61700 29.28500
H  -7.60000 23.45700 22.77400
H  -2.81500 27.60300 23.87900
H  -4.55100 24.50700 31.60900
H  -7.30700 23.78300 31.16800
H  -6.37600 22.14300 32.00400
H  -4.70900 22.54500 31.68300
H  -5.60600 21.60900 30.53600
H  -7.05200 25.89900 32.04400
H  -5.89200 27.03400 31.22000
H  -6.20600 26.98600 33.74200
H  -4.67500 27.30400 32.98400
H  -10.11500 21.92500 28.44200
H  -9.59300 20.42700 27.78000
H  -10.84500 21.53300 27.02200
H  -10.32000 19.76600 25.20400
H  -10.72000 19.97100 23.51600
H  -11.28500 21.25500 24.66900
H  -6.57800 25.54200 21.60200
H  -3.50100 25.85000 22.07400
H  -5.68900 23.94900 20.10800
H  -5.46000 22.91300 21.44800
H  -4.16600 24.00700 20.93800
H  -4.74200 28.19000 22.61600
H  -5.77400 27.68400 21.27400
H  -3.89200 27.74200 19.71900
H  -2.77200 27.69800 21.09200
H  -3.80300 29.09600 20.69800
H  -0.59500 28.27100 25.28400
H  -0.58900 29.01400 26.94800
H  -1.72600 29.64500 25.67100
H  -3.31700 27.53100 30.94100
H  0.49900 26.10700 32.33700
H  -0.79000 25.05500 33.23100
H  -0.44900 26.75700 33.67700

