79

Mg 16.87600 -3.01900 28.20800
C  16.06200 -0.80100 30.88300
C  18.97200 -4.77700 30.35100
C  18.53600 -4.58000 25.62200
C  15.76100 -0.58700 26.03700
N  17.50600 -2.79700 30.38000
C  16.88900 -1.92100 31.30100
C  17.27300 -2.27700 32.74500
C  18.48600 -3.28900 32.52400
C  18.26200 -3.68200 31.01900
C  19.96700 -2.80200 32.98000
C  16.10100 -2.81400 33.63700
C  16.18100 -2.43900 35.16300
H  17.50100 -2.21700 35.82400
N  18.35100 -4.59000 27.98000
C  19.06400 -5.15300 28.98300
C  19.94500 -6.16700 28.51100
C  19.68900 -6.20200 27.11000
C  18.74400 -5.10500 26.87300
C  20.82900 -7.05900 29.43300
C  20.27900 -7.05600 26.06500
O  19.81800 -7.08400 24.93500
C  21.35200 -8.07400 26.40800
N  17.02500 -2.68700 26.13500
C  17.75500 -3.47500 25.29100
C  17.62900 -2.99700 23.85800
C  16.67400 -1.70500 23.99800
C  16.49400 -1.65500 25.44600
C  18.96000 -2.62200 23.07300
C  15.29600 -1.85400 23.26700
C  14.69600 -0.58300 22.67200
N  15.90900 -1.19900 28.39500
C  15.36200 -0.39900 27.35800
C  14.51800 0.66600 27.92600
C  14.80800 0.51100 29.30000
C  15.61400 -0.63800 29.57400
C  13.84600 1.70800 27.08900
C  14.69800 1.17200 30.58400
O  14.14600 2.29100 30.80900
C  15.44900 0.26400 31.67800
C  16.44900 1.18100 32.34300
O  17.61600 1.39500 32.02200
O  15.88500 1.83000 33.43700
C  16.67200 2.93800 34.00500
H  19.60400 -5.26000 31.09900
H  19.02000 -4.95600 24.71900
H  15.77700 0.32700 25.43900
H  17.68900 -1.37400 33.19300
H  18.33400 -4.16100 33.15900
H  20.27200 -3.39100 33.84500
H  19.82800 -1.77900 33.32900
H  20.68700 -3.08900 32.21300
H  15.90100 -3.88400 33.56500
H  15.20900 -2.29200 33.29100
H  15.62200 -3.08900 35.83500
H  15.57200 -1.53700 35.10400
H  21.82900 -6.66600 29.24900
H  20.88000 -8.10000 29.11300
H  20.59700 -6.98500 30.49500
H  22.15200 -7.62100 26.99400
H  21.87600 -8.55100 25.57800
H  20.84300 -8.86800 26.95400
H  17.07200 -3.75700 23.31000
H  17.23400 -0.78700 23.81900
H  18.80600 -1.76600 22.41600
H  19.30800 -3.47600 22.49200
H  19.81000 -2.37400 23.70800
H  14.60500 -2.15800 24.05200
H  15.37700 -2.62400 22.49900
H  15.00300 -0.59400 21.62600
H  15.17300 0.21700 23.23900
H  13.60900 -0.52700 22.72500
H  14.14200 2.70700 27.40900
H  12.78200 1.71400 27.32400
H  13.98700 1.55800 26.01800
H  14.66600 -0.03800 32.37300
H  16.42700 3.88500 33.52500
H  17.75300 2.79700 33.98900
H  16.37000 2.89100 35.05100

