79

Mg 24.80500 1.32300 29.72900
C  27.16500 1.32000 32.33400
C  22.33700 1.44200 32.10200
C  22.60200 1.55600 27.27500
C  27.35100 0.72900 27.50900
N  24.79300 1.45800 31.97800
C  25.85100 1.39800 32.83600
C  25.38200 1.74200 34.27900
C  23.84000 1.51600 34.16000
C  23.63500 1.48200 32.65800
C  23.31300 0.23400 34.79500
C  25.72200 3.16800 34.74300
C  26.29000 3.36800 36.19600
H  25.49100 2.68500 37.31200
N  22.69400 1.33300 29.69400
C  21.86100 1.47800 30.75100
C  20.50600 1.66500 30.28000
C  20.60300 1.68200 28.84000
C  22.00100 1.56700 28.54400
C  19.37800 1.88700 31.25500
C  19.45200 1.72100 27.89100
O  19.57600 1.49800 26.71200
C  18.05800 1.76800 28.42700
N  24.87000 0.68900 27.66600
C  23.85400 1.10700 26.87300
C  24.34000 1.31400 25.37300
C  25.93100 1.03000 25.43500
C  26.08000 0.77800 26.95100
C  23.50700 0.57500 24.23000
C  26.88900 2.06700 24.78800
C  27.20400 3.39900 25.60700
N  26.85100 0.99600 29.88700
C  27.73600 0.71800 28.88300
C  29.04500 0.60200 29.41100
C  28.91400 0.88300 30.76200
C  27.55400 1.11800 30.97500
C  30.20000 0.19900 28.60900
C  29.60500 0.98500 32.00100
O  30.78900 0.78600 32.29500
C  28.47000 1.23800 33.09000
C  28.54200 0.27300 34.16500
O  28.14700 -0.87000 34.12800
O  29.19300 0.75800 35.26400
C  29.51200 -0.09900 36.41200
H  21.57200 1.59300 32.86600
H  21.94600 1.88800 26.46700
H  28.18800 0.60700 26.81800
H  25.94900 1.06700 34.92000
H  23.28700 2.36300 34.56800
H  23.94400 -0.07300 35.62900
H  23.19900 -0.57900 34.07800
H  22.30900 0.50800 35.11800
H  24.95500 3.89800 34.48600
H  26.62300 3.43900 34.19400
H  26.40800 4.43000 36.40900
H  27.32800 3.06400 36.33500
H  19.69200 1.90800 32.29900
H  18.62800 1.10200 31.16600
H  18.93100 2.85600 31.03200
H  17.75000 2.75300 28.77700
H  17.83000 0.95600 29.11700
H  17.59500 1.44300 27.49500
H  24.30400 2.37600 25.13000
H  26.11600 0.02300 25.06200
H  24.17900 -0.11500 23.71900
H  23.00800 1.28700 23.57300
H  22.79300 -0.13900 24.64000
H  26.43000 2.33800 23.83700
H  27.77000 1.47600 24.53400
H  26.92600 4.30100 25.06200
H  28.28700 3.31500 25.69200
H  26.76100 3.58700 26.58500
H  31.15500 0.22400 29.13400
H  30.33500 1.03400 27.92100
H  30.20100 -0.75800 28.08800
H  28.77700 2.16300 33.57800
H  30.56700 0.01800 36.65900
H  29.11300 -1.11300 36.43200
H  29.04400 0.43400 37.23900

