79

Mg 48.01000 24.59000 27.88200
C  48.79000 26.72200 30.46800
C  47.43400 22.06800 30.11900
C  47.24300 22.57100 25.38300
C  49.41100 26.90400 25.59600
N  47.97700 24.44000 30.04600
C  48.39000 25.43400 30.92200
C  48.21600 25.02500 32.41500
C  47.76700 23.51900 32.21200
C  47.81900 23.28500 30.70200
C  48.64500 22.49700 33.04500
C  47.27900 26.02800 33.14300
C  46.91300 25.61100 34.61100
H  46.99500 26.68300 35.72500
N  47.41700 22.57500 27.82400
C  47.15100 21.71100 28.81400
C  46.74200 20.40500 28.39200
C  46.59700 20.51800 26.96200
C  47.06300 21.94800 26.65400
C  46.41100 19.20300 29.32500
C  46.24800 19.46200 25.94900
O  46.13200 19.67700 24.70200
C  45.96700 18.05600 26.43600
N  48.13200 24.75400 25.78400
C  47.75300 23.71800 24.96900
C  47.91200 24.15200 23.52900
C  48.67500 25.45900 23.56100
C  48.78300 25.72400 25.02900
C  48.69900 23.12000 22.72100
C  47.91600 26.71000 22.89900
C  48.69100 27.46700 21.86200
N  48.87900 26.52000 27.94900
C  49.44400 27.23700 26.99200
C  49.80100 28.49300 27.56100
C  49.71800 28.31200 28.97500
C  48.97000 27.12900 29.10600
C  50.49600 29.61000 26.87100
C  50.04700 28.93900 30.25300
O  50.65400 29.99000 30.49800
C  49.32600 27.92500 31.23600
C  50.27900 27.51400 32.34600
O  51.15500 26.64100 32.26100
O  49.93500 28.09100 33.57800
C  50.80900 27.64100 34.63600
H  47.10300 21.33600 30.85900
H  46.84600 21.93500 24.58900
H  49.84200 27.60500 24.87800
H  49.18300 25.00600 32.91800
H  46.71200 23.50900 32.48500
H  47.98500 22.08800 33.81000
H  49.50400 23.01100 33.47500
H  49.01800 21.67800 32.43100
H  46.41100 26.07800 32.48600
H  47.75600 26.99100 33.32800
H  47.45800 24.73700 34.96900
H  45.90200 25.20300 34.62400
H  46.30900 19.50500 30.36800
H  47.20500 18.45600 29.34300
H  45.52100 18.67100 28.98900
H  46.73000 17.65100 27.10000
H  45.71100 17.40500 25.60000
H  45.04400 18.09400 27.01500
H  46.86100 24.20300 23.24600
H  49.68000 25.30100 23.16900
H  49.54900 22.66900 23.23300
H  48.95400 23.31900 21.68000
H  47.94900 22.33000 22.74900
H  47.58600 27.46800 23.61000
H  47.03400 26.34300 22.37300
H  48.74900 28.52800 22.10800
H  48.26800 27.27800 20.87500
H  49.71300 27.09000 21.88700
H  49.73900 30.33000 26.55900
H  51.09900 29.26300 26.03200
H  51.24500 30.08500 27.50600
H  48.43200 28.38900 31.65300
H  50.49900 26.69900 35.08900
H  50.76700 28.40500 35.41200
H  51.85700 27.65400 34.33500

