79

Mg 25.94400 -1.29800 29.03400
C  27.95100 -1.26500 31.95700
C  23.20800 -0.58800 31.26100
C  23.93700 -1.28800 26.37300
C  28.57200 -2.43900 27.16100
N  25.61700 -1.07600 31.38600
C  26.61800 -0.95700 32.31700
C  26.06400 -0.47000 33.73100
C  24.55500 -0.38000 33.45700
C  24.43800 -0.79400 31.93500
C  23.69800 -1.05700 34.53000
C  26.58600 0.88500 34.38800
C  27.32500 0.86900 35.68200
H  26.98800 1.81500 36.85600
N  23.89000 -0.98600 28.82400
C  22.98300 -0.69600 29.83200
C  21.75000 -0.45800 29.12800
C  21.93200 -0.51400 27.76800
C  23.32900 -0.99800 27.57300
C  20.39600 -0.33000 29.78900
C  20.93600 -0.15200 26.66200
O  21.32200 -0.07700 25.48900
C  19.54200 0.27100 26.90500
N  26.15700 -1.95100 27.07700
C  25.26000 -1.69300 26.14100
C  25.74600 -2.12200 24.72300
C  27.24400 -2.35500 24.98500
C  27.36400 -2.19100 26.50800
C  25.03200 -3.33500 24.13200
C  28.23800 -1.44100 24.19700
C  28.00500 0.05200 24.27800
N  27.82800 -1.87600 29.44600
C  28.78200 -2.25600 28.53500
C  30.03500 -2.31500 29.22900
C  29.74100 -1.91200 30.59300
C  28.41000 -1.67100 30.67400
C  31.30500 -2.84400 28.60500
C  30.36000 -1.68900 31.88500
O  31.49700 -1.78800 32.36500
C  29.19100 -1.17300 32.76000
C  29.01300 -2.01600 34.06500
O  28.60000 -3.14400 34.14700
O  29.65100 -1.30500 35.03900
C  29.61200 -1.83300 36.44900
H  22.37100 -0.23000 31.86500
H  23.35200 -1.10800 25.46900
H  29.46200 -2.70900 26.58800
H  26.46500 -1.26800 34.35600
H  24.17800 0.62900 33.62400
H  22.79900 -0.46100 34.69000
H  24.16700 -1.32700 35.47700
H  23.22300 -1.98400 34.20700
H  25.85700 1.68500 34.50800
H  27.26800 1.26100 33.62500
H  28.40200 0.83900 35.51400
H  27.03100 -0.10500 36.07100
H  20.44600 -0.42500 30.87300
H  19.79300 -1.18300 29.47700
H  19.83800 0.55800 29.49100
H  19.03800 -0.57300 27.37600
H  19.08400 0.45100 25.93300
H  19.44000 1.16800 27.51600
H  25.68600 -1.31000 23.99800
H  27.47100 -3.40000 24.77400
H  24.61300 -3.04200 23.17000
H  24.28300 -3.68100 24.84500
H  25.77200 -4.12500 24.00500
H  28.29000 -1.77300 23.16000
H  29.20300 -1.63000 24.66500
H  27.06600 0.29600 24.77400
H  28.10800 0.48900 23.28500
H  28.75600 0.55100 24.89100
H  31.39500 -2.64100 27.53700
H  31.36700 -3.92700 28.71500
H  32.16700 -2.43200 29.12900
H  29.32200 -0.12500 33.03000
H  28.64900 -1.75800 36.95500
H  30.39200 -1.54100 37.15200
H  29.76400 -2.91000 36.38100

