79

Mg -4.89500 25.65200 25.92500
C  -3.27600 27.01500 28.77200
C  -6.92300 23.82300 27.99100
C  -5.93700 24.00800 23.15800
C  -2.54700 27.39600 23.96600
N  -4.96400 25.34400 27.99500
C  -4.29600 26.06300 29.00800
C  -4.84800 25.69800 30.40500
C  -5.84000 24.49800 30.13100
C  -5.97000 24.58200 28.60900
C  -5.35000 23.09600 30.65800
C  -5.43900 26.95900 31.15400
C  -4.95300 27.25100 32.58400
H  -4.67300 26.02100 33.55800
N  -6.29600 24.20100 25.60400
C  -7.06700 23.61000 26.58100
C  -7.98000 22.66800 25.94600
C  -7.68500 22.67800 24.52000
C  -6.60100 23.63400 24.36900
C  -8.98300 21.82200 26.72000
C  -8.24500 21.75700 23.44300
O  -7.96300 21.79700 22.23100
C  -9.26900 20.73700 23.83400
N  -4.17200 25.51100 23.91600
C  -4.84800 24.81200 22.95300
C  -4.44500 25.23400 21.53700
C  -3.29900 26.32500 21.78600
C  -3.41100 26.49200 23.34300
C  -4.13000 24.02200 20.57100
C  -3.43500 27.54600 20.82300
C  -2.50100 27.59600 19.60300
N  -3.20400 26.94800 26.27200
C  -2.32900 27.55800 25.39400
C  -1.46300 28.54600 26.02000
C  -1.67800 28.26100 27.42400
C  -2.75000 27.24900 27.48200
C  -0.42600 29.47100 25.41200
C  -1.29200 28.53700 28.84500
O  -0.46700 29.33800 29.29900
C  -2.35600 27.79300 29.73300
C  -1.68300 26.94600 30.81900
O  -1.63700 25.77200 30.85200
O  -1.11700 27.82400 31.75300
C  -0.75400 27.34200 33.03700
H  -7.62700 23.39900 28.71000
H  -6.35200 23.65400 22.21200
H  -1.89600 28.07500 23.41300
H  -4.11000 25.28400 31.09200
H  -6.84600 24.71300 30.49100
H  -6.13700 22.81600 31.35800
H  -4.39500 23.16400 31.17900
H  -5.33300 22.28700 29.92700
H  -6.52500 26.85900 31.15900
H  -5.36500 27.79300 30.45500
H  -5.71700 27.73100 33.19600
H  -3.99200 27.75700 32.48600
H  -8.72700 20.76700 26.61900
H  -10.00600 21.98000 26.38000
H  -8.86800 22.14200 27.75600
H  -9.74000 20.34500 22.93300
H  -10.10000 21.24000 24.32900
H  -8.79700 19.92400 24.38600
H  -5.28700 25.78700 21.12200
H  -2.29400 25.93600 21.61900
H  -4.13100 23.11800 21.18000
H  -3.15000 24.03100 20.09400
H  -4.98400 23.81100 19.92700
H  -3.43800 28.39800 21.50200
H  -4.42200 27.43400 20.37500
H  -3.22900 27.72800 18.80300
H  -2.03300 26.61600 19.51100
H  -1.87300 28.48700 19.58900
H  -0.87600 30.35300 24.95600
H  0.13700 29.08200 24.56400
H  0.32800 29.70800 26.16300
H  -2.96900 28.54800 30.22500
H  -1.38100 27.68600 33.86000
H  0.17400 27.83500 33.32500
H  -0.65800 26.25700 33.08000

