79

Mg -10.63300 17.38400 43.22200
C  -7.15900 18.17900 43.35700
C  -11.17600 20.75100 42.98300
C  -13.69500 16.73000 42.47600
C  -9.72400 13.87000 42.85000
N  -9.29900 19.28600 43.06900
C  -7.96700 19.31600 43.35700
C  -7.47000 20.74700 43.32600
C  -8.77700 21.45100 43.72200
C  -9.80100 20.48900 43.25900
C  -8.91900 21.78900 45.22300
C  -6.89400 21.27900 41.94100
C  -5.38400 21.54300 41.73500
H  -4.83200 20.79000 40.48500
N  -12.13400 18.50600 42.51600
C  -12.15900 19.92300 42.51300
C  -13.44100 20.39100 42.00800
C  -14.27200 19.22000 41.82800
C  -13.36800 18.08300 42.29600
C  -13.71600 21.78300 41.63000
C  -15.66700 19.15300 41.19700
O  -16.21200 20.23700 40.89500
C  -16.37900 17.84300 40.98900
N  -11.58400 15.49100 42.36800
C  -12.87000 15.54400 42.63700
C  -13.42200 14.07900 42.92500
C  -12.16800 13.16200 42.72000
C  -11.10400 14.24700 42.59900
C  -14.28100 13.86600 44.23600
C  -12.06300 12.14500 41.48500
C  -13.28300 11.34100 41.00900
N  -8.89400 16.24100 43.13700
C  -8.72400 14.86500 43.03800
C  -7.33500 14.57900 43.29500
C  -6.68600 15.89800 43.32600
C  -7.69900 16.83000 43.29500
C  -6.70200 13.24600 43.26200
C  -5.39800 16.53100 43.46000
O  -4.33500 16.06800 43.56600
C  -5.61900 18.03400 43.50400
C  -5.17900 18.52400 44.80000
O  -5.61800 18.11700 45.87400
O  -4.36000 19.60000 44.63600
C  -4.03000 20.31400 45.81600
H  -11.34700 21.82600 43.06300
H  -14.74500 16.53400 42.70400
H  -9.44700 12.81700 42.93800
H  -6.76500 20.96800 44.12800
H  -9.01600 22.35800 43.16700
H  -8.88600 22.87800 45.24400
H  -8.10500 21.35400 45.80200
H  -9.93500 21.55200 45.53800
H  -7.48900 22.11500 41.57300
H  -7.27400 20.52000 41.25700
H  -4.87600 21.28900 42.66500
H  -5.22300 22.59200 41.48700
H  -14.24700 22.19100 42.49100
H  -14.38200 21.81100 40.76800
H  -12.84400 22.42600 41.51000
H  -15.76300 17.14500 40.42100
H  -17.21100 18.21200 40.39000
H  -16.84000 17.37700 41.86000
H  -14.00600 13.82600 42.04000
H  -11.97400 12.56100 43.60800
H  -15.27900 13.47900 44.03400
H  -14.55500 14.88100 44.52400
H  -13.80900 13.24600 44.99900
H  -11.29400 11.41200 41.73000
H  -11.92900 12.78400 40.61200
H  -14.12600 11.33700 41.70000
H  -12.97800 10.30600 40.85600
H  -13.56600 11.60400 39.99000
H  -7.00200 12.68400 42.37800
H  -6.96000 12.78800 44.21700
H  -5.61300 13.22600 43.30300
H  -5.02400 18.47000 42.70100
H  -4.82000 21.05800 45.92600
H  -3.13300 20.90500 45.62900
H  -3.93900 19.69200 46.70600

