79

Mg 1.61400 -1.12500 44.45300
C  4.96300 0.04600 44.02700
C  0.57300 1.76300 42.78300
C  -1.35000 -2.51700 44.31100
C  3.02200 -4.01100 45.97200
N  2.64900 0.69400 43.56000
C  3.99500 0.85200 43.44000
C  4.21000 2.16500 42.73100
C  2.89600 2.90500 42.73900
C  1.99500 1.65900 42.95900
C  2.78900 3.99900 43.88100
C  4.89000 1.86900 41.27100
C  6.29600 2.54000 41.02700
H  7.38300 1.68100 40.33300
N  -0.14700 -0.51100 43.67900
C  -0.38900 0.76600 43.11200
C  -1.75900 0.78200 42.63900
C  -2.39900 -0.42300 43.10300
C  -1.33700 -1.20500 43.76500
C  -2.37000 1.97700 41.94000
C  -3.84300 -0.74100 42.93500
O  -4.61100 0.12100 42.42400
C  -4.37900 -2.12600 43.19800
N  1.00100 -3.07900 44.87900
C  -0.33600 -3.34300 44.89500
C  -0.74000 -4.68400 45.51800
C  0.71000 -5.21900 46.00900
C  1.68300 -4.05400 45.68100
C  -1.82300 -4.59000 46.61400
C  1.12500 -6.57100 45.32800
C  1.75400 -7.62000 46.27800
N  3.56100 -1.88800 44.81900
C  3.94600 -3.00600 45.48300
C  5.37300 -3.08100 45.62300
C  5.83100 -1.83600 45.09500
C  4.68600 -1.17900 44.58200
C  6.14800 -4.22000 46.13600
C  7.01100 -0.97900 44.84500
O  8.18700 -1.15000 45.12500
C  6.46800 0.27000 44.01600
C  6.85900 1.42200 44.96000
O  6.10500 1.92000 45.78800
O  8.08200 1.91000 44.59900
C  8.52900 3.03100 45.44600
H  0.29200 2.63900 42.19500
H  -2.34900 -2.89300 44.54400
H  3.41800 -4.92500 46.42000
H  4.93700 2.79900 43.23800
H  2.69500 3.32100 41.75200
H  3.70300 4.30100 44.39300
H  2.20300 3.69000 44.74600
H  2.39200 4.90000 43.41400
H  4.24100 2.36300 40.54800
H  4.70200 0.84900 40.93400
H  6.75400 2.81900 41.97600
H  6.22700 3.48100 40.48200
H  -2.98400 2.55800 42.62700
H  -2.91000 1.60000 41.07100
H  -1.62800 2.62700 41.47800
H  -3.94800 -2.86300 42.52100
H  -5.45200 -2.16600 43.01000
H  -4.23600 -2.42200 44.23700
H  -1.07000 -5.23300 44.63600
H  0.64000 -5.35400 47.08800
H  -1.55500 -4.84100 47.64000
H  -2.70800 -5.13400 46.28200
H  -2.16700 -3.56300 46.73100
H  1.87900 -6.33900 44.57500
H  0.23000 -6.91900 44.81300
H  2.77900 -7.76600 45.93600
H  1.30600 -8.61100 46.34800
H  1.86400 -7.24100 47.29400
H  7.01200 -3.75100 46.60600
H  6.40900 -4.88700 45.31400
H  5.57100 -4.69900 46.92700
H  6.84400 0.47400 43.01300
H  8.30400 4.05700 45.15300
H  9.61400 2.96700 45.51800
H  8.16700 3.00900 46.47400

