79

Mg 41.19400 7.74500 29.70000
C  42.51900 9.30300 32.65400
C  38.85100 6.16800 31.75400
C  40.18100 6.09400 27.06800
C  43.72300 9.23700 27.99800
N  40.66400 7.80800 31.99900
C  41.38600 8.49700 32.93700
C  40.68900 8.28000 34.34000
C  39.57600 7.15300 34.04900
C  39.69700 6.98000 32.53700
C  39.55300 5.85400 34.93600
C  40.03400 9.55500 35.06100
C  40.04100 9.40600 36.54000
H  40.15600 10.72700 37.32100
N  39.56100 6.45200 29.40600
C  38.80300 5.91200 30.39500
C  37.84400 5.06800 29.72200
C  38.12000 5.02600 28.26900
C  39.38000 5.81200 28.17700
C  36.62100 4.44500 30.49500
C  37.35800 4.39600 27.17800
O  37.71000 4.44800 26.00400
C  36.09800 3.64500 27.52100
N  41.84300 7.71900 27.80500
C  41.31200 6.88600 26.85400
C  41.96700 6.92800 25.42400
C  42.97500 8.09300 25.66300
C  42.87100 8.41600 27.19100
C  42.66200 5.58400 25.04100
C  42.72800 9.28900 24.73600
C  41.38900 10.09100 25.19300
N  42.76900 8.91700 30.17300
C  43.68200 9.46300 29.32200
C  44.66800 10.20300 30.10100
C  44.25000 10.09400 31.46500
C  43.09900 9.31900 31.41400
C  45.82000 10.87900 29.58000
C  44.52000 10.59600 32.77200
O  45.47900 11.31000 33.08100
C  43.34200 10.08200 33.58700
C  43.84000 9.33400 34.77200
O  44.35300 8.23500 34.78200
O  43.66900 10.06400 35.84700
C  44.02400 9.41200 37.15800
H  38.06400 5.68500 32.33700
H  39.78100 5.57100 26.19700
H  44.50000 9.64400 27.34800
H  41.33600 7.69100 34.98900
H  38.60400 7.62600 34.18600
H  39.88500 5.02600 34.31000
H  38.54300 5.67200 35.30400
H  40.21000 5.87800 35.80600
H  38.99800 9.73500 34.77600
H  40.66900 10.37400 34.72400
H  40.70900 8.60200 36.84800
H  39.03500 9.04100 36.74600
H  35.75800 4.97600 30.09300
H  36.60400 4.52900 31.58200
H  36.60400 3.36900 30.32200
H  36.37800 2.83500 28.19500
H  35.76700 3.19900 26.58300
H  35.29700 4.26100 27.92900
H  41.15700 7.05500 24.70500
H  44.02800 7.83500 25.55000
H  42.27900 4.74700 25.62500
H  43.74700 5.48700 25.08200
H  42.30200 5.41200 24.02700
H  42.71000 8.83600 23.74400
H  43.69200 9.79800 24.75600
H  40.86900 9.68500 26.06100
H  40.71000 9.94400 24.35300
H  41.70600 11.12700 25.30700
H  45.95800 11.91000 29.90500
H  45.85600 10.72900 28.50100
H  46.59200 10.26700 30.04800
H  42.80200 10.95600 33.95000
H  45.06500 9.10300 37.06700
H  43.43000 8.55600 37.47800
H  43.91500 10.09400 38.00100

