79

Mg 43.43400 3.70900 47.11000
C  41.03400 6.19200 46.78300
C  40.91900 1.40100 47.11500
C  45.76000 1.22800 46.93900
C  45.82400 6.04600 46.42900
N  41.18200 3.79500 46.66500
C  40.42700 4.93300 46.76400
C  38.98400 4.59100 46.88800
C  39.05600 3.07300 47.42200
C  40.44100 2.69500 46.97300
C  38.84500 2.93500 48.90500
C  38.22800 4.75000 45.52900
C  37.24900 5.95100 45.43700
H  36.60000 6.14900 44.07700
N  43.40700 1.53800 47.01400
C  42.22600 0.83900 47.20200
C  42.53500 -0.54300 47.39300
C  43.96000 -0.62800 47.32600
C  44.45600 0.72000 47.07500
C  41.57000 -1.67100 47.41800
C  44.81400 -1.89300 47.43500
O  44.25700 -2.98000 47.74600
C  46.28600 -1.93900 47.16300
N  45.49300 3.75800 46.72700
C  46.22800 2.55100 46.78500
C  47.76200 2.83800 46.66600
C  47.69100 4.40900 46.36000
C  46.23300 4.73500 46.48300
C  48.53800 2.48000 48.01000
C  48.38200 4.75400 44.95900
C  47.69700 4.00400 43.76700
N  43.47800 5.69900 46.72900
C  44.50400 6.49600 46.47800
C  44.08700 7.88100 46.54800
C  42.68200 7.84000 46.71300
C  42.42400 6.48400 46.71500
C  45.00100 9.08800 46.56300
C  41.41600 8.55800 46.84600
O  41.20300 9.79300 47.01000
C  40.38800 7.50000 46.88900
C  39.51400 7.59400 48.14600
O  39.84200 7.38100 49.28200
O  38.27900 8.05400 47.75500
C  37.41600 8.32700 48.84600
H  40.17300 0.66100 47.41400
H  46.63200 0.58800 47.08400
H  46.64000 6.76900 46.37100
H  38.54800 5.32500 47.56500
H  38.29100 2.54500 46.85300
H  38.35500 3.82100 49.30700
H  39.81100 2.78000 49.38400
H  38.07800 2.18300 49.09300
H  37.68300 3.83300 45.30700
H  39.00000 4.94200 44.78400
H  37.73800 6.90100 45.65000
H  36.50000 5.85600 46.22300
H  41.68300 -2.26300 46.51000
H  40.52800 -1.36200 47.32800
H  41.69800 -2.39500 48.22300
H  46.93900 -1.42900 47.87200
H  46.42600 -1.41500 46.21800
H  46.65700 -2.96400 47.16000
H  48.08300 2.24000 45.81300
H  48.27900 4.97700 47.08100
H  47.73500 2.10200 48.64300
H  49.13400 3.30000 48.41100
H  49.25300 1.72500 47.68300
H  49.44800 4.53200 45.00200
H  48.27600 5.82400 44.78100
H  47.13900 4.74900 43.19900
H  47.04000 3.25400 44.20800
H  48.41800 3.53400 43.09800
H  45.96800 8.85600 47.01000
H  44.45300 9.80300 47.17600
H  45.16900 9.38700 45.52900
H  39.77600 7.76300 46.02700
H  36.61100 8.86200 48.34100
H  37.87100 9.01900 49.55400
H  37.07100 7.35700 49.20400

