79

Mg 15.91800 52.06100 25.02800
C  17.86400 51.20300 27.78300
C  13.36400 52.95200 27.13500
C  14.10000 52.76100 22.26200
C  18.52400 50.90300 22.89700
N  15.57500 51.86800 27.25100
C  16.59900 51.67500 28.18000
C  16.01700 51.98800 29.57400
C  14.51900 52.26000 29.37100
C  14.47400 52.36900 27.82500
C  13.51500 51.14600 29.92000
C  16.71200 53.17300 30.26300
C  16.56900 53.30100 31.83600
H  15.76300 52.18700 32.49300
N  14.00800 52.89200 24.75100
C  13.14100 53.18400 25.73100
C  11.95100 53.72900 25.09200
C  12.03800 53.56000 23.70000
C  13.41300 53.00300 23.52700
C  10.92200 54.43100 25.85600
C  11.08600 53.79900 22.58100
O  11.38500 53.71100 21.37500
C  9.72000 54.19000 22.87700
N  16.27400 51.89300 22.90100
C  15.33700 52.17300 21.98800
C  15.86700 52.02900 20.60400
C  17.30400 51.58600 20.78500
C  17.43600 51.49600 22.28800
C  15.01200 51.01800 19.84800
C  18.43900 52.52700 20.21100
C  19.72800 51.86900 19.62100
N  17.77700 51.14800 25.23300
C  18.76200 50.78800 24.28500
C  19.86300 50.25500 25.03500
C  19.53500 50.35400 26.41700
C  18.25500 50.92600 26.43200
C  21.02900 49.57900 24.46700
C  20.05000 50.11600 27.72200
O  21.14800 49.63800 28.08700
C  18.96900 50.61500 28.72900
C  18.38700 49.46500 29.44400
O  17.85800 48.46800 28.96900
O  18.76700 49.57200 30.76700
C  18.43600 48.36500 31.61600
H  12.53900 53.25000 27.78600
H  13.53500 52.85600 21.33200
H  19.25100 50.50500 22.18700
H  16.25200 51.05000 30.07900
H  14.28200 53.25700 29.74200
H  14.00800 50.21800 30.21100
H  12.88400 50.82500 29.09100
H  12.87000 51.53900 30.70500
H  16.12400 54.05500 30.01200
H  17.71800 53.41100 29.91700
H  16.21200 54.31300 32.02900
H  17.60800 53.15800 32.13300
H  10.89700 55.45700 25.48800
H  11.11900 54.47700 26.92700
H  9.90700 54.03400 25.84900
H  9.01900 54.07200 22.05100
H  9.75600 55.26700 23.04400
H  9.34400 53.53000 23.65900
H  15.88200 52.99700 20.10400
H  17.43000 50.61000 20.31700
H  15.45600 50.04500 19.63700
H  14.65400 51.36900 18.87900
H  14.04800 50.76100 20.28600
H  18.78400 53.15200 21.03600
H  18.14800 53.23100 19.43100
H  19.47600 50.92900 19.13100
H  20.30500 51.70500 20.53100
H  20.40900 52.55600 19.11800
H  21.58900 49.19700 25.32000
H  21.61400 50.33400 23.94200
H  20.68500 48.80500 23.78100
H  19.38300 51.32400 29.44700
H  18.80500 47.40700 31.25000
H  17.35300 48.32300 31.73800
H  18.84100 48.43800 32.62600

