79

Mg -1.52300 17.39000 25.99700
C  -1.88400 15.05400 28.68200
C  -2.74000 19.81300 28.24300
C  -2.06100 19.30400 23.41600
C  -1.34000 14.62800 23.71200
N  -2.34800 17.39300 28.19900
C  -2.27800 16.29600 29.09300
C  -2.65500 16.77200 30.53500
C  -3.10500 18.24100 30.22500
C  -2.71500 18.58300 28.80100
C  -4.63000 18.36600 30.46000
C  -1.41600 16.76500 31.59100
C  -1.61700 15.73800 32.79900
H  -2.22300 16.27600 34.10900
N  -2.01000 19.37500 25.92400
C  -2.50700 20.15600 26.89100
C  -2.50200 21.54800 26.22700
C  -2.22700 21.33100 24.85500
C  -2.08300 19.96900 24.68600
C  -2.94500 22.82400 26.96800
C  -2.14300 22.37200 23.69700
O  -1.88300 22.11000 22.51600
C  -2.38600 23.81100 24.02300
N  -1.85300 16.94900 23.75800
C  -1.99600 18.00100 22.94800
C  -2.19000 17.55900 21.51400
C  -1.71100 16.07300 21.60100
C  -1.64400 15.82800 23.13200
C  -3.65000 17.62600 21.00500
C  -0.21900 15.76900 21.10100
C  0.98300 16.31100 21.87300
N  -1.51200 15.22600 26.16100
C  -1.42400 14.27300 25.14100
C  -1.59500 12.97300 25.76500
C  -1.53600 13.25200 27.14300
C  -1.64800 14.64600 27.34200
C  -1.39700 11.71500 24.99400
C  -1.55100 12.60400 28.44600
O  -1.48200 11.44600 28.71400
C  -1.72600 13.77000 29.48700
C  -0.44800 13.86900 30.27800
O  0.51600 14.52900 29.97700
O  -0.49500 13.10000 31.41700
C  0.79900 12.99400 32.16900
H  -2.96900 20.60100 28.96300
H  -2.25800 19.89200 22.51800
H  -1.19400 13.86700 22.94200
H  -3.40000 15.99800 30.72300
H  -2.55200 18.97100 30.81600
H  -5.08000 17.37800 30.55900
H  -5.13400 18.96100 29.69800
H  -4.68000 18.81700 31.45100
H  -1.40000 17.69400 32.16100
H  -0.44800 16.67500 31.09900
H  -0.64300 15.31500 33.04400
H  -2.31800 14.98900 32.43000
H  -3.44700 22.47700 27.87200
H  -3.71000 23.46800 26.53400
H  -2.16700 23.51300 27.29800
H  -1.63200 24.03500 24.77800
H  -3.40400 23.95800 24.38300
H  -2.30600 24.42700 23.12700
H  -1.52900 18.17400 20.90500
H  -2.45900 15.37500 21.22500
H  -4.31300 17.84400 21.84200
H  -4.03700 16.68100 20.62300
H  -3.63100 18.36800 20.20800
H  -0.07900 16.29700 20.15800
H  -0.13200 14.68400 21.04800
H  0.72300 17.19900 22.44900
H  1.77900 16.56000 21.17100
H  1.36100 15.49100 22.48300
H  -1.13300 11.82100 23.94200
H  -2.37400 11.23400 25.04400
H  -0.76600 11.06600 25.60000
H  -2.54400 13.54900 30.17200
H  0.85300 11.94700 32.46600
H  0.79500 13.60100 33.07400
H  1.69300 13.19500 31.57800

