79

Mg 8.59300 3.81300 27.64000
C  10.07300 2.52300 30.47900
C  6.66000 5.89100 29.49900
C  7.29600 5.03700 24.65600
C  10.29300 1.32200 25.81200
N  8.36600 4.12600 29.74400
C  9.20200 3.54300 30.77300
C  8.62900 3.95700 32.14000
C  7.35900 4.77100 31.79100
C  7.40700 4.98100 30.24600
C  5.98600 4.13600 32.22400
C  9.69000 4.69100 33.02400
C  9.31700 5.23100 34.41000
H  9.84300 4.56300 35.69400
N  7.19100 5.28400 27.14500
C  6.52900 6.03300 28.09200
C  5.62500 6.91400 27.41200
C  5.83100 6.74700 25.98400
C  6.84400 5.71100 25.80100
C  4.67100 7.77500 28.15900
C  5.07600 7.48900 24.86700
O  5.28500 7.16800 23.73200
C  4.14300 8.55400 25.21700
N  8.80100 3.31700 25.49500
C  8.19200 3.97900 24.50100
C  8.65700 3.41200 23.11900
C  9.42000 2.13600 23.50400
C  9.54100 2.24400 25.01900
C  7.48700 3.32500 22.06100
C  10.72100 1.86100 22.73100
C  10.66500 0.42600 22.06900
N  9.88900 2.25100 28.01100
C  10.51200 1.33400 27.19300
C  11.43300 0.50200 27.88800
C  11.33600 0.93200 29.18800
C  10.33700 1.95500 29.24800
C  12.31500 -0.68800 27.36300
C  11.80200 0.77300 30.62800
O  12.66200 0.02300 31.06700
C  10.95100 1.76400 31.49200
C  10.08900 1.02300 32.59200
O  9.00000 0.62700 32.44500
O  10.79600 1.06100 33.81800
C  10.16900 0.23400 34.91800
H  6.16500 6.46300 30.28600
H  6.93000 5.37400 23.68400
H  10.96100 0.64700 25.27200
H  8.31800 3.06500 32.68400
H  7.48800 5.73400 32.28400
H  6.09100 3.10800 32.57300
H  5.34600 4.07000 31.34400
H  5.51800 4.77300 32.97500
H  10.01800 5.61900 32.55600
H  10.48100 3.95700 33.18500
H  8.22900 5.28600 34.42900
H  9.69200 6.25400 34.43300
H  3.71000 7.35800 27.85800
H  4.75100 8.83600 27.92300
H  4.57200 7.75700 29.24500
H  3.84100 9.07100 24.30600
H  4.53900 9.27400 25.93200
H  3.28600 8.11700 25.73100
H  9.36500 4.16100 22.76500
H  8.69700 1.34200 23.31600
H  6.54500 3.58400 22.54600
H  7.60200 2.26900 21.81600
H  7.49400 3.88900 21.12800
H  11.50000 1.98400 23.48400
H  10.75800 2.66500 21.99500
H  11.29400 0.43100 21.17900
H  9.70000 0.09500 21.68500
H  11.00800 -0.31600 22.79000
H  12.32400 -0.84500 26.28500
H  11.74000 -1.56400 27.66500
H  13.30500 -0.57800 27.80500
H  11.62200 2.45800 31.99900
H  9.93500 -0.72900 34.46400
H  9.30400 0.73600 35.35200
H  10.96000 -0.04600 35.61400

