79

Mg 26.06800 52.29200 25.56100
C  23.94200 52.95300 28.37900
C  28.46700 51.48100 27.76300
C  28.20100 52.33100 22.97300
C  23.56600 53.52000 23.45200
N  26.21600 52.36200 27.90000
C  25.18800 52.48700 28.75700
C  25.60600 52.05400 30.17900
C  27.12700 51.62000 29.95800
C  27.33700 51.82600 28.46100
C  28.09600 52.47100 30.81400
C  24.82500 50.94600 30.93400
C  24.25800 51.24600 32.34900
H  24.74500 50.47800 33.62500
N  28.11500 52.00700 25.42500
C  28.90900 51.65100 26.40500
C  30.21400 51.34600 25.85300
C  30.15900 51.57900 24.40300
C  28.81700 51.98300 24.22500
C  31.36100 50.67000 26.72500
C  31.22600 51.34100 23.32700
O  31.09500 51.59900 22.14800
C  32.54300 51.01900 23.83700
N  25.95800 52.79700 23.55400
C  26.93700 52.71400 22.62400
C  26.48200 53.17900 21.18600
C  24.95300 53.14600 21.40800
C  24.81500 53.20200 22.91700
C  26.98100 54.58100 20.78600
C  24.33800 51.86200 20.82600
C  23.92600 51.89200 19.38900
N  24.16600 53.05800 25.72100
C  23.19400 53.39500 24.75200
C  21.95100 53.71200 25.46600
C  22.23600 53.56900 26.85300
C  23.56200 53.15300 26.97500
C  20.64500 53.97200 24.81100
C  21.62700 53.61600 28.17900
O  20.54900 53.97700 28.63000
C  22.76800 53.11200 29.16500
C  22.86800 54.24200 30.10100
O  23.61200 55.20100 30.03400
O  22.04700 54.01000 31.15000
C  22.22700 54.86300 32.42400
H  29.19600 51.01000 28.42700
H  28.73100 52.36500 22.01900
H  22.77000 53.80800 22.76200
H  25.50000 52.99500 30.71900
H  27.30600 50.58200 30.23600
H  28.77500 51.85700 31.40600
H  27.51100 53.15900 31.42500
H  28.75800 53.09000 30.20900
H  25.43000 50.08300 31.21200
H  23.94300 50.72300 30.33400
H  23.17000 51.19000 32.39200
H  24.44000 52.29800 32.56800
H  31.73400 49.79300 26.19600
H  31.12900 50.40900 27.75700
H  32.21400 51.34300 26.81700
H  32.53700 49.97900 24.16500
H  32.76500 51.74600 24.61800
H  33.27600 51.27100 23.07100
H  26.72400 52.43400 20.42800
H  24.46300 54.01400 20.96700
H  26.90400 54.50300 19.70100
H  28.03500 54.58800 21.06200
H  26.41100 55.41300 21.20000
H  23.36900 51.77000 21.31700
H  24.89000 50.99700 21.19500
H  24.36400 52.70500 18.81000
H  22.84700 51.84600 19.23700
H  24.29400 51.02000 18.85000
H  20.70900 53.61900 23.78200
H  20.48900 55.03700 24.64300
H  19.90700 53.44100 25.41300
H  22.57600 52.24800 29.80100
H  22.91700 54.27400 33.02900
H  21.23300 54.96700 32.85900
H  22.57500 55.88000 32.24500

