79

Mg 47.23700 16.45600 28.33900
C  44.97600 15.98300 31.09000
C  49.23300 18.21300 30.38100
C  48.90800 17.53200 25.72000
C  44.68000 15.23500 26.28600
N  47.01200 17.25100 30.44300
C  46.12500 16.71600 31.38900
C  46.53000 17.18800 32.81700
C  47.75800 18.21000 32.46800
C  47.96000 17.98900 30.98900
C  47.60000 19.74400 32.85400
C  46.81700 16.01500 33.67400
C  46.20700 16.12400 35.10200
H  46.10700 17.53200 35.86400
N  48.93600 17.42500 28.14700
C  49.66600 18.01600 29.09600
C  50.99100 18.39400 28.61400
C  50.88400 18.27700 27.18500
C  49.53800 17.68400 26.93500
C  52.13500 18.92700 29.48800
C  51.92200 18.65300 26.10100
O  51.77700 18.39800 24.95200
C  53.11300 19.37300 26.44600
N  46.82000 16.34700 26.35400
C  47.68400 16.92600 25.44700
C  47.12500 16.91700 24.00200
C  45.89200 15.94700 24.16600
C  45.79500 15.81100 25.67000
C  46.74700 18.32100 23.54200
C  46.15500 14.55800 23.53800
C  44.85900 14.00100 22.88300
N  45.26100 15.63500 28.62900
C  44.44100 15.07200 27.65800
C  43.23300 14.58200 28.32100
C  43.37400 14.87500 29.68400
C  44.62900 15.58900 29.80700
C  42.08300 13.91700 27.59900
C  42.80600 14.78000 31.01600
O  41.77700 14.24000 31.45800
C  43.80900 15.61300 31.93700
C  43.03300 16.81200 32.36900
O  42.47000 17.58300 31.59700
O  42.83400 16.88700 33.76200
C  41.99900 18.06800 34.11900
H  49.82000 18.77700 31.10900
H  49.38800 17.82400 24.78400
H  43.94000 14.79800 25.61300
H  45.72600 17.79700 33.23100
H  48.63500 17.78100 32.95300
H  46.80300 19.90000 33.58100
H  47.37500 20.35800 31.98300
H  48.57800 20.10700 33.17100
H  47.89700 15.98400 33.81200
H  46.44500 15.08200 33.24900
H  46.64000 15.36300 35.75200
H  45.20500 15.79900 34.82300
H  52.12600 20.01500 29.42100
H  53.12300 18.59800 29.16700
H  51.89500 18.79600 30.54400
H  52.97500 20.43700 26.64000
H  53.65600 19.29700 25.50400
H  53.77400 18.82600 27.11800
H  47.82900 16.54200 23.25900
H  45.07900 16.40200 23.60100
H  45.68700 18.52700 23.39500
H  47.15100 18.57600 22.56200
H  46.98600 19.11400 24.25000
H  46.70200 13.98900 24.29100
H  46.87800 14.69600 22.73400
H  44.67100 12.98800 23.23900
H  45.03900 13.95300 21.81000
H  43.90100 14.50500 23.01500
H  41.15700 13.83800 28.16900
H  42.40600 12.94600 27.22300
H  41.79900 14.50900 26.72800
H  44.03600 14.98800 32.80100
H  42.61300 18.93200 33.86300
H  41.71500 18.12400 35.16900
H  41.09300 18.18900 33.52400

