79

Mg 25.90400 -0.34700 28.98500
C  27.83600 -0.30500 31.93600
C  23.12400 -0.07800 30.93400
C  24.09100 -0.33700 26.17700
C  28.72900 -1.39300 27.19800
N  25.56400 -0.37300 31.29400
C  26.46500 -0.07700 32.25900
C  25.88200 0.17800 33.68400
C  24.36900 0.16000 33.27000
C  24.34400 -0.10900 31.68800
C  23.47400 -0.96800 34.02500
C  26.48500 1.36900 34.42300
C  27.09200 1.24100 35.72700
H  26.78200 2.22800 36.86700
N  23.84900 -0.22800 28.62100
C  22.88100 -0.08900 29.55800
C  21.62800 0.11500 28.88000
C  21.86500 0.17700 27.48500
C  23.28200 -0.16800 27.36900
C  20.32700 0.16900 29.67800
C  20.98700 0.39300 26.27800
O  21.39600 0.41300 25.11200
C  19.52700 0.61500 26.48800
N  26.35900 -0.87700 26.92700
C  25.42900 -0.66400 25.91400
C  26.05900 -0.92700 24.58900
C  27.56200 -1.22600 24.96600
C  27.55400 -1.17600 26.43400
C  25.49000 -1.87900 23.53700
C  28.63700 -0.37600 24.16900
C  28.97900 1.01600 24.69400
N  27.90000 -0.79000 29.39500
C  28.91400 -1.22300 28.56700
C  30.19800 -1.26000 29.37500
C  29.77500 -0.87900 30.62200
C  28.41300 -0.67000 30.63600
C  31.58400 -1.58300 28.85100
C  30.31200 -0.65200 31.93000
O  31.46300 -0.82400 32.28700
C  29.05100 -0.30600 32.80200
C  28.83800 -1.35400 33.81300
O  28.32200 -2.45500 33.64000
O  29.41400 -0.93400 35.00400
C  29.31600 -1.77800 36.20700
H  22.34200 0.00400 31.69100
H  23.59500 -0.23000 25.21000
H  29.59200 -1.58700 26.55900
H  26.07900 -0.79200 34.13900
H  23.83400 1.10900 33.30000
H  23.98300 -1.32300 34.92200
H  23.40900 -1.80900 33.33600
H  22.43100 -0.73000 34.23600
H  25.78400 2.20300 34.44600
H  27.27700 1.83300 33.83500
H  28.17100 1.11900 35.63700
H  26.85400 0.23600 36.07500
H  20.58100 0.39600 30.71300
H  19.83800 -0.79100 29.50600
H  19.80700 1.01500 29.22800
H  19.05800 0.66500 25.50500
H  19.32100 1.48400 27.11300
H  19.21600 -0.33700 26.91800
H  26.18500 0.02900 24.08100
H  27.80500 -2.28200 24.84900
H  26.29400 -2.37500 22.99300
H  24.88900 -1.29900 22.83700
H  24.81000 -2.60100 23.98700
H  28.37400 -0.41200 23.11200
H  29.53000 -1.00100 24.18500
H  29.97300 0.99200 25.14300
H  28.27600 1.20100 25.50600
H  28.95300 1.81800 23.95700
H  32.26500 -1.00000 29.47000
H  31.69200 -1.39000 27.78400
H  31.70100 -2.63000 29.13200
H  29.07600 0.70900 33.19800
H  29.34300 -2.84400 35.98500
H  28.39200 -1.62300 36.76300
H  30.26800 -1.57600 36.69800

