79

Mg 23.50300 -6.57700 46.17000
C  25.93000 -4.40800 44.97800
C  21.20500 -4.92900 44.06700
C  21.19400 -8.84700 46.99800
C  25.89700 -8.38200 47.86300
N  23.69800 -5.07900 44.41400
C  24.75900 -4.21100 44.30700
C  24.42000 -3.11600 43.23400
C  22.83100 -3.14700 43.32600
C  22.56400 -4.47900 43.97600
C  22.16400 -1.88100 44.11200
C  25.15800 -3.33700 41.88300
C  26.01400 -2.16100 41.30900
H  25.41800 -1.37600 40.24200
N  21.44800 -6.84300 45.68800
C  20.74300 -6.00800 44.86200
C  19.37700 -6.46800 44.79900
C  19.28400 -7.63100 45.58900
C  20.64200 -7.87600 46.16400
C  18.28500 -5.92600 43.80800
C  18.04000 -8.56500 45.77400
O  16.96500 -8.27600 45.36400
C  18.14800 -9.97600 46.43300
N  23.59400 -8.39600 47.21700
C  22.45900 -9.13700 47.47200
C  22.84000 -10.44900 48.19600
C  24.45500 -10.32400 48.48100
C  24.64400 -8.93300 47.95000
C  22.03500 -10.97200 49.46100
C  25.29500 -11.39800 47.87400
C  26.57700 -11.81700 48.59100
N  25.43000 -6.47900 46.46400
C  26.32200 -7.25000 47.17400
C  27.66000 -6.72600 47.01400
C  27.53400 -5.54100 46.26200
C  26.17400 -5.45000 45.85800
C  28.86200 -7.27400 47.53700
C  28.32700 -4.37800 45.82800
O  29.47400 -3.98900 45.97000
C  27.27500 -3.60000 44.94000
C  27.24300 -2.24100 45.49100
O  26.51400 -1.80700 46.37900
O  28.19900 -1.51600 44.85000
C  28.20800 -0.02400 45.16200
H  20.49100 -4.24100 43.60900
H  20.63000 -9.71600 47.34500
H  26.69400 -8.91500 48.38500
H  24.77600 -2.12100 43.50200
H  22.35600 -3.15400 42.34500
H  22.83600 -1.07200 43.82600
H  22.11900 -2.00300 45.19400
H  21.20100 -1.59900 43.68600
H  24.46500 -3.69600 41.12200
H  25.79500 -4.21000 42.03000
H  26.86900 -2.73100 40.94600
H  26.46000 -1.49700 42.04900
H  18.24800 -6.32700 42.79500
H  18.40600 -4.85100 43.67200
H  17.27200 -6.04500 44.19300
H  17.24900 -10.58700 46.35800
H  18.43000 -9.79900 47.47000
H  18.95600 -10.47500 45.89800
H  22.75000 -11.17600 47.38900
H  24.58800 -10.40000 49.56000
H  22.69700 -11.11400 50.31400
H  21.55400 -11.93200 49.27800
H  21.26700 -10.26600 49.77700
H  25.51100 -11.00800 46.88000
H  24.71600 -12.31500 47.76100
H  27.34200 -11.21300 48.10400
H  26.71100 -12.89900 48.56000
H  26.56300 -11.47100 49.62400
H  28.80200 -7.54500 48.59100
H  29.69000 -6.58700 47.36300
H  29.08900 -8.16100 46.94600
H  27.65700 -3.51100 43.92300
H  28.91700 0.42200 44.46500
H  28.53300 0.20100 46.17700
H  27.23100 0.45300 45.07300

