79

Mg 26.13200 -0.31000 29.15800
C  28.01900 -0.48600 32.19200
C  23.33900 0.34400 31.27200
C  24.26100 -0.18400 26.42300
C  28.93600 -0.94100 27.38000
N  25.73400 -0.18200 31.55700
C  26.71400 -0.08500 32.46300
C  26.16200 0.37800 33.80900
C  24.55800 0.48600 33.52900
C  24.47800 0.18100 32.02500
C  23.69300 -0.59600 34.30100
C  26.70400 1.69000 34.46800
C  26.03000 2.10700 35.79700
H  27.00800 2.24600 37.00100
N  24.03800 -0.12100 28.88600
C  23.11000 0.14200 29.88400
C  21.78600 0.15600 29.16400
C  22.00400 0.04600 27.76500
C  23.46100 -0.06900 27.60400
C  20.46700 0.28600 29.86400
C  21.02100 0.06600 26.67200
O  21.39800 0.00900 25.51100
C  19.47300 0.15500 26.85100
N  26.56000 -0.61500 27.17600
C  25.62400 -0.44000 26.21600
C  26.26500 -0.29500 24.84900
C  27.78700 -0.66800 25.12800
C  27.78800 -0.78800 26.63000
C  25.65100 -1.09800 23.70700
C  28.81300 0.34400 24.55300
C  30.06200 -0.35600 23.91900
N  28.04200 -0.75300 29.60300
C  29.12500 -1.00300 28.77800
C  30.30500 -1.25600 29.60400
C  29.90900 -1.14600 30.90800
C  28.51600 -0.81400 30.91000
C  31.63100 -1.50400 29.04000
C  30.41000 -1.10200 32.23800
O  31.56600 -1.42400 32.67300
C  29.18200 -0.65900 33.10100
C  28.95300 -1.76500 34.14600
O  28.11000 -2.64800 34.04100
O  29.65400 -1.46000 35.32900
C  29.71800 -2.44300 36.42000
H  22.46900 0.65200 31.85600
H  23.70500 -0.26000 25.48700
H  29.92000 -1.07800 26.92700
H  26.40000 -0.47800 34.43900
H  24.23700 1.50600 33.74000
H  23.77900 -0.58200 35.38800
H  23.95500 -1.61100 34.00300
H  22.63800 -0.39900 34.11100
H  26.38600 2.48700 33.79500
H  27.78600 1.71600 34.59900
H  25.25700 1.36800 36.01000
H  25.66300 3.08400 35.48100
H  19.94400 1.22700 29.69800
H  20.74600 0.26000 30.91700
H  19.79600 -0.53300 29.60400
H  18.98400 -0.53800 27.53500
H  19.02900 -0.06800 25.88100
H  19.28100 1.18200 27.16300
H  26.18100 0.75000 24.55200
H  27.95200 -1.70900 24.85000
H  24.87800 -1.70800 24.17500
H  26.25500 -1.81500 23.15100
H  25.20800 -0.38700 23.01000
H  29.24500 1.05800 25.25300
H  28.31500 0.90200 23.75900
H  30.99700 -0.05800 24.39400
H  30.07700 -0.29900 22.83100
H  29.93900 -1.41400 24.15100
H  32.22200 -0.61400 29.25800
H  31.58300 -1.60600 27.95600
H  32.06400 -2.34400 29.58300
H  29.44400 0.23600 33.66700
H  29.64300 -3.47500 36.07600
H  28.91600 -2.19500 37.11500
H  30.64200 -2.33600 36.98800

