79

Mg 8.23900 3.10500 26.96400
C  9.79700 1.62400 29.79000
C  6.85000 5.35700 29.12700
C  6.93100 4.52100 24.28300
C  9.62800 0.51600 24.90000
N  8.32400 3.46600 29.30800
C  9.02400 2.70700 30.18600
C  8.93300 3.36300 31.61300
C  7.76300 4.40700 31.38100
C  7.53500 4.39100 29.84600
C  6.46000 4.06900 32.22800
C  10.24800 3.87600 32.20700
C  10.04100 4.76800 33.48400
H  10.28900 3.90700 34.76500
N  7.03000 4.72700 26.76000
C  6.56900 5.53800 27.76000
C  5.93100 6.68400 27.12700
C  5.95900 6.44500 25.69300
C  6.68300 5.17800 25.53800
C  5.49200 7.91400 27.89000
C  5.51600 7.35400 24.56000
O  5.63000 7.12000 23.36000
C  4.92000 8.77100 24.90900
N  8.11000 2.43200 24.89700
C  7.62200 3.33700 23.99200
C  7.70000 2.76200 22.50400
C  8.74600 1.58500 22.65800
C  8.89200 1.50800 24.20900
C  6.21900 2.46000 21.91100
C  10.10300 1.86300 21.94200
C  10.50300 0.85400 20.73300
N  9.43700 1.41900 27.25000
C  9.91000 0.45400 26.32400
C  10.70500 -0.51300 27.04900
C  10.65800 -0.13100 28.40400
C  9.87700 1.03200 28.45200
C  11.49200 -1.66200 26.50600
C  11.18000 -0.40900 29.68700
O  11.90500 -1.28500 30.07900
C  10.65600 0.73400 30.68800
C  9.94500 0.06600 31.88400
O  8.79900 -0.33000 31.89600
O  10.75100 0.01700 33.08700
C  10.13600 -0.54600 34.34200
H  6.44700 6.10100 29.81700
H  6.70200 5.04100 23.35100
H  9.96400 -0.33200 24.29900
H  8.68800 2.56800 32.31800
H  8.01700 5.42600 31.67500
H  5.82500 3.55100 31.51000
H  5.87600 4.94600 32.50900
H  6.69000 3.44300 33.09100
H  10.89600 4.31900 31.45100
H  10.74000 2.97600 32.57500
H  9.02000 5.14100 33.56500
H  10.90800 5.40700 33.31200
H  6.09200 8.81500 27.75900
H  5.39300 7.65000 28.94300
H  4.44500 8.09000 27.64400
H  5.51800 9.26200 25.67700
H  3.92900 8.68000 25.35300
H  4.83800 9.49800 24.10100
H  8.17600 3.60000 21.99600
H  8.40000 0.70400 22.11700
H  5.49100 2.74600 22.67000
H  6.11800 1.39400 21.70700
H  6.03500 2.94400 20.95200
H  10.92700 1.78800 22.65200
H  10.20000 2.89200 21.59300
H  10.56600 1.53000 19.88000
H  9.71600 0.12200 20.55000
H  11.46500 0.36500 20.88700
H  11.74400 -1.61200 25.44600
H  10.87700 -2.54600 26.67100
H  12.40200 -1.78000 27.09400
H  11.39500 1.38400 31.15600
H  9.35800 -1.29900 34.21900
H  9.74800 0.28500 34.93000
H  10.98900 -0.86200 34.94200

