79

Mg 36.56000 49.23600 25.78500
C  36.42000 47.14500 28.61900
C  35.50100 51.81400 27.73700
C  35.99300 50.99200 23.04700
C  36.91300 46.26100 23.88000
N  35.89100 49.41300 27.90900
C  36.01800 48.45700 28.87200
C  35.86600 49.09800 30.33200
C  35.34700 50.52800 29.96500
C  35.67100 50.65500 28.45600
C  33.83900 50.79600 30.22400
C  37.23300 49.04400 31.09900
C  37.11000 48.72300 32.63900
H  35.67200 48.64100 33.26900
N  35.96100 51.18900 25.45800
C  35.52000 52.04000 26.38400
C  35.00800 53.22000 25.78800
C  35.13500 53.02100 24.38700
C  35.73300 51.72200 24.22000
C  34.39500 54.37000 26.59800
C  34.71500 53.93400 23.27200
O  35.03300 53.64100 22.12900
C  33.92900 55.23900 23.64500
N  36.53200 48.73900 23.80400
C  36.41400 49.67200 22.85000
C  36.58700 49.04400 21.49200
C  36.89200 47.57600 21.76500
C  36.84400 47.54400 23.22800
C  35.36000 49.15600 20.52900
C  38.13600 46.96900 21.11200
C  39.45100 46.84500 21.86500
N  36.83400 47.11400 26.10300
C  36.92400 45.99600 25.24200
C  37.11100 44.79500 26.02300
C  36.96800 45.24900 27.33700
C  36.72300 46.63100 27.34900
C  37.12100 43.42500 25.56800
C  36.80800 44.74400 28.71800
O  36.85400 43.64400 29.20100
C  36.42200 45.98700 29.61800
C  35.11200 45.63300 30.16400
O  34.02600 45.80800 29.66500
O  35.35300 45.07300 31.40300
C  34.21400 44.65400 32.23700
H  35.29700 52.59100 28.47700
H  35.78900 51.51700 22.11200
H  36.92000 45.42200 23.18100
H  35.02200 48.57900 30.78600
H  35.99200 51.29700 30.38900
H  33.49100 49.93400 30.79400
H  33.34400 50.87400 29.25600
H  33.85800 51.69400 30.84200
H  37.71700 50.01700 31.02600
H  37.97300 48.38800 30.64000
H  37.69400 49.37200 33.29100
H  37.60100 47.76700 32.82100
H  34.42600 54.12200 27.65900
H  33.33700 54.49800 26.36900
H  35.00300 55.21600 26.27900
H  33.05500 55.03000 24.26300
H  33.71900 55.74000 22.70000
H  34.66900 55.94700 24.01900
H  37.44900 49.53300 21.03900
H  36.03500 46.92200 21.60500
H  35.67300 49.82100 19.72400
H  34.52300 49.58600 21.07800
H  35.19300 48.15500 20.13200
H  38.26600 47.52300 20.18200
H  37.84400 45.93400 20.93400
H  39.97600 47.68800 21.41700
H  39.98700 45.93200 21.60500
H  39.34900 46.94100 22.94600
H  36.83900 43.27800 24.52500
H  36.49300 42.83400 26.23500
H  38.16800 43.12600 25.62500
H  37.18700 46.02100 30.39400
H  34.58500 44.64400 33.26100
H  33.83400 43.67600 31.94300
H  33.43000 45.39800 32.09100

