79

Mg 24.58300 -6.76500 48.44000
C  26.89100 -4.61900 47.07400
C  22.10600 -5.35200 46.16200
C  22.68200 -9.43900 48.89800
C  27.24300 -8.19800 50.38100
N  24.55900 -5.24500 46.77100
C  25.63400 -4.49500 46.39000
C  25.27100 -3.45200 45.33600
C  23.69700 -3.46300 45.42000
C  23.39400 -4.72500 46.21700
C  23.07500 -2.15800 45.92200
C  25.90100 -3.80700 43.93100
C  26.23200 -2.62100 42.98100
H  25.47900 -2.57000 41.64700
N  22.54900 -7.21300 47.77900
C  21.74000 -6.52900 46.88700
C  20.47000 -7.32800 46.78600
C  20.61100 -8.52500 47.56800
C  22.01300 -8.46700 48.09400
C  19.29100 -6.88200 45.91700
C  19.44300 -9.62400 47.75600
O  18.33100 -9.29100 47.33300
C  19.64300 -10.95400 48.48900
N  25.02300 -8.63700 49.39400
C  23.95300 -9.45500 49.49600
C  24.27400 -10.58300 50.58900
C  25.67500 -10.20100 51.13700
C  26.00300 -8.93700 50.27600
C  23.13400 -10.76400 51.69000
C  26.82600 -11.28800 50.83100
C  27.92800 -11.30700 51.86300
N  26.63300 -6.42700 48.76600
C  27.56400 -7.04600 49.54800
C  28.82500 -6.26100 49.50200
C  28.59600 -5.27100 48.54700
C  27.23800 -5.42000 48.16900
C  30.00600 -6.55600 50.33400
C  29.22800 -4.23000 47.79300
O  30.39000 -3.80300 47.65700
C  28.13200 -3.70300 46.89300
C  27.91900 -2.34700 47.40200
O  27.27600 -2.09200 48.38100
O  28.35900 -1.36800 46.48600
C  27.94700 0.00900 46.67900
H  21.32700 -4.82800 45.60500
H  22.10000 -10.33200 49.13800
H  28.05100 -8.69800 50.91800
H  25.59600 -2.44600 45.60200
H  23.23400 -3.67700 44.45600
H  23.28500 -1.96900 46.97500
H  21.99200 -2.07100 45.83400
H  23.53100 -1.45700 45.22200
H  25.25900 -4.51900 43.41200
H  26.74300 -4.47800 44.09900
H  27.30500 -2.73100 42.81900
H  26.19600 -1.65400 43.48300
H  19.48800 -5.89500 45.49900
H  18.39400 -6.73900 46.52000
H  19.09100 -7.66300 45.18300
H  20.51200 -11.42500 48.02900
H  18.79400 -11.63000 48.39000
H  19.87100 -10.80300 49.54400
H  24.44400 -11.45300 49.95500
H  25.55500 -9.83000 52.15500
H  23.68100 -11.25000 52.49800
H  22.35700 -11.40500 51.27500
H  22.63100 -9.84800 51.99900
H  27.38200 -11.09300 49.91400
H  26.35400 -12.26700 50.73900
H  27.93600 -12.31400 52.27800
H  27.82900 -10.48200 52.56900
H  28.86700 -11.13500 51.33800
H  30.44200 -7.53000 50.11300
H  29.76300 -6.51600 51.39500
H  30.76500 -5.79100 50.16500
H  28.46500 -3.65800 45.85600
H  27.38300 0.25000 47.57900
H  27.19400 0.22600 45.92100
H  28.73000 0.75700 46.55600

