79

Mg 44.04400 3.50000 47.96600
C  41.71400 5.97900 47.15500
C  41.56700 1.15700 47.84200
C  46.42800 1.14200 47.80300
C  46.53500 6.02000 47.56900
N  41.99000 3.61200 47.48900
C  41.22800 4.71200 47.15600
C  39.74100 4.27300 46.85100
C  39.70300 2.95200 47.65200
C  41.19400 2.49600 47.72100
C  39.03300 2.94300 49.10300
C  39.34400 4.24300 45.37100
C  38.16400 4.98500 44.73700
H  38.47800 5.62500 43.36300
N  43.95800 1.47400 47.83900
C  42.89300 0.68200 47.90200
C  43.27900 -0.75300 47.77200
C  44.72900 -0.75500 47.66100
C  45.09800 0.68100 47.79900
C  42.28000 -1.86400 47.68600
C  45.46300 -2.03300 47.53800
O  44.89200 -3.12900 47.60700
C  46.93100 -2.07900 47.49000
N  46.18000 3.52000 47.66400
C  47.00300 2.45900 47.71500
C  48.45400 2.82100 47.40700
C  48.41900 4.40000 47.47200
C  46.92700 4.67200 47.51200
C  49.62700 2.20300 48.17600
C  49.27900 5.25800 46.39200
C  50.19400 4.56100 45.38500
N  44.10700 5.59400 47.57100
C  45.22500 6.47100 47.42200
C  44.78000 7.88800 47.22400
C  43.40500 7.73100 47.14800
C  43.05100 6.33500 47.31200
C  45.64300 9.14300 47.03300
C  42.09200 8.34000 46.95600
O  41.85800 9.49600 46.71000
C  40.98800 7.26400 46.92900
C  40.11400 7.52600 48.17400
O  40.22800 6.97900 49.28300
O  39.02400 8.23500 47.72500
C  38.04100 8.27000 48.76600
H  40.79300 0.39600 47.71600
H  47.26600 0.46100 47.64800
H  47.31400 6.78400 47.60900
H  39.11800 4.92600 47.46300
H  39.15100 2.16700 47.13600
H  39.70000 2.66400 49.91800
H  38.30300 2.13400 49.08100
H  38.64400 3.93700 49.32400
H  39.12500 3.20100 45.13900
H  40.26000 4.49300 44.83700
H  37.88700 5.76600 45.44500
H  37.36100 4.24900 44.69900
H  41.25000 -1.50800 47.66400
H  42.34100 -2.46200 48.59500
H  42.43400 -2.57800 46.87600
H  47.35600 -1.44700 46.71000
H  47.23700 -3.12100 47.39700
H  47.12000 -1.66000 48.47800
H  48.76500 2.54300 46.40000
H  48.76300 4.73700 48.45000
H  49.23000 1.76300 49.09100
H  50.28700 2.94500 48.62600
H  50.21600 1.59300 47.49200
H  49.91600 5.83600 47.06100
H  48.71600 5.95700 45.77400
H  50.46700 3.56600 45.73500
H  51.05100 5.23200 45.32600
H  49.68900 4.57300 44.41900
H  46.10900 9.59400 47.90900
H  45.08100 9.96500 46.58900
H  46.46600 8.89500 46.36300
H  40.35600 7.23200 46.04100
H  37.90600 7.24600 49.11400
H  37.08400 8.54700 48.32300
H  38.21100 8.95400 49.59700

