79

Mg 8.52500 3.63700 27.37600
C  10.00100 2.09100 30.21200
C  6.48100 5.44600 29.48000
C  6.98800 4.97200 24.64400
C  10.30300 1.53800 25.22100
N  8.30500 3.72600 29.61100
C  8.98700 2.96700 30.55200
C  8.53500 3.47500 31.98000
C  7.46300 4.53900 31.70800
C  7.37700 4.56400 30.13500
C  6.09000 4.25500 32.37700
C  9.79800 3.94500 32.80600
C  9.66500 5.07400 33.81700
H  10.26200 4.86900 35.25700
N  6.99700 5.01000 27.14300
C  6.28200 5.62500 28.10000
C  5.39200 6.58900 27.46500
C  5.77600 6.64900 26.10800
C  6.58500 5.44800 25.90400
C  4.36800 7.34900 28.29200
C  5.24300 7.55700 25.05200
O  5.38700 7.33300 23.86400
C  4.65100 8.84800 25.41200
N  8.39600 3.09700 25.14700
C  7.83700 3.87500 24.25600
C  8.31800 3.57000 22.83900
C  9.35800 2.41600 23.06000
C  9.36300 2.32200 24.54100
C  7.06800 3.10700 21.85700
C  10.75600 2.73100 22.47900
C  11.51400 1.61300 21.80200
N  9.78900 2.16400 27.58000
C  10.50700 1.45400 26.65100
C  11.39100 0.41400 27.27400
C  11.24900 0.76400 28.65500
C  10.25400 1.76100 28.80300
C  12.22600 -0.56900 26.51100
C  11.66400 0.29800 30.00800
O  12.43200 -0.55000 30.38200
C  11.00000 1.28500 31.01900
C  10.21500 0.47700 32.03600
O  9.18800 -0.18200 31.79000
O  10.84000 0.59100 33.30000
C  10.03100 0.08900 34.39200
H  5.75200 6.03800 30.03800
H  6.61300 5.49600 23.76200
H  10.84100 0.82300 24.59600
H  8.00300 2.62600 32.41000
H  7.82700 5.55400 31.87200
H  5.71800 5.23100 32.68700
H  6.28000 3.56000 33.19500
H  5.41100 3.79900 31.65600
H  10.52100 4.35500 32.10100
H  10.20600 3.09300 33.35100
H  8.60300 5.19300 34.03000
H  10.18300 5.93300 33.39000
H  3.50000 7.26300 27.63800
H  4.59500 8.40800 28.41900
H  4.05800 6.89700 29.23400
H  4.59200 9.45400 24.50800
H  5.26700 9.42600 26.10100
H  3.65100 8.68900 25.81700
H  8.73100 4.50700 22.46500
H  8.89700 1.55500 22.57700
H  6.13700 3.10800 22.42300
H  7.13900 2.08900 21.47400
H  6.93400 3.71200 20.96000
H  11.27600 3.13800 23.34600
H  10.70300 3.56100 21.77400
H  11.90800 1.69600 20.78900
H  10.82700 0.77700 21.93200
H  12.43200 1.49200 22.37800
H  12.92300 -0.19000 25.76300
H  11.57000 -1.33600 26.10200
H  12.68600 -1.07700 27.35900
H  11.67400 1.87900 31.63600
H  9.72100 -0.93400 34.18000
H  9.17100 0.70900 34.64500
H  10.60500 0.10500 35.31900

