79

Mg 30.73300 57.75000 39.38700
C  27.95600 55.70300 38.57100
C  32.77600 55.00200 38.20800
C  33.39100 59.72600 39.53800
C  28.55000 60.36600 39.88300
N  30.35000 55.63700 38.45200
C  29.18100 54.99200 38.46200
C  29.31200 53.50500 38.16900
C  30.87300 53.33900 38.14800
C  31.41900 54.80800 38.25500
C  31.33400 52.49000 39.30700
C  28.62000 52.96000 36.92500
C  29.03500 53.70400 35.61500
H  27.92000 54.42100 34.74400
N  32.81200 57.40500 38.97900
C  33.45300 56.24800 38.54200
C  34.83300 56.52900 38.47500
C  35.05400 57.80700 39.05000
C  33.71200 58.44300 39.24300
C  35.86000 55.69900 37.86500
C  36.48600 58.41400 39.33300
O  37.48600 57.80500 38.94800
C  36.59800 59.68000 40.11000
N  30.92700 59.74700 39.62300
C  32.14400 60.36100 39.56400
C  32.05400 61.88600 39.69500
C  30.52200 62.09800 39.76100
C  29.90900 60.63000 39.78500
C  32.92600 62.58800 40.80100
C  29.95300 63.04800 38.66000
C  28.96600 64.12000 39.12300
N  28.65300 57.99300 39.26400
C  27.90500 59.17000 39.45300
C  26.50400 58.81000 39.22400
C  26.50900 57.46700 38.95400
C  27.82800 57.06800 38.89800
C  25.36700 59.68600 39.47400
C  25.60600 56.34700 38.66000
O  24.39000 56.25000 38.56900
C  26.52800 55.13500 38.35100
C  26.12700 54.04700 39.33800
O  26.65700 53.76000 40.42400
O  25.16300 53.27700 38.69400
C  24.80000 52.08700 39.35600
H  33.32000 54.06700 38.05500
H  34.22600 60.41200 39.69400
H  27.90400 61.21200 40.12600
H  28.77100 53.01000 38.97500
H  31.23500 52.88100 37.22700
H  32.22300 51.93800 39.00400
H  30.61900 51.76100 39.68800
H  31.67000 52.97500 40.22300
H  27.53400 52.92900 37.01100
H  28.98100 51.93300 36.89600
H  29.51200 52.95600 34.98100
H  29.75900 54.49300 35.81700
H  36.63500 55.27800 38.50600
H  36.33100 56.29400 37.08200
H  35.35300 54.93600 37.27500
H  35.79500 59.76000 40.84300
H  36.65600 60.45600 39.34700
H  37.53700 59.70100 40.66300
H  32.50700 62.38800 38.84000
H  30.24200 62.48900 40.73900
H  32.18000 63.18600 41.32300
H  33.73900 63.18800 40.39200
H  33.35400 61.91700 41.54500
H  29.76600 62.39700 37.80600
H  30.81100 63.68300 38.44000
H  29.48400 65.06600 39.27800
H  28.47200 63.78400 40.03500
H  28.26600 64.28600 38.30400
H  25.52500 60.57900 38.87100
H  25.16800 59.84700 40.53400
H  24.48500 59.10700 39.19900
H  26.15200 54.71100 37.42100
H  23.90300 51.61800 38.95100
H  24.73500 52.35600 40.41000
H  25.64500 51.40600 39.25000

