79

Mg 8.62600 3.54200 27.53600
C  9.93000 2.02600 30.45600
C  6.81600 5.42300 29.49000
C  7.24200 4.59700 24.65600
C  10.04300 0.70500 25.72100
N  8.30000 3.56500 29.82300
C  9.07000 3.06500 30.75100
C  8.75400 3.70100 32.10400
C  7.50900 4.62700 31.76700
C  7.49400 4.57100 30.29600
C  6.15000 4.29700 32.46700
C  10.08900 4.20300 32.80600
C  10.53500 3.51300 34.13100
H  10.97600 4.39000 35.27500
N  7.34700 4.91600 27.15600
C  6.68600 5.59400 28.12900
C  5.92800 6.55500 27.47200
C  5.92300 6.33000 26.06700
C  6.84100 5.24400 25.89700
C  5.20700 7.68300 28.29600
C  5.27000 7.15000 24.92700
O  5.42100 6.87300 23.73700
C  4.35800 8.28200 25.22600
N  8.62400 2.78500 25.47600
C  8.00500 3.46100 24.49700
C  8.24200 2.76400 23.08900
C  9.07800 1.48800 23.44600
C  9.34700 1.69500 24.95300
C  6.82400 2.44100 22.51900
C  10.36500 1.28600 22.60000
C  10.55500 -0.14200 21.93700
N  9.75000 1.78200 27.92500
C  10.27100 0.71700 27.11300
C  11.08300 -0.14700 27.94300
C  10.98600 0.34100 29.18100
C  10.15000 1.46500 29.16500
C  11.89900 -1.25600 27.37700
C  11.48600 0.15500 30.53200
O  12.36800 -0.61300 30.92600
C  10.71100 1.09800 31.37000
C  9.78300 0.28800 32.21400
O  8.59800 0.05300 32.02800
O  10.48300 -0.15400 33.35900
C  9.56900 -0.48100 34.48200
H  6.18100 6.10700 30.05600
H  6.59000 4.97200 23.86500
H  10.50000 -0.08400 25.12000
H  8.42200 2.89000 32.75200
H  7.80600 5.67300 31.84800
H  6.01000 5.09800 33.19300
H  6.12800 3.29400 32.89100
H  5.25800 4.29100 31.84000
H  9.91400 5.27000 32.93700
H  10.92100 4.06800 32.11500
H  11.38600 2.88600 33.86600
H  9.77900 2.79800 34.45600
H  5.16200 8.64600 27.78700
H  5.89200 7.88800 29.11800
H  4.22400 7.28400 28.54800
H  4.29500 8.77400 24.25500
H  4.90400 9.02500 25.80800
H  3.35500 8.05800 25.58900
H  8.79400 3.48500 22.48600
H  8.49700 0.58000 23.28200
H  5.99100 2.57900 23.20800
H  6.87600 1.44800 22.07100
H  6.57600 3.13200 21.71300
H  11.25400 1.48200 23.19900
H  10.30900 1.85400 21.67100
H  9.69700 -0.77500 22.16200
H  11.34700 -0.62000 22.51300
H  10.84700 -0.12900 20.88700
H  11.29000 -1.89300 26.73700
H  12.20700 -1.91100 28.19200
H  12.75200 -0.86600 26.82100
H  11.38400 1.51100 32.12200
H  9.40800 0.47300 34.98500
H  9.88000 -1.30000 35.13200
H  8.60200 -0.87800 34.17400

