79

Mg 45.17600 4.78100 46.87300
C  43.04300 7.46800 46.04800
C  42.50700 2.75600 46.13300
C  47.28200 2.15700 46.89400
C  47.90500 6.97900 46.52400
N  43.08800 5.11900 46.18000
C  42.41300 6.22900 45.95100
C  41.01600 6.02000 45.33700
C  40.76400 4.62000 45.89500
C  42.25300 4.08700 46.14900
C  39.82600 4.41700 47.09700
C  40.87700 6.39300 43.78700
C  39.61200 7.06200 43.29900
H  39.43500 7.64500 41.88600
N  44.87500 2.72000 46.79100
C  43.72700 2.06700 46.40300
C  44.01200 0.63400 46.36700
C  45.33100 0.43200 46.81700
C  45.88600 1.77300 46.90400
C  42.87800 -0.39600 46.02600
C  45.98800 -0.82900 47.00700
O  45.41800 -1.91900 46.75500
C  47.27800 -0.98400 47.57800
N  47.26700 4.66700 46.60500
C  47.85600 3.40400 46.68700
C  49.37500 3.59900 46.43000
C  49.63100 5.11400 46.72300
C  48.25700 5.62900 46.56800
C  50.37300 2.64200 47.27800
C  50.52600 5.83000 45.71900
C  51.39300 6.89800 46.33800
N  45.48300 6.79700 46.61200
C  46.63300 7.54500 46.48200
C  46.24200 8.94500 46.28700
C  44.87900 8.92800 46.17100
C  44.41900 7.61100 46.31000
C  47.13300 10.13800 46.14000
C  43.76100 9.81700 45.88500
O  43.60200 11.05300 45.77600
C  42.47500 8.80600 45.86600
C  41.57800 9.06500 46.98700
O  41.79100 9.01300 48.19400
O  40.27600 9.10800 46.45700
C  39.24300 9.13900 47.46000
H  41.65500 2.10600 45.92100
H  48.06200 1.39900 46.80100
H  48.79800 7.60700 46.47800
H  40.43300 6.81900 45.79400
H  40.52800 3.90700 45.10600
H  40.26200 3.76200 47.85200
H  38.83500 4.12400 46.74900
H  39.61200 5.27400 47.73600
H  40.86300 5.46000 43.22300
H  41.78600 6.92300 43.50200
H  39.38800 7.84700 44.02100
H  38.74100 6.44400 43.52200
H  43.23200 -1.03000 45.21300
H  42.00500 0.10600 45.61000
H  42.68300 -0.96500 46.93600
H  48.07900 -1.02900 46.84000
H  47.37200 -1.91400 48.13700
H  47.36500 -0.16100 48.28800
H  49.36100 3.44600 45.35100
H  49.95700 5.21100 47.75900
H  49.86700 1.76100 47.67100
H  50.64500 3.21800 48.16300
H  51.28400 2.26600 46.81300
H  49.98200 6.26300 44.88000
H  51.21900 5.09100 45.31700
H  52.39900 6.68300 45.97800
H  51.28500 6.89200 47.42300
H  51.08800 7.90700 46.06000
H  48.04100 9.89600 46.69200
H  46.62800 11.01400 46.54600
H  47.36600 10.34800 45.09600
H  41.85900 8.94700 44.97800
H  39.43900 8.42800 48.26300
H  38.27700 8.80900 47.07700
H  39.16100 10.12800 47.90900

