79

Mg -0.19400 7.34700 26.26500
C  0.76700 9.31600 29.05900
C  -0.08600 4.63100 28.41600
C  -0.62500 5.53700 23.66100
C  0.31900 10.20700 24.23600
N  0.28200 6.97500 28.57500
C  0.53700 7.96500 29.47700
C  0.48300 7.39500 30.92300
C  0.53200 5.83200 30.68100
C  0.29500 5.78100 29.10500
C  1.92500 5.18100 31.20700
C  -0.72100 7.82300 31.85200
C  -0.36500 7.94600 33.36800
H  0.81600 7.25000 34.02900
N  -0.35500 5.38600 26.06800
C  -0.29900 4.38700 27.05900
C  -0.59200 3.11300 26.44300
C  -0.78300 3.36200 25.03000
C  -0.53400 4.81300 24.83600
C  -0.65600 1.84600 27.21100
C  -1.20300 2.40200 23.93700
O  -1.44100 2.71100 22.75900
C  -1.71400 0.96600 24.31300
N  0.07900 7.77900 24.21600
C  -0.29600 6.81000 23.31000
C  -0.31100 7.42600 21.82900
C  -0.04500 8.93800 22.04800
C  0.15500 9.00200 23.57800
C  0.71100 6.71500 20.89700
C  -1.17200 9.85300 21.48800
C  -2.36500 10.06600 22.37500
N  0.47100 9.38600 26.51200
C  0.51300 10.44000 25.60500
C  0.83500 11.66600 26.31100
C  1.00900 11.28800 27.66700
C  0.71500 9.88500 27.74500
C  1.00700 13.04500 25.68600
C  1.36100 11.73300 28.98700
O  1.75400 12.79900 29.37900
C  1.12600 10.45700 29.93600
C  2.39000 10.19600 30.61000
O  3.37500 9.63000 30.16600
O  2.30100 10.77200 31.81300
C  3.50100 10.65900 32.69900
H  -0.25000 3.75100 29.04300
H  -1.03000 4.96500 22.82400
H  0.38800 11.11400 23.63200
H  1.40400 7.70900 31.41500
H  -0.19700 5.31100 31.30200
H  2.31200 4.63400 30.34700
H  1.71200 4.48200 32.01600
H  2.61100 6.00600 31.39900
H  -1.52900 7.09200 31.89100
H  -1.15900 8.72700 31.42900
H  -1.21700 7.58300 33.94300
H  -0.29400 8.97900 33.71100
H  -1.22000 0.98600 26.85000
H  -1.09200 1.98100 28.20000
H  0.39200 1.55200 27.27000
H  -2.56700 0.97000 24.99100
H  -0.94200 0.37000 24.80100
H  -2.11300 0.47500 23.42600
H  -1.29700 7.25500 21.39800
H  0.88300 9.12100 21.50700
H  0.78100 5.64800 21.10900
H  1.69000 7.07100 21.21800
H  0.53900 6.93800 19.84400
H  -1.53500 9.35900 20.58700
H  -0.61200 10.75900 21.25700
H  -2.39000 11.11000 22.68700
H  -2.39100 9.43400 23.26200
H  -3.29900 9.91700 21.83300
H  0.11200 13.65400 25.55900
H  1.37700 12.81000 24.68900
H  1.69800 13.56300 26.35100
H  0.32200 10.72200 30.62300
H  4.41900 11.11200 32.32400
H  3.52900 9.63800 33.08000
H  3.39400 11.17800 33.65100

