79

Mg 26.20600 51.28700 25.83900
C  23.97700 52.32800 28.27900
C  28.40900 50.38300 28.42300
C  28.40700 50.33900 23.56200
C  24.01100 52.28400 23.36200
N  26.19600 51.42700 28.15200
C  25.14600 51.89600 28.93000
C  25.60100 51.87200 30.42700
C  27.12800 51.46400 30.36100
C  27.22600 50.97700 28.94200
C  28.03100 52.65900 30.70100
C  24.75700 50.87700 31.26500
C  23.93400 51.47000 32.35700
H  23.79200 50.63000 33.60300
N  28.04500 50.32300 25.95300
C  28.76300 50.04100 27.09800
C  30.01800 49.44900 26.81800
C  30.06600 49.40200 25.37000
C  28.75300 50.01300 24.86300
C  31.06700 48.84700 27.83800
C  31.21600 48.86800 24.47600
O  31.15800 48.87400 23.18200
C  32.53200 48.32000 25.10400
N  26.21900 51.27200 23.70800
C  27.26900 50.88800 22.99600
C  27.06200 51.08400 21.47300
C  25.59700 51.67800 21.47100
C  25.17200 51.63200 22.92400
C  28.23000 51.94600 20.82000
C  24.59000 50.96200 20.53600
C  24.72700 51.32500 19.03800
N  24.32100 52.12800 25.74700
C  23.53800 52.43600 24.68500
C  22.28900 52.99300 25.20500
C  22.38700 52.95400 26.61100
C  23.67600 52.40500 26.88300
C  21.18100 53.63300 24.37700
C  21.69900 53.34000 27.90600
O  20.52800 53.76900 28.16900
C  22.72700 52.82000 28.99300
C  23.07900 54.05500 29.73000
O  24.11400 54.71400 29.55700
O  22.22100 54.20000 30.80500
C  22.73000 55.25800 31.64300
H  29.08800 50.06800 29.21800
H  29.06000 50.08200 22.72500
H  23.48200 52.86300 22.60200
H  25.53000 52.89800 30.79000
H  27.33300 50.60600 31.00200
H  28.95300 52.65800 30.11900
H  28.23000 52.38800 31.73800
H  27.52800 53.62300 30.62600
H  25.20900 49.95600 31.63300
H  24.01300 50.44400 30.59700
H  22.93200 51.73500 32.02000
H  24.45300 52.36200 32.70800
H  31.50700 47.88300 27.58200
H  30.70400 48.79800 28.86500
H  31.92000 49.52500 27.87700
H  33.20900 47.99100 24.31500
H  32.30600 47.48800 25.77000
H  33.00600 49.16500 25.60400
H  27.03100 50.09500 21.01500
H  25.68400 52.72500 21.18200
H  28.80700 52.32500 21.66400
H  27.87900 52.63500 20.05200
H  28.92300 51.19500 20.44200
H  23.54500 51.12500 20.80000
H  24.72700 49.88900 20.67400
H  23.91600 52.02100 18.82500
H  24.66200 50.40200 18.46100
H  25.71200 51.74500 18.83200
H  21.35800 54.67700 24.11900
H  20.26000 53.51300 24.94800
H  21.08200 52.99600 23.49800
H  22.36600 52.13100 29.75700
H  23.43700 54.81600 32.34600
H  21.96000 55.62600 32.32200
H  23.19100 56.14000 31.20000

