79

Mg 41.23000 8.64200 29.92300
C  43.07000 9.66100 32.64600
C  39.01300 7.16500 31.99800
C  39.69100 7.24300 27.25800
C  43.85000 9.54600 27.94500
N  41.13600 8.38200 32.09900
C  41.93400 8.90700 33.03300
C  41.34500 8.70100 34.51000
C  40.29200 7.58500 34.20900
C  40.10200 7.74000 32.65600
C  40.53300 6.05300 34.60100
C  40.75500 10.01000 35.21000
C  40.72000 10.04300 36.82000
H  41.27000 11.31300 37.48600
N  39.58800 7.41900 29.68900
C  38.75900 6.95100 30.65800
C  37.64000 6.26300 30.13600
C  37.73500 6.39000 28.72300
C  39.03700 7.07100 28.48300
C  36.68800 5.41600 30.94700
C  36.71600 6.14900 27.62200
O  36.87200 6.44800 26.43900
C  35.31700 5.75600 28.06500
N  41.77600 8.38200 28.00300
C  40.97200 7.80900 27.11600
C  41.44900 7.96100 25.65600
C  42.82500 8.67900 25.81600
C  42.81900 8.94900 27.31300
C  41.58700 6.58500 24.92100
C  43.02600 9.89500 24.95600
C  42.55400 11.28100 25.39100
N  43.01300 9.57100 30.18100
C  43.97600 9.94600 29.25800
C  44.99800 10.75000 29.87400
C  44.69500 10.67200 31.27400
C  43.47300 9.95300 31.35000
C  46.16900 11.46100 29.22800
C  45.15400 11.04900 32.56900
O  46.12300 11.71300 32.87400
C  44.04700 10.47300 33.53200
C  44.85400 9.58100 34.46000
O  45.52800 8.67000 34.07400
O  44.60800 10.00700 35.73000
C  44.92600 8.97900 36.68200
H  38.42500 6.53500 32.66900
H  39.26500 6.96000 26.29300
H  44.69800 9.86100 27.33300
H  42.10300 8.21100 35.12300
H  39.35000 7.97700 34.59400
H  40.40000 5.47700 33.68500
H  39.75400 5.84200 35.33400
H  41.51000 5.84800 35.03900
H  39.73300 10.15600 34.86000
H  41.38900 10.83400 34.88200
H  41.31600 9.21400 37.20100
H  39.66000 9.94600 37.05700
H  36.89500 5.42700 32.01700
H  36.46400 4.39200 30.65000
H  35.70600 5.87500 30.83400
H  35.12100 6.42200 28.90500
H  35.20700 4.80900 28.59400
H  34.49800 6.06500 27.41500
H  40.75700 8.66000 25.18600
H  43.60200 7.98600 25.49200
H  41.27000 5.80500 25.61300
H  42.58000 6.46700 24.48700
H  40.81800 6.68700 24.15600
H  42.56200 9.65500 23.99900
H  44.08800 10.09600 24.81700
H  42.32600 11.99200 24.59700
H  43.17600 11.79300 26.12500
H  41.62300 11.08400 25.92300
H  46.31900 12.43100 29.70300
H  46.01300 11.51900 28.15100
H  47.15900 11.02400 29.35200
H  43.67400 11.28000 34.16300
H  46.00600 8.84500 36.62300
H  44.41300 8.05500 36.41800
H  44.61900 9.32400 37.66900

