79

Mg 1.27300 42.07200 26.41600
C  2.46100 42.12300 29.65700
C  -1.93300 41.55500 27.64000
C  0.26600 41.29300 23.35100
C  4.60900 42.54500 25.18900
N  0.32100 41.62700 28.42400
C  1.05100 41.84600 29.61900
C  0.05900 41.85200 30.88500
C  -1.21900 41.33100 30.14900
C  -0.93000 41.52000 28.63400
C  -1.74600 39.88700 30.45800
C  0.04900 43.25200 31.57700
C  -0.45600 43.32400 33.04900
H  -0.76700 42.02100 33.81300
N  -0.56000 41.48700 25.58400
C  -1.76800 41.43500 26.24400
C  -2.80900 41.33900 25.24500
C  -2.12700 41.08100 23.97000
C  -0.72500 41.24400 24.24800
C  -4.30600 41.42700 25.60900
C  -2.71300 40.63400 22.67200
O  -2.01600 40.33400 21.72400
C  -4.25300 40.60900 22.44600
N  2.37400 41.82400 24.51900
C  1.60900 41.60100 23.37300
C  2.54200 41.60800 22.14800
C  3.85200 42.31200 22.65700
C  3.65100 42.20300 24.21500
C  2.65500 40.42600 21.25300
C  3.95100 43.77100 22.30700
C  4.77900 44.11000 21.04900
N  3.15100 42.26300 27.16100
C  4.38600 42.51700 26.56600
C  5.42700 42.55400 27.61300
C  4.67200 42.51700 28.81600
C  3.31400 42.27900 28.48100
C  6.92800 42.71600 27.36300
C  4.81200 42.52500 30.22900
O  5.75300 42.68000 30.95300
C  3.43100 42.15200 30.89400
C  3.51100 40.85100 31.66900
O  3.68300 39.70900 31.15600
O  3.61000 41.15600 32.96900
C  3.75300 40.09400 33.92900
H  -2.97100 41.55300 27.98200
H  -0.04400 41.22800 22.30600
H  5.61100 42.73100 24.79600
H  0.49600 41.08300 31.52300
H  -2.02700 42.03400 30.35400
H  -2.71800 40.00300 30.93600
H  -1.08800 39.39500 31.17400
H  -1.74900 39.30700 29.53500
H  -0.58100 43.99400 31.08700
H  1.06600 43.64100 31.63600
H  -1.34700 43.95200 33.05500
H  0.30000 43.90000 33.58400
H  -4.74600 40.43000 25.63800
H  -4.81500 42.17200 24.99800
H  -4.48800 41.84900 26.59700
H  -4.75400 41.57500 22.51100
H  -4.69200 40.04900 23.27200
H  -4.38800 40.13100 21.47500
H  2.19600 42.33600 21.41400
H  4.75500 41.71700 22.51600
H  3.59900 39.97000 21.55500
H  2.55500 40.75200 20.21800
H  1.85400 39.69900 21.38700
H  4.51600 44.27400 23.09100
H  2.99000 44.28400 22.34500
H  5.55100 43.37600 20.81900
H  5.32300 45.05400 21.05500
H  4.10100 44.22300 20.20300
H  7.32900 41.72600 27.14600
H  7.36900 42.97000 28.32700
H  7.17700 43.50100 26.65000
H  3.28800 42.99800 31.56600
H  4.76100 40.13300 34.34200
H  3.61600 39.10600 33.49100
H  3.03200 40.21300 34.73800

