79

Mg -2.00500 34.02500 27.23200
C  -3.42400 32.13900 29.83200
C  -0.31300 35.85100 29.39100
C  -0.92000 35.93700 24.51300
C  -3.73600 32.07400 24.96400
N  -1.86700 33.92400 29.44200
C  -2.48800 33.13600 30.29700
C  -1.91900 33.31800 31.76100
C  -1.00200 34.59300 31.55700
C  -1.04900 34.85200 30.02300
C  -1.23400 35.88700 32.51600
C  -1.30400 32.03700 32.41200
C  -1.88500 31.56200 33.73100
H  -0.98700 31.69100 34.97600
N  -0.86200 35.63200 26.93300
C  -0.21200 36.23100 27.99900
C  0.67800 37.28000 27.49100
C  0.50300 37.26900 26.09400
C  -0.45400 36.22100 25.76900
C  1.56900 38.14200 28.38600
C  1.21200 38.20900 25.06900
O  0.97200 38.18400 23.85900
C  2.05600 39.34500 25.49700
N  -2.29100 34.00500 25.04400
C  -1.75100 34.88800 24.14200
C  -2.30200 34.79000 22.73400
C  -2.77700 33.31700 22.75500
C  -2.96800 33.07400 24.34600
C  -3.34800 35.97200 22.49500
C  -1.83000 32.27600 22.14200
C  -0.22000 32.32200 22.30900
N  -3.35200 32.55800 27.31400
C  -3.97300 31.82900 26.28700
C  -4.82700 30.81300 26.82500
C  -4.56600 30.90800 28.16700
C  -3.72100 31.96400 28.41700
C  -5.61500 29.76800 26.07000
C  -4.98000 30.31100 29.43500
O  -5.77300 29.39100 29.61200
C  -4.27400 31.14600 30.61000
C  -5.33100 31.80000 31.46400
O  -5.95900 32.82900 31.21800
O  -5.47400 31.12800 32.69200
C  -6.27700 31.77300 33.69600
H  0.41500 36.27100 30.08700
H  -0.64600 36.59700 23.68800
H  -4.16900 31.39900 24.22200
H  -2.88300 33.52800 32.22500
H  -0.00300 34.20600 31.75500
H  -0.34700 36.47300 32.75700
H  -1.61500 35.56500 33.48500
H  -1.84600 36.55700 31.91300
H  -0.23900 32.25500 32.50100
H  -1.49300 31.20100 31.74000
H  -2.27300 30.54300 33.73200
H  -2.71600 32.24800 33.89100
H  2.58500 38.22500 28.00200
H  1.75900 37.70800 29.36800
H  1.13200 39.13700 28.47500
H  1.54200 39.95600 26.23800
H  2.24500 40.04100 24.67900
H  2.98300 38.89100 25.84800
H  -1.39200 34.96400 22.16000
H  -3.75500 33.26200 22.27700
H  -2.92800 36.94800 22.73600
H  -4.19400 35.86600 23.17400
H  -3.64600 35.86400 21.45200
H  -2.07000 32.17000 21.08400
H  -2.13100 31.26600 22.41800
H  0.25300 32.50500 21.34400
H  0.15600 31.36400 22.66700
H  0.18200 33.12100 22.93300
H  -5.27500 29.80600 25.03500
H  -6.68600 29.87900 26.23500
H  -5.37600 28.75900 26.40600
H  -3.77700 30.44700 31.28300
H  -6.90700 31.05700 34.22400
H  -6.92500 32.60100 33.40900
H  -5.71100 32.25200 34.49400

