79

Mg 48.73000 45.91200 43.11300
C  45.54700 46.67700 42.12600
C  48.20100 42.60200 41.73300
C  52.12600 45.41600 42.84900
C  49.28400 49.15400 44.00400
N  46.96900 44.75200 42.04200
C  45.82300 45.33600 41.66500
C  44.91000 44.44700 40.83100
C  45.60700 42.98800 41.11000
C  46.99500 43.41000 41.72200
C  44.78200 42.13300 42.16600
C  44.90100 44.96500 39.32700
C  43.51300 44.96500 38.59000
H  43.43800 44.17700 37.25800
N  49.93100 44.15100 42.71200
C  49.51300 42.92900 42.14700
C  50.66000 42.07400 41.96500
C  51.79800 42.85100 42.41200
C  51.35500 44.21300 42.62400
C  50.55800 40.65600 41.44400
C  53.15500 42.29400 42.50300
O  53.35400 41.12400 42.35300
C  54.32000 43.22300 42.94600
N  50.43600 47.15900 43.29200
C  51.70800 46.69000 43.23300
C  52.69500 47.73000 43.63800
C  51.83600 48.87200 44.21300
C  50.43300 48.38500 43.84300
C  53.91800 47.29800 44.59400
C  52.12400 50.30400 43.63800
C  53.58000 50.85500 43.60800
N  47.66600 47.61200 43.14300
C  47.96100 48.87600 43.59600
C  46.79100 49.69000 43.60600
C  45.82000 48.91300 42.96400
C  46.39600 47.60600 42.74800
C  46.75600 51.11400 44.04300
C  44.44400 48.91700 42.41800
O  43.57200 49.76700 42.33200
C  44.27300 47.53300 41.83700
C  42.95100 46.91400 42.25800
O  41.89700 47.09300 41.66700
O  43.08900 46.11200 43.36500
C  41.84000 45.43300 43.88400
H  47.93200 41.57900 41.46600
H  53.19000 45.19100 42.75000
H  49.47100 50.12100 44.47500
H  43.89200 44.62600 41.17600
H  45.79400 42.46500 40.17200
H  45.09700 41.94000 43.19200
H  44.65700 41.20700 41.60500
H  43.77300 42.54500 42.13600
H  45.53500 44.25300 38.79800
H  45.34900 45.95600 39.25100
H  43.23600 46.00200 38.40100
H  42.87900 44.61800 39.40500
H  49.54200 40.29000 41.59400
H  51.33500 40.06900 41.93400
H  50.69500 40.60800 40.36400
H  54.16100 43.73400 43.89500
H  54.59000 43.95900 42.19000
H  55.21000 42.59600 43.00400
H  53.03800 48.14100 42.68900
H  51.84800 48.97800 45.29800
H  54.06500 46.22300 44.69900
H  53.89300 47.76200 45.58000
H  54.76800 47.75100 44.08400
H  51.54700 50.91900 44.32900
H  51.58900 50.53000 42.71500
H  53.86700 51.34800 42.68000
H  54.32000 50.14300 43.97600
H  53.38700 51.70200 44.26600
H  46.04800 51.18300 44.87000
H  46.42600 51.84000 43.30000
H  47.70300 51.37300 44.51800
H  44.27900 47.73600 40.76600
H  41.27400 44.78900 43.21000
H  41.24900 46.15400 44.44900
H  42.21700 44.71800 44.61500

