79

Mg -1.32800 16.88000 26.48000
C  -1.79000 14.77400 29.23500
C  -1.90700 19.61000 28.51000
C  -1.49400 18.91900 23.73400
C  -1.33000 14.10100 24.39800
N  -1.68100 17.11100 28.68400
C  -1.73700 16.11000 29.60100
C  -2.04000 16.72800 30.99000
C  -2.29500 18.22800 30.74700
C  -1.89600 18.38100 29.18800
C  -3.77900 18.64500 31.03000
C  -0.97000 16.42100 32.05300
C  -0.95400 17.12400 33.40700
H  -0.74800 16.23500 34.68900
N  -1.64400 18.94300 26.20000
C  -1.66600 19.91100 27.19000
C  -1.59200 21.21300 26.61800
C  -1.51400 21.08100 25.21100
C  -1.61000 19.60600 24.98700
C  -1.53300 22.48600 27.53800
C  -1.35600 22.14000 24.13600
O  -1.35500 21.93400 22.91500
C  -0.94800 23.48600 24.58600
N  -1.69200 16.53800 24.28200
C  -1.51300 17.59300 23.40000
C  -1.29700 17.08100 21.98300
C  -1.19300 15.48800 22.24100
C  -1.37100 15.35900 23.74800
C  -2.55000 17.33000 21.08100
C  0.12600 14.83400 21.62600
C  1.35500 14.88900 22.56600
N  -1.50500 14.88900 26.70700
C  -1.51900 13.85300 25.73300
C  -1.56200 12.55700 26.43700
C  -1.79700 12.91200 27.78500
C  -1.74100 14.31600 27.87800
C  -1.37700 11.28600 25.74100
C  -1.92700 12.31400 29.06600
O  -1.97800 11.13600 29.47100
C  -2.14300 13.46400 30.04500
C  -1.25900 13.16600 31.15200
O  -0.02800 13.18600 31.10600
O  -2.05900 12.82600 32.23800
C  -1.40400 12.21000 33.46100
H  -2.00500 20.42100 29.23400
H  -1.25700 19.52900 22.86000
H  -1.19700 13.22900 23.75300
H  -2.96700 16.22900 31.27300
H  -1.63700 18.87900 31.32200
H  -4.20200 18.74200 30.03000
H  -3.87700 19.55600 31.62000
H  -4.40400 17.96800 31.61300
H  0.00600 16.39100 31.56800
H  -1.10700 15.42400 32.47300
H  -1.79900 17.79500 33.56400
H  -0.10800 17.78500 33.22000
H  -1.71500 22.36600 28.60600
H  -2.36800 23.13100 27.26300
H  -0.56800 22.97200 27.40000
H  -1.75400 23.93000 25.17100
H  -0.75000 24.08000 23.69300
H  0.05100 23.43000 25.01900
H  -0.33800 17.31700 21.52100
H  -2.06300 15.10300 21.70800
H  -3.19000 16.45900 20.94400
H  -2.15900 17.61600 20.10500
H  -3.14900 18.20000 21.35100
H  0.32700 15.38700 20.70900
H  -0.14100 13.81400 21.35200
H  1.50100 13.86000 22.89500
H  1.22900 15.50400 23.45700
H  2.27400 15.16500 22.04900
H  -0.64700 10.69900 26.29900
H  -0.95700 11.33900 24.73700
H  -2.31400 10.78200 25.97500
H  -3.20200 13.53100 30.29300
H  -1.39200 13.04800 34.15700
H  -0.34300 11.98100 33.36700
H  -2.05300 11.48900 33.95900

