79

Mg -1.95500 17.22400 25.33300
C  -2.59800 15.10400 28.15200
C  -3.04000 19.83200 27.19200
C  -2.30700 19.00200 22.46000
C  -1.37100 14.41200 23.35600
N  -2.77600 17.33400 27.41500
C  -2.84100 16.46300 28.42800
C  -3.19100 17.19000 29.74300
C  -3.66700 18.62300 29.28700
C  -3.11000 18.60500 27.86000
C  -5.19500 18.89100 29.34300
C  -2.10900 17.29900 30.92400
C  -2.77500 17.35000 32.30900
H  -2.42800 16.22200 33.31500
N  -2.29000 19.13200 24.86500
C  -2.66500 20.09500 25.80200
C  -2.51300 21.41400 25.18400
C  -2.36200 21.16200 23.84600
C  -2.34500 19.71700 23.66000
C  -2.59900 22.66300 26.00700
C  -2.18100 22.18900 22.68500
O  -2.17600 21.87000 21.50500
C  -2.06300 23.64400 23.03500
N  -1.93400 16.73800 23.21100
C  -2.22400 17.60600 22.23700
C  -2.04800 16.97200 20.85300
C  -1.33600 15.63400 21.18200
C  -1.46200 15.57200 22.70700
C  -3.39200 16.96500 20.06900
C  0.12100 15.32400 20.72800
C  1.26300 15.46600 21.75300
N  -2.03400 15.22200 25.63400
C  -1.62200 14.19200 24.75400
C  -1.57500 12.96000 25.52400
C  -1.97700 13.30400 26.75300
C  -2.21100 14.67900 26.86200
C  -1.37000 11.59100 25.05000
C  -2.21400 12.71400 28.02300
O  -2.18500 11.54300 28.38800
C  -2.74300 13.85600 28.94900
C  -1.82200 13.65600 30.13900
O  -0.61500 14.04800 30.24700
O  -2.47400 12.93400 31.08000
C  -1.77200 12.67400 32.37300
H  -3.46600 20.69200 27.71300
H  -2.24800 19.43000 21.45700
H  -1.16300 13.67600 22.57700
H  -4.07400 16.66700 30.10800
H  -3.24000 19.32800 30.00000
H  -5.32800 19.63900 30.12400
H  -5.62600 17.94800 29.68000
H  -5.57900 19.23400 28.38200
H  -1.57300 18.24600 30.98700
H  -1.41000 16.46300 30.89400
H  -3.85900 17.33800 32.19500
H  -2.47100 18.28500 32.77800
H  -2.64300 22.49200 27.08300
H  -3.40200 23.28600 25.61400
H  -1.64600 23.16200 25.82800
H  -1.13700 23.71900 23.60500
H  -2.86400 23.98500 23.69100
H  -1.85200 24.33700 22.22000
H  -1.35200 17.59100 20.28700
H  -1.93600 14.81200 20.79100
H  -4.01200 17.72400 20.54600
H  -3.85600 15.97900 20.04400
H  -3.13100 17.24800 19.04900
H  0.35200 16.07000 19.96700
H  0.20500 14.31300 20.33100
H  0.93300 16.12900 22.55300
H  2.11900 16.00000 21.34200
H  1.42900 14.52400 22.27600
H  -1.41400 11.66700 23.96400
H  -2.27000 11.15400 25.48400
H  -0.41900 11.14500 25.34100
H  -3.72800 13.45800 29.19200
H  -1.27500 11.71700 32.20900
H  -2.54600 12.63300 33.13900
H  -0.92200 13.29000 32.66600

