79

Mg 47.15200 16.22700 28.51800
C  45.15900 15.88600 31.34700
C  49.55100 17.89900 30.41700
C  48.94600 16.87500 25.62900
C  44.41900 15.17800 26.62700
N  47.29200 16.74800 30.61500
C  46.38100 16.47400 31.59000
C  46.86600 16.99500 32.93800
C  48.10900 17.78100 32.57300
C  48.39100 17.47500 31.11000
C  48.11100 19.34500 32.84900
C  47.06400 15.76600 33.97400
C  46.34500 15.96900 35.34900
H  46.63400 17.29200 36.18200
N  49.10100 17.09400 28.10700
C  49.92600 17.68300 29.01700
C  51.23700 17.83700 28.39100
C  51.08800 17.61400 27.01700
C  49.65400 17.13800 26.83700
C  52.45500 18.36600 29.24600
C  52.12600 17.78600 25.86400
O  51.93800 17.36200 24.75500
C  53.44600 18.63000 26.09300
N  46.79200 16.06400 26.43300
C  47.64600 16.33400 25.40000
C  46.99500 16.00500 24.00700
C  45.64800 15.27100 24.46800
C  45.56200 15.57300 25.89200
C  46.91200 17.30400 23.18600
C  45.74400 13.71700 24.32100
C  45.55800 13.18600 22.86200
N  45.17300 15.70500 28.86900
C  44.14900 15.25600 28.00700
C  42.92700 14.88500 28.74300
C  43.32100 15.12400 30.05200
C  44.66700 15.55900 30.11500
C  41.63100 14.41300 28.26200
C  42.79400 15.05500 31.36000
O  41.68300 14.83800 31.78600
C  44.05900 15.58000 32.30000
C  43.56900 16.84600 32.95100
O  43.58700 18.00200 32.53900
O  42.94200 16.55100 34.09700
C  42.09400 17.52600 34.84800
H  50.22200 18.40200 31.11600
H  49.40300 17.05500 24.65300
H  43.61300 14.79200 26.00000
H  46.15500 17.70300 33.36400
H  48.99600 17.43800 33.10700
H  48.77700 19.49600 33.69900
H  47.10000 19.64700 33.12500
H  48.49000 19.81300 31.94100
H  48.13500 15.82800 34.16500
H  46.88500 14.75800 33.60000
H  46.53500 15.11600 36.00100
H  45.26200 15.90600 35.24700
H  53.14100 19.00300 28.68800
H  53.07800 17.47800 29.34800
H  52.23100 18.70800 30.25600
H  54.05700 17.95000 26.68600
H  53.24200 19.54800 26.64400
H  53.83000 18.87300 25.10300
H  47.70700 15.29000 23.59400
H  44.83900 15.74400 23.91100
H  45.91000 17.53800 22.82600
H  47.71800 17.25900 22.45400
H  47.15900 18.13200 23.85000
H  44.98800 13.23200 24.93900
H  46.66800 13.30800 24.72800
H  46.42100 12.59100 22.56400
H  45.49400 14.03800 22.18400
H  44.69900 12.53100 22.71900
H  41.44200 14.98100 27.35200
H  40.87600 14.73900 28.97700
H  41.71000 13.33200 28.14200
H  44.29900 14.85400 33.07700
H  41.85200 18.47500 34.37000
H  42.57700 17.79700 35.78600
H  41.24300 16.89300 35.09800

