79

Mg 16.96200 51.72900 26.00600
C  18.58100 50.08300 28.69500
C  14.64900 52.85100 28.12600
C  15.38800 52.82700 23.34100
C  19.46700 50.41000 23.84600
N  16.72500 51.56400 28.10800
C  17.53200 50.94300 29.07700
C  17.10100 51.35700 30.43000
C  15.69500 52.05500 30.24500
C  15.67500 52.23900 28.70900
C  14.40900 51.34200 30.83300
C  18.22500 52.11500 31.26000
C  18.71300 51.47200 32.51100
H  17.95200 51.64600 33.82800
N  15.21400 52.72100 25.78700
C  14.37300 53.09700 26.74800
C  13.26800 53.82300 26.20900
C  13.51800 53.84800 24.77900
C  14.77400 53.09800 24.52700
C  12.13300 54.21500 26.96400
C  12.71200 54.44800 23.69000
O  12.93500 54.23300 22.54000
C  11.53400 55.39800 24.09100
N  17.31800 51.60500 23.92700
C  16.54500 52.13900 23.03500
C  16.99800 51.83100 21.59600
C  18.51100 51.61600 21.94400
C  18.41500 51.11000 23.33700
C  16.31200 50.54100 21.07200
C  19.40100 52.82700 21.72700
C  20.19300 52.77400 20.45300
N  18.67700 50.54200 26.19300
C  19.56200 50.08000 25.20100
C  20.55900 49.21700 25.85000
C  20.26500 49.35900 27.23000
C  19.03800 50.00800 27.37900
C  21.67100 48.40600 25.25500
C  20.76000 48.94600 28.55800
O  21.71300 48.22300 28.88200
C  19.61400 49.42900 29.53800
C  19.08500 48.35100 30.28300
O  18.16400 47.59400 30.01700
O  19.95800 48.33200 31.39100
C  19.83800 47.20000 32.17700
H  13.96200 53.26000 28.87000
H  14.97300 53.15600 22.38600
H  20.28000 50.01300 23.23400
H  16.74900 50.50400 31.01000
H  15.59400 53.01000 30.76000
H  13.71400 52.08500 31.22400
H  14.72200 50.51900 31.47500
H  13.95200 50.89700 29.94900
H  17.86900 53.10800 31.53100
H  19.10700 52.33300 30.65700
H  19.64800 51.99600 32.71000
H  18.89800 50.39700 32.50900
H  11.27800 53.73900 26.48400
H  12.03000 55.29700 26.88100
H  12.07800 53.91400 28.01000
H  11.10700 55.82200 23.18200
H  11.86900 56.16200 24.79300
H  10.72200 54.87600 24.59700
H  16.74800 52.58900 20.85400
H  18.92000 50.79300 21.35900
H  15.40000 50.37200 21.64400
H  17.01700 49.71300 21.15200
H  16.00600 50.60800 20.02900
H  20.01100 52.90300 22.62700
H  18.69200 53.65400 21.77500
H  21.16500 53.25800 20.55600
H  19.68200 53.35800 19.68800
H  20.46800 51.77100 20.12600
H  21.87800 47.61200 25.97200
H  22.56400 49.00000 25.06100
H  21.27400 47.88800 24.38100
H  20.09400 50.24000 30.08600
H  19.58500 47.49200 33.19600
H  20.75900 46.61800 32.21300
H  19.08300 46.45100 31.94300

