79

Mg 53.61600 24.44800 44.96400
C  50.68500 26.15200 44.18800
C  52.16400 21.65300 43.81500
C  56.62700 22.84600 45.04000
C  55.09500 27.37200 46.04300
N  51.68600 24.03700 43.69800
C  50.58000 24.79600 43.75900
C  49.33600 24.02000 43.22300
C  49.77300 22.54400 43.59900
C  51.31500 22.75000 43.72700
C  49.17100 21.94800 44.91200
C  49.19100 24.34700 41.73400
C  47.82000 24.33000 41.09900
H  47.46800 22.96200 40.49900
N  54.28400 22.51600 44.42300
C  53.49300 21.52900 43.98000
C  54.21900 20.28700 43.79800
C  55.56800 20.63000 44.11000
C  55.54100 22.03000 44.57600
C  53.53000 18.99400 43.56900
C  56.77100 19.77400 43.99700
O  56.63700 18.64600 43.67300
C  58.16900 20.14500 44.39100
N  55.71000 25.08800 45.17600
C  56.69300 24.19900 45.41700
C  57.93200 24.91800 45.97000
C  57.46800 26.42500 46.10600
C  55.97500 26.33100 45.73400
C  58.44400 24.30100 47.35800
C  58.35200 27.45400 45.31000
C  57.79100 28.29400 44.13800
N  53.05700 26.36900 45.17500
C  53.73300 27.44000 45.77100
C  52.73700 28.50400 45.94100
C  51.62300 28.09900 45.33300
C  51.85400 26.78200 44.87400
C  52.88600 29.81100 46.68300
C  50.22200 28.45500 44.88800
O  49.51000 29.43300 45.17700
C  49.64200 27.22200 44.18100
C  49.29400 27.74800 42.79200
O  50.06000 27.82300 41.80700
O  48.00800 28.01900 42.79100
C  47.24000 28.39800 41.59200
H  51.55700 20.78100 43.56400
H  57.60700 22.38400 45.17700
H  55.49900 28.27500 46.50600
H  48.42300 24.33600 43.72800
H  49.57000 21.85500 42.78000
H  49.95200 21.55400 45.56200
H  48.37800 21.24900 44.64400
H  48.73600 22.75300 45.50500
H  49.84400 23.57700 41.32500
H  49.57300 25.33900 41.49400
H  47.78200 25.09300 40.32200
H  47.06900 24.57300 41.85100
H  54.09000 18.10800 43.86700
H  53.30400 18.91800 42.50500
H  52.62800 18.96900 44.17900
H  58.57300 21.04300 43.92300
H  58.82000 19.27600 44.29700
H  58.12500 20.32900 45.46500
H  58.70200 24.85800 45.20000
H  57.47300 26.82600 47.11900
H  58.38100 25.09600 48.10100
H  59.42100 23.83100 47.24700
H  57.71400 23.59900 47.76300
H  59.03500 26.79200 44.78000
H  58.83900 28.09500 46.04500
H  56.75300 28.09900 43.86700
H  58.28500 28.00500 43.21000
H  57.73900 29.37200 44.29400
H  53.69600 29.72700 47.40900
H  51.90000 30.02800 47.09300
H  53.02000 30.45700 45.81600
H  48.80400 26.84000 44.76300
H  47.37500 29.47800 41.54000
H  46.18900 28.11500 41.65000
H  47.68900 27.84300 40.76900

