79

Mg 43.97900 4.19600 47.10700
C  42.09300 7.16700 47.34500
C  40.98700 2.50600 46.58300
C  45.75700 1.68600 45.96700
C  46.88900 6.45500 46.74200
N  41.78600 4.81500 46.88100
C  41.26400 5.98700 47.10200
C  39.78700 5.95900 47.12400
C  39.42100 4.43600 47.02500
C  40.80100 3.87300 46.85400
C  38.46700 3.94100 48.14600
C  39.07600 6.69700 45.91100
C  39.39700 6.15100 44.52000
H  40.43100 7.02900 43.72200
N  43.44200 2.25800 46.57500
C  42.14400 1.79700 46.32700
C  42.21500 0.42000 45.81100
C  43.59300 0.17900 45.60700
C  44.33900 1.41300 46.06400
C  40.97200 -0.43200 45.50400
C  44.10500 -1.04900 44.93100
O  43.30400 -1.96300 44.63600
C  45.56700 -1.33200 44.73800
N  45.96900 4.17900 46.19300
C  46.48200 2.92300 46.07500
C  48.02100 2.99500 45.94800
C  48.37500 4.48700 46.12700
C  46.98800 5.10000 46.34100
C  48.77400 2.06000 46.83400
C  49.09900 5.27800 44.99000
C  50.58500 5.59700 45.18700
N  44.49200 6.38400 47.03000
C  45.70300 7.04800 47.03000
C  45.46100 8.45600 47.15200
C  44.07000 8.55400 47.36000
C  43.51800 7.25000 47.24500
C  46.44900 9.54000 47.01300
C  42.97100 9.51100 47.51800
O  42.92300 10.72100 47.58800
C  41.76500 8.64200 47.52800
C  40.97000 8.76600 48.78300
O  41.33100 8.29800 49.86800
O  39.78500 9.34700 48.56800
C  38.86100 9.48000 49.77700
H  40.06600 1.92800 46.68000
H  46.44600 0.84000 45.90500
H  47.77700 7.08700 46.81800
H  39.29400 6.31200 48.03000
H  38.77400 4.20500 46.17900
H  37.78500 4.76200 48.36900
H  39.09200 3.69500 49.00400
H  37.93900 3.02400 47.88700
H  39.31400 7.75800 45.99000
H  37.98900 6.70600 45.98300
H  38.48300 6.14800 43.92600
H  39.82600 5.15000 44.55000
H  40.18200 0.29000 45.29500
H  40.58400 -1.02400 46.33300
H  40.95800 -0.90900 44.52400
H  45.83400 -1.67500 45.73800
H  46.18400 -0.48500 44.43900
H  45.77900 -2.20200 44.11600
H  48.23400 2.81000 44.89500
H  48.97600 4.63800 47.02300
H  48.78800 1.08200 46.35200
H  48.25800 2.02800 47.79300
H  49.78000 2.46800 46.92800
H  48.56500 6.20300 44.77100
H  48.99000 4.73500 44.05100
H  51.04600 4.98700 45.96400
H  50.76200 6.62600 45.49800
H  51.03700 5.30600 44.23900
H  46.49300 9.63600 45.92800
H  47.32200 9.15200 47.53700
H  46.01200 10.44200 47.44100
H  41.15400 9.05700 46.72700
H  39.29400 9.11700 50.70900
H  37.88700 9.00200 49.67100
H  38.83900 10.51500 50.11900

