79

Mg 48.26700 24.23100 27.85600
C  49.29200 26.67100 30.15200
C  47.47200 22.18400 30.35600
C  47.15500 22.12300 25.54900
C  49.90200 26.18100 25.34600
N  48.29800 24.56400 29.98700
C  48.72100 25.59500 30.77800
C  48.54800 25.23600 32.31900
C  48.27200 23.69800 32.24800
C  47.99700 23.44800 30.78200
C  49.38100 22.84600 32.90100
C  47.52900 26.09700 33.14900
C  48.02600 26.89100 34.37700
H  47.11300 26.88500 35.59200
N  47.29300 22.41600 27.91900
C  47.18700 21.71400 29.08600
C  46.49100 20.46700 28.77100
C  46.34000 20.46500 27.29300
C  46.95000 21.69200 26.83100
C  46.07100 19.37900 29.76800
C  45.68700 19.43700 26.47800
O  45.67100 19.52900 25.25300
C  44.94000 18.30400 27.14900
N  48.68600 24.06800 25.74500
C  48.04000 23.12200 25.03100
C  48.21600 23.41700 23.53800
C  49.27600 24.55300 23.50200
C  49.30300 25.03000 24.93200
C  48.82600 22.18200 22.83600
C  48.97500 25.63700 22.39500
C  47.85500 26.70500 22.55400
N  49.36300 26.08600 27.69000
C  49.88800 26.74500 26.64600
C  50.44700 28.01400 27.04000
C  50.14400 28.08300 28.41900
C  49.59300 26.81500 28.79900
C  51.19800 28.92600 26.12600
C  50.34800 28.87900 29.62800
O  50.90900 29.95600 29.83500
C  49.75000 27.95100 30.81400
C  50.77900 27.70600 31.91500
O  51.71600 26.93800 31.80800
O  50.49000 28.51300 33.01700
C  51.37400 28.56100 34.20000
H  47.18100 21.47400 31.13300
H  46.85500 21.45300 24.74000
H  50.31800 26.82300 24.56600
H  49.45300 25.46600 32.88100
H  47.35100 23.34900 32.71700
H  49.73200 23.40400 33.76900
H  50.19100 22.62600 32.20600
H  48.96100 21.87000 33.14200
H  46.80400 25.39100 33.55200
H  47.17100 26.86900 32.46800
H  48.06700 27.93900 34.08100
H  49.03900 26.70100 34.73300
H  46.45800 19.66800 30.74600
H  46.43800 18.42200 29.39600
H  44.99000 19.51500 29.78600
H  44.21400 18.82500 27.77400
H  45.54800 17.64600 27.77000
H  44.44400 17.76000 26.34500
H  47.23300 23.73000 23.18800
H  50.31000 24.22900 23.39100
H  49.80000 22.03700 23.30300
H  49.17100 22.28700 21.80700
H  48.10400 21.36700 22.80200
H  48.89300 25.20600 21.39700
H  49.88700 26.22600 22.48600
H  47.44400 27.01400 21.59300
H  48.37600 27.55500 22.99500
H  47.20100 26.22900 23.28500
H  51.74000 28.45300 25.30700
H  51.93000 29.40700 26.77400
H  50.49900 29.67200 25.74700
H  48.99700 28.54300 31.33400
H  50.89100 28.28500 35.13700
H  51.77000 29.57400 34.27400
H  52.26100 27.92900 34.13900

