79

Mg 6.15000 55.24900 40.25900
C  4.91700 51.88700 40.15800
C  9.13000 54.13500 39.31000
C  7.09500 58.47500 39.86100
C  2.98400 56.21500 41.39900
N  6.90300 53.16800 39.52900
C  6.21700 51.97900 39.72000
C  7.29200 50.88100 39.50800
C  8.67500 51.61700 39.69600
C  8.24400 53.06300 39.51800
C  9.54800 51.28300 40.87900
C  7.24500 50.16700 38.11400
C  6.65200 50.80400 36.83600
H  7.64000 51.37300 35.73100
N  7.92700 56.15800 39.60500
C  9.05600 55.53800 39.22000
C  10.11400 56.43300 38.93900
C  9.53000 57.69300 39.03900
C  8.13700 57.50500 39.51000
C  11.55500 56.06800 38.75600
C  10.18500 59.06400 38.73100
O  11.32700 59.07600 38.30500
C  9.36700 60.30900 38.87700
N  5.13400 57.07500 40.46900
C  5.77800 58.27000 40.38000
C  4.90000 59.48400 40.72700
C  3.63300 58.77500 41.33900
C  3.87800 57.24300 41.02300
C  5.61300 60.44500 41.69100
C  2.28700 59.37900 40.76200
C  1.06800 59.67500 41.71200
N  4.29000 54.31700 40.61000
C  3.16600 54.85700 41.15700
C  2.14600 53.81900 41.35400
C  2.84000 52.60900 41.01600
C  4.13100 53.00300 40.60300
C  0.79800 53.98100 41.92300
C  2.63100 51.16500 40.90900
O  1.75200 50.40100 41.23700
C  4.16100 50.62100 40.57700
C  4.14900 49.58800 39.50000
O  4.03500 49.91600 38.28800
O  4.34200 48.35300 40.08700
C  4.33000 47.23000 39.12100
H  10.14800 53.82300 39.06600
H  7.29000 59.54800 39.80300
H  1.99800 56.58200 41.69300
H  7.18600 50.10600 40.26600
H  9.42100 51.41300 38.92800
H  9.14700 50.48400 41.50300
H  9.56600 52.10300 41.59800
H  10.58900 51.06400 40.64200
H  6.68400 49.24500 38.26800
H  8.28400 49.91500 37.89900
H  6.00300 51.62700 37.13600
H  5.90300 50.13900 36.40600
H  12.20200 56.51900 39.50900
H  11.82600 56.42300 37.76200
H  11.80000 55.00600 38.73700
H  8.61100 60.30500 38.09200
H  10.03800 61.12500 38.60500
H  9.05700 60.43700 39.91400
H  4.59700 60.15600 39.92400
H  3.67100 58.89200 42.42200
H  5.63200 61.42900 41.22300
H  6.60700 60.07200 41.93900
H  4.99600 60.72600 42.54400
H  1.87400 58.55800 40.17500
H  2.29400 60.16500 40.00800
H  0.26300 58.96600 41.51400
H  0.67100 60.67500 41.53900
H  1.24500 59.60700 42.78500
H  0.46100 55.00600 42.07300
H  0.70500 53.44900 42.87000
H  0.01900 53.44500 41.38000
H  4.64100 50.23100 41.47500
H  3.33200 46.79200 39.15300
H  5.09200 46.61300 39.59700
H  4.56100 47.56300 38.10900

