79

Mg -6.24200 25.54300 25.09700
C  -4.98200 26.73800 28.22100
C  -8.00000 23.24600 26.83500
C  -7.27900 24.55600 22.19200
C  -3.76800 27.53600 23.53300
N  -6.41700 25.06500 27.25200
C  -5.92500 25.76700 28.32600
C  -6.47000 25.22700 29.68800
C  -7.13300 23.85500 29.15200
C  -7.26500 24.12600 27.65400
C  -6.31800 22.56300 29.45300
C  -7.52800 26.14600 30.21500
C  -7.82700 26.03900 31.73200
H  -6.99000 25.03200 32.41700
N  -7.54800 24.16600 24.57900
C  -8.14300 23.25000 25.43200
C  -8.97800 22.38900 24.69500
C  -8.80900 22.81300 23.28800
C  -7.89500 23.95200 23.26700
C  -9.79200 21.29500 25.39600
C  -9.38800 22.22100 22.07000
O  -9.28600 22.68600 20.98300
C  -10.12700 20.90400 22.27300
N  -5.54500 25.84900 23.21700
C  -6.17800 25.36000 22.09500
C  -5.52900 25.74200 20.75600
C  -4.53600 26.79200 21.24500
C  -4.67600 26.78600 22.76900
C  -4.95100 24.61500 19.89200
C  -4.66400 28.21800 20.59800
C  -3.35500 28.93400 20.30300
N  -4.76300 26.96800 25.71400
C  -3.76300 27.60800 24.90500
C  -2.87900 28.34500 25.84300
C  -3.37500 28.09900 27.13700
C  -4.45000 27.21600 26.99700
C  -1.79100 29.21300 25.46300
C  -3.21000 28.37500 28.52200
O  -2.37900 29.03200 29.11800
C  -4.32900 27.52400 29.34500
C  -3.44100 26.64000 30.24400
O  -2.70700 25.73000 29.91600
O  -3.66900 27.05800 31.54900
C  -2.88000 26.30600 32.55700
H  -8.62500 22.49000 27.31600
H  -7.55700 24.14000 21.22100
H  -2.94800 28.01500 22.99300
H  -5.68400 25.05800 30.42400
H  -8.14000 23.61500 29.49400
H  -5.31900 22.83500 29.79600
H  -6.25600 22.01700 28.51200
H  -6.86100 21.93400 30.15900
H  -8.50900 26.02800 29.75600
H  -7.18900 27.13100 29.89300
H  -8.90400 25.87700 31.76800
H  -7.80300 27.00800 32.23000
H  -9.40900 20.37000 24.96500
H  -10.80900 21.43400 25.02800
H  -9.97600 21.32100 26.47000
H  -9.47300 20.16100 22.73100
H  -10.53900 20.61300 21.30700
H  -11.04000 21.06900 22.84600
H  -6.25800 26.20100 20.08900
H  -3.50900 26.53000 20.98900
H  -3.86100 24.63900 19.91900
H  -5.34700 24.68400 18.87900
H  -5.23100 23.60600 20.19500
H  -5.23300 28.87600 21.25600
H  -5.26000 28.14200 19.68900
H  -3.64800 29.66900 19.55400
H  -2.57200 28.26200 19.95000
H  -3.02700 29.56000 21.13200
H  -1.19200 28.80900 24.64700
H  -1.25200 29.49500 26.36800
H  -2.35200 30.06300 25.07500
H  -4.97500 28.15000 29.96000
H  -3.26900 25.28900 32.60200
H  -3.05200 26.76100 33.53200
H  -1.82600 26.33600 32.28100

