79

Mg 53.68100 24.74800 43.82600
C  51.12100 26.96200 43.30700
C  51.56200 22.29000 42.47100
C  56.30700 22.65300 43.26300
C  55.78000 27.36900 44.50500
N  51.67300 24.69600 42.68200
C  50.85100 25.74400 42.65100
C  49.51700 25.43500 41.97100
C  49.53200 23.80800 42.00600
C  50.99300 23.53100 42.44600
C  48.45600 23.11700 42.87700
C  49.28700 25.92100 40.47400
C  50.42900 25.84400 39.48400
H  50.03300 25.30400 38.14100
N  53.92600 22.66000 43.17100
C  52.90400 21.87500 42.72400
C  53.44300 20.54100 42.52700
C  54.84000 20.62200 42.77100
C  55.07600 22.02200 43.07500
C  52.57400 19.38700 42.25100
C  55.82200 19.47800 42.70200
O  55.52100 18.32200 42.41700
C  57.17200 19.51900 43.31500
N  55.77600 24.94400 43.78100
C  56.62100 23.99400 43.59400
C  58.02800 24.51700 43.70900
C  57.85500 26.06400 43.91000
C  56.35200 26.15800 44.16100
C  58.89300 23.82800 44.76300
C  58.31400 26.92800 42.69400
C  58.83800 28.28400 43.00300
N  53.51600 26.69300 44.11800
C  54.43900 27.68400 44.45300
C  53.70800 28.87700 44.81700
C  52.37300 28.60800 44.40600
C  52.35400 27.26400 43.92000
C  54.33100 30.10600 45.36000
C  51.13800 29.30100 44.22500
O  50.74900 30.48300 44.35300
C  50.25100 28.16100 43.45200
C  49.72100 28.76100 42.24400
O  50.27600 28.93800 41.17200
O  48.41500 29.10300 42.50400
C  47.68100 29.90700 41.54700
H  50.93500 21.47500 42.10200
H  57.17200 22.02600 43.04100
H  56.51900 28.07400 44.88900
H  48.74600 25.92200 42.56800
H  49.42900 23.41000 40.99700
H  48.71500 22.38200 43.64000
H  47.80100 22.57700 42.19300
H  47.81600 23.88300 43.31600
H  48.95400 26.95700 40.54900
H  48.31300 25.53100 40.17800
H  51.24300 25.27700 39.93500
H  50.79200 26.86700 39.38600
H  52.03100 19.62700 41.33700
H  51.77700 19.28900 42.98800
H  53.00700 18.42600 41.97400
H  57.67300 18.55900 43.43700
H  57.10400 19.97400 44.30300
H  57.72000 20.16400 42.62800
H  58.55600 24.24700 42.79500
H  58.54600 26.40400 44.68200
H  59.84400 23.56300 44.30000
H  58.45800 22.86500 45.03300
H  59.04500 24.41900 45.66600
H  57.48200 27.03700 41.99800
H  59.04400 26.33200 42.14700
H  59.36200 28.64400 42.11800
H  59.61000 28.21500 43.76900
H  58.08800 29.02600 43.27900
H  53.56800 30.82800 45.65400
H  54.94800 30.55200 44.58000
H  54.94700 29.87700 46.22900
H  49.43900 27.84300 44.10600
H  47.15200 29.23900 40.86700
H  48.31800 30.59800 40.99600
H  46.97000 30.52400 42.09800

