79

Mg 39.86900 8.75200 29.53800
C  41.53900 10.08900 32.29500
C  37.49900 7.38600 31.53800
C  38.59800 7.04400 26.86200
C  42.59900 9.74900 27.60200
N  39.61300 8.69800 31.64800
C  40.31500 9.46400 32.59000
C  39.60600 9.48000 33.98700
C  38.54000 8.34800 33.84700
C  38.57700 8.03700 32.29000
C  38.88700 6.95600 34.54600
C  39.03500 10.85700 34.41100
C  38.75400 11.16500 35.94100
H  39.65700 12.11700 36.77700
N  38.29300 7.45200 29.22600
C  37.38400 7.08200 30.15100
C  36.37400 6.37000 29.52500
C  36.57000 6.33600 28.11000
C  37.84000 6.92600 28.02900
C  35.25100 5.74100 30.35200
C  35.80300 5.71000 27.04700
O  36.28300 5.52300 25.91600
C  34.31300 5.47500 27.31400
N  40.60600 8.41600 27.57000
C  39.83600 7.73500 26.66500
C  40.54500 7.72500 25.24500
C  41.51300 8.91000 25.49500
C  41.56900 9.11100 26.98800
C  41.28400 6.35600 24.96800
C  41.04200 10.19800 24.74800
C  39.74000 10.81300 25.10300
N  41.70600 9.78000 29.81400
C  42.76200 10.09800 28.96100
C  43.86200 10.66400 29.64700
C  43.36700 10.74600 31.01600
C  42.12200 10.16700 31.00200
C  45.16600 11.24400 29.10200
C  43.64700 11.43300 32.28000
O  44.40200 12.30500 32.66300
C  42.49800 10.85800 33.17100
C  43.09000 10.09300 34.33100
O  43.96300 9.29400 34.23900
O  42.54700 10.59300 35.52500
C  43.11400 10.01500 36.74500
H  36.69300 7.07700 32.20700
H  38.25400 6.50400 25.97800
H  43.43100 10.09500 26.98500
H  40.35400 9.23000 34.73900
H  37.58600 8.73700 34.20000
H  38.82000 6.17300 33.79100
H  38.15500 6.75100 35.32700
H  39.82200 6.86600 35.09900
H  38.15300 11.13300 33.83300
H  39.71200 11.67900 34.17800
H  38.73600 10.28100 36.57800
H  37.76000 11.57500 36.12200
H  35.35200 5.63700 31.43300
H  34.97300 4.77200 29.93700
H  34.35700 6.35800 30.26600
H  33.87500 6.32600 27.83600
H  34.26800 4.57900 27.93300
H  33.70200 5.19000 26.45800
H  39.87800 7.91100 24.40300
H  42.50900 8.51600 25.29600
H  42.32000 6.34200 24.63100
H  40.67800 5.87100 24.20300
H  41.21000 5.71900 25.85000
H  41.02700 9.94300 23.68900
H  41.83100 10.92500 24.94300
H  39.88200 11.84700 25.41600
H  39.19300 10.16700 25.79100
H  39.20000 10.81200 24.15600
H  45.25800 12.25000 29.51000
H  45.20100 11.28400 28.01300
H  45.96600 10.56900 29.40500
H  41.98800 11.73900 33.55900
H  42.84500 10.59900 37.62500
H  44.18400 10.20300 36.65400
H  43.01000 8.93100 36.80900

