79

Mg 48.60100 46.05600 43.41300
C  45.32200 46.75100 42.47500
C  48.26600 42.84800 41.81200
C  51.87500 45.56500 43.59700
C  49.07200 49.45300 44.07100
N  47.01100 44.94800 42.21200
C  45.73000 45.44700 42.04600
C  44.84400 44.39200 41.26500
C  45.89100 43.16900 41.14200
C  47.12400 43.64500 41.84400
C  45.36600 41.94400 41.89700
C  44.47400 44.94600 39.85700
C  43.07000 44.93700 39.40200
H  42.66100 43.84500 38.33700
N  49.92400 44.41100 42.86300
C  49.60200 43.19000 42.24900
C  50.76800 42.34700 42.25200
C  51.86000 43.08500 42.84700
C  51.31500 44.42800 43.12300
C  50.73400 40.85900 41.99800
C  53.19600 42.60700 43.17900
O  53.55100 41.47700 42.77900
C  54.20400 43.35400 44.08300
N  50.26500 47.37200 43.76300
C  51.50600 46.89400 43.82000
C  52.57600 48.07400 43.97300
C  51.62000 49.24200 44.25000
C  50.25200 48.69800 44.05500
C  53.61700 47.90200 45.13600
C  51.80100 50.53400 43.36400
C  51.71400 52.00900 43.92800
N  47.46900 47.72500 43.49700
C  47.75800 49.03300 43.81400
C  46.53500 49.80300 43.79200
C  45.53300 48.91400 43.41500
C  46.18800 47.68300 43.07600
C  46.45100 51.26000 44.13700
C  44.09400 48.76500 43.20100
O  43.21300 49.54900 43.47300
C  43.92800 47.32600 42.60000
C  42.95300 46.53700 43.47700
O  42.98000 46.31600 44.71500
O  42.07400 45.86500 42.65500
C  41.41300 44.74300 43.29600
H  48.21100 41.84500 41.38300
H  52.96000 45.44800 43.62100
H  49.20400 50.52700 44.21500
H  43.97600 44.18200 41.89100
H  46.16000 42.95500 40.10800
H  44.36400 41.99000 42.32300
H  46.04800 41.79900 42.73500
H  45.34600 41.12100 41.18300
H  44.93500 44.27800 39.13000
H  44.99800 45.89900 39.78400
H  42.86800 45.88800 38.90900
H  42.49700 44.85300 40.32500
H  51.33700 40.61600 41.12300
H  49.76300 40.53300 41.62500
H  51.00300 40.11200 42.74500
H  53.71300 43.57100 45.03200
H  54.65500 44.13400 43.47000
H  54.95800 42.59300 44.28400
H  53.08400 48.29700 43.03400
H  51.60100 49.58400 45.28500
H  53.44400 48.40600 46.08700
H  54.54900 48.22000 44.67000
H  53.83300 46.89700 45.49800
H  51.07600 50.49200 42.55100
H  52.74700 50.39200 42.84100
H  50.93700 52.56500 43.40400
H  52.70700 52.45800 43.89300
H  51.53100 51.99900 45.00300
H  46.60900 51.84900 43.23300
H  47.24400 51.59400 44.80600
H  45.47500 51.51700 44.54700
H  43.39100 47.39800 41.65400
H  40.86800 44.94100 44.21900
H  42.09300 43.94700 43.59900
H  40.76500 44.37300 42.50300

