79

Mg -13.50700 15.47000 41.81500
C  -10.51300 13.75100 41.54200
C  -12.08900 18.07200 40.07000
C  -16.57800 16.90700 41.32100
C  -14.86300 12.66500 43.42000
N  -11.56500 15.75600 40.84600
C  -10.47700 15.01400 40.91900
C  -9.29500 15.58000 40.09700
C  -9.70900 17.01100 39.89200
C  -11.24000 16.97000 40.26400
C  -8.86400 18.07500 40.51200
C  -8.99400 14.70700 38.82200
C  -7.54700 14.20900 38.58800
H  -6.75600 14.95800 37.47100
N  -14.20800 17.31600 40.87100
C  -13.45900 18.23900 40.22800
C  -14.31900 19.28600 39.71000
C  -15.63400 18.94000 40.03100
C  -15.53300 17.69500 40.82600
C  -13.75600 20.43400 38.85100
C  -16.88000 19.67500 39.56100
O  -16.85400 20.69600 38.90100
C  -18.30200 19.17500 39.81000
N  -15.43500 14.78000 42.19200
C  -16.53100 15.64100 41.95800
C  -17.82100 14.89600 42.41000
C  -17.24200 13.74300 43.33600
C  -15.76000 13.65700 42.93600
C  -18.94100 15.75500 43.09700
C  -18.04100 12.38300 43.29200
C  -17.74700 11.63100 42.00100
N  -12.86100 13.50000 42.41500
C  -13.51200 12.46700 43.05800
C  -12.64300 11.39100 43.24400
C  -11.39800 11.81800 42.69800
C  -11.58600 13.11200 42.22800
C  -12.93900 10.03200 43.85100
C  -9.98000 11.42600 42.45200
O  -9.34100 10.35400 42.61800
C  -9.34400 12.76800 41.75500
C  -8.20400 13.41000 42.61000
O  -8.29900 14.29700 43.45600
O  -6.96800 12.89100 42.18700
C  -5.81800 13.63700 42.64700
H  -11.58000 18.92100 39.61000
H  -17.54500 17.41400 41.30800
H  -15.29700 11.87400 44.03600
H  -8.49200 15.55700 40.83300
H  -9.61700 17.19700 38.82200
H  -8.62000 18.77700 39.71400
H  -7.89300 17.62300 40.71300
H  -9.31500 18.48100 41.41800
H  -9.36100 15.26200 37.95800
H  -9.68200 13.86200 38.80000
H  -7.49800 13.13300 38.42000
H  -6.85100 14.37900 39.40900
H  -14.11100 20.39300 37.82100
H  -12.67800 20.46100 38.69100
H  -14.02000 21.39700 39.28800
H  -18.40600 18.12800 39.52500
H  -18.98300 19.77100 39.20300
H  -18.56900 19.33900 40.85400
H  -18.13200 14.45200 41.46400
H  -17.31500 13.97000 44.39900
H  -19.23200 15.35600 44.06900
H  -19.86000 15.86900 42.52100
H  -18.54800 16.76300 43.22900
H  -19.06500 12.75700 43.27200
H  -17.70900 11.85100 44.18300
H  -18.70700 11.39800 41.54000
H  -17.35100 10.65200 42.27100
H  -17.31400 12.19700 41.17700
H  -13.35100 10.26900 44.83200
H  -12.01700 9.46300 43.73400
H  -13.71800 9.54300 43.26500
H  -8.93500 12.46500 40.79200
H  -6.04900 14.28300 43.49400
H  -5.47000 14.27500 41.83500
H  -5.06200 12.91800 42.96200

