79

Mg 0.84800 8.41700 26.59300
C  1.45200 10.32700 29.45300
C  1.09100 5.52200 28.50400
C  0.72900 6.50700 23.80900
C  0.93500 11.29300 24.74400
N  1.30200 7.96800 28.79200
C  1.30000 8.96800 29.74800
C  1.22300 8.32000 31.15300
C  1.22300 6.79400 30.80000
C  1.31800 6.66800 29.26000
C  2.22400 6.01200 31.68800
C  -0.11400 8.64400 31.91200
C  -0.01500 8.95500 33.39500
H  1.12800 8.37500 34.19200
N  0.96400 6.28100 26.17300
C  1.05700 5.29900 27.09100
C  1.04200 3.97700 26.43900
C  0.81800 4.16500 25.02700
C  0.88500 5.69700 24.90800
C  1.16800 2.70000 27.32400
C  0.54900 3.09400 23.94800
O  0.56700 3.41900 22.75900
C  0.67600 1.58300 24.32800
N  0.80600 8.82100 24.61400
C  0.79800 7.89200 23.61700
C  0.67400 8.54200 22.22300
C  0.62400 10.10400 22.58200
C  0.69900 10.12200 24.07500
C  1.96200 8.11500 21.41700
C  -0.58300 10.83800 22.00700
C  -1.16900 10.42600 20.54600
N  1.17400 10.44900 26.92100
C  1.22200 11.51500 26.07500
C  1.59300 12.69400 26.79600
C  1.73100 12.24100 28.09100
C  1.40100 10.92200 28.17500
C  1.64800 14.07300 26.34600
C  2.10000 12.67900 29.44500
O  2.44800 13.78500 29.88700
C  1.64500 11.50700 30.35000
C  2.78600 11.27700 31.27100
O  3.94900 11.12600 30.95400
O  2.33400 11.46600 32.58200
C  3.27900 11.81500 33.59100
H  0.80700 4.67000 29.12500
H  0.68600 5.93300 22.88100
H  0.94700 12.17000 24.09500
H  2.17500 8.52300 31.64100
H  0.25600 6.33200 30.99700
H  3.04200 6.70100 31.90100
H  2.71700 5.23500 31.10400
H  1.75700 5.59800 32.58200
H  -0.89900 7.92200 31.68800
H  -0.54300 9.50600 31.40100
H  -0.95300 8.63300 33.84700
H  0.13000 10.02900 33.50900
H  1.20900 2.77500 28.41100
H  2.13000 2.27600 27.03400
H  0.32900 2.01100 27.22600
H  0.72600 0.94600 23.44500
H  -0.19700 1.49800 24.97500
H  1.60700 1.38000 24.85700
H  -0.24500 8.15700 21.78200
H  1.55800 10.50300 22.18700
H  2.19500 8.97700 20.79200
H  1.74100 7.31300 20.71400
H  2.78000 7.90900 22.10800
H  -0.30400 11.88600 21.90500
H  -1.49300 10.70600 22.59200
H  -2.12200 9.91400 20.67700
H  -0.47400 9.66700 20.18400
H  -1.22600 11.27700 19.86700
H  2.00200 14.13500 25.31700
H  2.36000 14.64800 26.93800
H  0.66000 14.52500 26.43600
H  0.69700 11.72000 30.84500
H  3.90600 12.70100 33.49900
H  4.07000 11.08300 33.75600
H  2.78000 12.00400 34.54200

