79

Mg -1.90700 34.39900 26.66700
C  -3.30500 32.43900 29.32300
C  -0.23200 36.18600 28.98000
C  -1.46900 36.78000 24.29300
C  -3.89100 32.70300 24.43000
N  -1.98000 34.31300 28.92300
C  -2.49500 33.42600 29.79200
C  -2.03500 33.70100 31.21300
C  -1.08600 34.97100 30.99200
C  -1.08900 35.15900 29.52300
C  -1.44000 36.18200 31.82700
C  -1.34100 32.53800 31.96600
C  -1.97200 32.11500 33.36100
H  -0.94700 31.69500 34.37200
N  -0.79200 36.03800 26.61100
C  -0.13500 36.63100 27.67900
C  0.70400 37.75800 27.19700
C  0.24100 38.01300 25.83900
C  -0.75800 36.93200 25.54000
C  1.74800 38.51100 28.16300
C  0.67600 39.05000 24.81100
O  0.13900 39.25100 23.73400
C  1.82600 39.90100 25.17600
N  -2.74800 34.80900 24.69600
C  -2.46500 35.89200 23.93500
C  -2.99200 35.75900 22.46100
C  -3.74800 34.36400 22.50800
C  -3.51400 33.91000 23.97300
C  -3.84400 36.98300 21.93800
C  -3.11300 33.29100 21.49100
C  -1.78000 32.65700 21.93000
N  -3.35800 32.89000 26.77000
C  -3.98200 32.22600 25.77100
C  -4.73000 31.06800 26.32700
C  -4.51200 31.18300 27.72100
C  -3.59500 32.23200 27.96300
C  -5.61200 30.15800 25.57000
C  -4.84700 30.58300 28.99100
O  -5.53000 29.60400 29.15800
C  -4.07400 31.35600 30.09100
C  -5.08300 31.78100 31.13500
O  -5.73600 32.75000 31.03000
O  -4.99300 30.89900 32.15600
C  -5.83400 31.22200 33.35300
H  0.27400 36.73400 29.77700
H  -1.32900 37.52200 23.50500
H  -4.52100 32.19300 23.69800
H  -2.98600 33.94800 31.68500
H  -0.12400 34.54200 31.27500
H  -1.54200 37.08100 31.22000
H  -0.62500 36.37400 32.52500
H  -2.36500 36.08100 32.39500
H  -0.28600 32.78300 32.08900
H  -1.30800 31.58200 31.44300
H  -2.55200 31.19300 33.37000
H  -2.63100 32.91200 33.70600
H  2.76500 38.31900 27.82100
H  1.51700 38.18700 29.17800
H  1.65600 39.59400 28.08500
H  1.44200 40.61300 25.90600
H  2.23200 40.38400 24.28600
H  2.57100 39.20300 25.55800
H  -2.13500 35.81100 21.78900
H  -4.81400 34.38400 22.28100
H  -4.86200 36.71800 21.65400
H  -3.22100 37.41400 21.15400
H  -3.91100 37.71400 22.74400
H  -2.85200 33.68500 20.50900
H  -3.91800 32.57900 21.30600
H  -1.10700 32.96000 21.12700
H  -1.83000 31.57900 22.08400
H  -1.29000 33.07900 22.80700
H  -6.18000 29.63700 26.34100
H  -5.11800 29.42300 24.93400
H  -6.25300 30.60300 24.80800
H  -3.48600 30.55300 30.53400
H  -5.92600 30.35800 34.01100
H  -6.78000 31.65300 33.02500
H  -5.21900 31.94400 33.89000

