79

Mg 26.77500 50.78600 26.22000
C  24.94200 52.12000 28.78200
C  29.20100 49.81700 28.48300
C  28.56800 49.55700 23.69300
C  24.50900 52.19600 23.94200
N  26.97200 50.89500 28.33400
C  26.05100 51.40100 29.23600
C  26.44700 51.09000 30.70900
C  27.93500 50.61900 30.53200
C  28.05500 50.35300 29.05900
C  29.11400 51.67100 30.78800
C  25.50500 49.99900 31.42700
C  25.10800 50.27500 32.87600
H  26.14200 50.65200 33.94000
N  28.59600 49.86400 26.16000
C  29.53100 49.57100 27.15100
C  30.66900 49.00200 26.64100
C  30.33700 48.60100 25.35100
C  29.14100 49.36800 24.99000
C  31.84400 48.72300 27.51400
C  30.99800 47.71700 24.45400
O  30.53300 47.42100 23.36200
C  32.25600 46.97900 24.84900
N  26.66100 51.06900 24.20100
C  27.43900 50.30900 23.35200
C  27.01500 50.47700 21.84800
C  25.61100 51.10800 22.01000
C  25.58500 51.46800 23.54000
C  28.00100 51.24700 20.93200
C  24.40800 50.07800 21.82400
C  23.14100 50.64200 21.22300
N  25.12300 52.01400 26.30000
C  24.26700 52.50800 25.31600
C  23.08900 53.18100 25.91300
C  23.35100 53.05000 27.28000
C  24.59100 52.39300 27.43700
C  21.95400 53.69100 25.22000
C  22.82200 53.29200 28.61400
O  21.73600 53.82500 28.93000
C  23.85800 52.65600 29.58500
C  24.33200 53.64900 30.61200
O  25.06800 54.61400 30.39400
O  23.75900 53.43800 31.84500
C  24.27600 54.15400 33.03900
H  29.88300 49.39900 29.22700
H  29.08100 49.10200 22.84300
H  23.88000 52.67000 23.18600
H  26.31500 51.94200 31.37500
H  28.14800 49.78300 31.19900
H  29.61100 52.16900 29.95500
H  29.87500 51.27400 31.46000
H  28.65400 52.57100 31.19600
H  26.09100 49.08300 31.49300
H  24.66600 49.90100 30.73900
H  24.87500 49.28100 33.25600
H  24.17900 50.84500 32.87100
H  31.84700 47.67400 27.81100
H  31.88100 49.37700 28.38500
H  32.79700 49.00300 27.06400
H  31.98400 46.34800 25.69500
H  33.03100 47.71200 25.07500
H  32.58200 46.29700 24.06400
H  26.95700 49.46000 21.46000
H  25.55900 52.01700 21.41000
H  28.11500 50.72200 19.98400
H  28.90600 51.35800 21.53000
H  27.60200 52.25000 20.78000
H  24.02800 49.72500 22.78300
H  24.68600 49.21400 21.22100
H  22.84900 50.04300 20.35900
H  23.28000 51.70700 21.04000
H  22.24900 50.43000 21.81200
H  21.11700 53.82500 25.90500
H  21.63600 52.90800 24.53100
H  22.23400 54.59700 24.68300
H  23.33400 51.82500 30.05600
H  25.28900 54.54100 32.93400
H  24.18900 53.49300 33.90100
H  23.61200 54.98200 33.28900

