79

Mg 29.60800 57.54500 41.01900
C  26.65400 55.71100 39.91500
C  31.45100 55.16800 39.58400
C  32.00400 59.65200 41.38300
C  27.20100 60.12100 41.97900
N  29.03400 55.76400 39.70900
C  27.78100 55.19800 39.41700
C  28.00400 53.87200 38.67100
C  29.52700 53.57700 38.89900
C  30.03400 54.90800 39.41600
C  29.83700 52.37100 39.91500
C  27.59600 53.68400 37.13100
C  27.13800 54.95600 36.38900
H  27.50300 55.08700 34.86200
N  31.49600 57.45200 40.52300
C  32.12100 56.33900 40.00700
C  33.48800 56.72800 39.76100
C  33.72500 58.04100 40.35800
C  32.38900 58.44200 40.86100
C  34.44000 55.84900 39.01400
C  35.03300 58.77100 40.43600
O  36.01500 58.17700 40.03200
C  35.22500 60.19800 40.99200
N  29.54700 59.54500 41.61900
C  30.73400 60.22300 41.73400
C  30.55400 61.72100 41.86000
C  29.15600 61.77600 42.33100
C  28.57500 60.40800 42.03700
C  31.69000 62.39900 42.75900
C  28.32500 63.03100 41.81800
C  28.37400 64.12000 42.89700
N  27.42100 57.83700 41.16700
C  26.60800 58.92200 41.61600
C  25.15300 58.62800 41.50000
C  25.21200 57.36400 40.86800
C  26.58500 56.94800 40.69500
C  23.97900 59.37300 41.81600
C  24.28400 56.32400 40.37400
O  23.07600 56.14600 40.51800
C  25.20300 55.23800 39.75500
C  24.78400 53.95100 40.43400
O  24.79500 53.73000 41.64800
O  24.38200 53.18000 39.41900
C  24.14300 51.75700 39.58300
H  32.12900 54.37900 39.25200
H  32.72600 60.45400 41.21700
H  26.54000 60.94400 42.26100
H  27.54500 53.05100 39.22200
H  30.11200 53.39400 37.99800
H  28.94600 51.75700 40.04900
H  30.26100 52.86700 40.78800
H  30.65700 51.80800 39.47000
H  26.63700 53.16700 37.16800
H  28.34000 53.12300 36.56600
H  27.66300 55.77400 36.88200
H  26.06200 54.99600 36.55700
H  35.13000 55.62100 39.82600
H  34.95300 56.42300 38.24200
H  34.15600 54.87300 38.62000
H  34.88000 60.82800 40.17200
H  36.28000 60.39900 41.18200
H  34.73800 60.37900 41.95000
H  30.54300 62.22800 40.89500
H  29.06400 61.62300 43.40700
H  32.07900 61.68600 43.48500
H  31.30100 63.24700 43.32200
H  32.43300 62.91000 42.14500
H  27.26000 62.85600 41.66700
H  28.70100 63.49700 40.90700
H  27.37400 64.07600 43.32900
H  28.78000 65.07000 42.55100
H  29.09000 63.91700 43.69400
H  23.95100 60.34100 41.31500
H  24.10300 59.55700 42.88300
H  23.05500 58.86100 41.54600
H  24.93700 55.13300 38.70300
H  24.42200 51.17000 38.70800
H  23.05400 51.72600 39.56800
H  24.58800 51.37800 40.50400

