79

Mg 25.92800 49.69600 26.46900
C  24.21000 51.08900 29.09200
C  28.37700 48.74100 28.88000
C  27.93100 48.60700 23.99400
C  24.08900 51.56600 24.13600
N  26.35700 50.02800 28.77600
C  25.27600 50.41200 29.61200
C  25.67100 50.18300 31.09900
C  27.15500 49.60200 30.97000
C  27.37100 49.48100 29.48000
C  28.27200 50.38100 31.75600
C  24.63300 49.20800 31.82500
C  23.99700 49.69400 33.22400
H  24.96900 50.04500 34.35600
N  27.79300 48.59700 26.51100
C  28.60900 48.26900 27.56200
C  29.64900 47.46600 27.07800
C  29.56300 47.47500 25.60600
C  28.34200 48.22300 25.27600
C  30.72100 46.78600 27.94400
C  30.49300 46.82500 24.63400
O  30.45100 46.98200 23.40700
C  31.69100 45.96900 25.04500
N  26.00000 50.02900 24.33600
C  26.93000 49.42900 23.56900
C  26.70400 49.66000 22.03500
C  25.18300 50.35400 22.09100
C  25.12200 50.77100 23.57400
C  27.79200 50.58400 21.39200
C  23.95100 49.46900 21.60200
C  23.43900 49.81800 20.19200
N  24.48000 51.02800 26.54600
C  23.74400 51.60500 25.51600
C  22.65600 52.30000 26.00500
C  22.74500 52.10700 27.40300
C  23.94500 51.38400 27.71000
C  21.60000 53.18400 25.29400
C  22.18100 52.39700 28.66800
O  21.19800 53.12100 28.91000
C  23.01100 51.70700 29.82800
C  23.35400 52.77000 30.84100
O  24.11800 53.67500 30.60500
O  22.61200 52.54100 31.98700
C  23.15600 53.40400 33.08900
H  29.19500 48.33700 29.48100
H  28.43000 48.00500 23.23100
H  23.35000 52.06300 23.50500
H  25.73600 51.15600 31.58700
H  27.21700 48.62500 31.44900
H  28.56600 49.92200 32.70000
H  27.91400 51.35500 32.08900
H  29.15400 50.68300 31.19100
H  25.01100 48.18800 31.89800
H  23.77900 49.22000 31.14800
H  23.37400 48.91500 33.66300
H  23.44700 50.63300 33.15800
H  30.80700 45.71800 27.74300
H  30.60200 46.97300 29.01100
H  31.59800 47.31200 27.56700
H  32.27200 46.61600 25.70300
H  32.23500 45.60700 24.17300
H  31.38100 45.04200 25.52700
H  26.72800 48.63700 21.65900
H  25.30500 51.27800 21.52700
H  27.37100 51.36500 20.75900
H  28.38200 50.00900 20.67800
H  28.37300 51.04200 22.19200
H  23.14000 49.67600 22.29900
H  24.19500 48.40700 21.56000
H  23.43600 48.90400 19.59900
H  24.17500 50.48600 19.74500
H  22.42400 50.18900 20.33200
H  21.10900 52.71100 24.44300
H  22.04300 54.13200 24.99000
H  20.77700 53.39400 25.97700
H  22.44800 50.87000 30.24100
H  24.21400 53.22800 33.28500
H  22.63500 53.41400 34.04600
H  23.02600 54.44800 32.80400

