79

Mg 6.93400 55.18800 40.33800
C  6.07700 51.78400 40.26200
C  10.19500 54.44900 39.63100
C  7.57800 58.46100 39.65700
C  3.48300 55.96600 40.46400
N  7.94000 53.37200 39.89600
C  7.40300 52.10500 39.91200
C  8.55100 51.07200 39.70300
C  9.78700 51.91300 39.93500
C  9.32500 53.36800 39.90800
C  10.67300 51.59500 41.20000
C  8.48600 50.40100 38.27900
C  8.14400 51.35900 37.08500
H  6.78200 51.10300 36.35000
N  8.61100 56.32000 39.83900
C  9.86000 55.81900 39.55000
C  10.75400 56.84100 39.16400
C  10.01200 58.04900 39.09800
C  8.67100 57.65100 39.60800
C  12.19700 56.60700 38.90900
C  10.63600 59.40100 38.69400
O  11.72300 59.55600 38.13700
C  9.86900 60.77700 38.88200
N  5.70100 56.96100 40.01700
C  6.16400 58.23500 39.85900
C  5.01000 59.21200 39.56000
C  3.80000 58.37300 39.80700
C  4.34400 57.00700 40.06100
C  5.02800 60.49800 40.51600
C  2.85200 58.35900 38.58100
C  1.64300 59.37600 38.56000
N  5.11500 54.15200 40.47300
C  3.77200 54.57300 40.68900
C  2.96600 53.44100 40.93500
C  3.84100 52.24500 40.79500
C  5.13700 52.73700 40.51400
C  1.51900 53.47200 41.37700
C  3.97900 50.85000 40.88400
O  3.13500 49.99100 41.22100
C  5.40400 50.44400 40.64300
C  5.49300 49.40600 39.51900
O  5.15800 49.54500 38.39000
O  5.94300 48.19000 40.09600
C  5.80700 46.98800 39.32500
H  11.20600 54.20200 39.30000
H  7.75000 59.49700 39.35700
H  2.41900 56.20000 40.37900
H  8.33500 50.30100 40.44300
H  10.43200 51.72100 39.07700
H  10.12000 50.87400 41.80200
H  10.88900 52.46900 41.81300
H  11.63900 51.14000 40.98100
H  7.77900 49.58200 38.41300
H  9.42000 49.89800 38.02800
H  8.91400 51.21900 36.32600
H  8.20700 52.40200 37.39400
H  12.33800 56.88800 37.86600
H  12.55500 55.60100 39.12900
H  12.87500 57.28900 39.42200
H  10.53100 61.61700 38.67300
H  9.43400 60.86700 39.87700
H  9.04600 60.87900 38.17500
H  5.09300 59.49600 38.51200
H  3.30700 58.71700 40.71600
H  4.04300 60.67300 40.94600
H  5.36400 61.41500 40.03100
H  5.72200 60.48100 41.35600
H  2.31000 57.41300 38.58800
H  3.40200 58.50400 37.65100
H  1.95700 60.22300 37.95100
H  1.32100 59.78100 39.52000
H  0.89000 58.85800 37.96600
H  1.08600 52.47200 41.40700
H  1.04100 54.20400 40.72700
H  1.58600 53.69900 42.44100
H  5.82300 50.04700 41.56700
H  6.41400 46.84700 38.43100
H  4.73900 46.85100 39.15500
H  6.15200 46.18600 39.97800

