79

Mg -12.69500 36.92200 42.86800
C  -9.92400 34.95100 42.04700
C  -10.94600 39.70400 41.47500
C  -15.43000 38.75400 43.23500
C  -14.42300 34.04800 43.99700
N  -10.70500 37.24500 41.74200
C  -9.81700 36.19800 41.47000
C  -8.59200 36.81000 40.69600
C  -8.84200 38.34800 40.65300
C  -10.23500 38.48000 41.37600
C  -7.77700 39.41600 41.11900
C  -8.37700 36.09600 39.31700
C  -6.98600 35.48400 38.99100
H  -6.13000 36.34500 37.99900
N  -13.07700 38.88200 42.53800
C  -12.27400 39.83700 41.99300
C  -13.04000 41.09800 41.83800
C  -14.37200 40.78900 42.10000
C  -14.34600 39.41000 42.58400
C  -12.43500 42.42600 41.36400
C  -15.52200 41.72000 41.98200
O  -15.37400 42.86100 41.62500
C  -16.93400 41.37500 42.25400
N  -14.81400 36.37400 43.24800
C  -15.64200 37.44300 43.63500
C  -16.92500 36.92900 44.17100
C  -16.58900 35.35200 44.38500
C  -15.18100 35.25900 43.84100
C  -17.45000 37.68500 45.47500
C  -17.54200 34.54000 43.56200
C  -18.88300 34.19100 44.17400
N  -12.33700 34.94600 43.03500
C  -13.06500 33.93100 43.66000
C  -12.19700 32.75900 43.74200
C  -10.99400 33.09300 43.09900
C  -11.12700 34.43500 42.76700
C  -12.52700 31.36000 44.37800
C  -9.65400 32.66600 42.66000
O  -9.14500 31.55100 42.70200
C  -8.90800 33.90800 42.11400
C  -7.84200 34.09100 43.22000
O  -6.65500 33.91000 43.02500
O  -8.31700 34.57400 44.37300
C  -7.45800 34.48700 45.57500
H  -10.38500 40.55800 41.08800
H  -16.18800 39.44900 43.60500
H  -14.99700 33.19300 44.36100
H  -7.70600 36.68200 41.31800
H  -9.18800 38.67600 39.67200
H  -6.92500 38.79200 41.38800
H  -8.19900 39.94400 41.97400
H  -7.43400 40.19100 40.43400
H  -8.57000 36.79700 38.50500
H  -9.01000 35.24300 39.07300
H  -7.12300 34.50700 38.52800
H  -6.26600 35.45600 39.80800
H  -12.73500 43.24300 42.02100
H  -12.87200 42.77700 40.42900
H  -11.36000 42.36400 41.19600
H  -17.57300 42.01700 41.64800
H  -17.14000 41.53000 43.31300
H  -17.12300 40.35400 41.92000
H  -17.72700 37.00600 43.43600
H  -16.60200 35.06600 45.43600
H  -18.28400 38.34500 45.23700
H  -16.69600 38.37300 45.85800
H  -17.70300 36.94200 46.23100
H  -17.09600 33.58000 43.29900
H  -17.74200 34.99200 42.59000
H  -18.94900 33.16700 44.54200
H  -19.69900 34.38200 43.47700
H  -19.04700 34.88200 45.00200
H  -13.29300 30.84600 43.79700
H  -12.89700 31.38700 45.40300
H  -11.63300 30.74500 44.27400
H  -8.48600 33.68800 41.13300
H  -6.44700 34.67500 45.21400
H  -7.51000 33.56000 46.14600
H  -7.71400 35.37200 46.15800

