79

Mg 49.29000 47.20700 43.63000
C  45.98700 47.76100 42.83200
C  49.00000 44.11400 42.14000
C  52.60700 47.04200 43.80500
C  49.45100 50.55900 44.73200
N  47.70900 46.13400 42.54500
C  46.47800 46.55800 42.29100
C  45.63700 45.61100 41.32800
C  46.57700 44.36200 41.27300
C  47.82800 44.86700 42.01600
C  45.96700 43.03600 41.69400
C  45.32200 46.38400 39.97600
C  43.78100 46.34900 39.64700
H  43.30300 45.77800 38.35300
N  50.62700 45.66200 43.11700
C  50.32100 44.43900 42.59000
C  51.51700 43.64300 42.64900
C  52.61200 44.51000 43.08900
C  51.97800 45.79900 43.34900
C  51.55300 42.25300 42.03200
C  53.96400 44.14000 43.34100
O  54.27400 42.98600 43.10600
C  55.04000 44.98000 43.70200
N  50.87600 48.64900 44.15400
C  52.12500 48.21200 44.27100
C  53.02200 49.33900 44.89500
C  52.01900 50.52200 45.13000
C  50.69700 49.85900 44.68300
C  53.95200 48.92300 46.05800
C  52.31300 51.84000 44.51500
C  51.96200 53.07400 45.41800
N  48.01800 48.87700 43.86200
C  48.19400 50.14800 44.34600
C  46.95700 50.91500 44.30200
C  46.03300 49.97000 43.74200
C  46.76700 48.70100 43.52400
C  46.82800 52.37700 44.71400
C  44.65400 49.77000 43.44200
O  43.69000 50.51700 43.43900
C  44.56300 48.28700 42.83700
C  43.73100 47.43600 43.72600
O  43.67100 47.55300 44.94100
O  43.03000 46.54500 42.95200
C  42.04800 45.65700 43.69800
H  49.00900 43.07600 41.80100
H  53.60600 46.97400 44.24100
H  49.57300 51.60600 45.01500
H  44.76800 45.23800 41.86900
H  46.88500 44.14100 40.25100
H  44.88500 42.92000 41.75200
H  46.36700 42.67400 42.64200
H  46.22100 42.23200 41.00300
H  45.95100 46.01900 39.16500
H  45.46400 47.45300 40.13800
H  43.45600 47.38600 39.72800
H  43.24800 45.81800 40.43600
H  51.55900 41.49700 42.81800
H  52.24800 42.11700 41.20400
H  50.68200 41.93600 41.45800
H  55.02000 45.75500 42.93600
H  55.98100 44.43200 43.75200
H  54.83400 45.42200 44.67600
H  53.66300 49.56600 44.04300
H  51.78500 50.62300 46.19000
H  53.75200 47.85100 46.07500
H  53.76700 49.50300 46.96200
H  54.92100 49.19400 45.64100
H  51.78300 51.83300 43.56200
H  53.38700 51.92400 44.34700
H  51.13800 53.68600 45.04900
H  52.77700 53.79600 45.46500
H  51.77500 52.80200 46.45700
H  47.24700 52.89700 43.85300
H  47.37400 52.49000 45.65100
H  45.80600 52.73700 44.83600
H  44.13700 48.33500 41.83500
H  42.49200 45.12000 44.53600
H  41.85400 44.86400 42.97600
H  41.13000 46.14200 44.03100

