79

Mg 6.81500 54.55500 40.87500
C  6.03300 51.18700 40.28500
C  10.01000 53.99200 40.12800
C  7.32300 57.88800 41.16200
C  3.33900 55.22100 41.28000
N  7.90400 52.78500 40.27000
C  7.39800 51.48300 40.02000
C  8.52200 50.56200 39.54200
C  9.77900 51.42300 39.98200
C  9.20400 52.84600 40.16100
C  10.61000 50.84700 41.22200
C  8.47500 50.44100 37.93500
C  8.74600 49.06700 37.23600
H  7.71800 48.47800 36.26600
N  8.39700 55.79700 40.61900
C  9.68500 55.34000 40.25800
C  10.54800 56.41600 40.07100
C  9.87300 57.56300 40.55800
C  8.47100 57.15500 40.83300
C  11.94100 56.37800 39.53300
C  10.50700 58.96400 40.63800
O  11.68800 59.09900 40.21600
C  9.75700 60.19100 41.09500
N  5.56700 56.26800 41.05300
C  6.02400 57.48700 41.37100
C  4.89600 58.48800 41.68600
C  3.63000 57.64000 41.52900
C  4.22300 56.25600 41.32500
C  5.08600 58.98900 43.13100
C  2.72100 58.08800 40.29400
C  1.56700 59.06200 40.60600
N  5.02600 53.42900 40.83200
C  3.70700 53.85600 41.07800
C  2.86200 52.59900 41.06200
C  3.78000 51.55400 40.93700
C  5.02500 52.14100 40.70500
C  1.33300 52.53900 41.27000
C  3.93200 50.08100 40.83800
O  3.04600 49.22800 40.96600
C  5.44000 49.76400 40.54300
C  5.51700 48.81300 39.35500
O  5.26400 49.13900 38.18900
O  5.97900 47.60800 39.75000
C  6.30700 46.55500 38.79200
H  11.07800 53.82900 39.96900
H  7.46600 58.97100 41.17700
H  2.27500 55.31100 41.50800
H  8.65700 49.65100 40.12600
H  10.40100 51.39800 39.08700
H  10.92600 51.70100 41.82100
H  11.43300 50.25200 40.82700
H  9.90400 50.30700 41.85200
H  9.25800 51.13800 37.63500
H  7.47300 50.76300 37.65300
H  8.90300 48.26100 37.95300
H  9.68100 49.18700 36.68900
H  11.98900 57.14800 38.76300
H  12.15600 55.40400 39.09300
H  12.63600 56.54700 40.35500
H  9.00900 60.35400 40.31900
H  10.57400 60.90900 41.02400
H  9.34500 59.92300 42.06800
H  4.92400 59.29400 40.95300
H  3.08000 57.61900 42.47000
H  5.29500 60.05500 43.21600
H  5.89800 58.44100 43.60900
H  4.25300 58.84300 43.81900
H  2.20000 57.22100 39.88700
H  3.39600 58.42800 39.50900
H  0.55700 58.71300 40.39300
H  1.69000 59.96700 40.01000
H  1.61700 59.42100 41.63400
H  0.89900 51.67800 40.76300
H  0.99600 53.39900 40.69200
H  1.01500 52.61400 42.31000
H  5.83500 49.19400 41.38400
H  5.94900 45.58400 39.13500
H  7.37900 46.42300 38.64700
H  5.79200 46.66400 37.83700

