79

Mg -1.84500 33.82000 26.94900
C  -3.63800 31.96900 29.42000
C  -0.61600 35.73500 29.58300
C  -0.56000 35.94000 24.67700
C  -3.47100 32.11000 24.50700
N  -2.22300 33.92200 29.15500
C  -2.81100 32.93900 29.91300
C  -2.44600 33.10100 31.45200
C  -1.63500 34.39300 31.43500
C  -1.45400 34.67100 29.97500
C  -2.14500 35.61100 32.15900
C  -1.71500 31.85800 32.09800
C  -2.37400 31.09700 33.26500
H  -1.75800 31.27900 34.59800
N  -0.65600 35.56500 27.11900
C  -0.21800 36.13900 28.29100
C  0.66000 37.23000 27.93500
C  0.56400 37.46500 26.53700
C  -0.21700 36.31000 26.02300
C  1.37100 38.00500 28.95300
C  1.19300 38.55100 25.73900
O  1.08600 38.60800 24.49300
C  1.97700 39.68600 26.49000
N  -2.13300 34.10600 24.88800
C  -1.38600 34.98700 24.12600
C  -1.70800 34.78100 22.59100
C  -2.71700 33.57300 22.62200
C  -2.75000 33.19100 24.07600
C  -2.30200 35.96600 21.70000
C  -2.54500 32.39600 21.56300
C  -1.60200 31.21600 21.92500
N  -3.23800 32.37300 26.87400
C  -3.69600 31.64100 25.82400
C  -4.44700 30.57000 26.25300
C  -4.50900 30.67600 27.68800
C  -3.72000 31.78500 27.99400
C  -5.14800 29.49600 25.41600
C  -5.03100 30.05800 28.86500
O  -5.88200 29.16300 29.14200
C  -4.43000 30.82600 29.96800
C  -5.41900 31.19500 30.97900
O  -6.42900 31.92900 30.81000
O  -5.29100 30.42900 32.12100
C  -6.31200 30.50800 33.18000
H  -0.23000 36.17100 30.50600
H  -0.01700 36.59900 23.99600
H  -4.02500 31.40400 23.88500
H  -3.35700 33.32400 32.00900
H  -0.68700 34.17600 31.92800
H  -1.37600 36.35000 32.38400
H  -2.53000 35.32200 33.13700
H  -3.00300 36.05400 31.65300
H  -0.67800 32.07500 32.35100
H  -1.72000 31.05800 31.35800
H  -2.43100 30.01900 33.11900
H  -3.39600 31.47600 33.24600
H  2.39900 37.92400 28.60000
H  1.31300 37.55300 29.94300
H  0.89800 38.98400 29.03600
H  2.21800 40.39500 25.69700
H  2.95000 39.34900 26.84600
H  1.48500 40.19200 27.32000
H  -0.78800 34.39400 22.15400
H  -3.72800 33.92900 22.42600
H  -2.85600 36.66800 22.32300
H  -2.99600 35.54500 20.97300
H  -1.46500 36.46900 21.21600
H  -2.09200 32.85000 20.68200
H  -3.52600 32.05300 21.23500
H  -0.91000 30.96900 21.11900
H  -2.24500 30.37500 22.18600
H  -0.99600 31.55600 22.76500
H  -4.64300 29.19600 24.49700
H  -6.08100 29.92900 25.05700
H  -5.26700 28.59300 26.01500
H  -3.74100 30.15600 30.48300
H  -5.80500 30.95900 34.03400
H  -6.68800 29.52300 33.45700
H  -7.15500 31.15500 32.94100

