79

Mg -2.26700 17.25700 27.09000
C  -2.98400 14.95800 29.63500
C  -2.51000 19.80700 29.34600
C  -2.06700 19.45700 24.48300
C  -2.67500 14.69600 24.74600
N  -2.71400 17.32100 29.25600
C  -2.88100 16.28400 30.10700
C  -2.98300 16.88200 31.51000
C  -2.93500 18.41200 31.42000
C  -2.74400 18.52100 29.88800
C  -4.19300 19.14600 32.08200
C  -1.83600 16.41100 32.49500
C  -1.87900 17.06900 33.99100
H  -1.89600 16.24800 35.24800
N  -2.19300 19.32600 26.93100
C  -2.24900 20.23700 28.00200
C  -2.08000 21.59700 27.58100
C  -1.69900 21.40500 26.19200
C  -2.00700 20.01900 25.77300
C  -2.39500 22.80200 28.56200
C  -1.12100 22.36200 25.34900
O  -0.72000 22.11600 24.27100
C  -0.93100 23.85300 25.78200
N  -2.59800 17.12200 24.98000
C  -2.40800 18.17000 24.16300
C  -2.55800 17.77000 22.64600
C  -2.73500 16.19100 22.67800
C  -2.55000 15.97300 24.23800
C  -3.56400 18.49100 21.75600
C  -1.92300 15.25400 21.72900
C  -0.53100 14.74100 22.24600
N  -2.58200 15.19900 27.11200
C  -2.69900 14.25800 26.09100
C  -2.86800 12.95800 26.61700
C  -2.92000 13.14900 28.04100
C  -2.84000 14.53000 28.27700
C  -2.98800 11.73600 25.78400
C  -3.08600 12.40600 29.28900
O  -3.23700 11.22500 29.56000
C  -3.17900 13.61000 30.36900
C  -2.06700 13.31500 31.34000
O  -0.94800 13.71300 31.24700
O  -2.47000 12.52300 32.37300
C  -1.53800 12.10700 33.38600
H  -2.38700 20.61600 30.06800
H  -1.98800 20.19500 23.68200
H  -2.64700 13.84800 24.05900
H  -3.90300 16.38600 31.81800
H  -1.99400 18.81300 31.79900
H  -4.76800 18.31900 32.49700
H  -4.80700 19.64400 31.33100
H  -3.98000 19.78500 32.93800
H  -0.88700 16.54500 31.97500
H  -1.94000 15.33300 32.61800
H  -2.73900 17.71700 34.16100
H  -1.14600 17.87300 33.92700
H  -2.14500 23.80300 28.20900
H  -1.82600 22.57400 29.46300
H  -3.46700 22.71100 28.73800
H  -0.22000 24.16300 25.01600
H  -0.51300 23.94300 26.78400
H  -1.77500 24.52300 25.62200
H  -1.56800 18.06100 22.29300
H  -3.77300 16.02900 22.38700
H  -3.55900 17.93200 20.82000
H  -3.28400 19.53400 21.60400
H  -4.54600 18.43300 22.22500
H  -1.70700 15.78100 20.80000
H  -2.56300 14.42700 21.42300
H  0.28300 14.83700 21.52800
H  -0.53000 13.66200 22.40100
H  -0.23400 15.20300 23.18700
H  -2.72500 11.97400 24.75400
H  -3.98800 11.30600 25.72500
H  -2.34700 10.98300 26.24100
H  -4.12400 13.50400 30.90100
H  -0.81100 11.39200 33.00000
H  -1.95300 11.55500 34.23000
H  -1.01800 12.93400 33.86900

