79

Mg 47.37600 25.04900 29.06500
C  48.00400 27.47100 31.46000
C  45.96000 23.07200 31.35200
C  46.90800 22.69700 26.67900
C  49.01500 26.95200 26.69100
N  46.96500 25.35000 31.15700
C  47.38000 26.37700 31.99700
C  46.92000 26.14100 33.43200
C  46.36300 24.66300 33.39100
C  46.44500 24.29500 31.88900
C  47.13400 23.58100 34.16300
C  45.76300 27.08100 33.92900
C  45.81100 27.64900 35.33000
H  46.34200 26.76100 36.54700
N  46.48900 23.22300 28.98900
C  45.86200 22.59300 30.06400
C  45.28500 21.42100 29.68100
C  45.55800 21.33000 28.24100
C  46.32600 22.45300 27.90900
C  44.50500 20.46700 30.67300
C  45.18600 20.21200 27.29400
O  45.46500 19.99200 26.08900
C  44.13800 19.20900 27.82900
N  48.04200 24.79300 27.00900
C  47.72700 23.67300 26.24400
C  48.17600 23.86300 24.79200
C  48.53600 25.37100 24.67400
C  48.63300 25.69100 26.18700
C  49.33600 22.87600 24.53000
C  47.59700 26.34100 23.84800
C  48.25700 27.50500 23.00900
N  48.25900 26.84000 29.06700
C  48.93000 27.43300 28.00400
C  49.42700 28.74200 28.48600
C  49.06500 28.81800 29.84800
C  48.36800 27.61900 30.17100
C  50.09200 29.78000 27.56800
C  49.06400 29.61300 31.09000
O  49.52700 30.71300 31.29000
C  48.45000 28.71700 32.23200
C  49.51700 28.42300 33.17800
O  50.60000 27.94200 32.92800
O  49.12300 28.82300 34.43000
C  50.15100 29.07200 35.48300
H  45.59600 22.55900 32.24500
H  46.65900 22.04200 25.84100
H  49.53000 27.64600 26.02300
H  47.76000 26.11700 34.12600
H  45.32100 24.52000 33.67900
H  46.33600 23.16300 34.77700
H  47.80400 24.02200 34.90100
H  47.48800 22.76800 33.53000
H  44.77600 26.63300 33.81200
H  45.68400 27.92200 33.24000
H  44.93600 28.23000 35.62100
H  46.63400 28.36100 35.39200
H  44.40400 20.80100 31.70500
H  45.05500 19.52800 30.74000
H  43.54200 20.27600 30.19900
H  44.37400 18.61200 28.71000
H  43.87500 18.59000 26.97100
H  43.25800 19.78000 28.12600
H  47.47900 23.59300 23.99900
H  49.52300 25.34500 24.21300
H  49.09100 21.95800 25.06500
H  50.29500 23.18500 24.94700
H  49.41000 22.63300 23.47000
H  46.90800 26.78200 24.56900
H  47.00000 25.72300 23.17800
H  47.88800 27.53600 21.98400
H  49.34000 27.38900 22.99100
H  47.97500 28.46700 23.43700
H  51.17200 29.63300 27.52300
H  49.85000 30.73000 28.04300
H  49.65200 29.80200 26.57100
H  47.61100 29.27300 32.65000
H  51.17800 29.12900 35.12300
H  50.06700 28.48100 36.39500
H  50.07000 30.11900 35.77800

