79

Mg -12.57100 16.87700 42.58500
C  -9.59300 15.30600 41.77100
C  -11.38400 19.69100 40.84000
C  -15.84500 18.22000 42.18500
C  -14.05000 13.73900 43.39200
N  -10.70300 17.40400 41.43800
C  -9.57400 16.62500 41.37600
C  -8.31300 17.41400 40.83200
C  -8.88300 18.84200 40.68800
C  -10.42200 18.68900 41.07400
C  -8.13700 19.85200 41.55900
C  -7.68600 16.75400 39.56700
C  -6.23300 16.18100 39.80500
H  -5.94900 14.84900 39.01600
N  -13.45300 18.75300 41.84800
C  -12.72800 19.74700 41.25000
C  -13.66700 20.85900 40.97600
C  -14.97900 20.42900 41.26800
C  -14.86100 19.07200 41.72100
C  -13.19700 22.09100 40.26700
C  -16.23500 21.28500 41.01400
O  -16.14900 22.42500 40.49600
C  -17.56700 20.81000 41.36900
N  -14.66200 16.07800 42.89000
C  -15.71800 16.85500 42.67300
C  -17.01900 15.98100 42.83100
C  -16.52700 14.65400 43.45700
C  -14.99600 14.79100 43.25500
C  -18.22300 16.62000 43.65200
C  -17.16800 13.45000 42.76000
C  -17.98400 12.55300 43.61000
N  -11.95100 14.96300 42.70700
C  -12.63500 13.83300 43.15400
C  -11.74700 12.73700 43.08400
C  -10.50200 13.28600 42.69800
C  -10.71400 14.64500 42.37700
C  -11.97400 11.25300 43.37700
C  -9.08600 12.97200 42.55500
O  -8.51000 11.92100 42.74000
C  -8.41600 14.27900 41.91400
C  -7.34700 14.54700 42.94700
O  -7.44200 15.36000 43.83100
O  -6.18200 13.85500 42.73400
C  -5.17200 14.08000 43.73500
H  -10.94200 20.57200 40.36900
H  -16.89700 18.50400 42.10800
H  -14.43800 12.79800 43.78800
H  -7.65800 17.40300 41.70300
H  -8.81500 19.17000 39.65100
H  -8.70900 20.08800 42.45600
H  -8.13400 20.75400 40.94800
H  -7.14700 19.46900 41.80900
H  -7.58000 17.42700 38.71600
H  -8.30800 15.88800 39.34200
H  -5.98000 16.05600 40.85800
H  -5.54700 16.92900 39.40600
H  -13.73900 22.26800 39.33800
H  -12.11100 22.17900 40.21900
H  -13.56400 22.87700 40.92600
H  -17.81900 19.86200 40.89300
H  -18.21800 21.57800 40.95300
H  -17.53300 20.71500 42.45500
H  -17.37400 15.84900 41.80900
H  -16.64800 14.70500 44.53900
H  -18.02100 17.65000 43.94600
H  -18.43100 16.02500 44.54200
H  -19.16100 16.63700 43.09700
H  -16.37200 12.82900 42.34800
H  -17.83300 13.76300 41.95600
H  -19.04300 12.65400 43.37100
H  -17.94100 12.67600 44.69200
H  -17.82100 11.50800 43.34400
H  -11.03500 10.83600 43.74200
H  -12.38300 10.70500 42.52800
H  -12.76300 11.14800 44.12200
H  -7.93000 14.18000 40.94400
H  -5.60800 14.08900 44.73500
H  -4.50800 14.93300 43.59700
H  -4.37300 13.35300 43.59000

