79

Mg 54.51700 23.61200 45.75000
C  51.98000 25.71100 44.53600
C  52.81300 20.87800 44.44900
C  57.37800 21.87400 45.75300
C  56.15200 26.41100 46.89900
N  52.70900 23.38600 44.58900
C  51.75200 24.37600 44.24300
C  50.46300 23.76200 43.66400
C  50.63200 22.22700 43.96200
C  52.15000 22.14400 44.43200
C  49.76800 21.68700 45.16100
C  50.25800 24.08600 42.16900
C  51.34700 24.18100 41.18700
H  52.37200 22.92300 41.20000
N  55.01500 21.53600 45.28300
C  54.17400 20.60600 44.70400
C  54.92300 19.37000 44.49400
C  56.28500 19.64300 44.85800
C  56.24700 21.04800 45.32800
C  54.31700 18.21600 43.84400
C  57.51100 18.70100 44.83600
O  57.36000 17.49600 44.62200
C  58.88800 19.12800 45.18600
N  56.49900 24.10600 46.12900
C  57.48100 23.19600 46.11400
C  58.86200 23.72600 46.71600
C  58.44100 25.15600 47.16000
C  56.97100 25.25400 46.70400
C  59.26100 22.80200 47.84100
C  59.45800 26.26500 46.65900
C  59.00400 27.09700 45.41500
N  54.23600 25.68500 45.73300
C  54.89200 26.70700 46.40700
C  54.03000 27.86300 46.51200
C  52.93200 27.47100 45.72500
C  53.10900 26.18800 45.25200
C  54.21800 29.07200 47.27000
C  51.65800 27.93400 45.30900
O  51.14300 29.01600 45.48500
C  51.04600 26.85000 44.43500
C  50.96000 27.41200 43.04500
O  51.91700 27.61600 42.28600
O  49.63100 27.54900 42.69300
C  49.45800 28.01300 41.33300
H  52.24700 20.02400 44.07000
H  58.32800 21.35300 45.89000
H  56.64800 27.29300 47.31100
H  49.70300 24.21100 44.30300
H  50.65500 21.41800 43.23200
H  49.95300 20.63000 45.35400
H  48.72800 21.97600 45.00900
H  50.11100 22.03800 46.13400
H  49.64400 24.97900 42.27900
H  49.57000 23.35800 41.73800
H  52.01600 25.01000 41.41900
H  50.85900 24.18500 40.21300
H  53.88900 17.63200 44.65900
H  55.08000 17.62100 43.34300
H  53.64600 18.69200 43.12800
H  59.64400 18.34500 45.24400
H  58.78900 19.60300 46.16200
H  59.23400 19.76600 44.37200
H  59.65400 23.73400 45.96700
H  58.27900 25.27400 48.23100
H  58.36700 22.24300 48.11700
H  59.60400 23.43800 48.65700
H  60.09200 22.14700 47.57700
H  60.37300 25.73300 46.39700
H  59.68600 26.78600 47.58900
H  57.99000 26.82300 45.12500
H  59.67500 26.83600 44.59700
H  59.22200 28.15000 45.59700
H  55.11800 29.57300 46.91400
H  54.26100 28.86600 48.34000
H  53.29600 29.64100 47.15000
H  50.09500 26.53000 44.85800
H  49.79800 27.21300 40.67400
H  50.09600 28.89600 41.30000
H  48.40600 28.19000 41.10900

