79

Mg -12.33200 15.97400 41.78700
C  -9.32300 14.24700 41.40600
C  -11.12500 18.62300 40.18200
C  -15.44300 17.16200 41.70600
C  -13.72600 12.81600 42.87300
N  -10.44300 16.29100 40.76500
C  -9.32800 15.52300 40.83900
C  -8.17800 16.15800 40.13500
C  -8.56600 17.66800 40.11400
C  -10.18500 17.55000 40.38600
C  -7.88200 18.59600 41.23800
C  -7.58700 15.53800 38.83300
C  -6.04800 15.74900 38.75600
H  -5.42500 16.29200 37.55900
N  -13.11100 17.79300 41.15700
C  -12.48000 18.78500 40.52600
C  -13.43300 19.80700 40.32200
C  -14.65600 19.44200 40.75400
C  -14.44800 18.05100 41.22100
C  -12.97200 21.12200 39.71100
C  -15.91400 20.28000 40.72300
O  -15.78800 21.45000 40.36800
C  -17.30200 19.81100 41.17500
N  -14.33900 15.09500 42.27900
C  -15.45200 15.82000 42.23200
C  -16.74400 14.97800 42.45100
C  -16.16500 13.50900 42.72400
C  -14.64200 13.81200 42.64300
C  -17.79900 15.40300 43.51400
C  -16.68800 12.47500 41.69300
C  -17.27500 11.11300 42.23300
N  -11.59200 14.00300 42.44500
C  -12.29400 12.86100 42.76900
C  -11.35700 11.70900 42.75000
C  -10.17400 12.26100 42.42400
C  -10.40200 13.57200 42.11700
C  -11.61600 10.32000 43.08400
C  -8.77800 11.96100 42.19800
O  -8.15700 10.95600 42.32200
C  -8.15700 13.24500 41.61000
C  -7.08400 13.58900 42.65400
O  -7.26100 14.01900 43.79200
O  -5.78900 13.44800 42.22900
C  -4.67500 13.94700 43.00800
H  -10.59000 19.44200 39.69600
H  -16.47300 17.52000 41.65400
H  -14.12500 11.83300 43.13000
H  -7.45000 16.00500 40.93200
H  -8.42300 18.05900 39.10700
H  -8.52200 19.05100 41.99400
H  -7.53600 19.48000 40.70300
H  -7.00100 18.20800 41.74800
H  -8.12100 16.07100 38.04700
H  -7.82700 14.47700 38.76600
H  -5.53800 14.79000 38.85300
H  -5.62200 16.35900 39.55300
H  -13.06500 21.02300 38.62900
H  -11.89100 21.20700 39.81500
H  -13.40000 22.07200 40.03300
H  -17.72000 19.04800 40.51800
H  -18.01900 20.63100 41.21500
H  -17.10100 19.40400 42.16500
H  -17.43100 15.04800 41.60800
H  -16.28900 13.13300 43.73900
H  -18.77900 15.56800 43.06500
H  -17.49000 16.38000 43.88700
H  -17.84900 14.70500 44.35000
H  -15.87700 12.23800 41.00400
H  -17.47700 12.89300 41.06800
H  -16.70700 10.37300 41.66900
H  -18.34100 11.05200 42.01400
H  -17.11900 11.03900 43.30900
H  -10.97200 9.55300 42.65400
H  -12.55400 10.05800 42.59500
H  -11.71300 10.17400 44.15900
H  -7.57500 13.06400 40.70700
H  -3.90100 14.29600 42.32400
H  -4.20800 13.09300 43.50000
H  -4.88000 14.75700 43.70700

