79

Mg 52.38900 23.45300 44.69100
C  49.44400 25.29600 43.83400
C  50.59700 20.57100 43.78900
C  55.26900 21.72100 44.54700
C  53.97200 26.32800 45.29800
N  50.27400 23.02200 43.88800
C  49.25800 23.93000 43.59400
C  47.94700 23.18200 43.34200
C  48.31000 21.76900 43.75400
C  49.83600 21.71100 43.82200
C  47.45000 21.39700 45.00900
C  47.51500 23.22600 41.86400
C  48.41000 22.68300 40.83200
H  48.62100 23.52700 39.56900
N  52.84000 21.41800 44.26000
C  51.98800 20.41500 44.00400
C  52.75100 19.14100 43.98100
C  54.11300 19.45900 44.08000
C  54.11200 20.94500 44.32300
C  52.14900 17.79900 43.65500
C  55.27300 18.40600 43.99800
O  55.03700 17.25700 43.82300
C  56.63900 18.69800 44.26000
N  54.41600 24.02600 44.85200
C  55.40900 23.13500 44.76300
C  56.75000 23.92200 44.76400
C  56.30600 25.37300 45.18800
C  54.78400 25.25100 45.14700
C  57.87200 23.33600 45.66100
C  56.98600 26.51800 44.37200
C  57.84700 27.48600 45.12100
N  51.93700 25.44000 44.71100
C  52.67200 26.52200 45.14500
C  51.81400 27.64400 45.24200
C  50.55900 27.26100 44.72200
C  50.71200 25.89300 44.33100
C  52.18100 28.99900 45.76700
C  49.26300 27.70300 44.39200
O  48.76800 28.84200 44.49300
C  48.51500 26.48500 43.76100
C  48.18600 26.87000 42.35100
O  48.94200 26.90900 41.42800
O  46.84200 27.13400 42.23000
C  46.38100 27.58400 40.90700
H  50.11500 19.59400 43.87200
H  56.17700 21.12600 44.66500
H  54.42100 27.28900 45.55900
H  47.17500 23.55100 44.01700
H  47.94800 21.13300 42.94700
H  47.85000 20.51100 45.50300
H  46.48700 21.16600 44.55200
H  47.32600 22.19200 45.74500
H  47.22200 24.25400 41.64800
H  46.56900 22.69600 41.74900
H  48.03900 21.72300 40.47100
H  49.39800 22.57400 41.27800
H  52.72500 17.44700 42.79900
H  51.08200 17.86600 43.44200
H  52.30700 17.09000 44.46700
H  57.17200 17.78300 44.00300
H  56.87900 18.96000 45.29100
H  56.92300 19.51100 43.59200
H  57.06900 23.87900 43.72300
H  56.58600 25.60200 46.21600
H  57.69000 22.32100 46.01400
H  57.93800 24.03600 46.49300
H  58.77400 23.32500 45.04900
H  56.29700 27.18200 43.85000
H  57.65700 25.93400 43.74200
H  58.74400 27.02700 45.53600
H  57.29700 27.98500 45.91800
H  58.10800 28.27900 44.42000
H  51.81600 29.72200 45.03800
H  53.25200 29.20200 45.79600
H  51.83100 29.08300 46.79600
H  47.61100 26.27400 44.33200
H  46.83700 26.93600 40.15900
H  46.65200 28.61700 40.68900
H  45.30600 27.41500 40.97900

