79

Mg 47.30300 34.57600 26.54800
C  45.89900 33.13100 29.45200
C  47.58300 37.49400 28.14400
C  48.33700 35.71200 23.70300
C  46.57600 31.42800 25.00900
N  46.99400 35.12100 28.65200
C  46.43800 34.43200 29.65100
C  46.26200 35.26500 30.96000
C  46.67200 36.71700 30.45700
C  47.09600 36.47900 29.01100
C  45.49600 37.77200 30.70500
C  47.22900 34.75600 32.05800
C  46.75000 34.64000 33.59900
H  45.76500 35.70000 34.10500
N  47.78500 36.42200 26.02700
C  47.89000 37.47800 26.78100
C  48.50100 38.58100 25.95900
C  48.84600 37.98000 24.71400
C  48.35100 36.68300 24.79400
C  48.74100 40.07100 26.46900
C  49.53100 38.57600 23.53600
O  49.91200 37.93600 22.55000
C  49.89600 40.08400 23.64900
N  47.40100 33.69400 24.61900
C  47.89200 34.40300 23.57000
C  47.97700 33.61900 22.29100
C  47.74900 32.15600 22.78000
C  47.22400 32.40200 24.19200
C  46.90700 34.25400 21.32400
C  48.86000 31.21500 22.60600
C  50.05100 31.57100 23.47300
N  46.45700 32.60000 27.04400
C  46.26800 31.50800 26.32800
C  45.66700 30.44300 27.15200
C  45.35900 31.12100 28.33700
C  45.86200 32.43000 28.22600
C  45.18000 29.05300 26.73600
C  44.55300 31.07000 29.52400
O  43.79600 30.21800 30.01900
C  44.83200 32.37100 30.28100
C  45.03800 32.15600 31.72200
O  45.84000 31.51300 32.24500
O  43.85300 32.57000 32.35900
C  43.74600 32.31100 33.78100
H  47.75000 38.47000 28.60600
H  48.68900 36.10600 22.74700
H  46.33100 30.42600 24.65000
H  45.21600 35.26000 31.26500
H  47.58500 37.03200 30.96300
H  44.59300 37.28000 31.06500
H  45.35600 38.38700 29.81600
H  45.88200 38.41800 31.49400
H  48.18000 35.28900 32.06300
H  47.53900 33.73100 31.85600
H  47.68000 34.78700 34.14900
H  46.45400 33.62700 33.87000
H  48.21200 40.71300 25.76400
H  49.82700 40.16400 26.46100
H  48.31600 40.17300 27.46800
H  50.39500 40.34300 22.71500
H  50.63600 40.11700 24.44900
H  49.04700 40.76100 23.74100
H  48.94300 33.85600 21.84600
H  47.00600 31.66700 22.15000
H  47.36500 34.97900 20.65100
H  45.99100 34.65000 21.76100
H  46.63700 33.44300 20.64700
H  49.08500 31.36700 21.55000
H  48.49000 30.19800 22.73600
H  49.93600 32.56900 23.89500
H  50.93300 31.62700 22.83500
H  50.33100 30.80800 24.20000
H  46.06700 28.54800 26.35300
H  44.37200 29.26900 26.03700
H  44.75500 28.45300 27.54200
H  43.90900 32.94400 30.18400
H  44.24600 31.37900 34.04100
H  42.71300 32.17600 34.09900
H  44.19200 33.08900 34.40100

