79

Mg 46.86200 25.01500 28.45800
C  47.74200 27.47700 30.90800
C  46.37500 22.89900 30.94100
C  46.42400 22.71600 26.08800
C  48.33200 27.18200 25.94700
N  46.84700 25.27100 30.66100
C  47.28600 26.30100 31.49100
C  47.13300 25.96300 32.98700
C  46.93000 24.39700 32.95500
C  46.67900 24.11900 31.41800
C  48.05700 23.53200 33.60300
C  45.87700 26.74300 33.70700
C  46.14000 27.29000 35.15000
H  44.96000 27.06300 36.14300
N  46.26300 23.13600 28.51600
C  46.17400 22.37600 29.64300
C  45.74300 21.01200 29.24500
C  45.64100 20.99500 27.80800
C  46.12100 22.32900 27.40100
C  45.40300 19.94800 30.29800
C  45.04200 19.90800 26.97600
O  44.93400 20.07200 25.77400
C  44.69500 18.55700 27.61100
N  47.49500 24.94300 26.26200
C  47.02700 23.89400 25.58400
C  47.39900 24.07300 24.11400
C  47.71200 25.56600 24.00100
C  47.86600 25.95100 25.50000
C  48.41400 22.98600 23.62200
C  46.55300 26.52600 23.36600
C  46.76000 27.42400 22.15600
N  47.84200 26.97100 28.39600
C  48.36600 27.62900 27.29900
C  48.94300 28.91500 27.77600
C  48.64500 28.94900 29.19100
C  48.04100 27.74300 29.49100
C  49.60000 30.01600 26.97200
C  48.75300 29.73300 30.38600
O  49.17500 30.90000 30.60700
C  48.17500 28.79400 31.55800
C  49.11900 28.61000 32.69600
O  50.26700 28.26500 32.50300
O  48.66700 29.07500 33.96100
C  49.35900 28.93700 35.19500
H  46.23400 22.22000 31.78500
H  46.19300 21.96400 25.33100
H  48.76100 27.91100 25.25600
H  48.02900 26.25700 33.53400
H  45.97400 24.18400 33.43300
H  47.78300 22.97600 34.50000
H  48.99200 24.08500 33.69400
H  48.19600 22.75600 32.85100
H  45.03700 26.04900 33.69900
H  45.70900 27.59600 33.05000
H  46.14200 28.37800 35.08600
H  47.01400 26.89500 35.66800
H  46.09600 19.13600 30.07800
H  44.36300 19.62800 30.22200
H  45.48700 20.23500 31.34600
H  43.86800 18.54600 28.32100
H  45.53800 18.12500 28.15000
H  44.40300 17.93500 26.76500
H  46.50900 23.90900 23.50600
H  48.63800 25.56500 23.42700
H  48.65200 22.42900 24.52800
H  49.27800 23.45300 23.14900
H  47.98800 22.23900 22.95300
H  46.15800 27.16900 24.15300
H  45.72500 25.86800 23.10400
H  46.44900 28.46000 22.28900
H  46.26800 26.98400 21.28800
H  47.83400 27.41000 21.97200
H  49.29900 31.02000 27.27000
H  49.38000 29.77600 25.93100
H  50.67300 29.97400 27.15700
H  47.31000 29.26700 32.02300
H  50.12700 28.16700 35.12600
H  48.65500 28.64300 35.97300
H  49.80000 29.91500 35.39000

