79

Mg 17.05800 -1.56700 27.16000
C  16.22300 0.55700 29.80600
C  19.02200 -3.42100 29.42200
C  18.42700 -3.22400 24.59000
C  15.76500 0.80800 24.97500
N  17.66200 -1.37300 29.31900
C  17.04200 -0.49600 30.22800
C  17.35200 -0.90700 31.66900
C  18.47900 -1.96900 31.46000
C  18.37000 -2.33500 30.00000
C  19.95100 -1.67300 31.77800
C  16.15300 -1.45300 32.48100
C  16.17200 -1.23000 34.00700
H  17.42700 -0.76100 34.80100
N  18.43900 -3.21200 27.00300
C  19.09500 -3.87200 28.02600
C  19.77100 -5.02700 27.47100
C  19.52100 -5.00500 26.11000
C  18.76400 -3.80200 25.83300
C  20.53000 -5.98800 28.33400
C  19.96800 -5.99600 24.99400
O  19.48600 -5.88000 23.89700
C  21.03000 -7.06700 25.19000
N  17.06700 -1.20200 25.00700
C  17.72000 -2.06000 24.16000
C  17.72200 -1.54400 22.73600
C  16.78400 -0.25400 22.85100
C  16.45000 -0.22000 24.33400
C  19.16000 -1.31100 22.12000
C  15.44900 -0.38400 22.01800
C  15.04500 0.59600 20.98800
N  16.13800 0.24800 27.27700
C  15.54900 1.03900 26.33800
C  14.72200 2.02800 27.00600
C  15.02800 1.92400 28.33300
C  15.92500 0.83200 28.48000
C  13.79000 2.90100 26.23500
C  14.71400 2.51000 29.62200
O  14.07400 3.48700 29.98200
C  15.49700 1.59700 30.66500
C  16.50400 2.37500 31.48400
O  17.62700 2.71700 31.10400
O  15.99900 2.70700 32.65600
C  16.58000 3.62100 33.64900
H  19.69600 -3.96200 30.09000
H  18.84700 -3.77700 23.74700
H  15.43100 1.56600 24.26300
H  17.90600 -0.11900 32.17900
H  18.12200 -2.88200 31.93700
H  20.47700 -1.39800 30.86400
H  20.51300 -2.48600 32.23700
H  20.14700 -0.77700 32.36700
H  16.13300 -2.53000 32.31900
H  15.31800 -1.10100 31.87500
H  15.56600 -2.03300 34.42600
H  15.39400 -0.46600 33.98700
H  21.54400 -6.07500 27.94100
H  19.96100 -6.91700 28.32400
H  20.65100 -5.55600 29.32700
H  20.76300 -7.80800 25.94300
H  21.86800 -6.52700 25.63100
H  21.25200 -7.57700 24.25300
H  17.34600 -2.36200 22.12100
H  17.41700 0.56700 22.51400
H  19.25900 -0.52300 21.37300
H  19.49700 -2.29500 21.79500
H  19.91100 -1.06700 22.87200
H  14.63500 -0.36100 22.74200
H  15.46400 -1.39600 21.61500
H  14.49800 1.37300 21.52200
H  14.36000 0.14400 20.27100
H  15.88600 0.99500 20.42100
H  13.19800 3.53200 26.89700
H  13.13200 2.37400 25.54500
H  14.38000 3.55900 25.59600
H  14.71800 1.17400 31.29900
H  15.93400 4.48300 33.81700
H  17.63500 3.85400 33.50600
H  16.52300 3.06100 34.58300

