79

Mg 43.15400 41.31100 25.87700
C  41.97500 43.49400 28.38600
C  44.07600 39.02300 28.17200
C  43.82100 39.19300 23.31000
C  42.24600 43.71500 23.49100
N  42.89000 41.26000 28.04900
C  42.47000 42.26600 28.87500
C  42.58000 41.82900 30.35300
C  43.29600 40.42700 30.19400
C  43.44900 40.26200 28.73600
C  44.62300 40.24200 30.99600
C  41.19100 41.82800 31.02900
C  41.12200 42.50600 32.35300
H  40.36000 41.99000 33.54600
N  43.92100 39.41400 25.74000
C  44.21900 38.63000 26.78100
C  44.75500 37.37600 26.29400
C  44.69600 37.44500 24.86000
C  44.11200 38.69600 24.57900
C  45.39600 36.15500 27.04500
C  45.18100 36.44200 23.72600
O  44.86000 36.48000 22.54000
C  45.97000 35.27800 24.15300
N  43.26200 41.52900 23.64700
C  43.43900 40.46300 22.85800
C  43.06600 40.70900 21.41400
C  42.45500 42.14800 21.51700
C  42.56200 42.49100 22.94200
C  44.33600 40.53700 20.45400
C  41.06500 42.23600 20.89600
C  40.85100 43.44600 20.03500
N  42.40700 43.24200 25.87100
C  42.24000 44.14300 24.86500
C  41.72900 45.44700 25.36500
C  41.63900 45.19100 26.76000
C  42.04800 43.83800 27.06400
C  41.35100 46.58100 24.50100
C  41.29500 45.80700 28.00700
O  40.85300 46.92600 28.25600
C  41.57100 44.70700 29.16500
C  42.66600 45.19100 30.06500
O  43.81700 45.32800 29.68700
O  42.18000 45.61000 31.25900
C  43.16700 46.16400 32.15000
H  44.25700 38.19700 28.86400
H  43.89300 38.52800 22.44600
H  41.88700 44.37800 22.70100
H  43.28400 42.48200 30.87000
H  42.63000 39.60700 30.46200
H  45.52100 40.46000 30.41800
H  44.69400 39.29700 31.53400
H  44.66500 41.02400 31.75500
H  40.88800 40.78200 31.08500
H  40.46800 42.38100 30.42900
H  40.73700 43.49500 32.10200
H  42.12800 42.66200 32.74000
H  44.88900 35.26000 26.68400
H  45.19700 36.17400 28.11600
H  46.44600 36.20500 26.75800
H  46.66900 35.90400 24.70700
H  46.55900 34.90300 23.31600
H  45.41300 34.56100 24.75700
H  42.32800 39.92000 21.26900
H  43.05500 42.78700 20.87000
H  45.19900 40.13500 20.98500
H  44.54400 41.47800 19.94400
H  44.07900 39.84100 19.65500
H  40.36500 42.18500 21.73100
H  40.96900 41.27400 20.39400
H  41.07400 43.10800 19.02300
H  41.60800 44.21000 20.21300
H  39.87800 43.86800 20.28500
H  42.10500 46.86700 23.76800
H  41.29100 47.44300 25.16500
H  40.36400 46.42800 24.06400
H  40.63700 44.54500 29.70400
H  43.85500 46.76500 31.55500
H  43.85500 45.48700 32.65700
H  42.67100 46.81600 32.87000

