79

Mg 49.01200 35.94200 27.24200
C  46.85100 34.44300 29.66300
C  49.43100 38.60100 29.35900
C  50.56000 37.57600 24.71100
C  47.88600 33.56200 25.02900
N  48.29700 36.45200 29.29700
C  47.52100 35.65000 30.10600
C  47.37200 36.32400 31.49600
C  48.04500 37.74900 31.32800
C  48.64300 37.61000 29.90600
C  47.02500 38.90600 31.41700
C  47.98600 35.54700 32.63700
C  47.28900 35.80200 33.98000
H  47.74700 36.96500 34.85200
N  50.01400 37.79400 27.18900
C  50.11200 38.74600 28.14300
C  50.90100 39.85800 27.67700
C  51.15100 39.58100 26.29900
C  50.55600 38.27700 25.95200
C  51.35000 40.95900 28.48600
C  52.00500 40.46700 25.34200
O  52.09300 40.21100 24.17100
C  52.63700 41.66500 25.84500
N  49.18200 35.51700 25.21000
C  50.01700 36.30600 24.39300
C  50.11900 35.70900 22.96300
C  49.40800 34.32300 23.14200
C  48.82600 34.42400 24.55000
C  49.40200 36.52600 21.84400
C  50.20900 33.00100 22.89200
C  49.77500 32.05900 21.76000
N  47.73400 34.21900 27.31400
C  47.32200 33.44800 26.28700
C  46.35200 32.45700 26.78300
C  46.18700 32.84900 28.10800
C  47.05600 33.89200 28.37600
C  45.72500 31.33000 26.06000
C  45.50700 32.44500 29.32200
O  44.77400 31.47200 29.51300
C  45.88500 33.49800 30.38100
C  46.41800 32.84300 31.61600
O  47.44100 32.13500 31.63300
O  45.56400 33.11000 32.63400
C  45.90000 32.46900 33.93700
H  49.82700 39.42100 29.96200
H  51.17500 38.00800 23.91900
H  47.69400 32.71600 24.36500
H  46.30600 36.24700 31.71300
H  48.93700 37.95800 31.91900
H  46.93800 39.49000 30.50100
H  47.32100 39.64000 32.16600
H  46.03000 38.57000 31.70900
H  48.97600 36.00200 32.60300
H  48.09700 34.49600 32.37200
H  47.30800 34.88500 34.56900
H  46.22600 35.99900 33.83600
H  52.43900 40.98700 28.47500
H  51.23700 40.89400 29.56800
H  51.01500 41.93000 28.12100
H  53.08000 42.10200 24.95000
H  53.42800 41.32600 26.51500
H  52.00000 42.38000 26.36500
H  51.08600 35.42900 22.54400
H  48.51600 34.28300 22.51700
H  48.39100 36.13300 21.73800
H  49.94400 36.34800 20.91500
H  49.38400 37.60400 22.00100
H  50.31800 32.45800 23.83100
H  51.26200 33.24300 22.75000
H  48.78600 32.29400 21.36600
H  49.77600 31.03000 22.11900
H  50.48700 32.10000 20.93500
H  46.11400 31.32800 25.04100
H  44.65300 31.52600 26.06200
H  45.91800 30.32900 26.44600
H  44.99300 34.03500 30.70400
H  45.18300 32.87500 34.65000
H  46.95900 32.66500 34.10800
H  45.85400 31.38000 33.94400

