79

Mg 8.45600 47.71400 28.55300
C  6.97400 47.19000 31.55500
C  11.49000 48.28200 30.25700
C  9.92800 48.67200 25.65600
C  5.42700 47.98100 27.14900
N  9.11100 47.94200 30.69500
C  8.32000 47.61400 31.73300
C  9.07500 47.89900 33.04300
C  10.41600 48.57200 32.62400
C  10.36900 48.26300 31.13200
C  10.48200 50.09000 32.80100
C  9.17700 46.76000 34.02500
C  8.74700 46.89900 35.50100
H  8.86000 45.66400 36.44400
N  10.42500 48.12700 28.00600
C  11.59100 48.20200 28.78700
C  12.73600 48.35800 27.93900
C  12.32400 48.52300 26.60800
C  10.78300 48.46400 26.72700
C  14.15600 48.26100 28.44300
C  13.09300 48.54200 25.26900
O  12.50000 48.42100 24.18300
C  14.57000 48.58700 25.25800
N  7.73100 48.47800 26.73200
C  8.48900 48.69800 25.58700
C  7.61600 48.79600 24.28100
C  6.21800 48.76500 24.91200
C  6.43400 48.36300 26.35400
C  7.95100 50.03700 23.38300
C  5.19100 47.90800 24.18400
C  3.69000 48.43300 24.32500
N  6.63400 47.58400 29.14200
C  5.40900 47.67400 28.49800
C  4.30900 47.29900 29.28500
C  4.86500 47.10500 30.50900
C  6.25900 47.23900 30.34400
C  2.80800 47.15000 28.84700
C  4.55300 46.79200 31.90500
O  3.49200 46.48000 32.42400
C  5.95300 46.81600 32.64700
C  6.12400 45.46800 33.23400
O  6.69300 44.52500 32.71400
O  5.42800 45.51100 34.41900
C  5.46600 44.33500 35.25900
H  12.42000 48.49900 30.78800
H  10.37800 48.96200 24.70400
H  4.41900 47.91800 26.73400
H  8.40400 48.57700 33.57100
H  11.25600 48.06000 33.09300
H  10.38000 50.50000 31.79700
H  11.43600 50.50000 33.13400
H  9.64600 50.51900 33.35300
H  10.23700 46.52900 34.13100
H  8.72800 45.85000 33.62600
H  7.74600 47.31700 35.61200
H  9.42000 47.65700 35.90200
H  14.52400 47.31300 28.05100
H  14.07200 48.14500 29.52400
H  14.82200 49.10700 28.27400
H  14.85900 47.56700 25.51200
H  14.88900 49.37300 25.94300
H  15.02300 48.73100 24.27800
H  7.98200 47.93100 23.72700
H  5.78600 49.76500 24.90200
H  8.65000 50.68200 23.91400
H  7.01100 50.49500 23.07500
H  8.33000 49.56200 22.47800
H  5.21100 46.94000 24.68600
H  5.34200 47.65000 23.13600
H  3.35000 48.61200 23.30500
H  3.50500 49.28400 24.98000
H  3.02100 47.72700 24.81800
H  2.41300 48.14500 28.63900
H  2.18000 46.68200 29.60400
H  2.77800 46.68800 27.86000
H  5.86900 47.49800 33.49300
H  5.91300 43.42300 34.86600
H  4.49200 43.97500 35.59300
H  5.92300 44.57700 36.21900

