79

Mg 35.74000 48.56600 25.01200
C  35.70100 47.22600 28.28100
C  34.92700 51.58700 26.42100
C  35.34600 49.77600 21.92300
C  36.74000 45.46900 23.87000
N  35.26800 49.30700 27.18400
C  35.31300 48.59200 28.35200
C  35.23800 49.48800 29.61100
C  34.78500 50.90000 28.93600
C  34.97700 50.58600 27.38800
C  33.47500 51.50900 29.26900
C  36.59500 49.41700 30.37300
C  36.48900 48.93100 31.81700
H  35.18500 49.30000 32.59000
N  35.23600 50.40300 24.25800
C  34.85600 51.56100 25.03100
C  34.50700 52.65300 24.13700
C  34.84500 52.18900 22.82400
C  35.08100 50.68400 22.96600
C  33.82600 54.00100 24.67700
C  34.91600 52.95500 21.51600
O  35.31000 52.47700 20.47200
C  34.63000 54.42500 21.52500
N  35.66200 47.69500 23.13100
C  35.82000 48.50600 21.99500
C  36.26000 47.70100 20.85800
C  37.14200 46.58300 21.57900
C  36.45300 46.52800 22.92500
C  35.19400 47.11100 19.87300
C  38.67400 46.89700 21.81500
C  39.57900 46.82400 20.58900
N  36.12300 46.68900 25.82600
C  36.44300 45.52100 25.20400
C  36.52400 44.49100 26.19400
C  36.23900 45.13400 27.41000
C  36.02100 46.46800 27.11400
C  36.82400 43.08900 25.82600
C  36.12600 44.90900 28.75300
O  36.26900 43.87600 29.37100
C  35.78200 46.24200 29.39000
C  34.52100 46.10300 30.22700
O  33.40200 46.46600 29.96200
O  34.81600 45.35600 31.34700
C  33.71300 45.10300 32.31000
H  34.62300 52.49500 26.94500
H  35.36300 50.28400 20.95600
H  37.17200 44.55100 23.46700
H  34.39400 49.17300 30.22500
H  35.47900 51.73100 29.06400
H  32.94100 50.70700 29.77800
H  32.92600 51.69600 28.34600
H  33.52700 52.44700 29.82300
H  36.98300 50.43300 30.44300
H  37.22900 48.68700 29.86900
H  37.35300 49.38300 32.30500
H  36.53700 47.84300 31.83400
H  33.32200 53.68000 25.58800
H  33.06400 54.54200 24.11500
H  34.68500 54.60600 24.96500
H  33.54700 54.51800 21.44500
H  35.14100 54.78000 20.63000
H  35.06100 54.77100 22.46400
H  36.88100 48.42900 20.33500
H  37.03500 45.64000 21.04300
H  35.22000 47.85700 19.07900
H  34.22300 46.84600 20.29400
H  35.54000 46.28700 19.25000
H  39.11700 46.22700 22.55200
H  38.80300 47.92700 22.14800
H  38.93800 47.04700 19.73600
H  39.94100 45.79600 20.62300
H  40.45700 47.46500 20.66900
H  37.33900 43.09400 24.86500
H  35.96800 42.41400 25.80900
H  37.59600 42.62400 26.44000
H  36.57000 46.71300 29.97700
H  33.33000 44.08700 32.40400
H  32.88600 45.81400 32.33000
H  34.21300 45.34100 33.24900

