79

Mg -11.62900 16.47700 41.94200
C  -8.73700 14.36900 41.62400
C  -9.88800 19.04900 40.44700
C  -14.45100 18.17900 41.60400
C  -13.44700 13.61000 42.98900
N  -9.55800 16.66100 41.05300
C  -8.51300 15.71500 41.12100
C  -7.26100 16.30200 40.51800
C  -7.66300 17.78600 40.19200
C  -9.10800 17.84800 40.64500
C  -6.70100 18.82800 40.77500
C  -6.67800 15.57900 39.26600
C  -5.17900 16.04200 39.09100
H  -4.70600 16.45200 37.67900
N  -12.10900 18.39800 41.24600
C  -11.29400 19.24900 40.66300
C  -11.99400 20.55100 40.40700
C  -13.36200 20.26900 40.79700
C  -13.36700 18.89200 41.21000
C  -11.33100 21.82000 39.95900
C  -14.48600 21.31700 40.71300
O  -14.28100 22.47300 40.31400
C  -15.88300 21.08900 41.06400
N  -13.70300 15.89900 41.99000
C  -14.67400 16.83900 41.99500
C  -16.02800 16.20900 42.40800
C  -15.64300 14.79600 42.81200
C  -14.16500 14.76000 42.59800
C  -16.79900 17.08700 43.44400
C  -16.35200 13.63000 42.04600
C  -17.31300 12.74300 42.87200
N  -11.21900 14.43800 42.34400
C  -12.02300 13.37400 42.82300
C  -11.25300 12.15900 43.10600
C  -9.96900 12.54000 42.61200
C  -9.99400 13.93800 42.14400
C  -11.78500 10.92000 43.70200
C  -8.58700 12.00700 42.49000
O  -8.13900 10.93900 42.84400
C  -7.74800 13.21700 41.88000
C  -6.65600 13.55700 42.80900
O  -6.71900 13.54300 44.02300
O  -5.53000 13.67700 42.04700
C  -4.31200 14.03300 42.81500
H  -9.31700 19.83900 39.95400
H  -15.44000 18.64400 41.59000
H  -13.98700 12.68600 43.20800
H  -6.56700 16.24600 41.35600
H  -7.68900 18.11200 39.15300
H  -7.21000 19.62200 41.32100
H  -6.25200 19.42500 39.98100
H  -5.83100 18.40800 41.28000
H  -7.21900 15.94400 38.39300
H  -6.82800 14.51200 39.42600
H  -4.47600 15.23700 39.30800
H  -4.89400 16.90400 39.69500
H  -11.87800 22.28900 39.14100
H  -10.30500 21.71800 39.60700
H  -11.31800 22.58700 40.73400
H  -16.35400 20.48300 40.29000
H  -16.44800 22.02100 41.06800
H  -15.89700 20.60100 42.03900
H  -16.58000 16.41000 41.49000
H  -15.89000 14.61300 43.85800
H  -17.77500 17.34300 43.03000
H  -16.13600 17.88400 43.78100
H  -16.98100 16.41500 44.28300
H  -15.66500 12.95000 41.54200
H  -17.01500 14.04700 41.28800
H  -17.30600 13.10500 43.90000
H  -17.23800 11.65600 42.86500
H  -18.29700 12.94400 42.44800
H  -12.35700 10.26200 43.04700
H  -12.42100 11.16900 44.55100
H  -10.96000 10.25400 43.95700
H  -7.28200 12.84800 40.96700
H  -4.34400 15.08800 43.08600
H  -3.47800 13.78000 42.16000
H  -4.22100 13.42100 43.71200

