79

Mg 17.31000 52.82600 26.52100
C  19.27200 51.27800 29.01100
C  14.97900 53.51600 29.02300
C  15.28900 53.86500 24.14000
C  19.50100 51.49000 24.05500
N  17.24600 52.41300 28.69400
C  18.19800 51.95300 29.57400
C  17.83500 52.18900 30.98000
C  16.28800 52.46600 30.88300
C  16.14100 52.83200 29.41100
C  15.59600 51.14600 31.24300
C  18.53000 53.30500 31.75500
C  18.55600 53.21300 33.29700
H  17.47100 52.34200 34.00900
N  15.38900 53.63500 26.59300
C  14.66400 53.92300 27.71700
C  13.44600 54.47800 27.32600
C  13.40300 54.54300 25.86500
C  14.72100 53.99300 25.43400
C  12.37400 54.82900 28.42500
C  12.26000 54.97900 24.96800
O  12.29000 54.73600 23.76900
C  11.13700 55.68000 25.49700
N  17.51900 52.87000 24.43500
C  16.50400 53.39400 23.68400
C  16.78500 53.22100 22.10800
C  18.31100 52.60100 22.15600
C  18.41700 52.28300 23.62600
C  15.71000 52.28800 21.45400
C  19.52500 53.48900 21.72400
C  19.35300 54.88600 21.12700
N  19.05400 51.74500 26.45100
C  19.82500 51.27100 25.40700
C  20.89800 50.48600 25.98200
C  20.68900 50.47500 27.38100
C  19.59600 51.27500 27.65400
C  21.93300 49.87400 25.13800
C  21.34200 49.95400 28.58800
O  22.33000 49.25800 28.83900
C  20.39400 50.53000 29.74600
C  19.79100 49.45000 30.54000
O  19.10600 48.55800 30.08800
O  20.32200 49.36200 31.79200
C  19.80000 48.19300 32.58800
H  14.28900 53.85700 29.79700
H  14.61900 54.06600 23.30200
H  20.01500 50.97500 23.24100
H  18.09500 51.29700 31.55100
H  15.97300 53.34100 31.45200
H  15.77200 50.34900 30.52000
H  14.54300 51.36600 31.42200
H  16.04500 50.84500 32.18900
H  18.04700 54.25700 31.53300
H  19.54300 53.23100 31.35900
H  18.55900 54.22400 33.70300
H  19.52900 52.80300 33.56700
H  11.35800 54.84600 28.03200
H  12.73500 55.72500 28.93000
H  12.45900 53.96300 29.08200
H  11.62000 56.50300 26.02600
H  10.61200 54.93200 26.09100
H  10.52800 56.15100 24.72600
H  16.65000 54.17000 21.58800
H  18.12700 51.64800 21.66000
H  14.92000 52.95900 21.11800
H  15.38400 51.65500 22.27900
H  16.13600 51.70000 20.64000
H  20.04500 52.99700 20.90100
H  20.17900 53.50400 22.59600
H  18.86800 54.77300 20.15700
H  20.27300 55.46900 21.08200
H  18.70000 55.45400 21.78900
H  22.62300 50.59200 24.69300
H  21.44400 49.30800 24.34500
H  22.43600 49.19300 25.82400
H  20.99000 51.16000 30.40500
H  20.07800 47.22100 32.18200
H  18.71400 48.11800 32.63600
H  20.25000 48.25700 33.57800

