79

Mg 44.39700 3.91500 46.44300
C  42.49100 6.82000 46.35700
C  41.45200 2.02400 46.30400
C  46.34100 1.26900 45.74200
C  47.34500 5.99600 45.75200
N  42.24800 4.32900 46.45400
C  41.66300 5.63300 46.49500
C  40.11500 5.53600 46.58300
C  39.85700 4.00600 46.68800
C  41.27800 3.43000 46.39500
C  39.25000 3.51800 48.03200
C  39.37500 6.17600 45.40600
C  39.69100 5.83400 43.88300
H  40.00100 6.99400 42.92400
N  43.98000 1.87200 46.07300
C  42.73300 1.33200 46.09400
C  42.98300 -0.10700 45.95600
C  44.32500 -0.40400 45.68600
C  44.96600 0.93500 45.87200
C  41.81000 -1.09500 45.84000
C  44.93900 -1.67500 45.44500
O  44.33500 -2.75500 45.53100
C  46.36100 -1.81900 45.03800
N  46.62100 3.68600 45.88500
C  47.14100 2.39900 45.78200
C  48.67400 2.40300 45.59500
C  49.00800 3.95000 45.29200
C  47.60400 4.60500 45.67200
C  49.54200 1.82700 46.79800
C  49.43600 4.32600 43.92700
C  50.92900 4.64600 43.80100
N  44.90700 5.93600 46.15200
C  46.07800 6.64800 45.96600
C  45.80200 8.10100 45.86400
C  44.36400 8.13800 46.02800
C  43.89600 6.82200 46.19800
C  46.70100 9.19500 45.58000
C  43.23300 9.02100 46.24800
O  43.23800 10.28200 46.20500
C  42.00500 8.20100 46.41700
C  41.27900 8.52000 47.67600
O  41.62800 8.15400 48.77300
O  40.11700 9.18100 47.41600
C  39.15700 9.29200 48.53200
H  40.61200 1.32600 46.29100
H  47.04700 0.43800 45.67900
H  48.10200 6.75600 45.54500
H  39.91400 6.02900 47.53400
H  39.26300 3.71300 45.82300
H  39.88000 2.81200 48.57300
H  38.28700 3.06100 47.80600
H  39.08100 4.35800 48.70600
H  39.45500 7.26200 45.45200
H  38.31600 5.91900 45.43800
H  38.91600 5.20000 43.45300
H  40.57300 5.20500 44.00600
H  41.71900 -1.57500 46.81500
H  42.10000 -1.87900 45.14100
H  40.87500 -0.60400 45.57000
H  46.99500 -1.94000 45.91700
H  46.62500 -1.06400 44.29800
H  46.22100 -2.74000 44.47300
H  48.81500 1.75500 44.73000
H  49.71900 4.29500 46.04300
H  50.52300 1.55400 46.40900
H  49.08400 0.95900 47.27200
H  49.48900 2.67200 47.48500
H  48.78000 5.14700 43.64000
H  49.18600 3.41900 43.37600
H  51.46300 4.26200 44.67100
H  51.18000 5.70300 43.71100
H  51.38900 4.21200 42.91400
H  47.35800 9.22000 44.71100
H  47.29500 9.18800 46.49400
H  46.23000 10.17800 45.56100
H  41.28200 8.47900 45.65000
H  39.16600 10.30100 48.94400
H  39.43100 8.59700 49.32500
H  38.19700 8.99800 48.10800

