79

Mg -5.10600 25.52300 25.22000
C  -3.57400 27.15200 27.83900
C  -6.81300 23.50400 27.57300
C  -6.49500 23.74600 22.77100
C  -2.99900 27.28600 23.03000
N  -5.09900 25.32700 27.45400
C  -4.50500 26.23500 28.30200
C  -5.03500 26.05200 29.69800
C  -5.73300 24.62800 29.56700
C  -5.92500 24.42300 28.09400
C  -4.87600 23.46300 30.07200
C  -6.01600 27.24700 30.11700
C  -6.05900 27.72800 31.66500
H  -5.62200 26.74900 32.70600
N  -6.53300 23.83900 25.20300
C  -7.03900 23.25200 26.25100
C  -8.09200 22.28900 25.78900
C  -7.97600 22.29400 24.34200
C  -6.96700 23.33400 24.03900
C  -8.88500 21.44600 26.64300
C  -8.65300 21.41000 23.36000
O  -8.54700 21.53000 22.16600
C  -9.50200 20.24800 23.83500
N  -4.85600 25.62100 23.18000
C  -5.44100 24.68000 22.39000
C  -4.93700 24.86400 20.94700
C  -3.97900 26.12900 21.01100
C  -3.92900 26.35300 22.52700
C  -4.30500 23.64300 20.40300
C  -4.34900 27.35500 20.08900
C  -3.20100 27.89100 19.21100
N  -3.58800 26.94700 25.41100
C  -2.79700 27.58500 24.40900
C  -1.87200 28.52600 25.06400
C  -2.16800 28.44500 26.44100
C  -3.20600 27.50300 26.55500
C  -0.85900 29.42500 24.34600
C  -1.85300 28.90600 27.77700
O  -1.09300 29.79400 28.03600
C  -2.84000 28.08000 28.70900
C  -2.03500 27.43500 29.75300
O  -1.14900 26.59300 29.50100
O  -2.58100 27.66800 30.95300
C  -1.67000 27.35100 32.17000
H  -7.40400 22.84900 28.21600
H  -6.87900 23.20100 21.90700
H  -2.32400 27.72700 22.29400
H  -4.23300 25.95800 30.43000
H  -6.75800 24.58200 29.93500
H  -4.44400 22.83400 29.29300
H  -5.48400 22.89100 30.77300
H  -4.02100 23.83900 30.63300
H  -7.04800 26.94000 29.94400
H  -5.76000 27.98800 29.36000
H  -7.12000 27.90700 31.83600
H  -5.48900 28.65500 31.72800
H  -9.92900 21.73500 26.53000
H  -8.71500 21.49600 27.71900
H  -8.65700 20.40500 26.41300
H  -10.34700 20.64900 24.39400
H  -8.86700 19.57100 24.40600
H  -10.00700 19.65000 23.07700
H  -5.74100 25.16500 20.27600
H  -2.99000 25.86800 20.63400
H  -4.35200 22.84700 21.14700
H  -3.25100 23.83600 20.20600
H  -4.74200 23.27100 19.47600
H  -4.51300 28.22300 20.72900
H  -5.14000 27.08700 19.38800
H  -3.50500 28.00800 18.17000
H  -2.27900 27.31100 19.22800
H  -3.16600 28.95400 19.44900
H  -1.38100 30.17200 23.74800
H  -0.50300 28.83300 23.50200
H  -0.01300 29.75600 24.94900
H  -3.51000 28.84700 29.09800
H  -2.02800 27.70800 33.13600
H  -0.67100 27.75100 31.99700
H  -1.54600 26.26800 32.17600

