79

Mg 7.41500 3.47700 27.05700
C  9.16400 2.07500 29.82900
C  5.31200 5.08400 29.20800
C  5.70100 4.61200 24.37200
C  9.00500 1.19800 25.01100
N  7.26900 3.52600 29.23800
C  8.16200 3.00600 30.19000
C  7.80900 3.58400 31.54800
C  6.50100 4.35400 31.31300
C  6.31700 4.31700 29.82600
C  5.17900 3.92700 32.08300
C  9.08200 4.36900 32.10900
C  8.88200 5.13200 33.42900
H  9.70800 4.66400 34.66900
N  5.75500 4.81500 26.85300
C  4.99100 5.36600 27.80200
C  3.92900 6.15800 27.25300
C  4.16100 6.17700 25.82900
C  5.23300 5.13000 25.64800
C  3.09200 7.10700 28.13500
C  3.47800 6.93100 24.80300
O  3.83500 6.76700 23.66500
C  2.38900 7.88500 25.07000
N  7.32200 2.97700 25.02300
C  6.65900 3.72400 24.08000
C  6.94900 3.18900 22.65200
C  8.18000 2.21600 22.84000
C  8.11400 2.06100 24.37700
C  5.75900 2.53800 21.90100
C  9.51900 2.85300 22.30800
C  9.79700 2.28700 20.89700
N  8.86700 1.95400 27.37200
C  9.36500 1.12000 26.45600
C  10.31900 0.23100 27.03000
C  10.32600 0.62800 28.42600
C  9.41000 1.68600 28.53200
C  10.93300 -0.97100 26.43200
C  10.84100 0.37100 29.73600
O  11.67100 -0.48100 30.08900
C  10.13300 1.30600 30.73600
C  9.54000 0.57000 31.95100
O  8.62300 -0.22700 31.92500
O  10.20000 1.00100 33.10900
C  9.81000 0.33600 34.45200
H  4.68100 5.59500 29.93800
H  5.29600 4.99400 23.43300
H  9.49300 0.47800 24.35000
H  7.62000 2.76100 32.23700
H  6.67100 5.39900 31.57100
H  5.44000 3.17500 32.82800
H  4.44500 3.62900 31.33400
H  4.80900 4.80600 32.61000
H  9.37000 5.02800 31.29100
H  9.93400 3.71100 32.27800
H  7.90600 5.08200 33.91100
H  9.17400 6.16600 33.24400
H  3.68200 7.37000 29.01300
H  2.24700 6.49300 28.44800
H  2.76600 7.99600 27.59500
H  2.05700 8.24200 24.09500
H  2.96300 8.68500 25.53600
H  1.56100 7.48900 25.65900
H  7.19700 4.08900 22.09000
H  8.09800 1.21600 22.41600
H  4.88100 2.81600 22.48400
H  5.86400 1.45300 21.88600
H  5.57700 2.98600 20.92400
H  10.31900 2.60800 23.00700
H  9.48700 3.94200 22.27300
H  9.63900 2.91800 20.02200
H  9.12900 1.46000 20.65700
H  10.81100 1.88900 20.85600
H  11.39600 -1.45300 27.29200
H  11.71200 -0.60100 25.76500
H  10.25000 -1.59600 25.85600
H  10.84700 2.05100 31.08700
H  8.97300 -0.35000 34.32200
H  9.48800 1.11600 35.14200
H  10.67800 -0.11800 34.93000

