79

Mg -1.53600 34.03200 27.01700
C  -2.60500 32.38900 29.91400
C  0.27400 36.30100 29.12200
C  -0.90500 35.89000 24.33400
C  -3.64300 31.89100 25.16000
N  -1.28300 34.39700 29.28300
C  -1.67000 33.40700 30.22200
C  -1.05600 33.65600 31.58900
C  -0.21100 34.94700 31.34900
C  -0.40200 35.23900 29.84100
C  -0.58500 36.08700 32.29900
C  -0.37900 32.43200 32.32800
C  -0.97300 32.00600 33.68300
H  0.00700 31.78800 34.86100
N  -0.51300 35.90100 26.73300
C  0.23900 36.62400 27.66500
C  0.80300 37.75400 26.95100
C  0.37800 37.71400 25.63400
C  -0.40500 36.49800 25.50800
C  1.62900 38.79700 27.58900
C  0.71200 38.71400 24.53800
O  0.33400 38.50800 23.44500
C  1.57900 39.89700 24.72400
N  -2.29700 33.96700 25.02000
C  -1.75900 34.77100 24.10000
C  -2.32100 34.39600 22.71100
C  -2.92600 32.98400 22.91800
C  -2.96300 32.93200 24.45400
C  -3.35900 35.47000 22.15300
C  -2.08000 31.94300 22.23600
C  -0.63000 31.69500 22.90000
N  -2.81600 32.44500 27.37600
C  -3.61400 31.67700 26.55800
C  -4.51300 30.80600 27.29500
C  -4.05000 30.99900 28.63100
C  -3.06500 32.02100 28.61300
C  -5.60000 29.91200 26.73900
C  -4.31200 30.58800 29.99600
O  -5.14400 29.78100 30.44400
C  -3.38100 31.48600 30.88100
C  -4.34800 32.21300 31.69100
O  -5.22600 33.01400 31.36800
O  -4.19800 31.78900 32.99800
C  -4.94100 32.36500 34.11400
H  1.07400 36.84100 29.63200
H  -0.79700 36.48400 23.42400
H  -4.27200 31.16200 24.64600
H  -1.98700 33.88100 32.11000
H  0.81600 34.70000 31.61700
H  -0.99100 35.68300 33.22700
H  -1.41700 36.61000 31.82800
H  0.17600 36.84400 32.49000
H  0.63000 32.75600 32.57900
H  -0.34100 31.65000 31.56900
H  -1.51500 31.08500 33.46800
H  -1.84100 32.59400 33.98300
H  1.81800 38.52500 28.62700
H  1.12700 39.76100 27.67300
H  2.62000 38.86400 27.13900
H  1.54900 40.48000 23.80300
H  2.51800 39.47100 25.08000
H  1.11600 40.51500 25.49300
H  -1.45800 34.51800 22.05600
H  -3.99200 33.05000 22.70000
H  -2.95600 35.89200 21.23200
H  -3.56400 36.21000 22.92700
H  -4.36100 35.10000 21.93500
H  -1.91400 32.22500 21.19600
H  -2.52400 30.94900 22.28100
H  0.08100 31.86600 22.09200
H  -0.62800 30.65500 23.22800
H  -0.37400 32.26800 23.79100
H  -5.96000 30.18300 25.74600
H  -6.42900 29.88300 27.44600
H  -5.22400 28.88900 26.71800
H  -2.88300 30.75500 31.51800
H  -5.80900 31.71300 34.20900
H  -5.25100 33.38900 33.90300
H  -4.29300 32.39100 34.99000

