79

Mg 9.11000 48.41300 25.96500
C  7.00800 48.86600 28.65700
C  11.81300 49.70600 27.76700
C  11.04400 48.01100 23.22300
C  6.23700 47.72000 24.03400
N  9.35600 49.26700 27.87600
C  8.36400 49.14800 28.88900
C  9.06400 49.48700 30.26600
C  10.37900 50.15700 29.82600
C  10.54500 49.70000 28.40900
C  10.43300 51.66600 30.09700
C  9.43300 48.22300 31.12000
C  9.55200 48.37200 32.67900
H  8.95600 47.35600 33.66900
N  11.14900 48.73500 25.60200
C  12.08300 49.22600 26.43800
C  13.36600 49.06600 25.79800
C  13.16700 48.56900 24.52700
C  11.76500 48.45000 24.36400
C  14.64400 49.51300 26.51300
C  14.16000 48.33300 23.43800
O  13.85600 48.14200 22.26600
C  15.72100 48.39200 23.77700
N  8.71100 48.03400 23.92600
C  9.63800 47.83200 22.97000
C  9.03900 47.45500 21.65500
C  7.54500 47.39700 21.98200
C  7.48800 47.69500 23.39600
C  9.42400 48.34500 20.41600
C  7.00200 45.98900 21.57400
C  5.81600 46.16700 20.61400
N  6.98100 48.42500 26.20900
C  5.96400 48.08400 25.36600
C  4.73500 48.10400 26.07200
C  5.13900 48.44500 27.38700
C  6.48600 48.63500 27.40500
C  3.40600 47.72800 25.60400
C  4.57700 48.60800 28.68700
O  3.43200 48.54800 29.11200
C  5.83400 48.93900 29.56300
C  5.81400 47.89200 30.61900
O  6.23200 46.80900 30.43100
O  5.29800 48.34800 31.82400
C  5.08100 47.27800 32.78300
H  12.64900 50.05700 28.37500
H  11.51300 47.93000 22.24000
H  5.37000 47.35900 23.47700
H  8.53500 50.20700 30.89000
H  11.22400 49.77000 30.39500
H  10.61300 52.07700 29.10400
H  11.28400 51.86400 30.74900
H  9.50400 52.01000 30.55300
H  10.38900 47.77100 30.85300
H  8.73900 47.43900 30.81600
H  9.08700 49.34100 32.86400
H  10.59700 48.52800 32.94700
H  14.42900 49.69800 27.56500
H  15.08400 50.41300 26.08300
H  15.43700 48.76600 26.47800
H  16.17100 47.51200 24.23500
H  15.89100 49.37400 24.22000
H  16.17900 48.44000 22.78900
H  9.62000 46.55200 21.46500
H  7.07100 48.18600 21.39800
H  9.86700 49.25200 20.82500
H  8.57800 48.58000 19.77000
H  10.09000 47.72000 19.82100
H  6.69500 45.56000 22.52800
H  7.76600 45.29600 21.22100
H  5.15300 45.30200 20.62600
H  5.98600 46.45200 19.57600
H  5.18900 46.98100 20.98000
H  3.54600 46.91300 24.89400
H  2.92900 48.52600 25.03500
H  2.63600 47.50900 26.34400
H  5.59900 49.82200 30.15700
H  5.62200 47.54100 33.69300
H  5.30400 46.24600 32.51400
H  4.00300 47.41100 32.87200

