79

Mg 47.20700 25.22900 28.24800
C  47.98400 27.44900 30.89200
C  46.37600 22.89100 30.68300
C  46.54100 23.09600 25.86300
C  48.32900 27.62900 26.04600
N  47.35600 25.16500 30.52800
C  47.47600 26.24900 31.38300
C  47.18700 25.88700 32.84000
C  46.79000 24.35900 32.78200
C  46.75400 24.14400 31.21800
C  47.62800 23.28200 33.54200
C  46.15000 26.77900 33.58600
C  45.50400 26.27700 34.86200
H  45.32000 27.11100 36.09400
N  46.59100 23.24900 28.25900
C  46.22500 22.49700 29.32900
C  45.77500 21.19000 28.86300
C  45.71800 21.20500 27.45900
C  46.29100 22.49900 27.12500
C  45.38600 20.06500 29.76500
C  45.47200 20.05600 26.51800
O  45.63200 20.16000 25.28100
C  44.91500 18.76400 27.05100
N  47.57900 25.20400 26.32500
C  47.12100 24.28000 25.49800
C  47.31100 24.66500 24.00800
C  47.52000 26.21200 24.05000
C  47.80400 26.40500 25.57900
C  48.27700 23.84400 23.06000
C  46.32900 27.02600 23.49000
C  46.10400 27.24200 21.97800
N  48.02200 27.14500 28.36600
C  48.40000 28.03300 27.39300
C  48.84500 29.26600 28.00800
C  48.72700 29.08800 29.36200
C  48.24600 27.76900 29.51100
C  49.32600 30.45000 27.21700
C  48.92600 29.76200 30.61700
O  49.37100 30.83900 30.81800
C  48.43000 28.69900 31.71500
C  49.47700 28.43400 32.76000
O  50.42600 27.71700 32.61300
O  49.25500 29.14600 33.92500
C  50.15100 28.90900 35.06300
H  46.22200 22.09700 31.41700
H  46.19400 22.42300 25.07600
H  48.41700 28.34300 25.22500
H  48.14100 25.89900 33.36800
H  45.72500 24.33000 33.01300
H  47.21200 22.30300 33.30300
H  47.51600 23.49400 34.60500
H  48.66300 23.28100 33.20200
H  45.35000 27.15300 32.94700
H  46.63600 27.74000 33.75500
H  45.99200 25.36200 35.19600
H  44.47400 25.97000 34.68100
H  44.35600 19.80800 29.51800
H  45.29200 20.39200 30.80000
H  46.06000 19.21100 29.70200
H  45.74400 18.25600 27.54400
H  44.69800 18.14400 26.18200
H  44.09600 18.90700 27.75700
H  46.29000 24.54000 23.64900
H  48.34300 26.55700 23.42500
H  48.74000 23.01100 23.58900
H  49.04200 24.34300 22.46500
H  47.62300 23.38400 22.31800
H  46.65000 28.02800 23.77600
H  45.50200 26.65700 24.09600
H  45.20300 26.66100 21.78100
H  46.97100 26.88900 21.41800
H  45.98400 28.27300 21.64400
H  49.10400 30.46100 26.15000
H  50.39900 30.50600 27.39700
H  48.78700 31.28300 27.66800
H  47.55900 29.14500 32.19500
H  50.03900 27.95900 35.58600
H  49.89300 29.64800 35.82100
H  51.19600 28.81800 34.76600

