79

Mg 55.30000 23.26900 43.92500
C  52.63800 25.30700 42.72300
C  53.26700 20.49800 43.12700
C  58.02000 21.23900 44.22000
C  57.18600 25.98900 44.62700
N  53.26100 22.95400 42.88400
C  52.39400 23.93100 42.48100
C  51.10300 23.41100 41.95200
C  51.19200 21.95100 42.42500
C  52.64000 21.72700 42.90000
C  50.27100 21.73100 43.65400
C  50.87800 23.53400 40.40600
C  49.50200 24.13600 39.97300
H  48.86500 23.68800 38.63000
N  55.60200 21.14100 43.76000
C  54.60400 20.19200 43.48300
C  55.23800 18.88400 43.51200
C  56.66900 19.06600 43.79700
C  56.81700 20.50300 43.99300
C  54.59600 17.50600 43.20000
C  57.63100 17.93100 43.92600
O  57.34200 16.79100 43.83200
C  59.01200 18.17800 44.40300
N  57.30000 23.56900 44.38300
C  58.18200 22.56400 44.53200
C  59.58900 23.06300 44.82200
C  59.34300 24.58300 44.99300
C  57.86000 24.74000 44.74700
C  60.37100 22.48700 46.04700
C  60.17400 25.33900 44.01000
C  61.35500 26.15200 44.67800
N  55.01600 25.32000 43.68300
C  55.90000 26.29200 44.05700
C  55.23300 27.54100 43.91100
C  53.88200 27.24100 43.48700
C  53.86700 25.86000 43.20600
C  55.86700 28.88400 44.33000
C  52.49000 27.74000 43.18800
O  51.98300 28.83800 43.39100
C  51.72700 26.58300 42.58200
C  51.54300 27.01400 41.17800
O  52.19200 26.68100 40.23400
O  50.41900 27.74300 41.12100
C  49.89100 28.29800 39.88400
H  52.64900 19.60800 42.98900
H  59.00000 20.75600 44.21000
H  57.85100 26.84300 44.77800
H  50.32700 24.01000 42.42800
H  50.89000 21.27400 41.62600
H  50.51500 20.75600 44.07500
H  49.22300 21.82700 43.37200
H  50.48000 22.50400 44.39400
H  50.99900 22.57000 39.91200
H  51.61800 24.16500 39.91500
H  49.69800 25.19300 39.79600
H  48.72100 23.95600 40.71300
H  54.89700 17.24500 42.18600
H  53.52800 17.65500 43.03800
H  54.78400 16.73600 43.94900
H  59.72700 18.51500 43.65100
H  59.39200 17.25800 44.84600
H  58.88900 18.83200 45.26700
H  60.14700 22.77600 43.93100
H  59.57500 25.01400 45.96700
H  61.16200 21.91000 45.57000
H  59.79200 21.87500 46.73900
H  60.78100 23.33500 46.59500
H  59.71700 26.02500 43.29700
H  60.69400 24.79000 43.22500
H  61.23100 26.19300 45.76000
H  61.46600 27.07500 44.10800
H  62.27500 25.57900 44.56200
H  56.87000 28.76400 44.73900
H  55.38800 29.24300 45.24100
H  55.80400 29.61500 43.52300
H  50.70800 26.43100 42.93800
H  50.70000 28.83500 39.38800
H  49.10300 28.99700 40.16400
H  49.58300 27.42300 39.31200

