79

Mg 0.27100 44.04400 25.94000
C  2.47800 43.86200 28.64300
C  -2.31200 43.62700 28.24000
C  -1.82800 43.88400 23.49400
C  2.96800 44.35900 23.82100
N  0.11600 43.93000 28.18400
C  1.16300 43.80500 29.01800
C  0.58900 43.68800 30.45300
C  -0.92000 43.30300 30.32800
C  -1.06500 43.67000 28.80100
C  -1.25600 41.75900 30.64800
C  0.85300 44.99800 31.24800
C  1.38300 44.70800 32.66800
H  0.63700 43.68200 33.50600
N  -1.76500 43.85200 25.89100
C  -2.64800 43.73600 26.93200
C  -4.04500 43.69700 26.49400
C  -3.93000 43.81300 25.04700
C  -2.45600 43.87500 24.76300
C  -5.30500 43.56600 27.39000
C  -5.01400 43.91200 24.03400
O  -4.78600 43.97600 22.84700
C  -6.53600 43.98500 24.46500
N  0.63700 43.88700 23.92000
C  -0.45100 43.87200 23.11400
C  -0.02900 44.03000 21.66800
C  1.50400 44.45200 21.74800
C  1.71100 44.21700 23.21500
C  -0.24900 42.79700 20.78800
C  1.80800 45.88200 21.20500
C  2.14400 45.78800 19.67100
N  2.41000 44.01100 26.14300
C  3.35800 44.15800 25.17300
C  4.65600 44.08500 25.77400
C  4.38100 44.03100 27.14500
C  2.99600 43.90400 27.30100
C  6.02600 44.00100 25.03600
C  4.89600 43.88200 28.50500
O  6.06900 43.93200 28.91700
C  3.70500 43.88000 29.50100
C  3.83200 42.72700 30.39300
O  3.68000 41.60500 29.98600
O  4.35500 43.05900 31.65800
C  4.79300 41.94600 32.48600
H  -3.08600 43.57100 29.00900
H  -2.47900 43.89200 22.61800
H  3.66900 44.59800 23.01800
H  1.20300 42.84800 30.77600
H  -1.50100 44.07300 30.83700
H  -0.32900 41.26200 30.93200
H  -1.63300 41.39400 29.69300
H  -1.93900 41.67300 31.49400
H  -0.05200 45.58500 31.40600
H  1.61600 45.59500 30.75000
H  1.45700 45.69800 33.11600
H  2.45600 44.57200 32.53500
H  -5.79800 44.51400 27.60200
H  -4.97800 43.22000 28.37000
H  -5.97900 42.82500 26.96100
H  -6.83800 42.98300 24.77000
H  -7.00900 44.41900 23.58500
H  -6.58800 44.64700 25.33000
H  -0.62800 44.81800 21.21200
H  2.18300 43.74100 21.27700
H  0.51800 42.48400 20.08100
H  -1.07800 42.97900 20.10400
H  -0.54900 41.93900 21.39000
H  2.73400 46.28900 21.61000
H  0.96300 46.56800 21.24900
H  1.68700 46.67000 19.22100
H  1.56700 44.92200 19.34800
H  3.19800 45.70000 19.41000
H  6.77500 44.42200 25.70700
H  5.89900 44.60600 24.13800
H  6.30500 42.97500 24.79500
H  3.80400 44.77000 30.12200
H  5.86500 41.78700 32.36600
H  4.23800 41.01200 32.39800
H  4.69500 42.20400 33.54100

