79

Mg 1.57600 -1.95500 43.79700
C  4.79900 -0.82900 43.33900
C  0.46900 0.92900 42.23000
C  -1.60500 -3.28400 43.67400
C  2.80600 -5.14600 44.73600
N  2.61900 -0.14100 42.92100
C  3.91200 0.08800 42.86700
C  4.20600 1.46000 42.30600
C  2.78300 2.11600 42.16200
C  1.88300 0.89800 42.39800
C  2.48500 3.30000 43.14100
C  4.93200 1.36200 40.88900
C  6.13700 2.36600 40.65300
H  6.04300 3.05900 39.31100
N  -0.35000 -1.27000 43.21400
C  -0.57700 -0.01600 42.60600
C  -1.99800 0.17600 42.44600
C  -2.56800 -1.06300 42.81600
C  -1.46500 -1.97100 43.22700
C  -2.66200 1.40600 41.93900
C  -4.08400 -1.30600 42.78300
O  -4.92700 -0.48900 42.49500
C  -4.65300 -2.69700 43.08700
N  0.69900 -3.86200 44.20000
C  -0.59600 -4.09300 44.13900
C  -0.93100 -5.56100 44.43700
C  0.42700 -6.14200 44.88600
C  1.42400 -4.99700 44.58900
C  -2.11600 -5.61300 45.52600
C  0.79900 -7.50800 44.20300
C  1.05600 -7.52600 42.74800
N  3.46600 -2.85600 44.08900
C  3.79400 -4.10400 44.58500
C  5.25600 -4.10900 44.82200
C  5.71100 -2.88100 44.31900
C  4.54800 -2.14400 43.85000
C  6.01700 -5.28700 45.48500
C  6.89900 -2.02300 44.06300
O  8.07700 -2.26300 44.18000
C  6.33900 -0.70300 43.41200
C  6.67100 0.41400 44.35700
O  5.98300 0.89500 45.20500
O  7.88500 0.92100 43.97400
C  8.37600 2.13300 44.73900
H  0.02100 1.91500 42.09100
H  -2.58800 -3.74200 43.54400
H  3.10200 -6.06200 45.25100
H  4.80000 2.05400 43.00100
H  2.77200 2.53100 41.15500
H  1.47100 3.22400 43.53300
H  2.39800 4.27900 42.66900
H  3.21300 3.45400 43.93800
H  4.17700 1.49900 40.11500
H  5.15300 0.31300 40.68900
H  7.08000 1.82400 40.72000
H  6.27200 3.01300 41.51900
H  -3.53100 1.83500 42.43600
H  -3.03300 1.10200 40.96000
H  -1.91800 2.17500 41.73000
H  -4.44000 -3.35400 42.24300
H  -5.71600 -2.47400 43.16900
H  -4.23800 -3.06800 44.02400
H  -1.22100 -6.06800 43.51700
H  0.28100 -6.29500 45.95500
H  -2.40600 -4.62000 45.87000
H  -1.84500 -6.36600 46.26600
H  -2.88400 -6.09300 44.92000
H  -0.02400 -8.15700 44.50500
H  1.63000 -7.86300 44.81300
H  0.41900 -8.12500 42.09700
H  2.13400 -7.65600 42.64900
H  0.87900 -6.48200 42.49000
H  6.43700 -5.86100 44.65900
H  5.35200 -5.99600 45.97900
H  6.74900 -5.06000 46.26000
H  6.70900 -0.42200 42.42600
H  7.86500 2.15900 45.70100
H  8.18900 3.12800 44.33500
H  9.44700 2.03000 44.91200

