79

Mg 41.79700 41.07100 26.28800
C  40.95300 43.40500 28.79800
C  42.65900 38.75700 28.55400
C  43.00200 39.20300 23.72000
C  40.91100 43.63300 23.83300
N  41.83600 41.15000 28.36900
C  41.41200 42.14600 29.25200
C  41.39900 41.67500 30.77300
C  41.96000 40.26800 30.65200
C  42.13000 40.00200 29.08700
C  43.26600 39.91700 31.44800
C  39.92100 41.86500 31.43500
C  39.76300 42.82700 32.62200
H  39.07000 42.32900 33.86300
N  42.76500 39.28000 26.17900
C  42.97800 38.42200 27.20500
C  43.74700 37.27700 26.76200
C  43.80100 37.32100 25.35400
C  43.16300 38.64700 25.05000
C  44.35000 36.21700 27.69300
C  44.39900 36.36000 24.26800
O  44.42800 36.62300 23.06700
C  44.89300 35.00200 24.70600
N  42.10400 41.48900 24.06000
C  42.51200 40.42100 23.30200
C  42.29400 40.80800 21.81600
C  41.31900 42.06400 21.78600
C  41.39400 42.42300 23.27300
C  43.66900 40.98900 21.19000
C  39.90200 41.66200 21.26200
C  38.88300 41.15300 22.28200
N  41.16300 43.07800 26.29700
C  40.83300 43.96900 25.23500
C  40.31300 45.22100 25.78600
C  40.37900 45.03300 27.25000
C  40.96500 43.76300 27.42200
C  39.78300 46.36000 25.03800
C  40.09000 45.69800 28.54300
O  39.69600 46.83100 28.74900
C  40.43600 44.62100 29.62700
C  41.49400 45.11300 30.52800
O  42.68600 44.96000 30.33400
O  40.94800 45.73400 31.55800
C  41.88100 46.17700 32.63400
H  42.71400 38.10800 29.43000
H  43.15300 38.56500 22.84700
H  40.63700 44.32000 23.03000
H  42.08800 42.14100 31.47700
H  41.20800 39.51300 30.88100
H  44.07700 40.04100 30.73100
H  43.21400 38.92000 31.88500
H  43.45000 40.61600 32.26300
H  39.61400 40.86700 31.74800
H  39.25200 42.11900 30.61300
H  39.10300 43.63700 32.31200
H  40.76000 43.23800 32.77900
H  44.31200 35.21900 27.25700
H  43.70700 36.24100 28.57300
H  45.39500 36.48600 27.84500
H  45.63000 35.12100 25.50100
H  45.42200 34.48700 23.90500
H  44.07500 34.45500 25.17600
H  41.87000 39.94300 21.30600
H  41.70300 42.94200 21.26700
H  43.82500 42.00200 20.82100
H  43.87400 40.23300 20.43200
H  44.38700 40.88200 22.00400
H  40.06400 40.90000 20.50100
H  39.47700 42.46100 20.65500
H  39.30900 40.84300 23.23600
H  38.28100 40.29700 21.97700
H  38.18200 41.95600 22.51000
H  39.26700 45.94600 24.17100
H  40.52100 47.04000 24.61300
H  39.03400 46.82100 25.68300
H  39.48100 44.35700 30.08100
H  42.08400 47.22200 32.40400
H  42.78500 45.57400 32.72400
H  41.35600 46.20400 33.58900

