79

Mg 24.13300 -5.01400 45.33800
C  26.17300 -2.64600 43.71300
C  21.70700 -4.22600 43.19000
C  22.38800 -7.73500 46.53300
C  26.96000 -6.19000 47.12100
N  24.07100 -3.58900 43.62000
C  24.97400 -2.73500 43.16300
C  24.49900 -1.99800 41.90300
C  23.00100 -2.26200 42.04800
C  22.85100 -3.42000 42.96000
C  22.18100 -1.06200 42.62600
C  25.14200 -2.65600 40.59500
C  25.88600 -1.70800 39.68500
H  25.81400 -1.93000 38.19800
N  22.15900 -5.87700 45.02900
C  21.35000 -5.35100 44.04600
C  20.17800 -6.15000 44.10700
C  20.32700 -7.22900 45.00800
C  21.65900 -7.02300 45.59700
C  19.05700 -5.82900 43.16600
C  19.29700 -8.25600 45.42900
O  18.15600 -8.18100 44.91600
C  19.60700 -9.34200 46.46600
N  24.67400 -6.75600 46.54800
C  23.71500 -7.63800 46.99300
C  24.23400 -8.74100 47.92800
C  25.57900 -8.12400 48.26500
C  25.77600 -6.92900 47.28300
C  23.36600 -9.05200 49.17800
C  26.78100 -9.01900 48.42200
C  27.54300 -8.88800 49.82300
N  26.15400 -4.56200 45.49200
C  27.16300 -5.07500 46.25300
C  28.34100 -4.18900 46.19900
C  27.97000 -3.27200 45.13900
C  26.66000 -3.46700 44.76400
C  29.56200 -4.30700 47.06100
C  28.44900 -2.09600 44.41300
O  29.47400 -1.47700 44.64000
C  27.37100 -1.84300 43.32900
C  27.13500 -0.40400 43.44300
O  26.35300 0.09100 44.18700
O  27.92900 0.36200 42.66600
C  27.84700 1.90400 42.74400
H  20.90700 -3.96000 42.49600
H  21.84800 -8.53500 47.04400
H  27.81600 -6.51100 47.71900
H  24.81300 -0.95900 42.00100
H  22.62000 -2.64700 41.10200
H  22.81700 -0.18500 42.50300
H  21.91600 -1.07600 43.68300
H  21.21700 -0.83600 42.16900
H  24.35200 -3.09000 39.98200
H  25.93200 -3.40300 40.66700
H  26.91300 -1.69500 40.05000
H  25.63700 -0.65400 39.80700
H  18.68700 -6.76600 42.74800
H  19.19900 -5.09700 42.37100
H  18.21700 -5.41100 43.72000
H  18.85900 -10.13000 46.37800
H  19.51100 -9.05900 47.51400
H  20.57500 -9.82000 46.31700
H  24.27600 -9.71200 47.43500
H  25.37500 -7.63900 49.21900
H  23.85600 -9.56100 50.00800
H  22.56700 -9.69700 48.81200
H  22.92400 -8.08900 49.43400
H  27.45500 -8.85800 47.58100
H  26.45200 -10.05800 48.38500
H  28.56900 -8.77900 49.47100
H  27.46500 -9.73900 50.49900
H  27.36800 -7.89000 50.22400
H  29.91800 -5.33600 47.02200
H  29.42000 -3.87000 48.04900
H  30.35000 -3.69400 46.62200
H  27.78900 -2.15300 42.37200
H  28.77600 2.34000 43.11000
H  27.10700 2.28300 43.44800
H  27.66100 2.33200 41.75900

