79

Mg 34.96400 49.04700 25.41800
C  34.89000 47.37400 28.47000
C  33.81800 51.88500 27.00800
C  34.53700 50.35100 22.40000
C  36.08800 46.11500 23.88200
N  34.61200 49.56600 27.54800
C  34.65400 48.78100 28.60900
C  34.50600 49.51200 29.98800
C  33.98000 50.89200 29.41200
C  34.13800 50.78100 27.84600
C  32.56400 51.34400 29.90500
C  35.81700 49.63500 30.82800
C  35.66600 49.90700 32.32400
H  34.32200 49.95900 33.01300
N  34.35500 50.88800 24.81900
C  33.94200 51.93400 25.60100
C  33.48500 53.04500 24.80300
C  33.72100 52.67800 23.43700
C  34.26000 51.22700 23.49100
C  32.88500 54.35000 25.33000
C  33.63700 53.53800 22.15500
O  34.05100 53.06300 21.07300
C  33.12000 54.93400 22.07800
N  35.08200 48.22200 23.48300
C  35.01400 49.04100 22.39700
C  35.18500 48.32300 21.02900
C  35.86700 47.05900 21.52700
C  35.74500 47.13700 23.05600
C  33.86000 48.06800 20.15200
C  37.29000 46.79300 20.93700
C  38.47300 47.34600 21.78800
N  35.48800 47.16000 26.01700
C  35.96200 46.01300 25.26000
C  36.18900 44.93000 26.14500
C  35.77600 45.42200 27.41900
C  35.32000 46.73800 27.30300
C  36.64600 43.50700 25.78600
C  35.52900 44.96600 28.78600
O  35.77300 43.95700 29.48000
C  34.97300 46.27700 29.51900
C  33.74600 45.87500 30.27100
O  32.64000 45.80200 29.78400
O  34.03000 45.59800 31.63100
C  32.92800 45.04700 32.44800
H  33.46800 52.76600 27.55000
H  34.35100 50.85100 21.44700
H  36.45700 45.25800 23.31500
H  33.71700 49.06700 30.59400
H  34.59200 51.73600 29.73200
H  32.23500 50.51900 30.53700
H  31.89600 51.52500 29.06300
H  32.58700 52.24000 30.52600
H  36.54100 50.36200 30.46200
H  36.40800 48.72700 30.70800
H  36.21800 50.82600 32.52200
H  36.24000 49.16300 32.87700
H  32.67700 54.52700 26.38500
H  31.96900 54.44400 24.74600
H  33.53600 55.15900 24.99700
H  33.73200 55.59400 22.69500
H  32.05800 54.89400 22.31900
H  33.10200 55.36400 21.07700
H  35.79300 48.86100 20.30100
H  35.22400 46.21100 21.29200
H  33.48500 47.04900 20.05600
H  34.02700 48.37300 19.11900
H  33.03000 48.51100 20.70300
H  37.38600 47.32900 19.99200
H  37.44700 45.73000 20.75500
H  39.07900 46.50500 22.12600
H  38.30100 47.92200 22.69700
H  39.06900 47.91200 21.07200
H  37.30600 43.52000 24.91900
H  35.78600 42.87500 25.56700
H  37.27100 43.13500 26.59800
H  35.69200 46.59600 30.27300
H  32.18900 44.47600 31.88700
H  32.41300 45.95100 32.77300
H  33.23100 44.38300 33.25800

