79

Mg 47.22100 44.65900 43.36200
C  43.61500 44.28800 43.06700
C  47.34600 41.24400 42.59800
C  50.42100 45.08300 42.76800
C  46.59700 48.16600 43.58900
N  45.67100 43.01000 42.73700
C  44.27300 43.09200 42.82800
C  43.61800 41.68800 42.84200
C  44.85700 40.73500 42.80400
C  46.03100 41.75100 42.70100
C  44.85300 39.71800 44.01800
C  42.53600 41.41900 41.78500
C  42.73600 42.18800 40.47000
H  42.56300 41.50300 39.04600
N  48.67800 43.37100 42.70500
C  48.54300 42.03200 42.54300
C  49.87000 41.49000 42.42000
C  50.81500 42.51000 42.31600
C  50.01800 43.77100 42.62100
C  50.14300 40.08100 42.46100
C  52.26900 42.41800 41.91300
O  52.69100 41.33100 41.59200
C  53.19300 43.62300 41.86000
N  48.31400 46.40400 43.03900
C  49.70600 46.29100 42.91400
C  50.37800 47.66500 43.17500
C  49.11900 48.67700 43.29400
C  47.92200 47.70700 43.32400
C  51.37500 47.61200 44.34300
C  49.00400 49.70600 42.17100
C  48.94600 51.14800 42.63000
N  45.50200 45.97100 43.52600
C  45.42000 47.33200 43.63700
C  43.99900 47.73000 43.64600
C  43.28600 46.59800 43.52700
C  44.23700 45.54600 43.34600
C  43.58400 49.14300 44.01100
C  41.99700 46.09400 43.44900
O  40.95600 46.72500 43.49300
C  42.10400 44.50200 43.06600
C  41.34500 43.79100 44.05100
O  40.23300 43.37700 43.83900
O  41.92100 43.92300 45.30300
C  41.23900 43.30300 46.42900
H  47.57700 40.20100 42.37500
H  51.50000 45.22200 42.86800
H  46.56300 49.25500 43.67000
H  43.16000 41.72400 43.83100
H  44.82500 40.24500 41.83100
H  45.57900 40.00100 44.78100
H  45.29100 38.77300 43.69900
H  43.82600 39.58100 44.35700
H  41.61500 41.89000 42.12600
H  42.18400 40.41200 41.56200
H  43.70200 42.69200 40.43100
H  42.06100 43.03300 40.33600
H  50.95900 39.98900 43.17700
H  50.47400 39.69500 41.49800
H  49.31800 39.45600 42.80400
H  52.82700 44.47900 41.29400
H  54.08200 43.30000 41.31900
H  53.59700 43.80100 42.85700
H  50.85000 47.92600 42.22800
H  49.21900 49.19400 44.24800
H  52.39600 47.52200 43.97200
H  51.07300 46.69600 44.85200
H  51.24700 48.44100 45.03900
H  48.07000 49.51800 41.64300
H  49.90900 49.85800 41.58200
H  48.86800 51.22000 43.71500
H  48.02900 51.68300 42.38600
H  49.85000 51.70100 42.37400
H  42.72600 49.40700 43.39200
H  44.50200 49.72100 43.90700
H  43.26700 49.05600 45.05100
H  41.63000 44.24900 42.11800
H  40.37800 42.72800 46.09000
H  40.88100 44.13800 47.03100
H  41.81000 42.62100 47.06000

