79

Mg 47.93500 25.66400 27.60800
C  48.91900 27.94000 29.91800
C  46.91600 23.48900 30.14800
C  47.29000 23.21100 25.34400
C  49.46000 27.50700 25.18900
N  47.85200 25.73500 29.72700
C  48.27500 26.79000 30.52600
C  47.98300 26.56100 32.04300
C  47.40900 25.10300 32.04100
C  47.38800 24.74800 30.54300
C  48.20400 24.01900 32.83900
C  46.96700 27.61000 32.61100
C  47.47100 28.46300 33.78600
H  46.78400 28.42800 35.14100
N  47.21200 23.62900 27.69400
C  46.83100 22.92200 28.85600
C  46.21500 21.68300 28.49500
C  46.31000 21.68600 27.08600
C  47.01300 22.84300 26.63500
C  45.65100 20.74200 29.41700
C  45.72800 20.54500 26.16500
O  45.84500 20.47500 24.92200
C  45.06600 19.35500 26.80400
N  48.28400 25.31600 25.56700
C  47.81100 24.38000 24.80500
C  48.03000 24.63900 23.22900
C  48.62700 26.10300 23.23900
C  48.78500 26.36900 24.77100
C  48.83500 23.47100 22.60700
C  47.75500 27.29000 22.59000
C  48.47300 28.42200 21.88200
N  49.10000 27.28500 27.51900
C  49.68000 27.93100 26.48400
C  50.42600 29.13000 26.88300
C  50.12800 29.15300 28.24200
C  49.31600 27.99800 28.57600
C  51.19200 30.07500 26.03200
C  50.34500 29.88100 29.42100
O  51.14300 30.83400 29.57400
C  49.48900 29.18200 30.57300
C  50.59500 28.83000 31.49200
O  51.45800 27.97300 31.44600
O  50.46400 29.69500 32.57200
C  51.33700 29.50200 33.75600
H  46.50400 23.03200 31.05000
H  46.91600 22.41100 24.70200
H  49.74800 28.22700 24.42100
H  48.91400 26.62000 32.60600
H  46.40100 25.15100 32.45500
H  47.49200 23.54800 33.51700
H  49.00200 24.51900 33.38700
H  48.72100 23.24900 32.26500
H  45.93800 27.26700 32.72300
H  46.77100 28.37200 31.85700
H  47.42800 29.53100 33.57100
H  48.50500 28.26000 34.06400
H  46.02200 19.71700 29.40800
H  44.56800 20.63800 29.34500
H  45.85300 21.07100 30.43600
H  44.73100 18.70500 25.99600
H  44.27100 19.77100 27.42400
H  45.73600 18.79000 27.45300
H  47.08100 24.85700 22.73800
H  49.66600 26.10400 22.91000
H  48.52500 23.23200 21.59000
H  48.84800 22.66300 23.33900
H  49.76500 23.97800 22.35000
H  47.04800 27.66100 23.33200
H  47.13400 26.74200 21.88100
H  48.20400 29.24000 22.55000
H  47.99700 28.68500 20.93700
H  49.55300 28.28900 21.81700
H  51.80500 30.67100 26.70700
H  50.48200 30.60900 25.40100
H  51.84800 29.58800 25.31000
H  48.83400 29.93300 31.01300
H  50.69900 29.16200 34.57200
H  51.68500 30.47600 34.10300
H  52.19000 28.83500 33.63300

