79

Mg -1.13800 33.87300 27.67900
C  -2.58200 32.18800 30.51600
C  0.66200 35.83100 29.89800
C  -0.43500 35.80300 25.11900
C  -3.48000 32.18000 25.58700
N  -0.95100 33.88500 29.98500
C  -1.65000 33.18900 30.98800
C  -1.24100 33.55000 32.43400
C  -0.14700 34.63500 32.09200
C  -0.12500 34.83600 30.56700
C  -0.39400 35.96700 32.88900
C  -0.68300 32.29200 33.12200
C  -1.16100 31.95600 34.50600
H  -0.23200 32.41700 35.67500
N  -0.03200 35.62200 27.53000
C  0.74800 36.26500 28.53900
C  1.51600 37.31400 27.82200
C  1.24200 37.31900 26.42500
C  0.21400 36.24100 26.33100
C  2.49400 38.16400 28.57800
C  1.81100 38.09100 25.26100
O  1.57700 37.95100 24.07400
C  2.93900 39.04300 25.52800
N  -2.07800 34.09400 25.71000
C  -1.48000 34.87900 24.82800
C  -1.73900 34.47300 23.37800
C  -2.61900 33.22900 23.44500
C  -2.75000 33.16900 25.00500
C  -2.29300 35.62200 22.58300
C  -2.09600 31.90900 22.87100
C  -1.15500 30.98200 23.73800
N  -2.62900 32.47600 27.93800
C  -3.50500 31.84900 26.96700
C  -4.36900 30.89700 27.72000
C  -4.02600 31.08100 29.05300
C  -2.96500 31.98400 29.18900
C  -5.49600 30.13500 27.16000
C  -4.38300 30.62100 30.38500
O  -5.15000 29.74400 30.72700
C  -3.43800 31.29000 31.34000
C  -4.26900 31.99700 32.31400
O  -4.48100 33.21900 32.29700
O  -4.66400 31.16800 33.33000
C  -5.43600 31.75300 34.39300
H  1.29700 36.45300 30.53300
H  -0.03000 36.14600 24.16500
H  -4.05100 31.57300 24.88100
H  -2.04800 33.98400 33.02400
H  0.85200 34.31600 32.39000
H  0.50200 36.42100 33.31200
H  -1.05100 35.70100 33.71700
H  -0.87900 36.61400 32.15800
H  0.39900 32.38900 33.21600
H  -0.75500 31.45700 32.42500
H  -1.13900 30.87300 34.63000
H  -2.09100 32.47900 34.73000
H  3.49600 37.93400 28.21500
H  2.49300 37.88100 29.63000
H  2.15600 39.19000 28.72000
H  3.21700 39.52500 24.59100
H  3.78100 38.43900 25.86600
H  2.56400 39.69200 26.32000
H  -0.81600 34.07000 22.96100
H  -3.58500 33.41300 22.97500
H  -1.63900 35.61600 21.71100
H  -2.29000 36.59500 23.07300
H  -3.30400 35.42200 22.22600
H  -1.43500 32.17700 22.04700
H  -2.85100 31.29900 22.37600
H  -0.97800 31.32600 24.75700
H  -0.17200 30.96700 23.26700
H  -1.61200 29.99400 23.79300
H  -6.41500 30.39200 27.68800
H  -5.39900 29.05000 27.16500
H  -5.65400 30.31800 26.09800
H  -2.81100 30.61100 31.91800
H  -6.28100 32.36600 34.08100
H  -4.77700 32.34500 35.02800
H  -5.94900 30.93900 34.90500

