79

Mg 16.60000 52.78300 26.99800
C  18.44700 51.22600 29.57600
C  14.21500 53.78000 29.30500
C  14.73600 54.15100 24.59100
C  18.79000 51.29800 24.68700
N  16.39900 52.43200 29.12900
C  17.38100 51.95400 29.99400
C  17.05700 52.29700 31.43600
C  15.61800 53.00900 31.33600
C  15.35100 53.09400 29.80900
C  14.41000 52.25500 32.03400
C  18.20300 53.29500 31.98200
C  18.22600 53.33400 33.54500
H  17.17400 52.59100 34.31600
N  14.70700 53.83200 26.94300
C  13.87100 54.11000 27.97300
C  12.70300 54.83700 27.48900
C  12.83500 55.02800 26.09800
C  14.11800 54.30300 25.82100
C  11.55800 55.03900 28.39900
C  11.93700 55.79200 25.18500
O  12.11300 55.82600 23.97400
C  10.77700 56.60600 25.82200
N  16.69800 52.70800 24.91500
C  15.89900 53.49600 24.14800
C  16.26800 53.22100 22.66700
C  17.64200 52.49800 22.71300
C  17.76100 52.20000 24.22000
C  15.19800 52.21500 22.11800
C  18.85800 53.30500 22.29500
C  20.09000 52.64400 21.62300
N  18.29100 51.47900 27.03300
C  19.08600 51.02800 26.06100
C  20.24800 50.41000 26.62700
C  20.03900 50.35000 28.01200
C  18.78600 51.04800 28.24500
C  21.33200 49.71300 25.86000
C  20.51900 49.95600 29.33700
O  21.48900 49.31300 29.72700
C  19.45900 50.47700 30.37800
C  18.94800 49.38600 31.29600
O  18.08500 48.60800 30.99700
O  19.69700 49.25000 32.48200
C  19.06700 48.50300 33.58700
H  13.46100 54.10700 30.02500
H  14.11500 54.58700 23.80600
H  19.47000 50.76900 24.01600
H  17.00700 51.47800 32.15400
H  15.50200 54.04800 31.64500
H  13.87300 51.49000 31.47400
H  13.75600 53.00100 32.48600
H  14.83900 51.71300 32.87800
H  17.99100 54.29500 31.60500
H  19.22400 53.01300 31.72400
H  18.33200 54.39200 33.78700
H  19.13600 52.83000 33.87000
H  11.64000 55.98500 28.93400
H  11.56000 54.37300 29.26200
H  10.59200 55.01300 27.89400
H  10.05700 55.93300 26.28700
H  10.42700 57.32000 25.07600
H  11.21800 57.21600 26.61000
H  16.26800 54.15000 22.09800
H  17.70100 51.57400 22.13700
H  14.65900 51.77000 22.95400
H  15.60500 51.44300 21.46400
H  14.49600 52.80000 21.52500
H  19.15100 53.82800 23.20600
H  18.53300 54.16700 21.71300
H  19.92300 51.59400 21.38100
H  20.93900 52.56500 22.30300
H  20.37400 53.13000 20.69000
H  21.51900 50.10700 24.86100
H  21.05400 48.66800 25.72400
H  22.26800 49.74100 26.41800
H  20.08400 51.12400 30.99400
H  19.13600 47.42400 33.44800
H  18.03800 48.83300 33.72700
H  19.70700 48.75700 34.43200

