79

Mg 1.36000 -2.16600 43.90100
C  4.61400 -0.86100 43.58000
C  0.19600 0.78900 42.42100
C  -1.73200 -3.44400 44.05800
C  2.84600 -5.23400 45.04500
N  2.34900 -0.34400 42.95200
C  3.68800 -0.01400 42.92600
C  3.86700 1.42800 42.32600
C  2.41200 2.01300 42.44200
C  1.59200 0.75500 42.53500
C  2.30500 3.07100 43.58800
C  4.53000 1.44400 40.93800
C  5.79600 2.36600 40.82200
H  6.95300 1.49900 40.45800
N  -0.55600 -1.38400 43.35200
C  -0.75500 -0.20100 42.72400
C  -2.17800 -0.11100 42.43500
C  -2.78800 -1.26900 42.86300
C  -1.70000 -2.12600 43.47700
C  -2.61700 1.08000 41.72700
C  -4.27100 -1.56500 42.70200
O  -4.98200 -0.80200 42.07800
C  -4.88100 -2.79000 43.49900
N  0.69200 -4.18600 44.20200
C  -0.69100 -4.32000 44.41100
C  -0.95400 -5.62200 45.09700
C  0.46600 -6.18300 45.48800
C  1.41700 -5.17500 44.85800
C  -1.75300 -5.44700 46.36600
C  0.66900 -7.65700 45.12100
C  1.23600 -8.63800 46.18600
N  3.32000 -2.92800 44.30000
C  3.69500 -4.10600 44.85700
C  5.09700 -4.07500 45.03300
C  5.53000 -2.79300 44.57800
C  4.38700 -2.14800 44.13900
C  6.02500 -5.19900 45.41100
C  6.66800 -1.89900 44.41400
O  7.81200 -2.07400 44.71600
C  6.13400 -0.60800 43.76000
C  6.33500 0.59700 44.66500
O  6.07600 0.63400 45.86700
O  6.89700 1.63200 44.01000
C  7.46000 2.73600 44.71900
H  -0.09900 1.77900 42.06800
H  -2.72200 -3.82700 44.31600
H  3.23500 -6.12500 45.54100
H  4.53100 1.95600 43.01000
H  2.13500 2.52700 41.52200
H  1.44100 2.74700 44.16700
H  1.96100 4.01500 43.16400
H  3.15600 3.23900 44.24900
H  3.77400 1.83300 40.25700
H  4.67600 0.42000 40.59200
H  6.11600 2.74900 41.79100
H  5.48500 3.10200 40.08100
H  -2.16200 1.17500 40.74100
H  -2.44600 2.08600 42.11000
H  -3.63400 0.94100 41.36100
H  -4.35700 -3.66600 43.11600
H  -5.92900 -2.83600 43.20300
H  -4.84100 -2.70900 44.58500
H  -1.46200 -6.28200 44.39500
H  0.70800 -6.09100 46.54600
H  -2.81900 -5.36200 46.15400
H  -1.46600 -4.58900 46.97300
H  -1.53300 -6.31300 46.99000
H  1.25600 -7.59200 44.20400
H  -0.23600 -8.06100 44.66900
H  0.78400 -9.61500 46.01600
H  1.02400 -8.32200 47.20800
H  2.31100 -8.78500 46.07300
H  6.85000 -4.75200 45.96600
H  6.35500 -5.68700 44.49300
H  5.52900 -5.91000 46.07000
H  6.69800 -0.42400 42.84600
H  7.71900 2.43800 45.73500
H  6.74700 3.55300 44.82600
H  8.33200 2.98300 44.11300

