79

Mg -0.11200 7.18900 26.39300
C  0.67200 9.38300 29.14500
C  -0.70500 4.66400 28.61400
C  -1.04100 5.45200 23.83900
C  0.68200 9.99200 24.29300
N  0.01300 7.01000 28.59200
C  0.33400 8.01200 29.52400
C  0.29400 7.46300 30.99300
C  -0.15000 6.00100 30.83600
C  -0.35800 5.86300 29.24800
C  0.88100 5.03700 31.46400
C  -0.67200 8.14800 32.01300
C  -0.13100 8.63100 33.39300
H  -0.72300 8.17400 34.72700
N  -0.67300 5.31100 26.25200
C  -0.91300 4.33400 27.26400
C  -1.24700 3.10000 26.71700
C  -1.31900 3.28700 25.33500
C  -1.03700 4.73600 25.08300
C  -1.29700 1.89000 27.54400
C  -1.46000 2.29600 24.29000
O  -1.57200 2.60600 23.12800
C  -1.43700 0.81200 24.62300
N  -0.14300 7.70000 24.35500
C  -0.53000 6.72100 23.43100
C  -0.55900 7.26900 21.96600
C  -0.05400 8.69800 22.18500
C  0.16100 8.83000 23.73900
C  0.45300 6.41200 20.97600
C  -0.96300 9.90800 21.60600
C  -2.15500 10.26900 22.54800
N  0.70100 9.17200 26.62200
C  0.97500 10.16000 25.69500
C  1.53300 11.36500 26.32900
C  1.43500 11.06300 27.69500
C  0.90000 9.74900 27.79800
C  1.85400 12.66500 25.62300
C  1.55800 11.62300 29.00200
O  1.94000 12.76000 29.33300
C  1.04200 10.58200 30.01600
C  2.06100 10.39200 31.06400
O  3.10900 9.75900 30.93200
O  1.74400 11.09900 32.22600
C  2.80100 11.17200 33.23900
H  -0.80300 3.94900 29.43300
H  -1.29800 4.84500 22.96800
H  0.81400 10.82100 23.59400
H  1.30600 7.58600 31.37800
H  -1.11900 5.73900 31.26200
H  1.56400 5.52900 32.15700
H  1.55800 4.57400 30.74600
H  0.27000 4.28000 31.95600
H  -1.50200 7.47000 32.21300
H  -1.11600 9.02200 31.53500
H  -0.24000 9.70600 33.53100
H  0.93400 8.42300 33.29400
H  -0.89000 2.06400 28.54000
H  -0.68300 1.12600 27.06700
H  -2.26200 1.39700 27.66700
H  -2.21000 0.59400 25.36000
H  -0.37900 0.66900 24.84300
H  -1.75400 0.24300 23.74800
H  -1.58000 7.17600 21.59500
H  0.95200 8.71800 21.76800
H  0.28500 6.71000 19.94100
H  0.19800 5.35400 21.04000
H  1.49300 6.62500 21.22000
H  -1.40000 9.49100 20.69900
H  -0.35400 10.73000 21.23000
H  -3.04100 9.95800 21.99400
H  -2.25700 11.34300 22.70200
H  -2.22200 9.75400 23.50700
H  2.81200 13.04000 25.98300
H  1.03400 13.37700 25.72600
H  1.95700 12.44100 24.56200
H  0.06000 10.86200 30.39700
H  2.80700 12.11500 33.78600
H  3.77600 11.07100 32.76300
H  2.66500 10.31400 33.89700

