79

Mg 40.34100 8.61000 29.29800
C  42.11100 10.04100 31.92200
C  38.11500 7.21700 31.59000
C  38.46400 7.49900 26.82100
C  42.73700 9.71800 27.15700
N  40.06600 8.80800 31.50300
C  40.92500 9.44400 32.37900
C  40.33900 9.35900 33.78900
C  39.05000 8.47400 33.66100
C  39.05000 8.16300 32.11300
C  38.89700 7.24600 34.59600
C  40.30200 10.76400 34.55600
C  39.30200 10.83500 35.71100
H  39.77300 11.77900 36.79400
N  38.58600 7.53200 29.20300
C  37.77600 7.02000 30.25500
C  36.74500 6.14400 29.72800
C  36.67100 6.47300 28.32000
C  37.99200 7.17700 28.08100
C  35.76800 5.41200 30.55800
C  35.59600 6.26700 27.26700
O  35.68100 6.57000 26.09300
C  34.20000 5.84200 27.67000
N  40.67000 8.45900 27.22200
C  39.66200 8.11100 26.42600
C  40.07900 8.11500 24.93900
C  41.30900 9.09500 25.09200
C  41.66200 9.04000 26.53800
C  40.43400 6.75900 24.39100
C  41.00600 10.53500 24.56900
C  42.00900 10.86300 23.36300
N  42.17700 9.47700 29.51400
C  43.00600 9.89700 28.50800
C  44.19400 10.47200 29.15200
C  43.83300 10.60900 30.48600
C  42.60800 9.95400 30.58900
C  45.47300 10.91700 28.46600
C  44.30400 11.05200 31.82700
O  45.38000 11.52100 32.11900
C  43.17100 10.69800 32.88200
C  43.75000 9.75900 33.89400
O  44.11000 8.60400 33.79200
O  43.89200 10.42900 35.10000
C  44.09300 9.61900 36.29500
H  37.38800 6.84100 32.31200
H  37.85500 7.20600 25.96300
H  43.35300 10.29200 26.46100
H  41.12700 8.86400 34.35600
H  38.26200 9.21700 33.78600
H  39.08700 6.37900 33.96400
H  37.89500 7.21800 35.02500
H  39.62800 7.33600 35.40000
H  40.31100 11.68200 33.96800
H  41.27000 10.87400 35.04400
H  38.87800 9.92600 36.13800
H  38.41600 11.33100 35.31600
H  34.98400 6.12100 30.82300
H  36.16300 5.05600 31.51000
H  35.26300 4.57600 30.07500
H  33.88300 6.40000 28.55100
H  34.21000 4.81800 28.04400
H  33.47800 5.71900 26.86300
H  39.26500 8.60700 24.40800
H  42.28000 8.72600 24.76100
H  40.48000 6.01000 25.18200
H  41.35000 6.76900 23.80100
H  39.60300 6.46200 23.75000
H  41.07400 11.33300 25.30800
H  40.06300 10.49300 24.02300
H  41.62300 11.66400 22.73300
H  42.30200 10.08900 22.65200
H  42.87300 11.38200 23.77600
H  45.17100 11.55200 27.63300
H  46.04100 10.02900 28.19000
H  46.09400 11.52200 29.12700
H  42.92800 11.62000 33.41000
H  43.71500 10.15400 37.16700
H  45.14300 9.54600 36.57600
H  43.61900 8.64800 36.14900

