79

Mg 25.68000 1.65700 29.14600
C  27.63200 1.23400 32.17300
C  22.95000 1.76000 31.15100
C  24.00400 1.61200 26.37100
C  28.64100 0.86600 27.20600
N  25.30500 1.42800 31.42300
C  26.25700 1.37500 32.40700
C  25.64200 1.57400 33.79800
C  24.11000 1.71600 33.46000
C  24.08000 1.57300 31.93300
C  23.08200 0.94100 34.32900
C  26.24100 2.64600 34.76500
C  25.38200 3.18800 35.85400
H  26.05700 3.37900 37.21800
N  23.73000 1.58800 28.79400
C  22.72100 1.62800 29.76200
C  21.50400 1.66500 29.04000
C  21.79000 1.70700 27.62500
C  23.24700 1.56600 27.53800
C  20.15100 1.64600 29.71700
C  20.83600 1.84000 26.39600
O  21.25400 1.78100 25.25300
C  19.32800 1.94600 26.58100
N  26.27700 1.23300 27.04900
C  25.36200 1.42500 26.08300
C  25.98300 1.61100 24.68800
C  27.49700 1.18100 24.91500
C  27.49200 0.99400 26.46300
C  25.31700 0.72700 23.57200
C  28.44400 2.42400 24.45600
C  28.50300 2.73100 22.98300
N  27.70000 1.33900 29.55700
C  28.79700 1.02500 28.66200
C  29.95000 0.82100 29.48700
C  29.57300 0.87400 30.79400
C  28.17900 1.19500 30.83500
C  31.32800 0.55600 28.87700
C  30.03200 0.81700 32.19500
O  31.13400 0.65200 32.74000
C  28.83900 1.26600 33.08100
C  28.80200 0.38900 34.27100
O  28.49200 -0.78100 34.18600
O  29.23500 1.10300 35.38300
C  29.25500 0.34800 36.64000
H  22.06200 1.89200 31.77200
H  23.40200 1.83800 25.48800
H  29.47400 0.57100 26.56500
H  25.66900 0.59400 34.27600
H  23.91400 2.76600 33.67800
H  22.60000 1.63600 35.01600
H  23.42300 0.16500 35.01400
H  22.25100 0.59800 33.71300
H  26.74000 3.43000 34.19500
H  27.10200 2.17200 35.23700
H  24.51500 2.58200 36.11600
H  25.05700 4.18100 35.54400
H  19.59700 2.58500 29.70200
H  20.31100 1.40500 30.76800
H  19.51000 0.86200 29.31400
H  19.28100 2.51800 27.50800
H  19.01200 0.91000 26.70400
H  18.75900 2.43800 25.79200
H  25.84700 2.62400 24.30900
H  27.79900 0.27000 24.39800
H  24.50200 0.11600 23.95900
H  26.05400 0.08900 23.08500
H  24.92200 1.36500 22.78100
H  29.44400 2.20600 24.83300
H  28.09900 3.29000 25.02000
H  28.94700 3.69200 22.72300
H  27.56200 2.47800 22.49500
H  29.20600 2.12100 22.41400
H  31.26800 0.63000 27.79100
H  31.59300 -0.45400 29.19000
H  31.99400 1.30800 29.30100
H  28.93600 2.28300 33.46100
H  28.33200 0.49000 37.20200
H  29.95700 0.68100 37.40400
H  29.36400 -0.72100 36.46000

