79

Mg 35.95400 49.05400 25.45800
C  36.18600 47.16900 28.50700
C  34.27700 51.50400 27.09300
C  35.82900 50.75600 22.57200
C  37.51300 46.41700 23.84500
N  35.31000 49.22300 27.51200
C  35.62200 48.47800 28.60000
C  35.40500 49.21000 29.87500
C  34.61000 50.48800 29.43400
C  34.63100 50.41800 27.86000
C  33.17100 50.53500 30.03000
C  36.77600 49.45700 30.68300
C  36.90800 49.12200 32.23800
H  35.60300 49.39600 33.02200
N  35.08500 50.86500 24.87300
C  34.43900 51.77200 25.69100
C  33.82400 52.77100 24.91600
C  34.22600 52.53800 23.57300
C  35.07700 51.35600 23.59800
C  32.88700 53.88100 25.49100
C  33.96300 53.25600 22.25700
O  34.56500 53.04600 21.20900
C  32.96500 54.32600 22.27800
N  36.60200 48.69800 23.50300
C  36.38900 49.46200 22.46200
C  37.00600 48.95300 21.15500
C  37.62800 47.61700 21.63900
C  37.21400 47.57700 23.12600
C  35.96600 48.82400 19.99300
C  39.23800 47.48600 21.50600
C  39.76600 46.16000 21.13500
N  36.77500 47.17900 25.97500
C  37.33600 46.21100 25.17400
C  37.62100 44.99700 25.95400
C  37.29400 45.34500 27.29300
C  36.74700 46.65300 27.25200
C  38.00800 43.64600 25.45600
C  37.22500 44.90200 28.68400
O  37.57400 43.88300 29.20200
C  36.68200 46.08900 29.54800
C  35.56200 45.72200 30.43100
O  34.42300 45.47800 30.14000
O  36.08000 45.60600 31.74500
C  35.00700 45.31100 32.71600
H  33.92400 52.35600 27.67800
H  35.80500 51.30900 21.63100
H  38.11400 45.67900 23.31000
H  34.80200 48.51400 30.45800
H  35.16900 51.39100 29.67900
H  32.37400 50.67200 29.29900
H  33.13800 51.36600 30.73400
H  32.84900 49.67700 30.62100
H  37.01000 50.51600 30.57900
H  37.57600 48.99500 30.10600
H  37.74100 49.69300 32.64700
H  37.13300 48.05900 32.33000
H  33.43500 54.74200 25.87300
H  32.43900 53.36200 26.33800
H  32.11100 54.01800 24.73800
H  32.90500 54.61800 21.23000
H  33.25900 55.24600 22.78300
H  31.93200 54.08600 22.52900
H  37.73200 49.67100 20.77400
H  37.19500 46.75500 21.13100
H  36.07500 47.85100 19.51300
H  36.22700 49.61400 19.28900
H  34.94600 48.94800 20.35700
H  39.68300 47.81600 22.44500
H  39.43500 48.22400 20.72900
H  40.18600 46.14400 20.13000
H  39.10200 45.31100 21.30000
H  40.54000 45.91000 21.86000
H  38.45500 43.67900 24.46300
H  37.10900 43.04600 25.31800
H  38.64800 43.07300 26.12800
H  37.44100 46.61200 30.12900
H  34.79300 44.24400 32.77200
H  34.13100 45.92900 32.52000
H  35.28300 45.57400 33.73800

