79

Mg 39.99700 40.74400 26.79300
C  39.59100 43.03500 29.27300
C  41.18500 38.45100 29.22800
C  40.70700 38.55600 24.29900
C  39.09600 43.10100 24.37800
N  40.26300 40.73200 28.96900
C  39.73700 41.70800 29.78100
C  39.68200 41.19800 31.17700
C  40.44100 39.85100 31.14900
C  40.67300 39.66100 29.66200
C  41.83200 39.71100 31.83200
C  38.29100 41.19400 32.05100
C  38.49200 42.05500 33.37700
H  37.82800 41.48900 34.60900
N  40.76900 38.86000 26.81400
C  41.24500 38.09900 27.85500
C  41.72600 36.79300 27.47500
C  41.55100 36.80400 26.06000
C  40.90800 38.10400 25.67200
C  42.35600 35.72100 28.45400
C  41.73200 35.61900 25.05800
O  41.30600 35.70300 23.88700
C  42.36200 34.41400 25.46500
N  39.95000 40.77400 24.64200
C  40.19700 39.74300 23.83700
C  40.05100 40.07300 22.31800
C  39.26800 41.44300 22.49000
C  39.40400 41.83700 23.94800
C  41.47300 40.18200 21.49500
C  37.81600 41.31800 21.95500
C  36.83900 40.67800 22.94500
N  39.49900 42.66500 26.72800
C  39.21500 43.57100 25.68500
C  39.05100 44.91900 26.23400
C  39.23200 44.75200 27.62100
C  39.42100 43.33900 27.88200
C  38.81900 46.19200 25.49100
C  39.15800 45.45300 28.82300
O  38.88200 46.63100 29.04600
C  39.35700 44.31700 30.02400
C  40.55000 44.87000 30.86000
O  41.73000 44.82500 30.53600
O  40.08300 45.13000 32.05100
C  40.88700 45.68200 33.09500
H  41.49500 37.72000 29.97800
H  41.14000 37.92300 23.52100
H  38.76300 43.86000 23.66700
H  40.34900 41.92500 31.64100
H  39.74200 39.06800 31.44200
H  41.86400 40.42800 32.65100
H  42.69300 39.88800 31.18800
H  41.97500 38.74600 32.31900
H  37.96700 40.17400 32.25900
H  37.54700 41.61400 31.37400
H  38.05900 43.02200 33.12000
H  39.56900 42.08400 33.54600
H  41.88300 34.75500 28.28000
H  42.12900 35.90400 29.50500
H  43.42800 35.64700 28.27000
H  42.61300 33.72200 24.66100
H  41.65400 33.76500 25.98100
H  43.26700 34.52600 26.06100
H  39.51100 39.24100 21.86600
H  39.75700 42.26600 21.96900
H  41.60400 41.23500 21.24400
H  41.40000 39.69000 20.52500
H  42.39200 39.92100 22.01800
H  37.79000 40.73900 21.03200
H  37.51800 42.29400 21.57200
H  37.15900 40.37600 23.94200
H  36.39000 39.79200 22.49700
H  36.02300 41.39000 23.06900
H  37.73900 46.25300 25.35700
H  39.33100 46.20700 24.52900
H  39.12300 47.01600 26.13600
H  38.45100 44.11400 30.59400
H  41.91000 45.84700 32.75700
H  40.87700 44.79500 33.72700
H  40.38400 46.56300 33.49200

