79

Mg 6.58000 56.60200 42.28700
C  5.85100 53.16900 42.49800
C  9.55700 55.74900 40.82000
C  6.90300 59.79800 41.37100
C  3.60800 57.29600 43.94200
N  7.57400 54.66500 41.75600
C  7.10600 53.37300 41.90700
C  8.09500 52.38200 41.16500
C  9.47700 53.13100 41.10400
C  8.86600 54.62700 41.21100
C  10.51200 52.73700 42.24000
C  7.58900 52.09100 39.66700
C  7.78200 50.57800 39.27300
H  6.77100 50.04300 38.36100
N  8.05100 57.65600 41.20900
C  9.18500 57.15200 40.74400
C  10.00600 58.22700 40.23200
C  9.17800 59.42700 40.33300
C  7.92000 59.00000 40.94100
C  11.35000 57.93500 39.66200
C  9.66300 60.84300 39.85900
O  10.75800 60.89700 39.33300
C  8.82200 62.05400 39.94800
N  5.27500 58.23000 42.37200
C  5.74800 59.51200 42.09200
C  4.95000 60.64000 42.82000
C  4.05800 59.79100 43.78900
C  4.35300 58.36000 43.35200
C  5.80600 61.72700 43.51600
C  2.49500 60.13100 43.80300
C  1.88900 60.36300 45.22100
N  4.93600 55.50900 42.97300
C  3.78600 55.94400 43.62800
C  2.85800 54.77800 43.80000
C  3.70300 53.62400 43.42000
C  4.91300 54.15300 42.97400
C  1.58600 54.79900 44.51800
C  3.77400 52.22700 43.27600
O  2.89500 51.37700 43.48400
C  5.25400 51.88800 42.93100
C  5.26600 50.75600 41.93500
O  4.67500 50.76300 40.86900
O  6.04200 49.67900 42.35400
C  5.97000 48.40600 41.67600
H  10.57800 55.49200 40.53200
H  6.97400 60.86400 41.14900
H  2.76800 57.63600 44.55100
H  8.23500 51.50100 41.79200
H  10.07600 53.12100 40.19300
H  10.56500 53.58400 42.92400
H  11.38600 52.46000 41.65100
H  10.14500 51.93700 42.88400
H  8.25800 52.62200 38.98900
H  6.53100 52.34200 39.59200
H  7.90600 49.97700 40.17300
H  8.76100 50.50200 38.80000
H  11.19900 57.73700 38.60000
H  11.84800 57.09500 40.14700
H  11.95900 58.83900 39.65500
H  8.37500 62.11300 40.94100
H  8.13300 61.85500 39.12800
H  9.49100 62.90200 39.79900
H  4.36100 61.20300 42.09600
H  4.40200 59.85600 44.82100
H  5.74700 62.72000 43.07200
H  6.86700 61.52200 43.37600
H  5.64000 61.81600 44.59000
H  2.02400 59.23300 43.40400
H  2.35700 61.01600 43.18200
H  1.22900 61.21600 45.06400
H  2.69900 60.66400 45.88400
H  1.31900 59.48500 45.52400
H  1.67400 55.36700 45.44500
H  1.32000 53.75800 44.70200
H  0.77600 55.20400 43.91200
H  5.65500 51.44200 43.84100
H  6.15100 47.69700 42.48400
H  6.78700 48.27500 40.96600
H  4.99400 48.16300 41.25400

