79

Mg -10.77500 37.27200 42.01800
C  -8.51500 34.73500 41.47300
C  -8.89500 39.45200 40.13800
C  -13.25800 39.46000 42.31400
C  -12.83800 34.86500 43.54600
N  -9.00900 37.01900 40.81600
C  -8.23800 35.87300 40.66400
C  -6.93700 36.16000 39.94500
C  -7.06600 37.70400 39.61800
C  -8.44700 38.10800 40.20300
C  -5.90700 38.58700 40.12100
C  -6.72700 35.14400 38.78900
C  -5.25000 34.84200 38.66600
H  -4.36200 35.33200 37.52800
N  -11.06300 39.25200 41.29400
C  -10.15400 39.92300 40.56600
C  -10.67900 41.25100 40.40600
C  -11.91700 41.34200 41.08900
C  -12.12800 39.99900 41.60000
C  -9.99000 42.40000 39.77400
C  -12.66400 42.57300 41.37900
O  -12.23000 43.61300 40.95000
C  -13.92900 42.59000 42.09100
N  -12.87200 37.12700 42.60100
C  -13.69100 38.20200 42.72700
C  -15.01700 37.92400 43.37300
C  -14.88900 36.38900 43.60900
C  -13.40400 36.09900 43.21600
C  -15.24800 38.74000 44.63900
C  -15.96900 35.47700 42.83100
C  -16.86000 34.50300 43.65000
N  -10.73000 35.21500 42.51000
C  -11.57600 34.39800 43.25100
C  -10.94100 33.09800 43.54800
C  -9.75300 33.21700 42.77300
C  -9.65000 34.50800 42.29800
C  -11.54500 31.93900 44.25600
C  -8.45700 32.56100 42.45800
O  -7.98200 31.52500 42.84300
C  -7.65400 33.49500 41.60500
C  -6.25300 33.60000 42.09400
O  -5.33600 32.78400 41.88700
O  -6.17900 34.78800 42.86600
C  -4.79400 35.04800 43.33600
H  -8.40000 40.12100 39.43000
H  -14.06100 40.19500 42.39700
H  -13.39500 34.07300 44.05200
H  -6.12000 36.01100 40.65000
H  -7.16000 37.83500 38.54000
H  -5.36300 39.04700 39.29600
H  -5.13200 38.01400 40.63000
H  -6.43800 39.23400 40.82000
H  -7.08400 35.58600 37.85900
H  -7.39400 34.28400 38.84800
H  -5.21700 33.75500 38.58700
H  -4.70600 35.24000 39.52300
H  -8.98600 42.20000 39.39800
H  -9.72100 43.04500 40.61000
H  -10.58700 43.01800 39.10400
H  -14.29700 43.61600 42.10700
H  -13.75300 42.30400 43.12800
H  -14.64100 41.93100 41.59400
H  -15.86200 38.12800 42.71500
H  -14.94500 36.06500 44.64800
H  -14.35600 39.19900 45.06500
H  -15.90400 38.13400 45.26400
H  -15.89000 39.59400 44.42500
H  -15.51100 34.79400 42.11600
H  -16.65900 36.15800 42.33300
H  -17.87900 34.87800 43.54900
H  -16.55200 34.49400 44.69500
H  -16.76700 33.48700 43.26500
H  -12.45100 32.24900 44.77800
H  -10.87300 31.50500 44.99500
H  -11.83600 31.17000 43.54000
H  -7.61400 32.83700 40.73600
H  -4.79800 35.91100 44.00100
H  -4.21400 35.15600 42.41900
H  -4.51200 34.30200 44.07900

