79

Mg 1.68500 -1.42600 43.40300
C  4.82400 -0.52300 42.74400
C  0.55100 1.38600 41.72900
C  -1.52100 -2.66800 43.57400
C  2.84300 -4.47500 44.80300
N  2.57000 0.14300 42.19000
C  3.89600 0.35800 42.21000
C  4.30700 1.61200 41.42500
C  2.90800 2.36800 41.39400
C  1.96300 1.21300 41.73300
C  2.73100 3.73100 42.14300
C  4.99600 1.36400 40.06200
C  6.31400 2.06200 39.75000
H  6.50700 2.60900 38.29900
N  -0.23700 -0.63600 42.88700
C  -0.44200 0.47500 42.17600
C  -1.82600 0.64700 41.95000
C  -2.45200 -0.47200 42.42500
C  -1.42100 -1.40100 42.94600
C  -2.47900 1.64500 40.99900
C  -3.96100 -0.75100 42.31600
O  -4.71100 0.09000 41.82300
C  -4.59700 -1.96500 42.88400
N  0.82900 -3.30400 44.01400
C  -0.53300 -3.56200 44.04900
C  -0.84000 -4.90600 44.67700
C  0.53100 -5.47900 45.06200
C  1.44900 -4.37000 44.61600
C  -1.76600 -4.96000 45.95400
C  0.89500 -6.82700 44.53400
C  1.25000 -7.94600 45.54400
N  3.47300 -2.37600 43.72800
C  3.84600 -3.58000 44.33900
C  5.27000 -3.61300 44.56500
C  5.68900 -2.42900 43.97600
C  4.61200 -1.71900 43.44500
C  6.12700 -4.71600 45.17100
C  6.82500 -1.60700 43.63000
O  8.05000 -1.75400 43.78100
C  6.33600 -0.28700 42.89700
C  6.60700 0.90400 43.87800
O  5.80200 1.58100 44.44700
O  7.96600 0.99800 43.99000
C  8.34100 2.15400 44.80000
H  0.26700 2.40500 41.45800
H  -2.45000 -3.23500 43.66000
H  3.22400 -5.27100 45.44600
H  5.02700 2.21400 41.97800
H  2.70100 2.73500 40.38900
H  1.69500 3.75100 42.48200
H  2.89700 4.48900 41.37800
H  3.46000 3.85200 42.94500
H  4.34400 1.68700 39.25000
H  5.14700 0.28400 40.06400
H  7.18300 1.48600 40.06900
H  6.49400 2.93500 40.37800
H  -1.71600 1.94300 40.27900
H  -2.94100 2.48400 41.51900
H  -3.21400 1.21600 40.31700
H  -4.09000 -2.87300 42.55700
H  -5.55500 -2.16800 42.40500
H  -4.79800 -1.85100 43.94900
H  -1.25100 -5.49800 43.86000
H  0.67700 -5.41100 46.14000
H  -1.33100 -5.79600 46.50100
H  -2.78400 -5.07400 45.58000
H  -1.72600 -4.03300 46.52700
H  1.64000 -6.56500 43.78200
H  0.02300 -7.28000 44.06200
H  2.32800 -8.11000 45.56200
H  0.82600 -8.92800 45.33400
H  0.94400 -7.70400 46.56200
H  6.89700 -4.24000 45.77800
H  6.49200 -5.20100 44.26500
H  5.65300 -5.45700 45.81400
H  6.94800 -0.17600 42.00200
H  7.59700 2.86800 45.15400
H  9.03500 2.82200 44.29100
H  8.69600 1.68200 45.71600

