79

Mg -11.72000 37.08700 42.26000
C  -9.52300 34.49400 41.27800
C  -9.54100 39.40300 40.89800
C  -14.06700 39.48400 42.43200
C  -13.91400 34.77000 43.39800
N  -9.73900 36.83000 41.09700
C  -9.07900 35.75400 40.71800
C  -7.92100 36.04400 39.86300
C  -7.73700 37.59500 39.98700
C  -9.10000 38.02200 40.71600
C  -6.54000 38.09800 40.82700
C  -8.23000 35.48200 38.47300
C  -7.27800 34.37600 37.93700
H  -6.16300 34.75800 37.00800
N  -11.78200 39.12500 41.69700
C  -10.75200 39.92000 41.36700
C  -11.20400 41.24300 41.28900
C  -12.54400 41.25900 41.51200
C  -12.88100 39.87900 41.86100
C  -10.24500 42.34700 41.04700
C  -13.55100 42.46900 41.27400
O  -13.09300 43.52700 40.94300
C  -15.08400 42.44000 41.28500
N  -13.85500 37.05900 42.54700
C  -14.48500 38.19900 42.82900
C  -15.88400 37.88000 43.44000
C  -15.81800 36.35800 43.67600
C  -14.45000 36.01400 43.19500
C  -16.13600 38.64700 44.78800
C  -16.91200 35.52000 42.91600
C  -17.73000 34.51000 43.86500
N  -11.72800 35.05400 42.43900
C  -12.64700 34.28600 43.09000
C  -12.04300 32.93300 43.21000
C  -10.89000 32.94800 42.44600
C  -10.70900 34.27800 41.98600
C  -12.60400 31.65300 43.94200
C  -9.75100 32.13800 41.96000
O  -9.57200 30.89500 42.08100
C  -8.82900 33.12200 41.13700
C  -7.51300 33.02000 41.86200
O  -6.92200 31.91900 42.09400
O  -7.11000 34.16500 42.44900
C  -5.94100 34.06500 43.26800
H  -8.89400 40.18600 40.49800
H  -14.72700 40.33300 42.62600
H  -14.56100 34.10600 43.97600
H  -7.05500 35.51400 40.26100
H  -7.71600 38.01900 38.98300
H  -6.04600 37.33500 41.42900
H  -6.78100 38.87100 41.55700
H  -5.76400 38.51100 40.18200
H  -8.20100 36.34600 37.80800
H  -9.14300 34.88700 38.48600
H  -7.90600 33.67300 37.39000
H  -6.82000 33.79100 38.73400
H  -9.19600 42.14000 41.25900
H  -10.50000 43.05400 41.83600
H  -10.34000 42.84300 40.08100
H  -15.41800 41.53200 40.78400
H  -15.46400 43.40400 40.94500
H  -15.51000 42.39900 42.28700
H  -16.63800 38.18000 42.71300
H  -15.77600 36.06000 44.72300
H  -15.38100 39.40200 45.01000
H  -16.15200 37.94300 45.62100
H  -17.06600 39.17900 44.59000
H  -16.61600 35.18300 41.92200
H  -17.66900 36.28700 42.75200
H  -18.43600 35.20300 44.32400
H  -17.14600 34.07400 44.67500
H  -18.26900 33.79200 43.24600
H  -11.78500 31.24400 44.53400
H  -12.91400 30.86600 43.25400
H  -13.29500 31.95100 44.73100
H  -8.65600 32.78600 40.11500
H  -5.13700 33.65400 42.65700
H  -6.11700 33.28200 44.00500
H  -5.70400 34.97500 43.82000

