79

Mg 16.86600 -2.47700 27.31700
C  16.20800 -0.32000 30.00400
C  18.51100 -4.57900 29.37200
C  17.58600 -4.27600 24.64600
C  15.06700 -0.08700 25.21300
N  17.47200 -2.27600 29.38400
C  17.00600 -1.38700 30.32100
C  17.44500 -1.80400 31.78900
C  18.30700 -3.14500 31.56200
C  18.08400 -3.38400 30.04200
C  19.78300 -3.13100 31.96900
C  16.31700 -2.02900 32.88400
C  16.55500 -1.79700 34.40700
H  18.04700 -1.39000 34.90500
N  17.95700 -4.16600 27.03200
C  18.50700 -4.93600 27.95400
C  18.94400 -6.21600 27.36600
C  18.79400 -6.10300 26.00700
C  18.10900 -4.80700 25.83200
C  19.43400 -7.32900 28.20700
C  19.19500 -7.11900 24.89300
O  19.07700 -6.82900 23.65700
C  19.75900 -8.50600 25.16900
N  16.37300 -2.15300 25.25100
C  16.94000 -3.02700 24.37200
C  16.63600 -2.53400 22.84900
C  15.45200 -1.55700 23.09800
C  15.62300 -1.21500 24.53000
C  17.92800 -1.87700 22.39000
C  14.04100 -2.21300 22.95100
C  13.16000 -1.60600 21.90400
N  15.94500 -0.54800 27.57300
C  15.22100 0.17600 26.65300
C  14.64900 1.27800 27.36400
C  15.04000 1.19000 28.70900
C  15.67400 -0.03500 28.80000
C  13.98000 2.33000 26.71600
C  14.97200 1.76400 30.05500
O  14.44700 2.82000 30.41700
C  15.73100 0.81100 30.94700
C  16.75600 1.58500 31.74000
O  17.87000 1.87300 31.33900
O  16.11100 2.14900 32.87500
C  16.87200 3.26100 33.52300
H  19.00000 -5.25500 30.07600
H  17.91800 -4.83500 23.76900
H  14.36000 0.59600 24.73700
H  18.14100 -1.07300 32.19800
H  17.78100 -3.98000 32.02600
H  19.94300 -3.81100 32.80600
H  20.08100 -2.13200 32.28600
H  20.38400 -3.49000 31.13300
H  16.07200 -3.08200 32.74700
H  15.37000 -1.56600 32.60600
H  16.34200 -2.68000 35.00900
H  15.86600 -0.98800 34.65000
H  20.28600 -7.80600 27.72300
H  18.66700 -8.07800 28.40700
H  19.90600 -6.93700 29.10800
H  19.14700 -9.03800 25.89600
H  20.80100 -8.40400 25.47200
H  19.71800 -9.04500 24.22200
H  16.40100 -3.32300 22.13500
H  15.58000 -0.61800 22.55900
H  17.79800 -0.79600 22.33100
H  18.14700 -2.20700 21.37500
H  18.77600 -2.07400 23.04500
H  13.54100 -2.39100 23.90300
H  14.34100 -3.18900 22.56900
H  12.08900 -1.58600 22.10400
H  13.31900 -2.17500 20.98800
H  13.51500 -0.58500 21.76800
H  13.67800 3.07300 27.45400
H  13.16700 1.95900 26.09100
H  14.72300 2.76300 26.04600
H  15.09300 0.38000 31.71900
H  17.55200 2.75800 34.21100
H  16.25900 3.91000 34.14800
H  17.59400 3.85600 32.96500

