79

Mg 26.12700 0.55300 28.84800
C  28.01100 0.16200 31.67000
C  23.39500 1.18800 30.80700
C  24.16800 0.74300 26.09100
C  28.65400 -0.96900 26.87600
N  25.79400 0.62300 31.00400
C  26.75100 0.61200 31.97500
C  26.10200 0.71900 33.37900
C  24.56400 0.84300 33.08400
C  24.58700 0.91400 31.58000
C  23.72500 -0.31200 33.61600
C  26.64500 1.96700 34.20500
C  26.63800 1.77600 35.68100
H  26.26700 2.97400 36.64000
N  24.09200 1.08700 28.45500
C  23.13100 1.34100 29.44500
C  21.88100 1.71700 28.79400
C  22.05700 1.49400 27.37400
C  23.48000 1.13200 27.25500
C  20.55800 2.11700 29.42600
C  21.08100 1.53500 26.21400
O  21.34600 1.50600 25.05000
C  19.62900 1.83500 26.52800
N  26.23900 -0.29800 26.81200
C  25.37400 0.06800 25.81200
C  25.81000 -0.42200 24.40900
C  27.25200 -0.83700 24.70900
C  27.43000 -0.61000 26.21500
C  24.91200 -1.56000 23.83700
C  28.35300 -0.19800 23.80300
C  28.90200 1.13700 24.22300
N  28.00000 -0.25300 29.12100
C  28.90500 -0.83700 28.29700
C  30.08400 -1.01700 29.07500
C  29.85300 -0.63900 30.40800
C  28.53400 -0.22300 30.41000
C  31.40500 -1.44300 28.54200
C  30.40900 -0.50700 31.69300
O  31.53000 -0.69400 32.10700
C  29.25300 0.06300 32.61100
C  28.89900 -0.98100 33.58900
O  28.08900 -1.89300 33.49200
O  29.70900 -0.69400 34.70600
C  29.40800 -1.47100 35.90300
H  22.50400 1.34700 31.41800
H  23.66200 0.77300 25.12400
H  29.52300 -1.42300 26.39500
H  26.41000 -0.17900 33.91600
H  24.16700 1.82000 33.35700
H  23.29400 -0.89600 32.80300
H  22.83400 -0.02200 34.17200
H  24.23400 -0.99700 34.29400
H  26.00800 2.83300 34.02500
H  27.66800 2.21600 33.92500
H  27.58100 1.31900 35.98400
H  25.78800 1.10000 35.77600
H  19.87100 1.27100 29.41500
H  19.99700 2.90400 28.92200
H  20.68900 2.43300 30.46100
H  18.86600 1.80500 25.75000
H  19.62000 2.86800 26.87800
H  19.31700 1.05900 27.22700
H  25.64800 0.38200 23.69200
H  27.44300 -1.90600 24.61900
H  24.97200 -2.35800 24.57600
H  25.11100 -2.03600 22.87700
H  23.89300 -1.17300 23.84900
H  27.97500 -0.20000 22.78100
H  29.23900 -0.82100 23.92700
H  28.27600 1.58900 24.99200
H  28.93000 1.73900 23.31500
H  29.97000 1.07200 24.42900
H  32.10500 -1.82500 29.28500
H  31.92600 -0.62200 28.05000
H  31.37000 -2.18400 27.74400
H  29.55900 1.02100 33.03300
H  28.52200 -1.04600 36.37400
H  30.27100 -1.41900 36.56600
H  29.21700 -2.54200 35.83400

