79

Mg 26.32500 0.55200 28.36100
C  28.04900 0.40600 31.33100
C  23.47100 1.25600 30.09700
C  24.58700 0.23500 25.41500
C  29.28400 -0.36500 26.66800
N  25.81100 0.60500 30.53000
C  26.69400 0.66500 31.50200
C  26.05500 1.15300 32.81500
C  24.53500 1.23900 32.47400
C  24.59200 1.08600 30.92600
C  23.54800 0.32400 33.18900
C  26.64300 2.48000 33.40100
C  27.30500 2.32600 34.81100
H  26.75000 3.24100 36.00700
N  24.31100 0.74800 27.82800
C  23.33000 1.08100 28.74800
C  22.12000 1.21900 27.96900
C  22.36800 0.74600 26.58100
C  23.78800 0.54700 26.56100
C  20.80000 1.68800 28.54200
C  21.40700 0.61700 25.32300
O  21.79800 0.13500 24.22300
C  19.95400 1.07700 25.52300
N  26.87700 -0.15100 26.46100
C  25.95900 -0.06600 25.40700
C  26.62200 -0.35900 24.06700
C  28.14200 -0.37200 24.41400
C  28.12700 -0.23800 25.99100
C  26.19400 -1.78400 23.55100
C  29.01900 0.75400 23.77200
C  28.49200 2.16800 23.74200
N  28.26200 0.04200 28.87600
C  29.32700 -0.33500 28.11200
C  30.38100 -0.59200 29.01200
C  29.98100 -0.22300 30.27000
C  28.64200 0.08700 30.12200
C  31.69500 -1.31200 28.74500
C  30.42900 -0.11200 31.56800
O  31.51100 -0.32100 32.08800
C  29.18500 0.33100 32.36200
C  29.00900 -0.66300 33.38600
O  28.38900 -1.72100 33.23200
O  29.72900 -0.32600 34.51200
C  29.65200 -1.16400 35.60000
H  22.52900 1.40600 30.62900
H  24.03500 0.21900 24.47300
H  30.25700 -0.54200 26.20500
H  26.26700 0.27500 33.42500
H  24.17100 2.23400 32.73000
H  23.19500 -0.45800 32.51600
H  22.66800 0.92500 33.41900
H  23.98400 -0.00700 34.13200
H  25.93100 3.30400 33.40200
H  27.55700 2.81100 32.90800
H  28.35500 2.60500 34.71900
H  27.17800 1.33400 35.24400
H  20.78000 1.85900 29.61800
H  20.21400 0.76900 28.50900
H  20.33300 2.44500 27.91300
H  19.50900 0.61900 26.40600
H  19.36400 0.97500 24.61100
H  20.07000 2.10100 25.87900
H  26.35900 0.46100 23.39900
H  28.62600 -1.32400 24.19700
H  26.62500 -2.12500 22.60900
H  25.11400 -1.73600 23.41100
H  26.29900 -2.55800 24.31200
H  29.24300 0.46600 22.74500
H  30.03700 0.76700 24.16100
H  27.49100 2.18500 24.17100
H  28.46900 2.46900 22.69500
H  29.23200 2.72300 24.32000
H  32.44300 -0.52300 28.82700
H  31.55100 -1.68700 27.73200
H  31.97600 -2.15800 29.37200
H  29.49700 1.26600 32.82600
H  30.11500 -2.12800 35.38900
H  28.75100 -1.20900 36.21100
H  30.39100 -0.70600 36.25700

