79

Mg 40.82600 41.38000 26.63900
C  40.27500 43.81200 29.20200
C  41.67000 39.15800 29.05800
C  41.75300 39.34000 24.11500
C  40.76000 44.12500 24.33500
N  40.90000 41.50500 28.94000
C  40.69600 42.56100 29.77300
C  40.88500 42.17600 31.18400
C  41.28300 40.69500 31.06800
C  41.27400 40.41500 29.62100
C  42.60100 40.37000 31.82200
C  39.54400 42.53800 31.98300
C  39.18500 41.74700 33.33400
H  38.59900 42.61400 34.51400
N  41.52200 39.48400 26.57300
C  41.81300 38.74500 27.69000
C  42.29200 37.46000 27.28300
C  42.20700 37.40000 25.89200
C  41.75400 38.71500 25.44500
C  42.75700 36.39700 28.25000
C  42.50900 36.18500 24.88700
O  42.33100 36.31400 23.65100
C  42.97500 34.86500 25.44600
N  41.31700 41.70000 24.50700
C  41.52300 40.64600 23.65300
C  41.25600 41.02600 22.22100
C  41.30400 42.57400 22.33900
C  41.03000 42.81500 23.78700
C  42.23500 40.41900 21.09600
C  40.34600 43.33700 21.42600
C  38.87000 43.61400 21.81500
N  40.34100 43.52500 26.61100
C  40.50600 44.44100 25.60100
C  40.24800 45.73400 26.19100
C  40.02800 45.50500 27.56900
C  40.20600 44.18800 27.79300
C  40.33100 47.00000 25.44700
C  39.74700 46.24100 28.77900
O  39.57600 47.38200 29.04400
C  39.95200 45.14200 29.89000
C  41.20600 45.50900 30.67200
O  42.31900 45.44000 30.20900
O  40.92200 45.94900 31.91200
C  42.04000 46.02000 32.82800
H  41.94600 38.47700 29.86600
H  41.82200 38.49100 23.43200
H  40.88900 44.98800 23.67800
H  41.69800 42.83200 31.49600
H  40.41400 40.18900 31.48900
H  42.76300 41.03500 32.67000
H  43.46400 40.52800 31.17600
H  42.57000 39.39900 32.31700
H  38.62300 42.45100 31.40700
H  39.63900 43.54400 32.39400
H  40.06200 41.19700 33.67400
H  38.31700 41.15600 33.04000
H  42.90800 36.80100 29.25100
H  43.71700 35.97400 27.95400
H  41.96900 35.64500 28.23200
H  43.24700 34.10600 24.71300
H  42.12400 34.54200 26.04500
H  43.81100 35.00300 26.13200
H  40.19300 40.82800 22.08400
H  42.31400 42.96000 22.20000
H  41.75700 39.52600 20.69400
H  43.22900 40.12400 21.43100
H  42.40400 41.19200 20.34600
H  40.40900 42.83600 20.46100
H  40.85100 44.26300 21.14900
H  38.23400 43.40800 20.95400
H  38.72800 44.68900 21.92500
H  38.58000 43.09200 22.72700
H  41.05600 47.07900 24.63700
H  40.69500 47.67900 26.21700
H  39.31100 47.29900 25.20500
H  39.10300 45.11900 30.57400
H  42.27500 47.07700 32.95000
H  42.92300 45.44400 32.54900
H  41.76000 45.51400 33.75200

