79

Mg 41.15500 9.68100 30.13500
C  43.13000 11.05100 32.95400
C  38.87400 8.72300 32.55600
C  39.38400 8.29300 27.74200
C  43.53600 10.60100 28.10200
N  41.04400 9.85700 32.50800
C  41.94800 10.53500 33.42200
C  41.43800 10.44700 34.83700
C  40.10200 9.53700 34.71900
C  39.96400 9.34500 33.16700
C  40.16600 8.15700 35.46300
C  41.21700 11.78200 35.54600
C  40.26300 11.77200 36.74600
H  40.71200 11.86300 38.16700
N  39.34900 8.66400 30.18300
C  38.49500 8.40400 31.23500
C  37.31900 7.82100 30.67900
C  37.47800 7.68800 29.28800
C  38.75600 8.20900 28.99500
C  36.17900 7.27600 31.56400
C  36.42400 7.20100 28.22600
O  36.65600 7.00400 27.04400
C  34.97100 6.88200 28.63600
N  41.46100 9.37600 28.23700
C  40.58900 8.81300 27.39200
C  40.99000 8.92000 25.89500
C  42.26000 9.83200 26.05200
C  42.45500 9.96500 27.58600
C  41.27500 7.55300 25.24600
C  42.03900 11.24000 25.33000
C  42.25800 11.38700 23.85700
N  43.02900 10.49900 30.36800
C  43.89400 10.86300 29.43900
C  45.13000 11.44700 29.94200
C  44.82700 11.61300 31.28400
C  43.60100 10.90400 31.55100
C  46.26200 12.01600 29.10700
C  45.23400 12.25900 32.52900
O  46.12000 13.01500 32.76400
C  44.16900 11.91000 33.63500
C  44.80600 11.25400 34.79100
O  45.30900 10.13400 34.75500
O  44.71000 11.98600 35.95900
C  45.05100 11.21800 37.22200
H  38.12200 8.54000 33.32700
H  38.77500 7.95700 26.90000
H  44.25100 10.94100 27.35000
H  42.16200 9.90400 35.44600
H  39.16900 10.02400 35.00500
H  40.16000 7.34900 34.73100
H  39.26200 8.08600 36.06700
H  41.05600 8.26600 36.08300
H  40.94300 12.62700 34.91300
H  42.17900 12.10500 35.94300
H  39.91800 10.74000 36.81500
H  39.45400 12.48400 36.58200
H  36.00500 6.22500 31.33500
H  35.21000 7.71700 31.32900
H  36.35200 7.56100 32.60100
H  34.29200 6.61400 27.82700
H  34.68300 7.85800 29.02600
H  35.03600 6.13700 29.43000
H  40.29100 9.41300 25.22000
H  43.10400 9.47700 25.46100
H  41.42000 6.81200 26.03200
H  42.24200 7.68200 24.75900
H  40.59800 7.32700 24.42300
H  42.64000 12.03800 25.76500
H  40.98400 11.43600 25.52300
H  41.44200 11.92900 23.37900
H  42.43400 10.39500 23.44200
H  43.14000 12.01900 23.74900
H  46.56400 12.99300 29.48400
H  46.04000 12.15400 28.04900
H  47.07400 11.29000 29.15800
H  43.70500 12.82000 34.01400
H  45.61300 11.92100 37.83600
H  45.66400 10.32800 37.08200
H  44.16200 10.91900 37.77800

