79

Mg 46.81400 24.77800 28.40200
C  47.23900 26.68900 31.29500
C  46.00000 22.08200 30.47400
C  47.04600 22.80900 25.79100
C  47.88100 27.40800 26.47300
N  46.61600 24.41000 30.65300
C  46.80000 25.39200 31.54500
C  46.37200 24.84300 32.97900
C  46.04300 23.37600 32.69800
C  46.17500 23.26700 31.20100
C  46.98000 22.31500 33.45500
C  45.20200 25.62800 33.59700
C  45.49800 26.24800 34.96100
H  44.37800 26.43400 35.98600
N  46.52700 22.74500 28.18600
C  46.20500 21.78800 29.08500
C  46.04400 20.41100 28.42900
C  46.17700 20.68500 27.03000
C  46.64000 22.13100 26.96800
C  45.66800 19.11300 29.14200
C  45.95400 19.83200 25.87000
O  46.20900 20.20600 24.71300
C  45.74300 18.39600 26.14100
N  47.40600 25.10300 26.43000
C  47.37100 24.13900 25.52800
C  47.70900 24.63400 24.09000
C  47.55100 26.15600 24.32600
C  47.57100 26.26000 25.79100
C  49.09400 24.32800 23.56800
C  46.31600 26.89000 23.70700
C  46.54700 28.15700 22.77500
N  47.46500 26.60700 28.76600
C  47.81000 27.61300 27.89400
C  48.35800 28.77300 28.65600
C  48.12400 28.42700 29.94200
C  47.59500 27.10600 29.98700
C  48.65300 30.11400 28.22200
C  48.27500 28.94000 31.34700
O  48.77400 29.97500 31.75400
C  47.72500 27.80300 32.24300
C  48.84600 27.33400 33.15800
O  49.77900 26.65200 32.81700
O  48.61600 27.83200 34.46400
C  49.56000 27.69200 35.51200
H  45.75100 21.20300 31.07200
H  47.25800 22.18200 24.92300
H  48.20300 28.31400 25.95600
H  47.27200 24.70000 33.57600
H  44.98000 23.22000 32.88100
H  46.84200 22.51800 34.51700
H  47.98200 22.49400 33.06500
H  46.61700 21.30100 33.28900
H  44.30300 25.03600 33.77200
H  44.84300 26.40700 32.92400
H  46.06800 27.16200 34.79700
H  46.17000 25.54400 35.45200
H  44.67500 18.88300 28.75500
H  45.54300 19.19800 30.22200
H  46.45600 18.38600 28.94400
H  44.75500 18.27100 26.58400
H  46.57400 17.91500 26.65700
H  45.68200 17.87800 25.18300
H  47.02600 24.31600 23.30200
H  48.31100 26.66200 23.73100
H  48.90800 23.52500 22.85500
H  49.64900 23.85200 24.37700
H  49.61800 25.15800 23.09400
H  45.71100 27.23900 24.54400
H  45.78800 26.13700 23.12300
H  47.62300 28.28100 22.66100
H  46.02800 29.02200 23.18900
H  46.03800 27.90800 21.84400
H  48.85500 30.04600 27.15300
H  49.57300 30.14200 28.80600
H  47.84900 30.80400 28.47900
H  46.87200 28.20100 32.79300
H  49.81300 28.69700 35.85100
H  50.54000 27.27700 35.27600
H  49.27000 27.18100 36.43000

