79

Mg 36.44200 49.06600 24.18800
C  36.57200 47.41800 27.26900
C  34.92500 51.83100 25.85400
C  35.81600 50.40300 21.27400
C  37.20900 45.94100 22.62500
N  35.87600 49.51700 26.29700
C  36.08200 48.74000 27.39900
C  35.77800 49.48200 28.64800
C  35.00400 50.77900 28.05400
C  35.28200 50.73400 26.60300
C  33.50200 50.62800 28.38400
C  37.14200 49.81100 29.37000
C  37.20300 49.74200 30.88400
H  35.87100 49.55200 31.65600
N  35.69600 50.95700 23.61100
C  35.07200 51.93400 24.43100
C  34.60500 53.03700 23.52600
C  34.96500 52.68400 22.20400
C  35.50100 51.31500 22.28900
C  33.97800 54.34100 24.02700
C  34.70400 53.49000 20.87300
O  34.90900 53.07400 19.70600
C  34.32000 54.90800 20.87200
N  36.28400 48.15100 22.24600
C  36.08600 49.00900 21.19300
C  36.38900 48.22400 19.91800
C  37.15200 46.95000 20.35900
C  36.85300 47.00800 21.83900
C  35.24600 47.98600 18.94400
C  38.64000 46.57700 20.00500
C  39.69300 47.43400 20.76700
N  36.92600 47.06100 24.73800
C  37.25800 45.89000 24.00400
C  37.67900 44.87700 24.91200
C  37.43900 45.35800 26.19500
C  36.97400 46.74200 26.01600
C  38.04100 43.47700 24.54800
C  37.41600 45.11600 27.62800
O  37.66400 44.03000 28.17600
C  36.80400 46.44800 28.36400
C  35.61100 45.97300 29.12000
O  34.51700 45.71300 28.60600
O  35.83300 45.94100 30.49400
C  34.76400 45.42200 31.33200
H  34.45300 52.65900 26.38700
H  35.73000 50.84600 20.28000
H  37.63800 45.10300 22.07200
H  35.16900 48.79600 29.23700
H  35.37600 51.66800 28.56500
H  33.32900 50.10500 29.32400
H  32.88000 50.22100 27.58700
H  33.24700 51.65800 28.63500
H  37.55100 50.71100 28.91100
H  37.88000 49.07200 29.05900
H  37.74300 50.60800 31.26900
H  37.84400 48.88400 31.08700
H  34.58300 55.21800 23.80100
H  33.77100 54.25800 25.09400
H  33.00300 54.34000 23.54100
H  34.51100 55.52600 21.74900
H  33.23900 54.86500 20.73900
H  34.78000 55.44900 20.04500
H  37.05200 48.89500 19.37200
H  36.69000 46.00400 20.07900
H  34.25900 48.27900 19.30200
H  35.00400 46.97000 18.63100
H  35.40800 48.56000 18.03100
H  38.73500 46.60900 18.92000
H  38.76100 45.55700 20.37100
H  40.15900 48.09500 20.03600
H  40.49300 46.79700 21.14700
H  39.21800 47.97400 21.58500
H  38.26600 43.33900 23.49000
H  37.25600 42.79200 24.86800
H  38.97500 43.24500 25.05900
H  37.47500 46.81500 29.14100
H  34.43100 44.46600 30.92800
H  33.87800 46.05700 31.35300
H  35.15500 45.27200 32.33900

