79

Mg 49.79300 35.28500 27.10500
C  47.78800 33.74700 29.53900
C  49.54000 38.24500 28.75400
C  51.37300 36.74000 24.59900
C  49.46700 32.33500 25.19100
N  48.82600 35.89800 28.96600
C  48.10900 35.10300 29.90800
C  47.99500 35.77600 31.24400
C  48.19500 37.30800 30.88400
C  48.98600 37.15000 29.51600
C  46.87400 38.05800 30.88200
C  49.11100 35.29200 32.13300
C  48.97700 35.42700 33.65200
H  47.61800 35.88200 34.27300
N  50.53500 37.22200 26.78200
C  50.29700 38.30300 27.57000
C  50.92000 39.49100 26.98200
C  51.59800 38.98900 25.83800
C  51.18900 37.56600 25.72000
C  50.82600 40.85400 27.73300
C  52.44700 39.80200 24.87400
O  52.90500 39.41500 23.79900
C  52.76400 41.25900 25.19300
N  50.24200 34.66800 25.14800
C  50.92800 35.45100 24.32200
C  51.49400 34.74000 23.17000
C  50.73200 33.33800 23.19900
C  50.14500 33.37500 24.69700
C  51.43400 35.53600 21.79600
C  51.62700 32.08600 22.95000
C  50.97400 31.13600 21.93600
N  48.91300 33.40400 27.31300
C  48.80300 32.34400 26.45900
C  47.94300 31.31300 26.98400
C  47.50200 31.76500 28.21300
C  48.14500 33.03800 28.33300
C  47.23100 30.11300 26.25900
C  46.65200 31.47100 29.29800
O  45.97300 30.45100 29.50800
C  46.79300 32.81400 30.23700
C  47.17900 32.36900 31.53600
O  48.24500 32.01000 31.95400
O  46.06200 32.15900 32.27100
C  46.18700 31.24400 33.45600
H  49.49500 39.20600 29.26900
H  52.15100 37.05300 23.90100
H  49.29300 31.41500 24.62900
H  46.98600 35.58700 31.61100
H  48.90400 37.83500 31.52300
H  46.03600 37.53200 31.33800
H  46.59900 38.19700 29.83600
H  46.90100 39.01400 31.40500
H  49.97300 35.90200 31.86300
H  49.51100 34.31700 31.85100
H  49.61600 36.26300 33.93600
H  49.22100 34.52400 34.21100
H  50.91000 41.72600 27.08500
H  51.58100 41.13100 28.46900
H  49.90700 41.02400 28.29300
H  51.85100 41.81400 24.97600
H  53.54900 41.67300 24.56000
H  53.20700 41.45600 26.16900
H  52.55000 34.61500 23.41100
H  49.84200 33.39400 22.57300
H  50.98200 36.50000 22.02600
H  50.84100 34.93100 21.10900
H  52.42600 35.66500 21.36200
H  51.70400 31.64100 23.94200
H  52.66300 32.29000 22.68000
H  50.50300 31.78600 21.19900
H  50.30900 30.50000 22.52000
H  51.79500 30.59900 21.46100
H  46.21700 30.39100 25.97200
H  47.08300 29.26700 26.93000
H  47.89400 29.72400 25.48600
H  45.81700 33.29800 30.23000
H  46.40300 30.20200 33.21700
H  45.32000 31.32800 34.11000
H  47.05800 31.57900 34.02000

