79

Mg 47.39400 24.55800 28.41100
C  48.49900 26.98200 30.89400
C  46.40300 22.47600 31.03800
C  47.02400 22.10400 26.13800
C  49.03100 26.53700 25.97600
N  47.38400 24.76400 30.83400
C  47.81600 25.87200 31.55300
C  47.51700 25.59100 33.01300
C  46.85700 24.11700 33.04600
C  46.82100 23.72700 31.58600
C  47.48200 23.08300 33.99500
C  46.94900 26.72800 33.76700
C  45.90100 26.57300 34.88900
H  46.15700 27.24500 36.24000
N  46.55800 22.63200 28.54400
C  46.26100 22.01000 29.70200
C  45.62700 20.72200 29.29600
C  45.80600 20.60400 27.84100
C  46.52100 21.85400 27.46100
C  44.97400 19.77400 30.28800
C  45.30200 19.50400 26.87400
O  45.51100 19.46300 25.66100
C  44.41600 18.41000 27.48800
N  47.64800 24.46400 26.38900
C  47.58500 23.23500 25.69600
C  48.04600 23.32300 24.24400
C  48.34900 24.91700 24.10800
C  48.39100 25.34700 25.59400
C  49.30000 22.46500 23.86700
C  47.50200 25.80300 23.11500
C  46.34000 26.67400 23.65200
N  48.47900 26.42300 28.32100
C  49.12500 27.05000 27.25500
C  49.70800 28.28900 27.72100
C  49.48300 28.29500 29.13000
C  48.74600 27.13800 29.42800
C  50.58300 29.17600 26.93200
C  49.76900 29.09200 30.23700
O  50.41600 30.12700 30.34600
C  49.01700 28.26500 31.44000
C  50.02000 28.17700 32.55200
O  50.58100 27.14300 32.86200
O  49.99500 29.33400 33.29700
C  50.67800 29.35800 34.60200
H  46.01500 21.80900 31.81000
H  47.00400 21.33900 25.35800
H  49.30800 27.21800 25.16900
H  48.45100 25.43500 33.55300
H  45.83800 24.20200 33.42400
H  48.06700 23.62500 34.73800
H  48.14100 22.40800 33.44700
H  46.62000 22.64500 34.49800
H  46.59700 27.43300 33.01300
H  47.76800 27.24900 34.26300
H  45.78100 25.50300 35.06100
H  44.89200 26.75400 34.51900
H  45.50600 18.82300 30.26500
H  43.96500 19.56500 29.93300
H  44.66700 20.18200 31.25100
H  44.85000 17.95500 28.37800
H  44.37700 17.63000 26.72900
H  43.47900 18.92400 27.70100
H  47.29700 23.02100 23.51200
H  49.33800 25.07800 23.67900
H  48.97800 21.54300 23.38300
H  49.96700 22.09200 24.64500
H  49.90000 22.99500 23.12800
H  47.02200 25.05500 22.48500
H  48.18500 26.44200 22.55600
H  46.18300 26.64500 24.73000
H  45.41400 26.24300 23.27100
H  46.39700 27.70600 23.30800
H  50.19600 29.45400 25.95200
H  51.54700 28.73500 26.68100
H  50.78700 30.07300 27.51800
H  48.18800 28.87800 31.79300
H  51.65300 28.87300 34.64800
H  50.04800 28.90800 35.36900
H  50.95300 30.36500 34.91600

