79

Mg 6.32800 53.50000 41.66200
C  5.59000 49.97400 41.18400
C  9.53400 52.76400 40.52000
C  6.76000 56.65900 41.20200
C  2.84700 53.99500 41.99100
N  7.40500 51.61500 40.84500
C  6.85900 50.27800 40.73500
C  7.94300 49.32600 40.27700
C  9.27700 50.18100 40.60500
C  8.73200 51.62200 40.65800
C  10.06200 49.64400 41.85100
C  7.82200 49.00700 38.76500
C  7.24900 50.12000 37.81400
H  6.70500 49.86000 36.39400
N  7.97700 54.63600 41.13000
C  9.16900 54.14700 40.72600
C  10.06300 55.29100 40.49700
C  9.24000 56.48600 40.62300
C  7.93900 55.97200 41.02000
C  11.53700 55.05400 40.09000
C  9.74000 57.96300 40.37000
O  10.88300 58.17700 39.97000
C  8.81600 59.13600 40.47300
N  4.94100 55.09100 41.58800
C  5.39200 56.35400 41.36300
C  4.38500 57.46200 41.60300
C  3.12100 56.57600 41.63600
C  3.60000 55.15200 41.86800
C  4.67700 58.35300 42.89100
C  2.25400 56.71500 40.32300
C  1.02200 57.66700 40.54900
N  4.55700 52.32100 41.71800
C  3.25100 52.62400 41.93100
C  2.43200 51.39100 42.22300
C  3.36700 50.39800 41.88300
C  4.65200 50.92800 41.54900
C  0.96800 51.37200 42.71800
C  3.49900 48.91100 41.77500
O  2.65100 48.01500 41.89300
C  4.95400 48.55900 41.24200
C  4.84500 47.82600 39.93900
O  4.27400 48.24900 38.89500
O  5.58100 46.67700 40.01800
C  5.43800 45.75100 38.89600
H  10.56500 52.51400 40.25800
H  6.89700 57.74000 41.27600
H  1.76300 54.10300 42.06000
H  7.96800 48.38200 40.82200
H  10.10500 50.08000 39.90300
H  11.07200 49.37500 41.54100
H  9.51200 48.80600 42.27800
H  10.03400 50.49600 42.53100
H  7.24200 48.08600 38.69900
H  8.85700 48.95500 38.42500
H  8.09900 50.75100 37.55500
H  6.50200 50.78400 38.25000
H  11.66700 55.16100 39.01300
H  11.88700 54.13000 40.55200
H  12.04800 55.82400 40.66800
H  9.38500 60.02500 40.20100
H  8.25600 59.23600 41.40200
H  8.09600 58.96200 39.67400
H  4.35700 58.15700 40.76400
H  2.44000 56.77500 42.46300
H  5.02500 59.27700 42.43000
H  5.44400 57.87800 43.50300
H  3.73800 58.49900 43.42500
H  1.83300 55.74100 40.07500
H  2.82000 56.84000 39.40100
H  0.98900 58.44000 39.78100
H  1.12700 58.11700 41.53600
H  0.10100 57.08400 40.59200
H  0.52800 52.36900 42.76100
H  0.88500 50.89900 43.69700
H  0.43600 50.75900 41.99100
H  5.45400 47.82300 41.87100
H  4.44900 45.29700 38.95600
H  6.21700 44.99300 38.81900
H  5.42300 46.37100 38.00000

