79

Mg 9.12200 47.92500 26.25300
C  7.14700 48.01300 29.26300
C  11.72500 49.20200 28.01800
C  10.66900 47.97700 23.40100
C  5.95100 47.30600 24.49800
N  9.35100 48.68300 28.43200
C  8.49100 48.43100 29.51300
C  9.13300 49.02000 30.86700
C  10.60500 49.39900 30.34700
C  10.59900 49.15100 28.84500
C  11.19900 50.74100 30.90500
C  9.20000 48.00000 32.02200
C  8.53300 48.46000 33.41300
H  8.39200 47.39600 34.49400
N  10.94700 48.38700 25.82700
C  11.92700 49.00200 26.65500
C  13.16500 48.98800 25.92100
C  12.99500 48.55400 24.64600
C  11.47300 48.32300 24.55700
C  14.49700 49.31800 26.60800
C  13.96800 48.30600 23.48100
O  13.63800 47.71900 22.43800
C  15.42700 48.79400 23.66300
N  8.34200 47.88400 24.08900
C  9.28400 47.75200 23.18500
C  8.61300 47.38200 21.82400
C  7.16300 47.05200 22.21700
C  7.05900 47.47700 23.69300
C  8.74700 48.52800 20.81400
C  6.76500 45.63900 21.85400
C  7.60500 44.47800 22.49300
N  6.99600 47.71600 26.65700
C  5.83400 47.47300 25.86300
C  4.69100 47.38300 26.72200
C  5.13100 47.50300 27.99100
C  6.59100 47.75800 27.95400
C  3.33800 47.06200 26.20600
C  4.70300 47.60600 29.38100
O  3.58600 47.48400 29.83400
C  6.01900 47.76700 30.22300
C  6.34400 46.65000 31.07400
O  6.99500 45.68700 30.73400
O  5.61200 46.61700 32.25900
C  5.55000 45.31800 32.99900
H  12.58600 49.41200 28.65600
H  11.22600 47.99600 22.46200
H  5.03400 47.01300 23.98200
H  8.55800 49.86800 31.23800
H  11.23800 48.56200 30.63900
H  11.42200 51.32200 30.01000
H  12.14900 50.63100 31.43000
H  10.44400 51.29800 31.46000
H  10.21400 47.68100 32.26300
H  8.73100 47.06400 31.71900
H  7.53700 48.87300 33.24700
H  9.22400 49.16100 33.88100
H  14.92700 50.15800 26.06200
H  15.03500 48.37100 26.60700
H  14.39300 49.66400 27.63700
H  16.00900 48.71100 22.74500
H  15.83900 48.31300 24.55000
H  15.62800 49.82900 23.93800
H  9.26300 46.56700 21.50700
H  6.51700 47.75200 21.68800
H  8.33100 49.41400 21.29500
H  8.15900 48.35200 19.91300
H  9.80100 48.63800 20.56200
H  6.79100 45.58700 20.76500
H  5.71900 45.40600 22.05300
H  8.23400 44.89900 23.27700
H  8.14100 43.94100 21.71000
H  6.97400 43.70600 22.93300
H  2.79000 47.95800 25.91600
H  2.70300 46.61600 26.97100
H  3.41600 46.28400 25.44700
H  6.11500 48.72800 30.72900
H  5.73700 45.60800 34.03300
H  6.32300 44.59000 32.75400
H  4.57500 44.87600 32.79100

