79

Mg 49.24700 36.08500 27.58800
C  47.48300 34.25400 30.06200
C  49.97400 38.53900 30.05900
C  51.13100 37.67000 25.30500
C  48.26300 33.81600 25.26100
N  48.69100 36.33300 29.81800
C  48.08000 35.41300 30.61500
C  48.09100 35.90300 32.10400
C  48.54400 37.37100 31.92700
C  49.03900 37.47400 30.45000
C  47.38700 38.39400 32.41800
C  49.19600 34.95500 32.87100
C  49.08000 34.72600 34.39500
H  48.29600 35.64300 35.24700
N  50.33400 37.86900 27.63300
C  50.52700 38.71000 28.75000
C  51.41900 39.80300 28.41700
C  51.72300 39.61300 26.98600
C  51.06300 38.36000 26.56100
C  51.55200 40.94900 29.37500
C  52.47400 40.53200 26.05100
O  52.65000 40.35300 24.88200
C  53.27700 41.72300 26.67300
N  49.57400 35.84500 25.53400
C  50.42800 36.60400 24.81000
C  50.35900 36.31500 23.32500
C  49.44200 35.08400 23.23600
C  49.08800 34.83500 24.77800
C  49.86500 37.44400 22.48400
C  50.05800 33.79100 22.59600
C  49.51300 33.42000 21.19100
N  48.21700 34.30800 27.59200
C  47.83600 33.56900 26.56900
C  46.80000 32.58300 27.00400
C  46.67100 32.81200 28.35000
C  47.53000 33.89800 28.68700
C  46.16900 31.57300 26.15500
C  46.05600 32.35700 29.51900
O  45.27800 31.43800 29.68300
C  46.48600 33.34500 30.61900
C  46.85300 32.63700 31.92300
O  47.83700 31.93800 32.05100
O  45.85000 32.89200 32.81500
C  45.91600 31.98400 34.00800
H  50.18800 39.30500 30.80800
H  51.62000 38.16300 24.46200
H  47.81400 33.10800 24.56200
H  47.12500 35.77800 32.59300
H  49.49700 37.55900 32.42100
H  46.42600 37.88400 32.48400
H  47.30300 39.27400 31.78100
H  47.69200 38.70700 33.41700
H  50.22600 35.15700 32.57700
H  49.20400 33.95500 32.43500
H  50.10100 34.65100 34.76900
H  48.83300 33.68500 34.60100
H  52.19500 41.76300 29.04100
H  52.08600 40.63500 30.27200
H  50.62300 41.49200 29.54900
H  53.85900 41.44300 27.55100
H  52.59100 42.53200 26.92300
H  53.89000 42.07800 25.84400
H  51.36600 36.00200 23.05000
H  48.45600 35.20100 22.78700
H  49.10800 37.96000 23.07500
H  49.34700 37.06800 21.60200
H  50.71900 38.06900 22.22200
H  49.82800 32.90400 23.18700
H  51.13800 33.93200 22.58700
H  48.78800 34.13900 20.81100
H  49.06500 32.42800 21.24700
H  50.30100 33.51500 20.44300
H  45.25800 32.02300 25.76000
H  45.86600 30.76200 26.81700
H  46.82000 31.26400 25.33700
H  45.58000 33.92900 30.78000
H  45.32200 32.49300 34.76700
H  46.89200 31.72300 34.41700
H  45.36700 31.07800 33.75000

