79

Mg 49.32100 47.02500 42.53400
C  46.05500 47.61000 41.24800
C  49.24300 43.95900 40.71300
C  52.61900 46.62000 43.00300
C  49.41000 50.32200 43.54600
N  47.81400 45.96500 41.08800
C  46.56000 46.37600 40.75100
C  45.75100 45.34600 39.89200
C  46.80800 44.15700 39.93200
C  48.03800 44.66600 40.68800
C  46.29500 42.66800 40.18600
C  45.34400 45.81200 38.42400
C  44.20900 45.02500 37.72300
H  44.48600 43.88400 36.77200
N  50.70800 45.38200 42.12200
C  50.49800 44.28700 41.29300
C  51.75700 43.55700 41.10100
C  52.76100 44.35200 41.71100
C  52.04100 45.51500 42.32400
C  51.85400 42.28800 40.34300
C  54.31300 44.02300 41.72100
O  54.68300 42.89000 41.28700
C  55.36400 44.97300 42.35100
N  50.87200 48.29000 43.15100
C  52.08600 47.84500 43.49700
C  52.93600 49.08200 44.01800
C  51.87700 50.18000 44.19800
C  50.57800 49.54200 43.61700
C  53.83300 48.91900 45.29600
C  52.23100 51.47100 43.50100
C  52.12500 52.62000 44.48600
N  48.03400 48.62000 42.52700
C  48.14400 49.80200 43.12800
C  46.94900 50.59000 43.00100
C  46.06600 49.72600 42.32900
C  46.78000 48.57800 41.96400
C  46.85700 52.03000 43.32700
C  44.78800 49.56200 41.76800
O  43.86500 50.36200 41.94900
C  44.69300 48.29800 40.89900
C  43.57000 47.57200 41.40300
O  43.27600 47.42200 42.55500
O  43.01500 46.97600 40.31200
C  41.91300 46.03800 40.51200
H  49.14600 43.07000 40.08600
H  53.68900 46.65500 43.22100
H  49.46800 51.28800 44.05200
H  44.83200 45.07400 40.41200
H  47.12500 44.09900 38.89000
H  46.74100 42.26300 41.09400
H  46.59200 42.03000 39.35400
H  45.22300 42.82100 40.31500
H  46.26200 45.75500 37.83900
H  45.02500 46.85300 38.46900
H  43.54800 45.82400 37.38900
H  43.58100 44.68100 38.54500
H  51.97800 41.44400 41.02200
H  52.74800 42.33600 39.72200
H  51.04500 42.05700 39.65000
H  56.37900 44.57800 42.31900
H  55.03600 44.88200 43.38600
H  55.26300 45.99300 41.98200
H  53.51900 49.29500 43.12300
H  51.64700 50.40500 45.24000
H  54.02600 47.84700 45.28400
H  53.40800 49.30200 46.22400
H  54.81500 49.38500 45.20500
H  51.57600 51.63500 42.64500
H  53.23700 51.50400 43.08300
H  53.13600 52.88900 44.79200
H  51.43900 52.36600 45.29400
H  51.69900 53.48000 43.96900
H  47.13100 52.33500 44.33700
H  45.79900 52.29400 43.31400
H  47.30800 52.70700 42.60200
H  44.65100 48.53700 39.83600
H  41.91700 45.69900 41.54800
H  41.94200 45.16400 39.86200
H  40.99400 46.58800 40.31300

