79

Mg 36.41900 49.83800 24.75300
C  36.52600 47.72300 27.70100
C  35.03100 52.19600 26.78100
C  35.63300 51.43800 21.89100
C  37.49700 47.03300 22.87800
N  35.84600 49.90500 27.02200
C  36.09600 49.05000 28.01300
C  35.80000 49.67600 29.44500
C  35.08600 51.06100 29.03800
C  35.33400 51.05600 27.54700
C  33.59000 51.26100 29.41400
C  36.96600 49.68100 30.48000
C  36.55200 49.84000 32.00800
H  35.06700 49.85900 32.39000
N  35.53700 51.64400 24.38600
C  35.07900 52.46100 25.40300
C  34.94100 53.76500 24.68900
C  34.96100 53.52400 23.26700
C  35.31500 52.13000 23.11800
C  34.54700 54.90400 25.47300
C  34.54700 54.47000 22.15700
O  34.48200 54.10500 20.97100
C  34.15800 55.86700 22.44700
N  36.45000 49.32600 22.70100
C  36.19200 50.21700 21.69400
C  36.61700 49.65500 20.39200
C  37.49400 48.45100 20.78900
C  37.13100 48.22700 22.21600
C  35.55200 49.29900 19.36100
C  39.05800 48.60800 20.56100
C  39.62100 47.67400 19.40500
N  37.00700 47.87500 25.13300
C  37.35200 46.88000 24.26600
C  37.69800 45.64600 25.03700
C  37.38400 45.97000 26.32700
C  36.95800 47.32600 26.37200
C  38.19600 44.26700 24.46300
C  37.39200 45.43900 27.69800
O  37.76700 44.40400 28.12900
C  36.88900 46.58700 28.64700
C  35.76700 46.03500 29.43100
O  34.99600 45.16400 28.96500
O  35.67800 46.51200 30.71200
C  34.68000 45.84600 31.55300
H  34.55700 52.97100 27.38600
H  35.41900 51.99800 20.97800
H  37.99100 46.33300 22.20100
H  35.08800 48.93000 29.79900
H  35.69000 51.85100 29.48400
H  32.90600 50.94800 28.62400
H  33.46100 52.27100 29.80200
H  33.22900 50.62200 30.22000
H  37.71000 50.45700 30.30500
H  37.55800 48.77300 30.36500
H  37.04500 50.72100 32.41900
H  36.94000 48.94200 32.49000
H  34.86600 55.86100 25.05900
H  35.06300 54.90600 26.43300
H  33.47200 54.92800 25.64900
H  35.00400 56.45800 22.80000
H  33.33000 55.78900 23.15100
H  33.79000 56.28900 21.51200
H  37.22800 50.43000 19.93000
H  37.18000 47.56200 20.24300
H  35.94800 48.57200 18.65200
H  35.27200 50.21700 18.84500
H  34.65800 48.84600 19.78900
H  39.49800 48.20400 21.47200
H  39.40100 49.61200 20.31300
H  40.04300 46.79300 19.88900
H  40.39500 48.18300 18.83100
H  38.79600 47.25700 18.82700
H  38.81800 43.71500 25.16800
H  38.63400 44.43100 23.47900
H  37.34900 43.60300 24.29000
H  37.73300 46.64500 29.33500
H  35.04100 45.99400 32.57100
H  34.51800 44.77200 31.45600
H  33.69600 46.28700 31.40000

