79

Mg 9.53000 48.55100 26.43400
C  7.36100 48.46200 29.22900
C  12.07300 49.37500 28.65400
C  11.44100 48.84000 23.74000
C  6.68900 48.32800 24.34300
N  9.62300 48.76100 28.70900
C  8.65000 48.70100 29.63300
C  9.11400 48.99000 31.04200
C  10.56200 49.51000 30.89800
C  10.80000 49.24900 29.27900
C  10.80800 50.96800 31.35400
C  8.94200 47.72800 32.03200
C  9.92500 47.32400 33.08200
H  9.25800 46.66800 34.36600
N  11.46900 49.02300 26.21900
C  12.38300 49.27600 27.29000
C  13.71800 49.45800 26.72300
C  13.60100 49.30700 25.35600
C  12.14600 49.02800 25.00500
C  14.98500 49.73200 27.47900
C  14.74500 49.43700 24.38700
O  14.47700 49.64200 23.23400
C  16.14700 49.22700 24.75200
N  9.13200 48.57700 24.27500
C  10.12200 48.62800 23.39800
C  9.65800 48.22300 22.06500
C  8.07000 48.12400 22.24400
C  7.93300 48.36900 23.70400
C  10.09500 49.09600 20.89700
C  7.58000 46.67200 21.86900
C  6.21800 46.54500 21.19400
N  7.43700 48.32800 26.69100
C  6.40000 48.30200 25.74500
C  5.12500 48.17400 26.36800
C  5.49700 48.25900 27.71300
C  6.90600 48.23900 27.88100
C  3.79300 47.98500 25.66000
C  4.85700 48.31200 29.04300
O  3.69500 48.41400 29.45100
C  6.10300 48.38800 30.03700
C  5.97400 47.11800 30.84500
O  6.64100 46.13200 30.72500
O  4.98600 47.27200 31.75200
C  4.91600 46.21800 32.75500
H  12.93200 49.55500 29.30300
H  12.24400 48.85200 23.00100
H  5.78300 48.27500 23.73600
H  8.46500 49.74900 31.47800
H  11.31900 48.86500 31.34300
H  11.50700 50.85100 32.18200
H  9.85400 51.31000 31.75500
H  11.21000 51.62100 30.57900
H  9.01000 46.89000 31.33800
H  7.96700 47.75600 32.51800
H  10.37700 48.25000 33.43700
H  10.75400 46.67500 32.80100
H  15.56900 48.82500 27.64000
H  14.84200 50.11000 28.49100
H  15.60300 50.46800 26.96500
H  16.81300 48.97400 23.92800
H  16.10100 48.39400 25.45400
H  16.51700 50.14800 25.20200
H  10.07700 47.24700 21.82200
H  7.48300 48.87700 21.71700
H  9.48300 49.96400 20.65200
H  10.00400 48.52900 19.97100
H  11.10300 49.48900 21.03200
H  7.48900 46.05100 22.75900
H  8.40000 46.30900 21.24900
H  5.54600 46.02600 21.87700
H  6.39300 45.93400 20.30800
H  5.75800 47.51800 21.02100
H  3.77700 47.12600 24.98900
H  3.47000 48.84900 25.07900
H  3.00100 47.88700 26.40200
H  5.98300 49.17400 30.78300
H  5.81200 46.26400 33.37300
H  4.75800 45.19200 32.42100
H  4.05100 46.38600 33.39600

