79

Mg 40.88400 8.22600 29.81800
C  42.59900 9.79800 32.48600
C  38.40300 7.35500 32.14000
C  39.60200 6.13600 27.50600
C  43.70000 8.57500 27.92700
N  40.50400 8.57200 32.14800
C  41.39900 9.21700 32.97500
C  40.80400 9.31200 34.41600
C  39.36400 8.58200 34.26300
C  39.40600 8.04800 32.74200
C  39.13800 7.32400 35.16900
C  40.81000 10.65000 35.20700
C  39.56800 11.01100 36.06000
H  39.95900 12.09400 37.17600
N  39.24400 7.03100 29.82400
C  38.30000 6.89800 30.77400
C  37.14800 6.23600 30.24500
C  37.36200 6.07200 28.86500
C  38.82800 6.39100 28.67900
C  35.95100 5.92400 31.10400
C  36.36600 5.64500 27.82800
O  36.63400 5.45500 26.62900
C  35.01000 5.25100 28.21400
N  41.53700 7.54700 27.85700
C  40.85300 6.62300 27.13400
C  41.59200 6.30800 25.84100
C  42.87300 7.27200 25.93000
C  42.74800 7.87100 27.31700
C  41.99300 4.83100 25.80500
C  43.18900 8.41100 24.90000
C  42.06500 9.43400 24.65800
N  42.70400 9.14100 30.02300
C  43.72600 9.27800 29.14100
C  44.89200 9.91000 29.79800
C  44.40700 10.23900 31.05100
C  43.08300 9.65100 31.19100
C  46.22300 10.17700 29.12500
C  44.76000 10.89200 32.33700
O  45.77100 11.59700 32.66200
C  43.62700 10.49500 33.30700
C  44.20700 9.69000 34.44300
O  44.59400 8.52800 34.34400
O  44.28500 10.54200 35.54900
C  44.74800 9.86800 36.76100
H  37.48500 7.13200 32.68800
H  39.10000 5.63800 26.67400
H  44.56600 8.89600 27.34400
H  41.43400 8.65300 35.01400
H  38.54100 9.29700 34.23900
H  39.32900 6.49400 34.48900
H  38.12200 7.41300 35.55500
H  39.83900 7.27800 36.00300
H  40.94700 11.46400 34.49600
H  41.65100 10.59300 35.89900
H  39.12400 10.15800 36.57400
H  38.69500 11.27800 35.46400
H  36.41400 5.53200 32.00900
H  35.21700 5.20600 30.74000
H  35.48300 6.80500 31.54500
H  34.53600 5.91200 28.94000
H  35.12500 4.22200 28.55300
H  34.30000 5.22800 27.38800
H  41.08500 6.46800 24.88900
H  43.76900 6.65100 25.94400
H  41.04100 4.30400 25.87700
H  42.59400 4.53800 26.66600
H  42.55100 4.75100 24.87200
H  43.52500 8.03200 23.93500
H  44.01600 8.95800 25.35400
H  41.12100 9.27900 25.18000
H  41.87200 9.39500 23.58500
H  42.42900 10.44100 24.85800
H  46.54200 11.20600 29.29000
H  46.19500 10.02000 28.04600
H  46.99300 9.66700 29.70300
H  43.24600 11.41700 33.74700
H  45.58100 10.47400 37.11800
H  45.06100 8.82700 36.67900
H  44.03700 9.95200 37.58400

