79

Mg -0.77300 17.82800 27.07900
C  -1.48700 15.81300 30.02600
C  -1.28900 20.59300 29.21300
C  -0.65200 19.69700 24.39100
C  -1.03800 14.95400 25.14000
N  -1.20200 18.17300 29.43500
C  -1.44400 17.22500 30.35900
C  -1.65400 17.85400 31.76000
C  -2.02000 19.32400 31.38800
C  -1.52700 19.39400 29.92700
C  -3.61000 19.54500 31.61600
C  -0.50000 17.68600 32.76200
C  -0.91000 16.98900 33.99800
H  0.11400 16.38100 35.05700
N  -0.75700 19.94000 26.81300
C  -0.91700 20.87700 27.81900
C  -0.77600 22.17300 27.15600
C  -0.56300 21.93200 25.73600
C  -0.65200 20.44700 25.57700
C  -1.00800 23.54000 27.79400
C  -0.32000 22.91200 24.57900
O  -0.11900 22.54900 23.40300
C  -0.23900 24.42300 24.91800
N  -0.62700 17.39200 25.07900
C  -0.67100 18.34000 24.15200
C  -0.59600 17.67800 22.75900
C  -0.63000 16.18100 23.05700
C  -0.68700 16.13800 24.54600
C  -1.55200 18.20300 21.75600
C  0.53500 15.41400 22.38500
C  1.92900 15.54200 22.99700
N  -1.16500 15.77600 27.48000
C  -1.23300 14.76000 26.51100
C  -1.49300 13.57200 27.20500
C  -1.61600 13.87500 28.58100
C  -1.47500 15.31700 28.68200
C  -1.77500 12.21500 26.64600
C  -1.91500 13.36900 29.89200
O  -2.09100 12.15900 30.18100
C  -1.75000 14.56000 30.92500
C  -0.77100 14.23400 31.90800
O  0.33900 14.67400 31.92000
O  -1.30600 13.45600 32.90700
C  -0.26700 13.12100 33.90600
H  -1.41100 21.52700 29.76500
H  -0.73400 20.18400 23.41700
H  -1.05900 14.05100 24.52700
H  -2.58300 17.35700 32.04000
H  -1.54000 20.05800 32.03600
H  -4.04300 19.62700 30.61900
H  -3.83200 20.44700 32.18500
H  -4.20800 18.74000 32.04200
H  -0.12800 18.64700 33.11700
H  0.43300 17.21900 32.44400
H  -1.82000 16.45000 33.73300
H  -1.32900 17.78300 34.61500
H  -1.72200 24.22600 27.33700
H  -0.10500 24.13000 27.95100
H  -1.35800 23.39000 28.81500
H  -1.20200 24.82000 25.23900
H  0.07300 24.88800 23.98300
H  0.57400 24.66400 25.60200
H  0.40600 17.91300 22.40200
H  -1.61200 15.82300 22.74900
H  -2.23400 18.95700 22.14800
H  -2.19700 17.45900 21.28700
H  -1.05500 18.75200 20.95600
H  0.59700 15.80600 21.36900
H  0.27900 14.36600 22.22900
H  1.96200 16.14300 23.90600
H  2.54800 15.99000 22.22000
H  2.24400 14.54100 23.29400
H  -1.53100 11.52500 27.45400
H  -1.03300 11.97100 25.88500
H  -2.80000 12.05700 26.31100
H  -2.71200 14.51100 31.43500
H  -0.19900 12.03300 33.87800
H  -0.70100 13.47200 34.84200
H  0.76200 13.47100 33.83100

