79

Mg -0.46200 7.00800 27.20900
C  -0.16800 9.30200 29.90600
C  -0.29300 4.50500 29.62000
C  -0.95900 4.94100 24.87100
C  -0.07100 9.69900 25.02500
N  -0.23900 6.90600 29.48200
C  -0.25100 7.95100 30.35100
C  -0.15200 7.51600 31.79800
C  0.03700 5.91600 31.67700
C  -0.15200 5.82200 30.17800
C  1.39400 5.37500 32.16900
C  -1.48100 7.83900 32.54400
C  -1.41700 8.07200 34.06400
H  -0.10600 7.59300 34.76200
N  -0.48300 4.97700 27.21900
C  -0.39700 4.12100 28.25000
C  -0.47700 2.75200 27.80900
C  -0.78800 2.82000 26.40400
C  -0.79100 4.29000 26.10600
C  -0.41600 1.57400 28.75100
C  -1.13700 1.81000 25.42400
O  -1.38300 2.02600 24.28000
C  -1.17600 0.32300 25.87100
N  -0.49800 7.35700 25.26900
C  -0.77600 6.28300 24.44500
C  -0.88600 6.71600 22.94800
C  -0.89300 8.31400 23.09000
C  -0.52900 8.47900 24.54000
C  0.14100 6.16400 21.94100
C  -2.13900 9.06900 22.67700
C  -2.45100 9.00900 21.10800
N  -0.16100 9.14700 27.34900
C  -0.04900 10.10700 26.37700
C  0.12900 11.42700 26.95200
C  0.04300 11.16900 28.40200
C  -0.04800 9.80200 28.58300
C  0.34200 12.62400 26.15300
C  0.13400 11.71800 29.75500
O  0.50000 12.80200 30.03800
C  0.01900 10.46400 30.80400
C  1.21800 10.44500 31.70400
O  2.38300 10.22000 31.36700
O  0.83900 10.93000 32.99500
C  1.84800 11.16000 34.05800
H  -0.39800 3.68700 30.33500
H  -1.14700 4.25900 24.03900
H  -0.10800 10.53000 24.31700
H  0.73700 7.93300 32.27200
H  -0.70500 5.43600 32.31600
H  2.01500 6.17200 32.58000
H  2.06100 4.94100 31.42400
H  1.28200 4.62700 32.95400
H  -2.20300 7.02800 32.44700
H  -1.89600 8.70900 32.03500
H  -2.20600 7.56000 34.61600
H  -1.51700 9.15500 34.13900
H  -1.34800 1.03400 28.91800
H  0.00100 1.83800 29.72300
H  0.34600 0.93300 28.30800
H  -2.09600 0.08800 26.40600
H  -0.33800 -0.19100 26.34300
H  -1.26600 -0.28500 24.97100
H  -1.77900 6.23000 22.55200
H  -0.03800 8.64500 22.50100
H  0.17000 6.96700 21.20400
H  -0.31700 5.28600 21.48600
H  1.12700 5.83000 22.26500
H  -1.99500 10.09900 23.00300
H  -3.02400 8.67500 23.17600
H  -1.84700 8.41600 20.42000
H  -2.41900 10.06900 20.85600
H  -3.47400 8.64900 21.00100
H  1.03300 12.47000 25.32400
H  0.74300 13.41400 26.78800
H  -0.58800 12.94800 25.68600
H  -0.90500 10.59500 31.36900
H  2.67700 10.46500 34.19300
H  1.23100 11.27900 34.94900
H  2.28900 12.11200 33.76200

