79

Mg -2.76300 34.60000 27.03700
C  -4.39300 32.63600 29.35600
C  -1.48200 36.54800 29.66700
C  -1.38700 36.66500 24.74500
C  -4.60900 32.99700 24.56300
N  -3.05300 34.70800 29.29000
C  -3.65800 33.68500 29.97400
C  -3.38400 33.91800 31.51400
C  -2.57000 35.23300 31.62400
C  -2.35800 35.49300 30.13000
C  -3.22900 36.31500 32.52400
C  -2.65500 32.68200 32.07700
C  -3.39500 31.84000 33.15600
H  -2.85300 31.90800 34.56800
N  -1.45500 36.27700 27.17000
C  -1.12200 36.95600 28.29800
C  -0.09600 37.95100 27.99500
C  0.02100 38.00100 26.57300
C  -0.98800 37.00700 26.06300
C  0.63600 38.75800 28.96300
C  0.79400 38.89400 25.58800
O  0.81200 38.66500 24.41900
C  1.76400 39.95300 26.13900
N  -3.18100 34.92500 25.00500
C  -2.29900 35.67300 24.26600
C  -2.67900 35.65900 22.85800
C  -3.58700 34.36700 22.74900
C  -3.87700 34.11100 24.21900
C  -3.40400 36.91300 22.26400
C  -2.81100 33.25400 21.98500
C  -2.77600 33.45500 20.46000
N  -4.17600 33.08900 26.91900
C  -4.76600 32.46000 25.83300
C  -5.45400 31.19800 26.27300
C  -5.42800 31.29100 27.67100
C  -4.59600 32.45800 27.99700
C  -6.06300 30.25000 25.35200
C  -5.87100 30.72100 28.87200
O  -6.56300 29.73200 29.10700
C  -5.20100 31.47300 30.00300
C  -6.25800 32.07500 30.82600
O  -6.85200 33.09900 30.67700
O  -6.61700 31.16000 31.82500
C  -7.67700 31.57900 32.74500
H  -0.94100 37.06300 30.46400
H  -0.95800 37.23400 23.91700
H  -4.92300 32.35200 23.73900
H  -4.31100 33.93200 32.08600
H  -1.57700 35.06000 32.03800
H  -2.58500 36.73800 33.29500
H  -4.12900 35.98300 33.04300
H  -3.44600 37.11600 31.81800
H  -1.80300 33.15500 32.56600
H  -2.28400 32.11900 31.22100
H  -3.37400 30.80500 32.81400
H  -4.41200 32.20000 33.31100
H  0.30500 38.52700 29.97600
H  0.44300 39.80900 28.75100
H  1.69900 38.53400 28.86400
H  2.53100 39.50100 26.76800
H  1.13300 40.60200 26.74600
H  2.27200 40.54800 25.38000
H  -1.74900 35.46100 22.32600
H  -4.45000 34.60900 22.12900
H  -4.13900 37.24700 22.99600
H  -3.99000 36.57600 21.40900
H  -2.66800 37.58500 21.82300
H  -3.14600 32.24400 22.22100
H  -1.73800 33.24400 22.18000
H  -3.28700 34.34000 20.08000
H  -3.30000 32.62700 19.98300
H  -1.72100 33.37700 20.19800
H  -6.21200 29.31200 25.88600
H  -5.33300 30.13100 24.55200
H  -7.01200 30.62800 24.97100
H  -4.67400 30.65000 30.48600
H  -8.18500 32.47400 32.38600
H  -7.27000 31.77900 33.73600
H  -8.45900 30.82600 32.84900

