79

Mg 48.60700 16.19300 29.22800
C  46.37700 15.63400 31.94800
C  50.58100 17.93500 31.22800
C  50.35900 16.83800 26.50000
C  46.09900 14.57000 27.17300
N  48.44500 16.70900 31.37400
C  47.55300 16.32900 32.32400
C  47.95200 16.76900 33.73100
C  49.04900 17.77200 33.31500
C  49.39100 17.49400 31.89800
C  48.54100 19.25800 33.48800
C  48.50300 15.52600 34.58900
C  48.23700 15.72700 36.10200
H  48.28100 17.12800 36.72700
N  50.28700 17.10400 28.94500
C  50.98100 17.77100 29.88000
C  52.26500 18.19600 29.28600
C  52.27800 17.80700 27.91000
C  50.90400 17.26600 27.74000
C  53.44100 18.75900 30.05500
C  53.30600 17.93500 26.87800
O  53.18900 17.65400 25.68900
C  54.66000 18.47800 27.21400
N  48.38100 15.61500 27.12000
C  49.16200 16.16300 26.21600
C  48.72300 15.81400 24.75300
C  47.38600 14.98700 25.02600
C  47.23500 15.07000 26.54200
C  48.64700 17.03200 23.76700
C  47.29000 13.66200 24.31000
C  47.69900 12.39200 25.12300
N  46.58500 15.41100 29.40400
C  45.77200 14.76700 28.53300
C  44.55700 14.39800 29.20900
C  44.71200 14.72600 30.58500
C  46.04200 15.28400 30.67700
C  43.47000 13.53700 28.54100
C  44.16100 14.59300 31.91700
O  43.04500 14.22300 32.28100
C  45.23100 15.22100 32.87200
C  44.57900 16.50500 33.46200
O  44.04100 17.36300 32.82500
O  44.54500 16.42100 34.81600
C  43.68200 17.39200 35.40200
H  51.25200 18.37900 31.96600
H  50.85000 17.10000 25.56000
H  45.40500 14.01500 26.53800
H  47.03800 17.15500 34.18200
H  50.01500 17.67800 33.81300
H  47.54500 19.31500 33.92600
H  48.48000 19.79300 32.54000
H  49.17500 19.76200 34.21700
H  49.55400 15.28300 34.43600
H  47.85500 14.68000 34.36000
H  48.95100 15.17200 36.71000
H  47.29600 15.20400 36.27200
H  53.95200 19.59600 29.57900
H  54.02000 17.83700 30.09400
H  53.21300 19.22900 31.01200
H  54.48300 19.53000 27.44000
H  55.22200 18.50800 26.28100
H  55.15400 17.86400 27.96800
H  49.33500 15.03300 24.30300
H  46.53600 15.47100 24.54600
H  48.00500 16.96300 22.88900
H  49.65800 17.20800 23.40000
H  48.52400 17.95100 24.33900
H  47.93600 13.66200 23.43200
H  46.27200 13.60400 23.92600
H  48.17500 11.58800 24.56200
H  46.89000 11.90100 25.66400
H  48.42100 12.69600 25.88000
H  42.72700 14.20000 28.09700
H  42.85000 12.96000 29.22800
H  43.88500 12.90800 27.75400
H  45.46900 14.53600 33.68700
H  44.13700 18.37200 35.26200
H  43.50600 17.15700 36.45200
H  42.72400 17.40200 34.88300

