79

Mg 2.38400 -1.23700 44.76100
C  5.54600 0.12300 44.25700
C  1.01400 1.41400 42.89200
C  -0.41100 -2.99000 44.48500
C  4.12400 -4.27000 45.85400
N  3.09800 0.47700 43.66300
C  4.46000 0.88800 43.67300
C  4.64000 2.13600 42.79800
C  3.18400 2.67400 42.52300
C  2.35300 1.44200 43.03900
C  2.82000 4.08300 43.18800
C  5.52900 1.88500 41.49200
C  6.47700 2.96200 41.14700
H  6.19100 3.55600 39.74800
N  0.54200 -0.85500 43.89400
C  0.08700 0.33200 43.27100
C  -1.37500 0.32400 43.23600
C  -1.71200 -0.97300 43.61800
C  -0.55200 -1.66500 44.03400
C  -2.18000 1.51400 42.71500
C  -3.18100 -1.48100 43.60100
O  -4.00800 -0.70300 43.19400
C  -3.62500 -2.76400 44.12300
N  1.97000 -3.39700 44.94400
C  0.66100 -3.76000 44.93700
C  0.47700 -5.15200 45.63900
C  1.89400 -5.65700 45.60800
C  2.76400 -4.36700 45.55200
C  -0.19800 -5.01700 47.05200
C  2.33700 -6.58000 44.42600
C  2.33100 -8.06100 44.68900
N  4.40100 -1.92600 45.19300
C  4.92200 -3.16800 45.52500
C  6.32400 -3.07800 45.70100
C  6.64300 -1.77300 45.24800
C  5.45000 -1.17300 44.83300
C  7.28500 -4.10400 46.19300
C  7.74200 -0.85300 45.08400
O  8.93500 -0.95700 45.28600
C  7.04100 0.41000 44.34600
C  7.32100 1.65700 45.16700
O  6.71000 2.03600 46.15500
O  8.43600 2.31800 44.67700
C  9.04000 3.40000 45.44700
H  0.46300 2.28800 42.53700
H  -1.37400 -3.49300 44.37800
H  4.64500 -5.15500 46.22400
H  5.23000 2.80700 43.42300
H  3.09400 2.69800 41.43700
H  3.64500 4.56000 43.71700
H  1.96600 3.91300 43.84400
H  2.64000 4.79000 42.37800
H  4.81500 1.77300 40.67600
H  6.09400 0.95300 41.46600
H  7.44100 2.48000 40.98800
H  6.57900 3.69000 41.95100
H  -1.86400 1.68000 41.68600
H  -1.75100 2.33900 43.28400
H  -3.27000 1.49500 42.72000
H  -4.70800 -2.66600 44.05400
H  -3.29600 -2.91900 45.15000
H  -3.26500 -3.47400 43.37800
H  -0.12700 -5.72000 44.93200
H  2.17200 -6.23400 46.49000
H  -0.57700 -3.99900 47.14500
H  0.54400 -5.38200 47.76200
H  -1.01400 -5.74000 47.04300
H  3.34200 -6.31200 44.10000
H  1.55700 -6.41200 43.68400
H  1.97900 -8.31600 45.68900
H  3.37500 -8.36600 44.61200
H  1.74300 -8.59200 43.94100
H  8.31000 -3.73400 46.22100
H  7.16000 -4.93000 45.49300
H  7.00900 -4.43000 47.19600
H  7.49500 0.56700 43.36800
H  10.05300 3.01700 45.56700
H  8.57000 3.52500 46.42200
H  9.17900 4.35400 44.93700

