79

Mg 9.67400 47.60000 25.52100
C  7.39800 48.28000 28.08800
C  12.27100 48.69400 27.66400
C  11.90300 47.28200 23.04900
C  7.03000 47.46600 23.26500
N  9.79900 48.24900 27.60200
C  8.74300 48.44400 28.43100
C  9.20500 48.60500 29.91700
C  10.61300 49.24200 29.64900
C  10.96200 48.65800 28.18800
C  10.78200 50.81000 29.68100
C  9.17500 47.39700 30.79200
C  8.90600 47.63000 32.30200
H  9.11400 46.39400 33.16600
N  11.81000 47.78300 25.39000
C  12.66400 48.24100 26.37100
C  14.04800 48.17700 25.91800
C  14.00600 47.57500 24.56800
C  12.52500 47.50900 24.28600
C  15.16500 48.72800 26.60300
C  15.15600 47.12600 23.60200
O  14.94900 46.56800 22.55600
C  16.46600 47.42900 24.03900
N  9.42000 47.33400 23.46100
C  10.53300 47.22500 22.64900
C  10.07600 47.19500 21.17300
C  8.51800 47.20300 21.22900
C  8.30000 47.33300 22.73000
C  10.61800 48.39500 20.33000
C  7.75200 46.01000 20.56600
C  8.31800 44.62400 20.93400
N  7.64800 47.75700 25.63100
C  6.71300 47.56400 24.64700
C  5.36200 47.69500 25.22600
C  5.61300 47.85900 26.60600
C  7.01400 47.90000 26.80000
C  4.06400 47.71600 24.49900
C  4.92700 48.14300 27.75500
O  3.78400 48.24600 28.05500
C  6.07900 48.30200 28.87200
C  5.89600 47.12200 29.76200
O  6.04400 45.97200 29.53000
O  5.43200 47.65100 30.97900
C  5.13400 46.73100 32.04600
H  13.10800 49.06700 28.25700
H  12.62100 47.25000 22.22700
H  6.18900 47.57200 22.57600
H  8.50500 49.30000 30.38100
H  11.33500 48.92400 30.40100
H  11.52400 50.99300 30.45800
H  9.75100 51.06700 29.92500
H  10.99600 51.11600 28.65700
H  10.09600 46.82500 30.67400
H  8.37600 46.69700 30.54800
H  7.95200 48.12300 32.49100
H  9.67800 48.33000 32.62200
H  16.11000 48.23200 26.38600
H  15.08600 48.87000 27.68100
H  15.21000 49.68800 26.08800
H  17.10700 47.14600 23.20400
H  16.56100 46.69600 24.84000
H  16.69500 48.44800 24.35300
H  10.35800 46.22400 20.76500
H  8.12500 48.04700 20.66300
H  11.27100 48.99300 20.96500
H  9.83200 49.07500 20.00000
H  11.16100 47.94900 19.49600
H  7.90300 45.91600 19.49100
H  6.66800 46.12000 20.54900
H  8.83000 44.74100 21.88900
H  9.06500 44.46500 20.15600
H  7.63100 43.77800 20.94900
H  4.10600 48.21600 23.53200
H  3.23500 48.06000 25.11800
H  3.74100 46.68300 24.36800
H  5.93700 49.16800 29.51700
H  4.71500 45.75600 31.79700
H  4.48500 47.22700 32.76800
H  6.09200 46.44800 32.48100

