79

Mg 8.08800 2.53800 27.04500
C  9.33400 1.03400 29.94900
C  6.41800 4.80300 28.95200
C  7.05900 4.12800 24.22500
C  9.76600 0.13300 25.10200
N  7.79500 2.76400 29.24500
C  8.57100 2.23900 30.19100
C  8.32500 2.85700 31.56300
C  7.21600 3.93700 31.23900
C  7.14900 3.83300 29.70900
C  5.94100 3.87400 32.06700
C  9.71500 3.23200 32.24900
C  10.14300 2.53500 33.62000
H  10.84800 3.41200 34.69100
N  6.87200 4.19500 26.65400
C  6.19800 4.92700 27.53400
C  5.39200 5.95500 26.89100
C  5.62400 5.81600 25.49900
C  6.52600 4.65600 25.38200
C  4.46200 6.93700 27.61700
C  4.99800 6.65900 24.32900
O  5.18500 6.45000 23.13700
C  4.18200 7.96200 24.64400
N  8.22900 2.10300 24.93500
C  7.75700 2.95400 23.97600
C  8.18600 2.40000 22.58400
C  9.04800 1.15300 22.85100
C  9.05100 1.11000 24.36700
C  7.18500 2.26900 21.41300
C  10.49400 1.21000 22.19800
C  11.00700 -0.10500 21.55500
N  9.10500 0.82600 27.39400
C  9.80600 -0.05900 26.53900
C  10.60500 -0.98500 27.29300
C  10.43200 -0.60000 28.64600
C  9.52400 0.49000 28.66300
C  11.36600 -2.21800 26.77000
C  10.77800 -0.92400 30.03800
O  11.42500 -1.87700 30.51800
C  10.04400 0.09200 30.89200
C  9.18100 -0.61100 31.86800
O  8.11500 -1.06400 31.65800
O  9.91000 -0.79100 33.08000
C  9.23600 -1.43700 34.21300
H  5.93200 5.52700 29.61000
H  6.78400 4.75200 23.37300
H  10.33900 -0.61800 24.55400
H  7.76100 2.14100 32.16100
H  7.65900 4.91700 31.42000
H  6.11200 3.25100 32.94500
H  5.23900 3.30200 31.46200
H  5.60300 4.89500 32.24600
H  9.78200 4.31800 32.30600
H  10.52400 2.94400 31.57700
H  10.89100 1.74700 33.53100
H  9.25700 2.05400 34.03600
H  4.71400 7.92800 27.24000
H  4.63400 7.01800 28.69000
H  3.38500 6.86500 27.46100
H  3.82800 8.48300 23.75500
H  4.95700 8.53900 25.14900
H  3.35100 7.83000 25.33800
H  8.88500 3.13500 22.18500
H  8.51100 0.29300 22.45000
H  6.19700 1.98700 21.77700
H  7.56000 1.44100 20.81000
H  7.17700 3.14600 20.76600
H  11.27100 1.62400 22.84200
H  10.35400 1.80700 21.29700
H  10.38400 -0.96000 21.81900
H  12.03000 -0.29600 21.88000
H  10.99200 0.06800 20.47900
H  11.55200 -3.00700 27.49800
H  12.37100 -1.92800 26.46300
H  10.76700 -2.63700 25.96100
H  10.86200 0.54900 31.44800
H  8.74600 -0.69100 34.83900
H  9.96000 -1.90400 34.88100
H  8.53200 -2.17600 33.83000

