79

Mg -10.73400 16.85500 41.08400
C  -7.27300 16.41400 41.24400
C  -10.23400 20.14600 40.47400
C  -13.95800 16.98300 39.95900
C  -11.06000 13.42900 41.76800
N  -8.89600 18.08900 40.72200
C  -7.60000 17.65200 40.80600
C  -6.62500 18.89700 40.60100
C  -7.54900 20.14300 40.81200
C  -8.97200 19.43800 40.63000
C  -7.41600 20.70400 42.21900
C  -5.96000 18.83400 39.13800
C  -4.35200 18.65900 39.04200
H  -3.90700 17.40400 38.35500
N  -11.95900 18.31400 40.40100
C  -11.55300 19.62200 40.22900
C  -12.59800 20.42900 39.71000
C  -13.68900 19.54500 39.50900
C  -13.22500 18.18000 39.93900
C  -12.34600 21.87100 39.30700
C  -15.04000 19.85200 38.90500
O  -15.13700 21.05100 38.59500
C  -16.14500 18.96300 38.58500
N  -12.30900 15.39200 40.80900
C  -13.58400 15.71200 40.50400
C  -14.53400 14.54700 40.66900
C  -13.59500 13.44900 41.22300
C  -12.18100 14.10200 41.25000
C  -15.70700 14.91100 41.58000
C  -13.72800 11.99000 40.62200
C  -13.16900 11.76200 39.19300
N  -9.49200 15.18300 41.47300
C  -9.78300 13.90000 41.78300
C  -8.51300 13.18800 42.08400
C  -7.51500 14.10800 41.89500
C  -8.16700 15.33300 41.56100
C  -8.33400 11.72600 42.45100
C  -6.11400 14.28700 41.92300
O  -5.20800 13.44400 42.16400
C  -5.84400 15.84500 41.46100
C  -5.10100 16.56600 42.51500
O  -5.57000 17.43000 43.23700
O  -3.75400 16.23300 42.44300
C  -2.96800 17.02700 43.35400
H  -9.91900 21.17400 40.28300
H  -14.96300 16.87900 39.54400
H  -11.31000 12.40900 42.06700
H  -5.80500 19.05300 41.30200
H  -7.43800 20.94200 40.07900
H  -7.44300 19.85000 42.89500
H  -8.14300 21.44500 42.55300
H  -6.48800 21.27600 42.19300
H  -6.27200 19.78100 38.69600
H  -6.46600 18.16900 38.43900
H  -3.79000 18.84900 39.95700
H  -4.10200 19.40000 38.28300
H  -12.88500 22.31400 38.47000
H  -11.29000 21.93800 39.04500
H  -12.57700 22.50400 40.16400
H  -16.73200 18.60100 39.42900
H  -15.74500 18.12200 38.02000
H  -16.83800 19.48500 37.92500
H  -14.91100 14.24700 39.69200
H  -13.90600 13.23900 42.24700
H  -15.70600 15.98700 41.75100
H  -15.54700 14.50700 42.57900
H  -16.57900 14.51100 41.06200
H  -14.81300 11.89500 40.58000
H  -13.38800 11.24600 41.34300
H  -13.89500 11.22300 38.58400
H  -12.24600 11.18300 39.22700
H  -12.89700 12.69100 38.69100
H  -7.26200 11.55200 42.36000
H  -8.86500 11.02700 41.80600
H  -8.62600 11.52200 43.48200
H  -5.22800 15.69600 40.57400
H  -1.93000 16.73500 43.19700
H  -3.24600 16.79400 44.38200
H  -2.94500 18.11300 43.26600

