79

Mg -5.94200 24.92600 25.91200
C  -4.46600 26.37200 28.59500
C  -7.15900 22.52700 27.93000
C  -7.38000 23.51400 23.25400
C  -3.98100 26.93200 23.86000
N  -5.70800 24.49200 28.02300
C  -5.25500 25.34200 28.99400
C  -5.52600 24.88200 30.38200
C  -6.16100 23.48200 30.15100
C  -6.36100 23.44500 28.65100
C  -5.44000 22.24100 30.67500
C  -6.52200 25.80000 31.17800
C  -6.65500 25.54000 32.74300
H  -5.81000 24.41500 33.34400
N  -7.14900 23.24600 25.62600
C  -7.56500 22.44700 26.62600
C  -8.60700 21.55400 26.09900
C  -8.70700 21.80700 24.68000
C  -7.73700 22.88000 24.43900
C  -9.25100 20.51200 27.04900
C  -9.37700 21.05100 23.55500
O  -9.16900 21.27000 22.37900
C  -10.37300 19.99400 23.95700
N  -5.75200 25.20700 23.86000
C  -6.47800 24.50000 22.91900
C  -6.20500 24.96700 21.48900
C  -5.09900 25.99800 21.71200
C  -4.82600 26.04700 23.20200
C  -5.94800 23.93700 20.40000
C  -5.32900 27.37600 20.98100
C  -4.18500 27.92300 20.11200
N  -4.58100 26.38200 26.12600
C  -3.96100 27.19100 25.25500
C  -2.97900 28.04200 25.92300
C  -3.27600 27.89500 27.28400
C  -4.14300 26.78500 27.30300
C  -1.97600 28.97700 25.29000
C  -2.82800 28.20000 28.61500
O  -1.97100 28.94100 28.99900
C  -3.72500 27.28300 29.59000
C  -2.77800 26.43100 30.42000
O  -2.10900 25.51500 30.00500
O  -2.58800 27.04100 31.67400
C  -1.51600 26.39800 32.50900
H  -7.58500 21.75200 28.57100
H  -7.77000 22.97200 22.39000
H  -3.45000 27.59000 23.16900
H  -4.62400 24.92000 30.99300
H  -7.16100 23.38300 30.57200
H  -4.99600 21.73300 29.81900
H  -6.14200 21.61200 31.22300
H  -4.61400 22.48500 31.34400
H  -7.50600 25.77100 30.71100
H  -6.23100 26.84700 31.10100
H  -7.70300 25.29300 32.91400
H  -6.36400 26.46200 33.24800
H  -9.79400 20.94900 27.88700
H  -8.50200 19.79700 27.38600
H  -9.96400 19.91700 26.47900
H  -9.87700 19.22700 24.55000
H  -10.79000 19.50500 23.07700
H  -11.08700 20.42400 24.66000
H  -7.14000 25.44300 21.19600
H  -4.12700 25.59200 21.43200
H  -6.92600 23.47900 20.24800
H  -5.43400 23.09700 20.86700
H  -5.61200 24.34200 19.44600
H  -5.43000 28.10800 21.78200
H  -6.26600 27.35400 20.42400
H  -4.55700 27.72300 19.10700
H  -3.27700 27.32900 20.21000
H  -4.11600 28.99300 20.30900
H  -2.56400 29.57100 24.59000
H  -1.14500 28.47400 24.79500
H  -1.55400 29.68800 26.00000
H  -4.38800 27.90400 30.19200
H  -1.69500 25.33000 32.63500
H  -1.26100 26.89800 33.44300
H  -0.63400 26.49000 31.87400

