79

Mg 16.95400 51.11500 26.77900
C  18.78600 49.65900 29.27900
C  14.56400 52.00600 29.16500
C  14.94800 52.53900 24.43500
C  19.00900 49.97300 24.47500
N  16.87700 51.08800 29.00100
C  17.69400 50.32500 29.84000
C  17.43500 50.55600 31.28800
C  15.88400 51.02000 31.17000
C  15.73400 51.40000 29.68100
C  14.97800 49.92200 31.58100
C  18.40800 51.61900 31.80400
C  18.85500 51.57600 33.26800
H  18.18500 50.56300 34.18200
N  15.14700 52.26500 26.80300
C  14.38300 52.55200 27.86500
C  13.29800 53.46300 27.49000
C  13.39300 53.61600 26.11900
C  14.60000 52.83900 25.74800
C  12.33700 54.04500 28.39800
C  12.53800 54.39700 25.22200
O  12.78800 54.48300 24.02600
C  11.25800 55.11400 25.71200
N  16.81300 50.98100 24.68400
C  15.87600 51.58300 23.96500
C  16.16100 51.35900 22.47700
C  17.66400 50.90700 22.53400
C  17.86800 50.59500 23.96000
C  15.13900 50.38100 21.91300
C  18.68000 51.97300 21.95400
C  19.22000 51.78200 20.53900
N  18.39700 49.91700 26.82100
C  19.25500 49.63500 25.77000
C  20.35600 48.89500 26.23100
C  20.19900 48.81400 27.58500
C  18.97400 49.45800 27.93000
C  21.52900 48.43500 25.48800
C  20.88600 48.46100 28.81600
O  21.99300 48.07200 29.04100
C  19.96100 48.91700 30.00700
C  19.61800 47.76400 30.89900
O  19.04700 46.72000 30.65600
O  20.04800 48.07300 32.12700
C  19.71600 47.08300 33.19500
H  13.82000 52.33500 29.89500
H  14.42500 53.02800 23.61000
H  19.75600 49.72600 23.71800
H  17.54500 49.64100 31.87100
H  15.86700 51.89800 31.81600
H  14.27700 50.40400 32.26300
H  15.63200 49.21600 32.09200
H  14.46700 49.30700 30.84000
H  17.83700 52.54600 31.79100
H  19.21800 51.71800 31.08200
H  18.66400 52.59300 33.61100
H  19.91200 51.34600 33.39700
H  12.47000 55.12700 28.37700
H  12.42700 53.63000 29.40100
H  11.35300 53.69800 28.08300
H  11.52200 56.00900 26.27500
H  10.62300 54.43700 26.28400
H  10.61700 55.41700 24.88400
H  16.09200 52.33000 21.98600
H  17.80600 49.94900 22.03300
H  14.19900 50.34100 22.46400
H  15.68700 49.44500 21.81300
H  14.74800 50.73700 20.95900
H  19.50200 52.11400 22.65600
H  18.21400 52.95800 21.99400
H  18.98600 52.68300 19.97200
H  18.54000 51.00100 20.19900
H  20.22900 51.37200 20.56600
H  22.42500 48.99600 25.75400
H  21.29600 48.50900 24.42500
H  21.79900 47.38100 25.53900
H  20.70600 49.53100 30.51300
H  18.64400 46.96700 33.35500
H  20.13200 47.41400 34.14700
H  19.97200 46.05100 32.95400

