79

Mg 24.11900 -6.27600 46.52500
C  26.54700 -3.74000 45.69200
C  21.73700 -4.47200 44.79400
C  22.04500 -8.82600 46.90700
C  26.81900 -8.17300 47.90100
N  24.20700 -4.38000 45.31800
C  25.22900 -3.45200 45.18400
C  24.79200 -2.24700 44.31700
C  23.19300 -2.49500 44.29100
C  23.03400 -3.87300 44.92400
C  22.42000 -1.36700 44.95200
C  25.46900 -2.33100 42.88800
C  26.29900 -1.08400 42.53200
H  26.45700 -0.75300 41.07600
N  22.14200 -6.71100 45.86400
C  21.33700 -5.81100 45.12500
C  20.05500 -6.37100 45.02800
C  20.08700 -7.62800 45.66400
C  21.44500 -7.79700 46.19200
C  18.98300 -5.51700 44.36600
C  18.80900 -8.59300 45.82300
O  17.76900 -8.27700 45.17100
C  18.76500 -9.92500 46.64400
N  24.33400 -8.11400 47.27000
C  23.33200 -9.06800 47.35300
C  23.83200 -10.41400 47.86400
C  25.31200 -10.13400 48.27500
C  25.51300 -8.67800 47.86300
C  22.96700 -11.22700 48.88600
C  26.34800 -11.28000 47.87000
C  27.40700 -11.56600 48.98700
N  26.27300 -6.09100 46.75200
C  27.20000 -6.86700 47.39300
C  28.46000 -6.18800 47.54000
C  28.20300 -4.93000 46.84900
C  26.87400 -4.95600 46.36400
C  29.56600 -6.50800 48.40800
C  28.77400 -3.55700 46.53900
O  29.92000 -3.15200 46.79400
C  27.73400 -2.78700 45.68600
C  27.50800 -1.46700 46.22000
O  26.79500 -1.21800 47.18200
O  28.08700 -0.41100 45.61100
C  27.41900 0.92400 45.77800
H  21.04900 -3.74200 44.36400
H  21.35600 -9.60900 47.23200
H  27.64100 -8.81100 48.23400
H  25.10000 -1.34400 44.84400
H  22.80900 -2.53300 43.27100
H  23.15000 -0.71800 45.43800
H  21.65800 -1.66800 45.67100
H  22.00700 -0.68900 44.20600
H  24.63000 -2.27400 42.19500
H  26.01100 -3.24400 42.64300
H  27.28800 -1.41200 42.85200
H  26.00900 -0.16100 43.03400
H  19.40900 -5.04100 43.48200
H  18.53400 -4.74500 44.99000
H  18.24200 -6.20500 43.95900
H  17.72200 -10.23600 46.58700
H  19.04400 -9.58500 47.64100
H  19.51600 -10.56600 46.18100
H  23.75900 -11.03600 46.97200
H  25.27000 -10.13600 49.36400
H  23.50500 -11.15400 49.83100
H  22.76000 -12.26000 48.60800
H  21.95600 -10.82400 48.95500
H  26.76100 -10.92100 46.92700
H  25.79500 -12.20300 47.69400
H  28.46000 -11.64300 48.71900
H  27.30100 -12.56400 49.41200
H  27.27500 -10.89500 49.83600
H  29.36500 -6.17900 49.42800
H  30.45700 -5.95900 48.10100
H  29.82600 -7.56600 48.43400
H  28.15300 -2.68600 44.68400
H  28.11100 1.60900 46.26800
H  26.43400 0.97800 46.24200
H  27.15400 1.30900 44.79400

