79

Mg 9.12700 47.55600 25.50800
C  6.88700 47.87600 28.26500
C  11.57000 48.68200 27.62300
C  11.00500 48.00300 22.83900
C  6.36900 47.43300 23.40900
N  9.27400 48.15900 27.75400
C  8.21100 48.05500 28.68200
C  8.78100 48.31000 30.12300
C  10.19600 48.90100 29.84400
C  10.40000 48.57200 28.35900
C  10.28400 50.40800 29.92000
C  8.74300 47.07900 31.14800
C  8.46100 47.54500 32.55300
H  8.08100 46.42300 33.55000
N  11.00300 48.16100 25.26400
C  11.89600 48.50300 26.28500
C  13.22100 48.65800 25.74800
C  13.07100 48.37200 24.33400
C  11.64600 48.13600 24.09000
C  14.43900 49.02100 26.61000
C  14.10900 48.26500 23.28300
O  13.90300 47.86200 22.16100
C  15.52900 48.51600 23.67800
N  8.73700 47.65000 23.40000
C  9.66500 47.92000 22.52100
C  9.17000 47.86600 20.97000
C  7.74200 47.32000 21.21400
C  7.57100 47.48700 22.74200
C  9.22600 49.35800 20.38600
C  7.40800 45.91400 20.63600
C  6.25100 45.88900 19.68900
N  7.09200 47.59000 25.72000
C  6.07500 47.59300 24.75500
C  4.75700 47.66400 25.39400
C  5.07100 47.65300 26.71000
C  6.43200 47.70100 26.90700
C  3.42100 47.63200 24.76900
C  4.52300 47.69200 28.06400
O  3.33400 47.75500 28.30700
C  5.62600 47.74900 29.12100
C  5.53600 46.52500 29.89100
O  5.74100 45.43500 29.39900
O  5.17800 46.80200 31.19800
C  4.80800 45.66000 31.99300
H  12.39800 48.95800 28.27800
H  11.63800 48.01300 21.95000
H  5.48500 47.37600 22.77100
H  8.21600 49.15300 30.52100
H  10.89700 48.49200 30.57100
H  11.18300 50.81600 29.45800
H  10.38200 50.74000 30.95300
H  9.50700 50.93700 29.36900
H  9.73000 46.61900 31.09800
H  8.08000 46.25500 30.88500
H  7.73700 48.35900 32.53600
H  9.41200 47.88000 32.96600
H  15.18600 48.23300 26.52100
H  14.30000 49.20500 27.67600
H  14.92800 49.96100 26.35500
H  16.05300 48.61400 22.72700
H  15.81300 47.60600 24.20500
H  15.81600 49.34800 24.32100
H  9.87400 47.19700 20.47500
H  7.09500 48.02900 20.69700
H  8.29500 49.90700 20.52600
H  9.49200 49.29200 19.33100
H  10.10400 49.76000 20.89300
H  7.07000 45.28600 21.46000
H  8.19500 45.34400 20.14300
H  6.55800 45.39100 18.76900
H  5.86000 46.86100 19.38900
H  5.33200 45.37800 19.97800
H  2.85400 46.88700 25.32800
H  3.58300 47.46300 23.70500
H  3.04600 48.63200 24.98700
H  5.51400 48.64500 29.73100
H  3.73000 45.58200 31.85200
H  5.05800 45.72800 33.05200
H  5.18000 44.66100 31.76300

