79

Mg 24.66900 1.53100 28.76300
C  26.67100 1.26100 31.62700
C  21.92900 1.74400 30.75700
C  22.75900 1.65300 25.88800
C  27.44700 0.78500 26.81500
N  24.40400 1.63600 30.92400
C  25.31300 1.56100 31.96100
C  24.67900 1.67600 33.36500
C  23.16500 1.51400 33.08000
C  23.14100 1.66000 31.43900
C  22.44600 0.18000 33.45300
C  25.14900 3.02700 34.06100
C  25.91200 3.03400 35.44400
H  25.27400 3.92700 36.56400
N  22.70500 1.78300 28.41600
C  21.75200 1.86600 29.34100
C  20.47800 2.03700 28.69100
C  20.68700 1.86400 27.31500
C  22.09800 1.66800 27.16000
C  19.13100 2.17100 29.48700
C  19.62200 1.65800 26.15900
O  19.99900 1.42400 25.01600
C  18.24400 1.81900 26.39600
N  25.05100 1.25600 26.70400
C  24.13800 1.50600 25.71900
C  24.71300 1.52800 24.29300
C  26.25800 1.35900 24.56800
C  26.25300 1.14800 26.11700
C  24.23000 0.48100 23.41400
C  27.13000 2.53600 24.05700
C  27.21400 3.74800 25.03100
N  26.61800 0.97400 29.12600
C  27.62200 0.78300 28.19100
C  28.85800 0.64100 28.91300
C  28.52300 0.71300 30.26100
C  27.15100 1.02100 30.34400
C  30.20100 0.36100 28.41000
C  28.98500 0.65500 31.61900
O  30.11700 0.40300 31.97500
C  27.86400 1.11500 32.58000
C  27.60000 -0.03400 33.51300
O  26.69600 -0.85000 33.54500
O  28.54900 -0.04900 34.48100
C  28.64000 -1.15700 35.39100
H  21.10800 1.90700 31.46000
H  22.26300 1.73100 24.91900
H  28.36000 0.61700 26.23900
H  24.98000 0.86800 34.03300
H  22.56400 2.33900 33.46300
H  22.01700 -0.26800 32.55700
H  21.53100 0.28700 34.03600
H  23.05900 -0.51900 34.02100
H  24.24000 3.61400 34.19000
H  25.79000 3.53000 33.33700
H  26.91700 3.41400 35.26300
H  26.07300 2.00300 35.76100
H  19.43000 2.62800 30.43000
H  18.80100 1.13700 29.58800
H  18.29600 2.75200 29.09500
H  17.98100 2.61000 27.09900
H  17.75000 0.89600 26.70000
H  17.76900 2.05000 25.44300
H  24.51300 2.45700 23.75700
H  26.70900 0.45500 24.15900
H  23.23100 0.78800 23.10600
H  24.10000 -0.33800 24.12200
H  24.92000 0.23000 22.60800
H  26.75000 2.93900 23.11900
H  28.15400 2.21200 23.87300
H  26.28200 3.96900 25.55000
H  27.44100 4.66700 24.48900
H  27.99500 3.57100 25.77000
H  31.00900 0.67400 29.07100
H  30.34300 0.83500 27.43900
H  30.30900 -0.68600 28.12500
H  28.13400 2.07400 33.02300
H  28.70200 -2.07400 34.80600
H  27.92300 -1.25600 36.20500
H  29.61800 -0.97900 35.83600

