79

Mg -9.50000 18.30800 42.93000
C  -5.97700 17.58300 42.80900
C  -8.85300 21.46900 41.75300
C  -12.88300 18.85900 42.69800
C  -9.98800 14.90900 43.28700
N  -7.56900 19.31400 42.34100
C  -6.24700 18.90800 42.49400
C  -5.30100 20.03500 42.13100
C  -6.24600 21.29300 41.81000
C  -7.64600 20.68000 41.95100
C  -5.95900 22.50000 42.68300
C  -4.45800 19.79100 40.84500
C  -4.97800 18.73700 39.81500
H  -4.71700 19.06500 38.34500
N  -10.74400 19.89000 42.27100
C  -10.26800 21.13100 41.85700
C  -11.41200 22.05600 41.55600
C  -12.58400 21.28400 41.72900
C  -12.13200 19.89500 42.21900
C  -11.23900 23.63600 41.26500
C  -14.00600 21.75600 41.46000
O  -14.25700 22.94400 41.16200
C  -15.22000 20.89600 41.54800
N  -11.18000 17.02100 42.93000
C  -12.41900 17.56300 42.98600
C  -13.36300 16.45400 43.42900
C  -12.50500 15.12700 43.24400
C  -11.11100 15.70000 43.12500
C  -14.08300 16.64800 44.74500
C  -12.94000 14.23900 41.95900
C  -12.72300 12.71300 42.16200
N  -8.28000 16.60300 43.07200
C  -8.66200 15.30200 43.24700
C  -7.49900 14.40000 43.30700
C  -6.44100 15.30200 43.18200
C  -6.95100 16.60000 43.07700
C  -7.57500 12.86900 43.39400
C  -4.96900 15.42700 43.28600
O  -4.14700 14.52700 43.37300
C  -4.63700 16.88600 42.95200
C  -3.70500 17.34000 43.98800
O  -2.51100 17.53100 43.88300
O  -4.38200 17.37500 45.15600
C  -3.49600 17.29100 46.39500
H  -8.73200 22.53800 41.56200
H  -13.97200 18.93000 42.74500
H  -10.25800 13.90300 43.61400
H  -4.66900 20.15400 43.01100
H  -6.20300 21.76100 40.82600
H  -6.82200 22.69300 43.32100
H  -5.59100 23.29800 42.03900
H  -5.12700 22.37100 43.37600
H  -3.49500 19.51700 41.27600
H  -4.19500 20.71300 40.32700
H  -6.04700 18.74500 40.02600
H  -4.59700 17.75100 40.08100
H  -11.82300 23.90200 40.38400
H  -10.25800 23.96600 40.92500
H  -11.51600 24.30600 42.07900
H  -15.45300 20.68500 42.59100
H  -14.84800 20.01600 41.02300
H  -16.08300 21.33000 41.04200
H  -14.09200 16.48700 42.61900
H  -12.55000 14.55000 44.16800
H  -13.94100 17.61100 45.23500
H  -13.78100 15.88300 45.46100
H  -15.14300 16.43600 44.61000
H  -12.33300 14.54200 41.10600
H  -13.97700 14.33100 41.63900
H  -12.35900 12.35200 43.12400
H  -11.79400 12.38000 41.70000
H  -13.58300 12.14700 41.80300
H  -6.63400 12.58500 43.86600
H  -7.59500 12.38500 42.41800
H  -8.41200 12.55900 44.02000
H  -4.12900 16.86200 41.98800
H  -2.87800 18.18900 46.36800
H  -3.07700 16.28900 46.48400
H  -4.06600 17.37900 47.31900

