79

Mg -2.32100 17.14200 25.75200
C  -2.39500 14.74800 28.43900
C  -3.24400 19.48100 28.05900
C  -2.33700 19.31000 23.29900
C  -2.18100 14.47300 23.56200
N  -2.84000 17.02300 27.98200
C  -2.72800 16.00900 28.86600
C  -3.24100 16.42300 30.27900
C  -3.77800 17.82100 30.00900
C  -3.33700 18.17200 28.54200
C  -5.33300 17.95600 30.07000
C  -2.13200 16.50800 31.39300
C  -2.20100 15.58600 32.63100
H  -2.74400 16.20800 33.91000
N  -2.61600 19.09100 25.71500
C  -2.86800 19.88900 26.78900
C  -2.88300 21.24500 26.36200
C  -2.53700 21.27800 25.01800
C  -2.52200 19.89800 24.61800
C  -3.20000 22.41800 27.23100
C  -2.24900 22.47100 24.18000
O  -2.02500 22.33600 23.00500
C  -2.03500 23.89100 24.80100
N  -2.59300 16.84100 23.68700
C  -2.41100 17.95000 22.93400
C  -2.26900 17.56600 21.47500
C  -2.05100 16.01700 21.52100
C  -2.27400 15.78100 23.00300
C  -3.51900 17.92900 20.70000
C  -0.69900 15.54900 20.81900
C  0.47100 15.90600 21.74700
N  -2.29000 15.06700 25.90400
C  -2.25000 14.09800 24.93700
C  -2.04200 12.77000 25.46000
C  -2.09500 12.95800 26.84600
C  -2.19000 14.36800 27.07700
C  -1.95400 11.52800 24.69800
C  -2.02600 12.28400 28.14700
O  -1.87000 11.13300 28.40400
C  -2.15400 13.44100 29.28000
C  -0.94300 13.40100 30.07900
O  0.00600 14.10700 29.89900
O  -1.13700 12.58300 31.24700
C  0.10400 12.37700 32.08300
H  -3.47600 20.24700 28.80200
H  -2.16300 19.97000 22.44600
H  -2.00800 13.69300 22.81700
H  -4.06200 15.77400 30.58400
H  -3.47200 18.57800 30.73200
H  -5.63100 17.49900 31.01300
H  -5.76800 17.60600 29.13400
H  -5.59100 18.98400 30.32700
H  -2.13800 17.50100 31.84300
H  -1.13800 16.37500 30.96600
H  -1.25500 15.07100 32.79900
H  -2.87400 14.76400 32.38600
H  -2.45600 23.21100 27.30000
H  -3.50500 22.15500 28.24400
H  -4.12200 22.75800 26.76000
H  -1.70200 24.62500 24.06700
H  -1.29100 23.89100 25.59700
H  -2.98400 24.32000 25.12200
H  -1.42000 18.14700 21.11400
H  -2.84900 15.50600 20.98300
H  -3.21100 18.69400 19.98800
H  -4.26400 18.49300 21.26100
H  -3.97900 17.06200 20.22500
H  -0.58100 16.00400 19.83600
H  -0.80600 14.47500 20.67200
H  0.61600 15.08300 22.44700
H  0.38100 16.95600 22.02700
H  1.29000 15.77200 21.04200
H  -1.14800 11.53100 23.96400
H  -2.93900 11.22900 24.33900
H  -1.68700 10.71400 25.37200
H  -2.87900 13.17600 30.04900
H  -0.05100 12.89200 33.03100
H  1.03800 12.80100 31.71300
H  0.30700 11.33700 32.33900

