79

Mg 41.44800 41.66000 26.63900
C  40.70000 43.93700 29.27500
C  42.88400 39.54800 29.05600
C  42.30800 39.69200 24.22300
C  40.44400 44.19400 24.33400
N  41.57200 41.72600 28.85300
C  41.12500 42.64100 29.76100
C  41.21900 42.14700 31.18300
C  41.92700 40.75200 31.04300
C  42.21500 40.67500 29.49400
C  43.21300 40.57100 31.97700
C  39.90300 42.17200 32.01300
C  39.89100 43.36700 33.10800
H  39.47300 43.03400 34.54500
N  42.41600 39.86200 26.63900
C  42.96500 39.11700 27.69100
C  43.43000 37.82200 27.19400
C  43.13400 37.79300 25.81100
C  42.62700 39.12700 25.48000
C  44.00300 36.82900 28.15900
C  43.30900 36.73600 24.75600
O  43.05400 36.88600 23.59200
C  43.85800 35.47600 25.25800
N  41.49900 42.00400 24.51600
C  41.79600 40.95500 23.81900
C  41.53300 41.18200 22.32200
C  40.60800 42.39600 22.38000
C  40.90300 42.98300 23.79800
C  42.82300 41.40800 21.49800
C  39.05900 42.13000 22.13600
C  38.45800 40.85100 22.72700
N  40.72800 43.69500 26.70100
C  40.46100 44.52700 25.69400
C  40.04900 45.81800 26.28900
C  40.18200 45.68700 27.65800
C  40.54400 44.28000 27.89400
C  39.43500 46.91200 25.53900
C  39.95400 46.28200 28.95700
O  39.57800 47.39100 29.15000
C  40.30300 45.23200 30.03900
C  41.46100 45.78600 30.71600
O  42.59700 45.60800 30.40200
O  41.10100 46.34200 31.91000
C  42.12700 46.59700 32.92900
H  43.19700 38.71500 29.69000
H  42.49500 39.18000 23.27700
H  40.04900 44.91300 23.61400
H  41.93900 42.85800 31.58700
H  41.33900 39.87700 31.32100
H  43.39800 41.41100 32.64600
H  44.03800 40.57500 31.26500
H  43.16200 39.65400 32.56400
H  39.81500 41.18200 32.46000
H  39.07500 42.43000 31.35300
H  39.11600 44.07300 32.81200
H  40.83500 43.91200 33.10800
H  44.55600 36.03500 27.65700
H  43.24700 36.43800 28.83800
H  44.74500 37.33600 28.77600
H  43.90400 34.79800 24.40600
H  43.20700 35.05200 26.02300
H  44.85800 35.67200 25.64300
H  41.12700 40.27200 21.88000
H  40.86400 43.23100 21.72800
H  42.88000 40.76100 20.62200
H  43.76600 41.28900 22.03200
H  42.91600 42.44200 21.16600
H  38.83900 42.01900 21.07500
H  38.59500 42.98600 22.62600
H  38.66300 40.02300 22.04800
H  37.40300 41.12300 22.75900
H  38.85400 40.72900 23.73500
H  38.70600 47.39700 26.18800
H  38.96000 46.57900 24.61600
H  40.23700 47.59600 25.26100
H  39.58100 44.89700 30.78300
H  42.24800 47.67900 32.98300
H  43.11700 46.17900 32.74500
H  41.71100 46.28000 33.88600

