79

Mg 1.63100 -1.84300 44.36900
C  5.06700 -1.41300 43.72700
C  0.92300 0.63700 41.99400
C  -1.60800 -2.75700 44.30800
C  2.50000 -4.91800 45.91900
N  2.88000 -0.57500 43.02700
C  4.24100 -0.54400 43.00300
C  4.73100 0.57900 42.00200
C  3.48600 1.39800 41.82000
C  2.33000 0.44400 42.33800
C  3.35700 2.81700 42.49900
C  5.43000 -0.12700 40.71800
C  6.53600 0.69700 40.00900
H  6.61000 0.73400 38.46200
N  -0.13700 -1.15000 43.28100
C  -0.24200 -0.09600 42.40100
C  -1.62000 0.16200 42.04900
C  -2.43500 -0.75700 42.84000
C  -1.44100 -1.59900 43.51900
C  -2.10300 1.13300 40.97900
C  -3.90100 -0.81300 42.83600
O  -4.58900 -0.02000 42.20900
C  -4.57500 -2.03600 43.48500
N  0.64500 -3.63100 45.09600
C  -0.72600 -3.62900 44.96700
C  -1.25700 -5.00700 45.55700
C  0.04100 -5.73300 46.04200
C  1.13600 -4.70700 45.71500
C  -2.32100 -4.93600 46.69900
C  0.22900 -7.19300 45.53200
C  0.84500 -8.13500 46.52900
N  3.42700 -2.83200 45.02800
C  3.65100 -4.05600 45.62500
C  5.05100 -4.25800 45.84300
C  5.66000 -3.21500 45.14200
C  4.60900 -2.36800 44.65000
C  5.68400 -5.42500 46.55800
C  6.98000 -2.67200 44.70000
O  8.12300 -3.00500 44.88600
C  6.66500 -1.44300 43.75400
C  7.35500 -0.26700 44.25300
O  8.25500 0.34300 43.77200
O  6.70800 0.18800 45.39200
C  7.12700 1.57700 45.73000
H  0.69100 1.47500 41.33400
H  -2.60200 -3.20200 44.38000
H  2.72400 -5.77200 46.56100
H  5.57000 1.02000 42.54100
H  3.45500 1.44200 40.73100
H  4.01400 3.05600 43.33500
H  2.41400 2.92000 43.03600
H  3.25800 3.57800 41.72500
H  4.61800 -0.11600 39.99100
H  5.49900 -1.19500 40.92500
H  7.46500 0.28800 40.40700
H  6.57400 1.74200 40.31600
H  -3.02800 0.84200 40.48000
H  -1.44100 1.22300 40.11800
H  -2.14800 2.14600 41.38000
H  -4.52900 -2.06100 44.57400
H  -4.27400 -2.97000 43.01000
H  -5.62600 -1.94100 43.21500
H  -1.76000 -5.59100 44.78700
H  -0.10400 -5.84200 47.11700
H  -2.40900 -5.85300 47.28000
H  -3.30300 -4.62600 46.34000
H  -1.85500 -4.13300 47.27100
H  0.85400 -7.18400 44.63900
H  -0.70800 -7.61700 45.17100
H  0.29600 -9.07700 46.50900
H  0.75800 -7.83800 47.57500
H  1.89900 -8.30000 46.30700
H  6.74100 -5.17400 46.65100
H  5.55600 -6.38300 46.05200
H  5.22100 -5.44500 47.54400
H  7.06500 -1.63400 42.75800
H  6.71200 1.88600 46.68900
H  6.75500 2.29100 44.99600
H  8.20200 1.75200 45.70000

