79

Mg 24.86100 -5.45300 46.22000
C  27.28900 -3.53500 44.48400
C  22.57700 -4.30000 43.88500
C  23.01800 -8.14000 46.90100
C  27.43500 -6.62000 48.25500
N  24.87000 -3.95300 44.48400
C  26.02400 -3.36800 43.95100
C  25.59700 -2.53500 42.73600
C  24.06700 -2.39400 42.86600
C  23.84100 -3.58300 43.77400
C  23.60900 -1.03800 43.45000
C  26.16700 -3.14700 41.51500
C  26.51900 -2.03100 40.39900
H  26.06800 -2.34100 38.96100
N  23.01900 -6.04300 45.53600
C  22.19300 -5.46500 44.65900
C  20.99400 -6.24900 44.44600
C  21.01600 -7.25400 45.38600
C  22.38100 -7.20300 46.00700
C  19.90900 -5.90000 43.39600
C  19.94500 -8.35400 45.56200
O  18.83000 -8.23800 45.01900
C  20.12300 -9.50600 46.54400
N  25.12400 -7.08000 47.39900
C  24.25900 -8.14300 47.48300
C  24.58400 -9.06000 48.71700
C  26.09000 -8.73800 48.87400
C  26.17600 -7.35700 48.22700
C  23.83900 -8.59600 49.90400
C  26.98400 -9.74700 48.08500
C  27.70800 -10.80100 48.91300
N  27.03500 -5.06500 46.43800
C  27.89400 -5.64800 47.31200
C  29.24600 -5.10000 47.08900
C  29.04000 -4.26400 46.00200
C  27.71000 -4.36100 45.60500
C  30.45900 -5.22800 47.91200
C  29.77100 -3.30700 45.09500
O  30.96400 -3.13600 45.02400
C  28.64400 -2.84400 44.08900
C  28.53200 -1.38500 44.14000
O  28.37000 -0.77600 45.17700
O  28.71300 -0.75100 42.91700
C  28.66900 0.77300 42.95200
H  21.88800 -3.84800 43.16800
H  22.37700 -8.97200 47.19800
H  28.13200 -7.14200 48.91500
H  26.02500 -1.56300 42.98100
H  23.51100 -2.63600 41.96000
H  24.35600 -0.27000 43.65000
H  23.01400 -1.31600 44.32000
H  22.91400 -0.46500 42.83600
H  25.40100 -3.88600 41.27800
H  27.05300 -3.72100 41.78600
H  27.60300 -2.13200 40.44200
H  26.16000 -1.04900 40.70700
H  19.97900 -4.94500 42.87600
H  18.92100 -5.87600 43.85600
H  20.01900 -6.68400 42.64700
H  19.24600 -10.09800 46.80400
H  20.38800 -8.96300 47.45100
H  20.93300 -10.15300 46.20700
H  24.39900 -10.11300 48.50300
H  26.47000 -8.72000 49.89500
H  22.76900 -8.55400 49.70100
H  24.17100 -7.59300 50.17400
H  23.94200 -9.30200 50.72800
H  27.73400 -9.21500 47.50000
H  26.41800 -10.37800 47.40000
H  27.74400 -10.45300 49.94600
H  28.71800 -10.96500 48.53800
H  27.13900 -11.72900 48.86600
H  30.78100 -4.21600 48.15700
H  31.17800 -5.82400 47.35000
H  30.30400 -5.80800 48.82200
H  28.92300 -3.07500 43.06100
H  27.81600 1.03700 43.57700
H  28.51200 1.06300 41.91300
H  29.55400 1.26300 43.35800

