79

Mg 47.85300 16.30100 28.99800
C  45.83100 16.33500 31.92100
C  50.13400 18.18500 30.70000
C  49.55700 16.70600 26.08800
C  45.06300 15.26600 27.14600
N  48.01600 17.11000 31.09300
C  47.05200 17.00500 32.08600
C  47.52600 17.72500 33.37800
C  48.74500 18.49800 32.88500
C  48.96300 17.91300 31.49400
C  48.69500 20.10700 32.95100
C  47.78700 16.73200 34.56600
C  47.38200 17.08700 36.01500
H  47.50600 18.52800 36.45400
N  49.70700 17.20700 28.47300
C  50.53700 17.80900 29.34400
C  51.72500 18.20300 28.68000
C  51.58700 17.77800 27.29900
C  50.27500 17.12000 27.23800
C  52.78600 19.04300 29.32500
C  52.61400 17.88400 26.14700
O  52.25100 17.51600 25.02300
C  53.98500 18.52500 26.29200
N  47.44300 15.89100 26.85100
C  48.33100 16.09900 25.89900
C  47.71100 15.81900 24.53400
C  46.19000 15.41400 24.88200
C  46.25100 15.57000 26.39400
C  47.72900 17.01400 23.44700
C  45.74800 14.02300 24.32300
C  44.67600 14.09100 23.28600
N  45.88800 15.68600 29.41500
C  44.88500 15.23600 28.55600
C  43.79000 14.76500 29.36900
C  44.11100 15.13200 30.73500
C  45.39200 15.75400 30.67100
C  42.54800 14.08600 28.89800
C  43.65300 15.12500 32.10300
O  42.67400 14.60400 32.59400
C  44.66500 16.00600 32.88900
C  44.04500 17.27200 33.39400
O  43.87300 18.29200 32.77900
O  43.77800 17.11000 34.68200
C  43.36200 18.28600 35.43300
H  50.86500 18.92100 31.04200
H  49.88100 16.90500 25.06400
H  44.18100 14.85500 26.65000
H  46.80300 18.42800 33.79100
H  49.59500 18.17400 33.48600
H  48.77300 20.52200 31.94600
H  49.57000 20.51000 33.46000
H  47.80200 20.35500 33.52500
H  48.78200 16.28800 34.52500
H  47.23400 15.80500 34.42000
H  48.01300 16.44000 36.62500
H  46.33400 16.79700 36.08700
H  53.82200 18.76400 29.13400
H  52.70600 18.86600 30.39800
H  52.63700 20.09400 29.07500
H  54.40800 18.85800 25.34500
H  54.55700 17.72000 26.75400
H  53.80000 19.42500 26.87800
H  48.21800 14.93700 24.14200
H  45.48800 16.17100 24.53100
H  48.19900 16.61900 22.54600
H  48.35400 17.83800 23.79000
H  46.76100 17.47200 23.24200
H  45.34700 13.43900 25.15100
H  46.53300 13.43200 23.85100
H  44.75300 13.26500 22.58000
H  44.73300 15.06800 22.80600
H  43.75700 13.93100 23.85000
H  42.39600 14.68400 28.00000
H  41.65100 14.14100 29.51500
H  42.77400 13.04600 28.66700
H  44.99000 15.43500 33.75800
H  42.28400 18.40900 35.33700
H  43.92900 19.15800 35.10700
H  43.65700 18.24100 36.48200

