79

Mg 0.84900 -1.23000 43.53300
C  4.31300 -0.85800 42.75100
C  0.25300 1.60500 41.75500
C  -2.50000 -1.97200 43.68800
C  1.55300 -4.34500 44.81400
N  2.17400 0.18600 42.43000
C  3.53900 0.22800 42.29000
C  4.03500 1.46800 41.48100
C  2.69500 2.26600 41.34400
C  1.62700 1.27200 41.82400
C  2.73900 3.57300 42.12700
C  4.77000 1.00100 40.07200
C  5.88300 2.06000 39.68300
H  5.62600 2.77100 38.34200
N  -0.84700 -0.22400 42.90000
C  -0.87800 0.94700 42.25100
C  -2.23800 1.30800 42.05100
C  -3.07900 0.34300 42.59400
C  -2.15700 -0.71200 43.15000
C  -2.65700 2.56200 41.42100
C  -4.59200 0.37700 42.63600
O  -5.23200 1.25300 42.09800
C  -5.37800 -0.57300 43.45600
N  -0.29500 -2.85200 44.21200
C  -1.66800 -2.97800 44.11500
C  -2.16800 -4.40200 44.35000
C  -0.84400 -5.22100 44.61800
C  0.23000 -4.07900 44.52800
C  -3.25400 -4.49900 45.51700
C  -0.54900 -6.41300 43.56100
C  -0.83900 -7.76400 44.16400
N  2.53000 -2.37300 43.93800
C  2.63800 -3.60600 44.55400
C  4.00400 -3.97500 44.51000
C  4.65300 -2.87400 43.86300
C  3.74700 -1.96500 43.50400
C  4.57300 -5.33300 45.02700
C  6.03600 -2.33200 43.52400
O  7.16300 -2.89700 43.53900
C  5.81000 -0.99700 42.84700
C  6.60200 0.04800 43.57100
O  6.42000 0.36200 44.73400
O  7.55800 0.52900 42.79000
C  8.59600 1.41900 43.43400
H  0.13000 2.61600 41.36100
H  -3.52700 -2.34300 43.69300
H  1.82000 -5.29600 45.27900
H  4.68800 1.99100 42.17900
H  2.46800 2.34300 40.28100
H  2.10800 3.50600 43.01400
H  2.58300 4.44800 41.49500
H  3.75700 3.78300 42.45400
H  4.01000 0.83000 39.30900
H  5.27000 0.05200 40.26900
H  6.88700 1.63600 39.68700
H  5.92300 2.86700 40.41500
H  -2.86200 2.29600 40.38400
H  -1.90200 3.34600 41.47200
H  -3.54300 2.95300 41.92000
H  -6.39300 -0.17500 43.47100
H  -5.03600 -0.68800 44.48400
H  -5.35600 -1.47700 42.84700
H  -2.68400 -4.73000 43.44700
H  -0.72600 -5.51500 45.66100
H  -3.57300 -3.52600 45.89100
H  -2.82700 -5.18800 46.24500
H  -4.10100 -5.05500 45.11500
H  0.50900 -6.42600 43.29900
H  -1.14500 -6.29500 42.65500
H  0.12800 -8.26400 44.11300
H  -1.50300 -8.45900 43.64900
H  -1.25200 -7.69800 45.17100
H  4.85900 -6.13600 44.34800
H  3.91700 -5.73200 45.80100
H  5.50300 -4.94800 45.44500
H  6.31400 -1.11100 41.88800
H  9.55800 1.10500 43.03000
H  8.66000 1.38500 44.52200
H  8.27700 2.42200 43.15300

