79

Mg -4.44400 24.74000 25.92100
C  -2.96300 26.12100 28.84000
C  -6.40800 22.85300 28.01000
C  -5.26400 22.89700 23.23500
C  -2.05800 26.42900 23.99600
N  -4.55200 24.48100 28.15800
C  -3.92100 25.23700 29.12300
C  -4.55200 25.01500 30.49300
C  -5.35900 23.73800 30.22200
C  -5.49200 23.63600 28.69500
C  -4.81800 22.38500 30.77700
C  -5.38400 26.33500 30.93600
C  -5.54300 26.66700 32.42900
H  -5.10400 25.58900 33.39400
N  -5.71200 23.16300 25.65600
C  -6.50000 22.63000 26.63100
C  -7.36400 21.63700 25.93600
C  -6.91600 21.49800 24.63100
C  -5.94100 22.58900 24.42500
C  -8.58000 21.00300 26.64700
C  -7.32600 20.53900 23.55400
O  -6.80800 20.42200 22.45400
C  -8.30900 19.47600 23.92000
N  -3.63500 24.50500 23.93000
C  -4.27100 23.85600 22.98300
C  -3.43400 23.94000 21.67600
C  -2.59400 25.20500 21.89100
C  -2.77000 25.42000 23.38700
C  -2.67100 22.65300 21.29500
C  -2.94400 26.47900 20.98800
C  -1.68600 27.23300 20.43600
N  -2.87700 26.04200 26.27400
C  -1.97100 26.70000 25.41300
C  -1.14700 27.63400 26.16400
C  -1.50300 27.45200 27.53300
C  -2.52200 26.44300 27.53600
C  -0.18200 28.63200 25.58400
C  -1.18500 27.82400 28.84800
O  -0.27800 28.49100 29.35200
C  -2.14500 27.03000 29.77100
C  -1.44900 26.40900 30.83200
O  -0.63000 25.50600 30.67500
O  -1.73700 26.97200 32.05300
C  -1.10500 26.25800 33.22500
H  -7.13300 22.32700 28.63500
H  -5.40400 22.29300 22.33600
H  -1.35400 26.92400 23.32500
H  -3.77400 24.77000 31.21600
H  -6.32800 24.01200 30.64000
H  -3.99300 22.71700 31.40700
H  -4.35900 21.77400 30.00000
H  -5.46900 21.79400 31.42100
H  -6.35700 26.23500 30.45500
H  -5.00600 27.28500 30.55600
H  -6.53400 27.05300 32.66800
H  -4.97700 27.57100 32.65000
H  -9.35700 20.94300 25.88400
H  -8.79700 21.63900 27.50500
H  -8.26700 20.02000 26.99800
H  -8.14700 18.93500 24.85200
H  -8.30700 18.73500 23.12100
H  -9.26100 19.99200 24.04900
H  -4.09600 24.09500 20.82400
H  -1.56700 24.84900 21.81400
H  -1.59400 22.78000 21.18200
H  -2.96600 22.20600 20.34600
H  -2.67400 21.93000 22.11100
H  -3.48500 27.16500 21.64000
H  -3.58000 26.12700 20.17600
H  -1.68400 28.09000 21.11000
H  -1.87400 27.65700 19.44900
H  -0.82500 26.58600 20.60300
H  0.58200 28.81800 26.33900
H  -0.53200 29.61300 25.26100
H  0.29400 28.23700 24.68700
H  -2.81800 27.79900 30.15200
H  -1.47100 26.63800 34.17900
H  -0.02400 26.36700 33.14300
H  -1.31900 25.19300 33.13100

