79

Mg 54.96200 23.91500 44.64700
C  52.35000 26.10300 43.32000
C  53.51800 21.40000 42.84200
C  57.63900 22.15400 45.36300
C  56.47000 26.81600 46.01500
N  53.19000 23.86700 43.10700
C  52.27500 24.81000 42.76500
C  51.24000 24.32400 41.74500
C  51.53900 22.75300 41.80800
C  52.80400 22.62500 42.65200
C  50.33200 21.91200 42.34800
C  51.45400 24.92000 40.31900
C  50.24600 25.15400 39.37200
H  50.53800 25.85300 38.05700
N  55.47200 21.99300 44.24400
C  54.70200 21.10100 43.53300
C  55.43300 19.87800 43.47400
C  56.58600 19.99300 44.28000
C  56.61500 21.42400 44.74100
C  54.94800 18.60000 42.74200
C  57.57300 18.85800 44.65000
O  57.51900 17.85800 43.97900
C  58.75500 19.01900 45.69400
N  56.78200 24.47600 45.43800
C  57.75100 23.46900 45.68700
C  59.01400 24.13200 46.37100
C  58.67800 25.67900 46.38800
C  57.25700 25.70600 45.87500
C  59.19000 23.66500 47.83200
C  59.57300 26.58500 45.47600
C  61.11600 26.37800 45.50800
N  54.44300 26.00700 44.79200
C  55.10400 27.01000 45.51100
C  54.28800 28.19700 45.64000
C  53.16900 27.90500 44.76900
C  53.33700 26.55300 44.22000
C  54.61600 29.42600 46.48600
C  51.93900 28.42600 44.25000
O  51.45000 29.51900 44.46600
C  51.32000 27.27300 43.34000
C  50.99300 27.84900 42.02400
O  51.69900 28.63900 41.38000
O  49.67900 27.61800 41.80500
C  48.83600 28.45300 40.94700
H  53.06600 20.51200 42.39600
H  58.50700 21.58500 45.70200
H  57.03400 27.62300 46.48800
H  50.21400 24.57400 42.01400
H  51.77600 22.32400 40.83400
H  49.98900 21.32000 41.49900
H  49.43600 22.43500 42.68100
H  50.68900 21.35900 43.21700
H  52.16000 24.30700 39.75900
H  51.89200 25.91800 40.32500
H  49.47300 25.62000 39.98300
H  49.85700 24.15000 39.20000
H  55.64700 17.87300 42.32900
H  54.34700 18.94200 41.89900
H  54.17100 18.15000 43.36100
H  58.52900 19.43100 46.67800
H  59.52800 19.58600 45.17700
H  58.92900 17.94600 45.77600
H  59.84400 23.93100 45.69400
H  58.69100 26.17600 47.35800
H  60.06200 23.01400 47.89700
H  58.29900 23.14500 48.18300
H  59.39700 24.47400 48.53200
H  59.34600 27.61800 45.74000
H  59.19800 26.44800 44.46200
H  61.66800 27.20600 45.95300
H  61.55700 26.15500 44.53600
H  61.34400 25.55200 46.18200
H  55.00800 29.15400 47.46600
H  53.69300 29.95600 46.72100
H  55.25200 30.08600 45.89600
H  50.46100 26.77500 43.79000
H  49.16200 29.48000 41.11300
H  47.79200 28.29500 41.22000
H  48.86700 28.23200 39.88000

