79

Mg -11.32800 39.09200 41.86200
C  -9.80300 36.02900 40.83000
C  -8.71000 40.82000 40.36200
C  -12.91500 41.87300 42.53200
C  -14.14200 37.16800 42.78000
N  -9.55500 38.48300 40.72500
C  -9.12200 37.20600 40.50700
C  -7.75500 37.26900 39.83100
C  -7.33000 38.75800 39.88700
C  -8.60500 39.42500 40.40500
C  -6.14500 38.99400 40.91200
C  -7.83400 36.78400 38.37000
C  -6.73900 35.70000 37.91400
H  -5.83100 36.17600 36.81000
N  -10.91100 41.11000 41.55800
C  -9.76900 41.57600 40.95400
C  -9.79300 43.02800 41.09800
C  -11.00000 43.46500 41.74400
C  -11.63800 42.13600 42.04900
C  -8.73200 43.85200 40.47100
C  -11.46100 44.87800 42.11500
O  -10.70300 45.77100 41.87000
C  -12.75700 45.19700 42.77100
N  -13.34200 39.46100 42.28500
C  -13.72700 40.71200 42.64600
C  -15.13100 40.77700 43.02300
C  -15.61500 39.28200 42.96300
C  -14.29000 38.53600 42.58400
C  -15.33500 41.36000 44.46800
C  -16.84900 39.02800 41.93600
C  -18.18800 38.63600 42.44000
N  -11.78700 36.95700 42.03300
C  -13.01800 36.42600 42.40000
C  -12.87000 34.93000 42.20500
C  -11.57700 34.70500 41.65600
C  -11.03700 35.95300 41.52000
C  -13.84200 33.89500 42.48300
C  -10.56400 33.79300 41.13800
O  -10.60700 32.59200 41.12200
C  -9.29500 34.61600 40.64600
C  -8.21900 34.33300 41.63600
O  -8.01500 34.74300 42.77200
O  -7.43700 33.48300 40.93600
C  -6.33900 32.80700 41.59900
H  -7.80400 41.40600 40.19500
H  -13.50400 42.76600 42.75300
H  -15.04100 36.62400 43.07800
H  -7.06500 36.67100 40.42600
H  -6.94600 39.01000 38.89800
H  -5.53300 39.82800 40.56900
H  -5.52800 38.10400 41.03300
H  -6.43300 39.17300 41.94800
H  -7.66200 37.57700 37.64300
H  -8.78400 36.27300 38.21100
H  -7.29500 34.81800 37.59500
H  -6.22000 35.29900 38.78500
H  -7.78400 43.44600 40.82300
H  -8.69000 44.89700 40.77800
H  -8.85600 43.70900 39.39800
H  -13.56800 45.03800 42.06100
H  -12.65200 46.26400 42.97100
H  -12.90700 44.62900 43.68900
H  -15.54300 41.41500 42.24100
H  -15.75400 38.87500 43.96400
H  -16.03800 40.78700 45.07200
H  -15.74200 42.35100 44.26700
H  -14.49100 41.72400 45.05300
H  -16.45000 38.29900 41.23100
H  -16.99300 39.91200 41.31400
H  -18.55200 37.68600 42.04900
H  -18.99300 39.23600 42.01500
H  -18.29500 38.57000 43.52300
H  -13.58900 32.96200 41.98100
H  -14.79800 34.22400 42.07400
H  -14.02400 33.66900 43.53400
H  -8.98300 34.48900 39.60900
H  -6.37600 32.86000 42.68700
H  -5.39600 33.27500 41.31600
H  -6.38400 31.75300 41.32500

