79

Mg 6.25900 54.42900 40.79100
C  5.79800 51.15000 40.99200
C  9.41900 53.72100 39.15200
C  6.53100 57.68000 39.79700
C  2.92200 55.00100 41.68800
N  7.42400 52.55300 39.91000
C  6.99700 51.37000 40.25600
C  8.08900 50.35300 39.93200
C  9.41900 51.18300 39.84800
C  8.72000 52.56400 39.63100
C  10.45800 51.30300 41.01900
C  7.70700 49.45200 38.63100
C  6.95800 50.12600 37.49400
H  6.21900 49.13200 36.52700
N  7.85300 55.56800 39.77500
C  8.96000 55.09600 39.14900
C  9.71500 56.28900 38.66600
C  8.95400 57.43300 38.98100
C  7.69800 56.88700 39.47800
C  11.04300 56.29000 37.95400
C  9.39100 58.92300 38.67100
O  10.39300 59.11900 37.93700
C  8.64900 60.12700 39.22800
N  4.71500 56.04400 40.42700
C  5.25400 57.32100 40.29400
C  4.07300 58.29500 40.62800
C  2.79900 57.37300 40.88300
C  3.56000 56.04400 41.07100
C  4.44600 59.13100 41.90800
C  1.77400 57.36500 39.67300
C  2.30200 57.21600 38.29800
N  4.62800 53.34200 41.23000
C  3.36900 53.67200 41.70400
C  2.74400 52.45700 42.17400
C  3.66500 51.50300 41.96200
C  4.74600 52.06500 41.34000
C  1.43800 52.38200 42.86200
C  3.91700 50.12500 42.15400
O  3.21400 49.26100 42.68300
C  5.28300 49.85400 41.50700
C  4.96600 48.90800 40.40500
O  4.61200 49.29600 39.33200
O  5.32800 47.61900 40.82000
C  5.20700 46.48400 39.84200
H  10.43800 53.58400 38.78200
H  6.62700 58.75700 39.64200
H  1.89600 55.16600 42.02400
H  8.07700 49.55700 40.67600
H  10.01300 51.05800 38.94300
H  11.46900 51.06300 40.69000
H  10.17800 50.79400 41.94200
H  10.51100 52.36200 41.26900
H  7.14000 48.59100 38.98500
H  8.61500 49.05300 38.17900
H  7.72100 50.67500 36.94300
H  6.05400 50.62500 37.84300
H  11.00900 56.83500 37.01000
H  11.49000 55.31900 37.74200
H  11.77300 56.79300 38.58800
H  8.20500 59.84600 40.18300
H  7.91200 60.45800 38.49700
H  9.31400 60.98900 39.27000
H  3.97600 58.96000 39.77000
H  2.33300 57.70900 41.80900
H  4.13500 58.74500 42.87800
H  3.97200 60.11000 41.84400
H  5.51300 59.34300 41.98300
H  1.21100 58.29400 39.75800
H  1.09000 56.53300 39.84000
H  1.60800 56.59000 37.73800
H  3.25800 56.70100 38.21100
H  2.34800 58.21000 37.85300
H  1.05300 51.37700 42.69300
H  0.66500 53.06800 42.51600
H  1.67200 52.36100 43.92600
H  6.01000 49.34000 42.13600
H  6.21000 46.27700 39.46900
H  4.44700 46.80700 39.13100
H  4.98600 45.60000 40.43900

