79

Mg 46.08900 4.44700 47.25900
C  43.95300 7.28200 46.61400
C  43.41100 2.53400 46.50700
C  48.18600 1.91200 47.28100
C  48.76900 6.75300 47.63100
N  43.84200 4.88900 46.67500
C  43.19600 6.06900 46.60600
C  41.70600 5.89600 46.26200
C  41.54500 4.35200 46.45700
C  43.01100 3.88400 46.56700
C  40.68300 3.87900 47.70300
C  41.27100 6.41000 44.82600
C  40.12100 7.48600 44.71800
H  40.40200 8.57000 43.68600
N  45.83500 2.41800 47.03600
C  44.65100 1.86000 46.84800
C  44.89400 0.47300 46.63800
C  46.26200 0.19300 46.75300
C  46.85800 1.45600 47.11500
C  43.73100 -0.56000 46.38400
C  46.97100 -1.12200 46.50300
O  46.34600 -2.08800 46.22100
C  48.41200 -1.24800 46.71600
N  48.23700 4.33700 47.13600
C  48.81600 3.13400 47.39400
C  50.24600 3.31000 47.90300
C  50.44600 4.86600 47.83800
C  49.09400 5.36100 47.46400
C  50.64400 2.65000 49.23000
C  51.47700 5.41200 46.78600
C  52.70300 6.11500 47.38400
N  46.38200 6.60200 47.06900
C  47.50700 7.33900 47.30400
C  47.15700 8.77200 47.16500
C  45.78600 8.81700 46.89100
C  45.34800 7.45900 46.83900
C  48.13200 9.90100 47.38300
C  44.69400 9.70500 46.67800
O  44.56700 10.94900 46.73800
C  43.46600 8.69100 46.40400
C  42.44800 9.05500 47.48200
O  42.28300 8.51100 48.58700
O  41.60600 10.04200 46.91500
C  40.51800 10.45200 47.88200
H  42.59100 1.82900 46.35100
H  48.91700 1.12100 47.45400
H  49.58000 7.46800 47.78700
H  41.15900 6.53400 46.95600
H  41.21700 3.91600 45.51400
H  39.84600 3.27000 47.36100
H  40.31300 4.72400 48.28500
H  41.40900 3.35400 48.32400
H  40.96500 5.57700 44.19300
H  42.23900 6.71700 44.42900
H  39.91800 8.04000 45.63500
H  39.18500 6.96800 44.50600
H  43.64600 -0.67100 45.30300
H  42.77000 -0.16100 46.70900
H  43.74500 -1.56400 46.80900
H  48.93400 -0.61800 45.99600
H  48.72400 -2.26600 46.48000
H  48.70700 -1.01900 47.74000
H  50.86800 2.77500 47.18500
H  50.55200 5.27200 48.84400
H  51.23900 1.74500 49.10500
H  49.70400 2.35900 49.69900
H  51.26300 3.35100 49.79000
H  51.02600 6.28700 46.31800
H  51.70800 4.61400 46.08000
H  52.27600 6.73000 48.17700
H  53.21900 6.82900 46.74200
H  53.39600 5.37200 47.77800
H  47.52300 10.57800 47.98100
H  48.47500 10.23000 46.40200
H  48.97600 9.48500 47.93400
H  43.08800 8.91000 45.40500
H  40.06300 11.41600 47.65100
H  40.92500 10.53300 48.88900
H  39.65100 9.79300 47.83600

