79

Mg 53.35600 23.05100 44.61300
C  51.61300 25.97700 43.85400
C  50.87000 21.17700 43.17800
C  55.44000 20.26900 44.60000
C  55.80300 24.93700 46.07500
N  51.49700 23.55600 43.59000
C  51.01500 24.76200 43.33300
C  49.68900 24.61400 42.63700
C  49.20500 23.21900 43.11100
C  50.58900 22.55400 43.31400
C  48.17100 23.15700 44.33400
C  49.86700 24.68200 41.08000
C  51.13300 25.32900 40.44100
H  50.99100 25.91600 39.08700
N  53.13900 20.95500 44.19000
C  52.04600 20.44900 43.51500
C  52.20300 19.07200 43.30000
C  53.58100 18.80700 43.52700
C  54.16300 20.04700 44.05800
C  51.22100 18.10800 42.58100
C  54.30400 17.47500 43.16000
O  53.69000 16.54500 42.65700
C  55.81400 17.31500 43.36500
N  55.35000 22.64700 45.17200
C  55.99200 21.47800 45.13800
C  57.40800 21.52500 45.69900
C  57.41000 22.98900 46.28500
C  56.10800 23.62200 45.83000
C  57.74300 20.49100 46.75000
C  58.58600 23.85800 45.73300
C  58.60200 24.43000 44.27900
N  53.73300 25.03000 44.83900
C  54.74000 25.68200 45.55100
C  54.45500 27.18600 45.60200
C  53.26500 27.31400 44.94500
C  52.83300 25.99400 44.54300
C  55.20900 28.32900 46.29600
C  52.17500 28.23100 44.51600
O  52.07300 29.46000 44.49600
C  51.09100 27.38000 43.91500
C  50.91000 27.91300 42.54100
O  51.79700 28.50100 41.93500
O  49.62600 27.78500 42.24000
C  49.21400 28.60300 41.02100
H  49.96900 20.62300 42.90600
H  56.12900 19.44200 44.78300
H  56.63700 25.55700 46.40800
H  49.03000 25.35800 43.08300
H  48.62100 22.74700 42.32100
H  47.18400 22.83200 44.00800
H  48.13800 24.17700 44.71900
H  48.51300 22.44500 45.08600
H  49.01300 25.14700 40.58700
H  49.86700 23.64700 40.73900
H  52.06100 24.75800 40.44200
H  51.47400 26.17900 41.03300
H  50.27100 18.64200 42.55300
H  51.25200 17.12900 43.05900
H  51.59000 18.02800 41.55900
H  55.91400 17.27500 44.45000
H  56.25600 18.20300 42.91500
H  56.13000 16.38100 42.90000
H  58.11700 21.54100 44.87200
H  57.38300 23.13500 47.36500
H  56.86500 19.92700 47.06600
H  57.96900 21.02800 47.67100
H  58.51800 19.80900 46.39900
H  59.36000 23.09100 45.71100
H  58.92600 24.56800 46.48800
H  59.30700 23.86400 43.67000
H  58.91200 25.47100 44.36700
H  57.68200 24.38900 43.69500
H  56.18000 28.28300 45.80400
H  55.23000 28.15400 47.37200
H  54.72000 29.26600 46.03100
H  50.16300 27.44800 44.48300
H  48.29800 29.16500 41.19900
H  48.98700 27.90600 40.21500
H  49.96400 29.35700 40.78200

