79

Mg 2.24800 -1.95700 44.07500
C  5.62400 -1.45200 43.43700
C  1.50600 0.79300 42.21800
C  -1.03800 -2.67600 44.46400
C  3.08900 -5.09700 45.54700
N  3.48500 -0.53700 42.95800
C  4.84000 -0.48500 42.77800
C  5.25900 0.71000 41.81900
C  3.92800 1.52000 41.73900
C  2.92300 0.50700 42.34800
C  3.96700 2.97500 42.32300
C  5.89000 0.28400 40.41300
C  6.55300 1.51500 39.71100
H  5.95300 1.96200 38.36500
N  0.47100 -1.05600 43.43200
C  0.36400 0.09000 42.66700
C  -0.95400 0.43900 42.36300
C  -1.72100 -0.51700 43.10200
C  -0.78100 -1.53900 43.72700
C  -1.38800 1.61300 41.57900
C  -3.25200 -0.49600 43.18400
O  -3.89000 0.46800 42.65200
C  -4.10800 -1.63400 43.77100
N  1.26500 -3.68800 44.78800
C  -0.09200 -3.65400 44.91100
C  -0.56100 -5.07100 45.49600
C  0.67700 -5.90900 45.68200
C  1.75500 -4.85600 45.35300
C  -1.42100 -4.98200 46.84800
C  0.81000 -7.12200 44.88000
C  0.21500 -8.36600 45.58300
N  4.00100 -3.06900 44.49200
C  4.16900 -4.27100 45.12200
C  5.55700 -4.53300 45.29300
C  6.21100 -3.44100 44.75100
C  5.21400 -2.59300 44.17600
C  6.29700 -5.77600 45.95500
C  7.47700 -2.79000 44.52400
O  8.58500 -3.06900 44.95000
C  7.20400 -1.50900 43.56900
C  7.71900 -0.26100 44.17800
O  8.69800 0.36400 43.78600
O  6.88000 0.12900 45.15400
C  7.16400 1.48200 45.71800
H  1.37200 1.74900 41.70600
H  -2.05600 -2.82700 44.82900
H  3.54700 -6.00600 45.94200
H  5.99500 1.15800 42.48600
H  3.66100 1.59600 40.68500
H  4.87100 3.09600 42.91900
H  3.15700 2.90400 43.05000
H  3.87100 3.71000 41.52400
H  5.15200 -0.16400 39.74800
H  6.70900 -0.42800 40.51500
H  7.61700 1.50900 39.47800
H  6.51400 2.27800 40.48800
H  -1.91100 1.26800 40.68700
H  -0.58000 2.25400 41.22600
H  -2.09200 2.26300 42.09800
H  -5.14600 -1.35700 43.58600
H  -3.92800 -1.75500 44.83900
H  -3.84600 -2.60000 43.34000
H  -1.02500 -5.54700 44.63200
H  0.76600 -6.18700 46.73300
H  -2.49700 -5.09600 46.71600
H  -1.14400 -4.18700 47.54100
H  -1.24400 -5.88600 47.43100
H  1.85100 -7.21100 44.56800
H  0.29700 -7.01900 43.92400
H  -0.41000 -8.10800 46.43800
H  0.98100 -9.06600 45.91500
H  -0.41000 -8.92300 44.88500
H  6.06200 -6.67600 45.38700
H  5.86200 -5.95900 46.93800
H  7.37300 -5.63800 46.06100
H  7.85500 -1.65700 42.70800
H  6.28600 1.96900 46.14300
H  7.45800 2.14500 44.90500
H  7.94200 1.44800 46.48100

