79

Mg 47.13900 34.47900 28.18000
C  45.63000 32.62200 30.79300
C  47.49600 37.19200 30.28700
C  48.14800 36.28600 25.48000
C  46.42200 31.84000 26.00300
N  46.63100 34.84300 30.30200
C  46.16300 33.86100 31.20300
C  46.34700 34.46800 32.64200
C  46.53300 36.04200 32.37600
C  46.97400 36.05200 30.94100
C  45.30800 36.99900 32.63000
C  47.56500 33.89400 33.36900
C  47.50900 33.57500 34.82000
H  46.51900 34.36700 35.71200
N  47.85800 36.39200 27.91300
C  47.95300 37.35600 28.94800
C  48.58200 38.52700 28.39400
C  48.73300 38.33900 26.96700
C  48.22200 37.01600 26.71100
C  48.97800 39.75400 29.26100
C  49.21800 39.30100 25.91800
O  49.34500 38.92600 24.77400
C  49.51300 40.74400 26.23900
N  47.13900 34.14700 26.03700
C  47.66600 35.01900 25.18400
C  47.89100 34.45400 23.77100
C  47.14300 33.12600 23.83000
C  46.92800 33.01500 25.39600
C  47.51500 35.29400 22.55600
C  48.00100 31.97100 23.22700
C  47.21600 30.96900 22.50400
N  46.29900 32.61900 28.32700
C  46.06300 31.67400 27.34400
C  45.54000 30.44700 27.91600
C  45.41100 30.82000 29.26000
C  45.84600 32.07200 29.46300
C  45.03200 29.11500 27.26600
C  44.90100 30.30300 30.53900
O  44.54200 29.19600 30.81200
C  44.82800 31.56200 31.49500
C  45.31800 31.09800 32.85500
O  46.35600 30.49400 33.03000
O  44.32200 31.34500 33.73300
C  44.39900 30.45900 34.89800
H  47.65900 38.02900 30.96900
H  48.50600 36.77800 24.57300
H  46.29900 31.00600 25.30800
H  45.39800 34.43000 33.17700
H  47.27200 36.38000 33.10200
H  45.64500 37.67000 33.42000
H  44.37900 36.47200 32.84900
H  45.10300 37.54000 31.70700
H  48.46100 34.46000 33.11500
H  47.62400 32.92100 32.88100
H  48.51900 33.80100 35.16300
H  47.35000 32.49900 34.88300
H  49.98400 40.10500 29.03200
H  48.97900 39.56300 30.33400
H  48.23100 40.51100 29.02500
H  49.57600 41.49900 25.45500
H  50.52100 40.71800 26.65300
H  48.79300 41.16200 26.94300
H  48.97100 34.33200 23.69600
H  46.14400 33.29800 23.42900
H  47.12200 36.21200 22.99200
H  46.73600 34.87800 21.91700
H  48.33700 35.55800 21.89000
H  48.50600 31.56300 24.10300
H  48.79400 32.29500 22.55300
H  47.31900 31.13900 21.43300
H  46.16200 31.05400 22.77000
H  47.54000 29.95100 22.72000
H  45.95200 28.62100 26.95500
H  44.40100 29.33800 26.40600
H  44.52900 28.62200 28.09800
H  43.81400 31.94100 31.62400
H  44.69900 29.43200 34.68900
H  43.34900 30.49600 35.18800
H  45.13600 30.90300 35.56700

