79

Mg 0.80800 7.43000 24.93000
C  1.33000 9.16400 27.87100
C  1.06300 4.47900 26.77900
C  0.63200 5.69500 21.99500
C  1.06200 10.47700 23.09700
N  1.06500 6.93500 27.07700
C  1.25100 7.80200 28.10600
C  1.27400 7.08000 29.51000
C  1.23300 5.59300 29.05600
C  1.02700 5.68400 27.46100
C  2.43800 4.75100 29.43800
C  0.05700 7.37900 30.48900
C  0.42800 7.52600 31.98700
H  1.61000 6.78000 32.55600
N  0.68000 5.37400 24.47200
C  0.88500 4.36700 25.33800
C  0.91200 3.06400 24.63700
C  0.76600 3.36700 23.23500
C  0.68100 4.90200 23.16300
C  1.04500 1.76800 25.29000
C  0.62500 2.51400 22.01300
O  0.45000 2.93500 20.83200
C  0.45000 1.00900 22.18700
N  0.90700 7.96200 22.88800
C  0.65500 7.10500 21.88500
C  0.48600 7.83700 20.50000
C  0.59200 9.33100 20.87300
C  0.90400 9.28500 22.36800
C  1.36800 7.34900 19.31200
C  -0.49500 10.28000 20.33500
C  -1.95400 10.36300 20.94600
N  1.09100 9.42400 25.32100
C  1.17400 10.53100 24.55300
C  1.18900 11.72500 25.44600
C  1.30100 11.24100 26.72200
C  1.17900 9.85400 26.62000
C  1.22000 13.13700 25.03500
C  1.49500 11.62300 28.10800
O  1.63500 12.70100 28.66700
C  1.49200 10.27900 28.88700
C  2.66900 10.26300 29.84100
O  3.75900 9.72500 29.60600
O  2.27100 10.89400 31.01300
C  3.26500 11.04600 32.12100
H  1.13100 3.58500 27.40200
H  0.49000 5.23100 21.01600
H  0.97600 11.47600 22.66300
H  2.26200 7.31300 29.90700
H  0.30000 5.11000 29.34600
H  2.10800 3.94500 30.09300
H  3.11100 5.37500 30.02600
H  3.03500 4.31500 28.63600
H  -0.80800 6.71800 30.42900
H  -0.25600 8.37900 30.18700
H  -0.35100 7.00400 32.54300
H  0.44600 8.59500 32.19700
H  0.49100 0.95400 24.82200
H  0.58700 1.73200 26.27900
H  2.08900 1.46200 25.23000
H  1.33200 0.67700 22.73600
H  0.45900 0.65800 21.15500
H  -0.48800 0.70000 22.64900
H  -0.55900 7.71100 20.21700
H  1.51200 9.72400 20.44000
H  1.86100 6.40400 19.54000
H  2.08800 8.14600 19.12400
H  0.70200 7.15000 18.47300
H  -0.55500 9.95300 19.29700
H  -0.07400 11.28500 20.33900
H  -2.00000 9.53800 21.65700
H  -2.73000 10.23000 20.19200
H  -2.15800 11.33000 21.40600
H  2.19700 13.55100 25.28300
H  0.40100 13.56600 25.61200
H  1.01300 13.32300 23.98100
H  0.60000 10.23600 29.51200
H  4.18700 11.43200 31.68600
H  3.45800 10.03900 32.49000
H  2.84300 11.60800 32.95400

