79

Mg -10.38400 17.83500 40.85200
C  -6.90600 17.20000 40.86700
C  -9.68200 21.17800 40.11100
C  -13.60900 18.34800 40.25700
C  -10.98600 14.42200 41.40300
N  -8.49600 18.97000 40.32500
C  -7.23000 18.54100 40.45600
C  -6.25200 19.73000 40.15800
C  -7.16200 21.00200 40.35500
C  -8.53800 20.34700 40.25600
C  -6.96900 21.71000 41.74900
C  -5.81900 19.60400 38.67300
C  -4.29800 19.49400 38.48300
H  -3.80200 18.10800 37.96200
N  -11.49900 19.56900 40.28400
C  -11.04000 20.78100 39.91200
C  -12.06300 21.64900 39.48800
C  -13.29900 20.83900 39.67900
C  -12.84100 19.49700 40.12900
C  -11.87700 23.02400 39.01100
C  -14.70800 21.29600 39.28600
O  -14.93200 22.40900 38.92600
C  -15.91200 20.32600 39.40400
N  -11.95600 16.50800 40.71600
C  -13.25900 17.05600 40.58700
C  -14.32700 15.88200 40.49200
C  -13.45900 14.62200 40.78500
C  -12.08500 15.23400 41.04500
C  -15.69600 16.21200 41.16900
C  -13.46000 13.65700 39.57400
C  -14.34300 12.41900 39.74500
N  -9.19900 16.12400 41.06600
C  -9.63700 14.81600 41.34300
C  -8.41500 13.97100 41.45100
C  -7.35600 14.91100 41.38200
C  -7.84100 16.17700 41.08400
C  -8.43700 12.56200 41.85000
C  -5.90100 15.02400 41.44700
O  -4.95500 14.23100 41.68000
C  -5.55300 16.51200 41.07500
C  -4.81800 17.13700 42.21700
O  -5.38600 17.76900 43.10900
O  -3.44300 17.05600 42.05600
C  -2.62700 17.84100 43.00700
H  -9.52600 22.25900 40.10700
H  -14.67200 18.29000 40.01700
H  -11.13800 13.34900 41.54000
H  -5.42700 19.63800 40.86400
H  -7.11400 21.69400 39.51400
H  -6.08900 21.29000 42.23600
H  -7.80700 21.60100 42.43700
H  -6.90400 22.76300 41.47500
H  -6.06200 20.51300 38.12200
H  -6.29200 18.75400 38.18200
H  -3.77400 19.57800 39.43500
H  -3.88300 20.26100 37.82900
H  -11.00900 23.11500 38.35800
H  -11.72000 23.62700 39.90600
H  -12.67200 23.51500 38.44900
H  -15.81500 19.60500 38.59200
H  -16.86500 20.85500 39.39800
H  -15.97100 19.73100 40.31600
H  -14.54900 15.92900 39.42600
H  -13.93400 14.21300 41.67700
H  -16.47000 16.28800 40.40400
H  -15.61100 17.16700 41.68700
H  -15.87400 15.44500 41.92300
H  -12.45300 13.25900 39.45100
H  -13.78000 14.18600 38.67600
H  -13.80300 11.47500 39.81100
H  -14.94000 12.39800 38.83300
H  -14.94100 12.47800 40.65500
H  -7.52600 12.27800 42.37600
H  -8.70200 11.94500 40.99100
H  -9.28100 12.56400 42.54000
H  -4.95400 16.49600 40.16400
H  -1.66000 17.34400 43.08400
H  -3.03000 17.86300 44.01900
H  -2.39600 18.86800 42.72300

