79

Mg 2.15500 -2.40400 44.50700
C  5.29100 -1.22400 43.57700
C  0.79600 -0.01000 42.14100
C  -0.88900 -3.77400 44.69000
C  3.68300 -5.06100 46.26500
N  2.99100 -0.90000 42.95600
C  4.26900 -0.61700 42.78900
C  4.53900 0.52900 41.77200
C  3.11700 1.11900 41.63000
C  2.18600 0.00500 42.22900
C  2.84100 2.44900 42.33700
C  5.10700 -0.09500 40.48500
C  6.65600 0.19300 40.36000
H  7.23200 0.53300 39.01400
N  0.24400 -1.79100 43.81500
C  -0.06500 -0.81100 42.85000
C  -1.52600 -0.74600 42.68400
C  -2.08300 -1.80300 43.47400
C  -0.91700 -2.53100 44.01100
C  -2.18400 0.34500 41.82900
C  -3.54700 -1.93200 43.82800
O  -4.37200 -1.21600 43.29400
C  -4.05800 -2.88200 44.87800
N  1.56200 -4.24600 45.17500
C  0.20300 -4.57800 45.15400
C  0.04400 -5.83500 46.04800
C  1.47800 -6.18500 46.61500
C  2.28100 -5.05800 46.08800
C  -1.04000 -5.65100 47.13300
C  2.02200 -7.61400 46.22300
C  2.39500 -8.51000 47.47600
N  4.02100 -3.03900 44.84800
C  4.47900 -4.05700 45.67200
C  5.94600 -3.87700 45.90400
C  6.21000 -2.75700 45.05500
C  5.05800 -2.31700 44.40900
C  6.74600 -4.60100 46.89800
C  7.33600 -1.81600 44.76800
O  8.52800 -1.82300 45.17300
C  6.76600 -0.78600 43.69600
C  6.82800 0.52500 44.33900
O  6.24900 0.86500 45.36900
O  7.73800 1.35000 43.69500
C  8.02700 2.60600 44.41200
H  0.33300 0.76700 41.52900
H  -1.85100 -4.28800 44.64100
H  4.13200 -5.80500 46.92600
H  5.12000 1.32000 42.24600
H  2.88200 1.35300 40.59100
H  3.79900 2.78800 42.73100
H  2.26400 2.29700 43.24900
H  2.42000 3.24400 41.72100
H  4.68600 0.36800 39.59300
H  4.92400 -1.16900 40.48000
H  7.01400 -0.78800 40.67000
H  7.12700 0.86200 41.08000
H  -2.04700 0.05600 40.78700
H  -1.70700 1.30000 42.05100
H  -3.25500 0.49400 41.96600
H  -4.25300 -3.78300 44.29800
H  -5.00500 -2.55100 45.30500
H  -3.28300 -3.04300 45.62700
H  -0.30600 -6.71200 45.50400
H  1.42800 -6.08500 47.69900
H  -0.62200 -5.74800 48.13500
H  -1.87900 -6.33900 47.02600
H  -1.45300 -4.64300 47.13900
H  2.83100 -7.51400 45.49800
H  1.23500 -8.17500 45.72000
H  3.32900 -9.07100 47.44200
H  1.65600 -9.31200 47.48700
H  2.34600 -7.85600 48.34700
H  6.53500 -5.67000 46.86700
H  6.42800 -4.24900 47.87900
H  7.82600 -4.69500 46.78100
H  7.38500 -0.89600 42.80500
H  8.81800 3.15600 43.90200
H  8.30000 2.39100 45.44500
H  7.20800 3.32300 44.36600

