79

Mg 43.31400 2.92700 47.16500
C  41.65400 5.90000 46.49000
C  40.39500 1.16700 46.58900
C  45.10600 0.08600 47.10900
C  46.28300 4.81900 46.89900
N  41.29600 3.46300 46.65800
C  40.84000 4.75500 46.48100
C  39.37800 4.64800 46.00500
C  38.98600 3.25200 46.55100
C  40.30500 2.54200 46.60500
C  38.21200 3.19500 47.93100
C  39.21200 4.71700 44.47600
C  38.49100 6.00700 44.00300
H  39.09900 6.63100 42.70100
N  42.79800 0.87000 46.83500
C  41.59400 0.41200 46.67600
C  41.59600 -1.02800 46.64900
C  42.92200 -1.41600 46.63300
C  43.70200 -0.13500 46.87400
C  40.27400 -1.87200 46.63800
C  43.44700 -2.85000 46.43800
O  42.71500 -3.79700 46.17700
C  44.97000 -3.05400 46.54900
N  45.42500 2.52100 46.64800
C  45.85000 1.29600 47.06400
C  47.43200 1.33300 47.19600
C  47.72900 2.82800 46.80400
C  46.34000 3.41500 46.86100
C  48.00500 0.92200 48.62500
C  48.26500 2.87300 45.34500
C  49.75000 3.45300 45.29700
N  43.94400 5.00200 46.88800
C  45.14400 5.62200 46.83800
C  44.95600 7.02400 46.86000
C  43.58600 7.16000 46.68100
C  43.02800 5.93600 46.69600
C  46.02400 8.10000 46.98500
C  42.53100 8.16200 46.53300
O  42.60200 9.39900 46.42200
C  41.18900 7.32000 46.40000
C  40.36900 7.73800 47.56000
O  40.47400 7.34500 48.72900
O  39.45200 8.69500 47.08300
C  38.65600 9.47300 48.07000
H  39.46800 0.62000 46.40400
H  45.79400 -0.76200 47.09800
H  47.21500 5.38000 46.99300
H  38.74800 5.34400 46.56000
H  38.31600 2.68100 45.90700
H  38.95200 3.15900 48.73100
H  37.74200 2.21300 47.99000
H  37.52000 4.01900 48.10400
H  38.62600 3.84300 44.19000
H  40.23300 4.64100 44.10100
H  38.58900 6.73000 44.81200
H  37.41700 5.85900 43.89300
H  39.70800 -1.62500 45.73900
H  39.68100 -1.55100 47.49300
H  40.52200 -2.93200 46.58400
H  45.35400 -2.40700 45.76000
H  45.30000 -4.06900 46.32600
H  45.21300 -2.72700 47.56000
H  47.74600 0.57300 46.47900
H  48.35600 3.34000 47.53400
H  47.19900 0.49700 49.22400
H  48.41900 1.86000 48.99700
H  48.86400 0.25000 48.62200
H  47.68200 3.59200 44.77000
H  48.19400 1.92700 44.80800
H  49.59100 4.52500 45.18200
H  50.44400 2.97500 44.60600
H  50.14100 3.21000 46.28500
H  45.54500 9.05500 46.77000
H  46.70400 7.89800 46.15700
H  46.55600 7.87200 47.90900
H  40.64500 7.45800 45.46500
H  38.81200 9.26600 49.12800
H  37.59300 9.34400 47.86400
H  38.89500 10.50700 47.82000

