79

Mg 26.75500 50.61700 26.21700
C  24.44200 51.53100 28.83500
C  29.07600 49.79600 28.51300
C  28.75500 49.87200 23.70400
C  24.38500 51.77200 23.97700
N  26.76900 50.83500 28.45300
C  25.70400 51.08600 29.28800
C  25.99700 50.72800 30.72000
C  27.50000 50.25700 30.62200
C  27.85400 50.31200 29.07200
C  28.65700 50.96200 31.44900
C  25.01000 49.71000 31.33900
C  24.24800 50.33700 32.57500
H  24.11500 49.49700 33.87100
N  28.68300 50.04100 26.16800
C  29.52100 49.76900 27.21500
C  30.79600 49.31400 26.76600
C  30.82300 49.43900 25.39500
C  29.35700 49.84500 24.98400
C  31.77800 48.76400 27.66000
C  31.98700 49.34300 24.47100
O  31.85300 49.47700 23.29500
C  33.34900 49.14000 25.01000
N  26.53900 50.84200 24.13900
C  27.47700 50.21900 23.29700
C  27.04800 50.27600 21.84800
C  25.63900 50.92500 21.91300
C  25.47300 51.16500 23.43300
C  28.08700 51.12100 21.04200
C  24.61400 50.00200 21.27700
C  24.22600 50.22400 19.81900
N  24.84100 51.56800 26.33600
C  24.07400 51.96500 25.30300
C  22.82700 52.46900 25.82900
C  22.86300 52.33800 27.18200
C  24.11400 51.71800 27.50300
C  21.72500 53.04800 25.08000
C  22.25600 52.55700 28.49900
O  21.11900 53.03400 28.74600
C  23.25000 52.04700 29.61400
C  23.52400 53.10100 30.55900
O  24.35600 53.90800 30.30400
O  22.77500 52.91100 31.71700
C  23.07100 53.78600 32.85300
H  29.59500 49.36900 29.37300
H  29.35500 49.54400 22.85300
H  23.62500 51.91300 23.20500
H  26.12400 51.65700 31.27600
H  27.59100 49.25100 31.03000
H  29.61500 50.98100 30.93000
H  28.79000 50.52600 32.43900
H  28.44900 52.02600 31.56600
H  25.42900 48.88500 31.91500
H  24.31400 49.32400 30.59400
H  23.20600 50.49600 32.29600
H  24.61100 51.31600 32.88900
H  32.31000 47.88800 27.29000
H  31.37500 48.32500 28.57300
H  32.45300 49.56900 27.95400
H  33.93700 49.09400 24.09300
H  33.44900 48.17700 25.51200
H  33.61000 49.94400 25.69800
H  27.06600 49.27100 21.42600
H  25.46200 51.80700 21.29700
H  27.57600 51.91000 20.49000
H  28.64400 50.41100 20.43200
H  28.79600 51.57100 21.73600
H  23.70600 50.10500 21.87100
H  24.96400 48.96900 21.29200
H  24.74900 51.06500 19.36200
H  23.16000 50.44300 19.74600
H  24.61700 49.39300 19.23200
H  20.77600 52.97300 25.61000
H  21.63100 52.69600 24.05200
H  21.91500 54.11900 25.13700
H  22.91500 51.23800 30.26400
H  23.38000 54.78400 32.54400
H  23.82200 53.29300 33.47100
H  22.17400 53.89000 33.46400

