79

Mg -5.85800 25.41700 25.77600
C  -4.37700 26.38500 28.84600
C  -7.88300 23.15800 27.60400
C  -6.68400 23.84100 22.74100
C  -3.22400 27.02300 24.06300
N  -6.06600 24.89100 27.98800
C  -5.47600 25.52100 29.05800
C  -6.04600 25.11700 30.35700
C  -6.90800 23.83500 29.87300
C  -6.98300 23.94200 28.36500
C  -6.30200 22.38900 30.27100
C  -6.90000 26.15200 31.08700
C  -6.69800 26.27200 32.62200
H  -6.07500 25.09300 33.43000
N  -7.25200 23.88300 25.24200
C  -7.95900 23.11400 26.16300
C  -8.78700 22.21500 25.33900
C  -8.44700 22.40300 23.91500
C  -7.44400 23.43200 23.89700
C  -9.81700 21.25500 25.99800
C  -8.89700 21.54300 22.71300
O  -8.47400 21.67500 21.62900
C  -9.79200 20.44700 22.94400
N  -5.12900 25.48300 23.68800
C  -5.55500 24.73600 22.56200
C  -4.84600 25.20900 21.21800
C  -3.84400 26.27300 21.77800
C  -4.11100 26.34900 23.30200
C  -4.31000 24.04300 20.34600
C  -3.81200 27.65900 21.01200
C  -2.63000 27.94900 20.17700
N  -4.17300 26.56700 26.28600
C  -3.19700 27.21200 25.53000
C  -2.22200 27.89100 26.37000
C  -2.62500 27.46500 27.64500
C  -3.81900 26.73500 27.59100
C  -0.95000 28.54500 25.91900
C  -2.21900 27.66600 29.04000
O  -1.35600 28.39400 29.48100
C  -3.33100 27.03800 29.83900
C  -2.74100 26.04700 30.78100
O  -2.42800 24.88800 30.52100
O  -2.42800 26.72400 31.89900
C  -1.72200 25.95000 32.91900
H  -8.36800 22.41800 28.24300
H  -6.80100 23.36900 21.76400
H  -2.52800 27.55000 23.40700
H  -5.26800 24.72000 31.00900
H  -7.92900 23.74200 30.24000
H  -5.44600 22.44900 30.94200
H  -6.01000 21.84300 29.37500
H  -7.08800 21.83000 30.77900
H  -7.96300 25.94400 30.96100
H  -6.66500 27.12300 30.65100
H  -7.71500 26.33100 33.01000
H  -6.06500 27.14400 32.78300
H  -10.30800 21.78900 26.81200
H  -9.39500 20.28500 26.26100
H  -10.56200 21.02400 25.23600
H  -9.89500 19.86200 22.03000
H  -10.80400 20.78300 23.17000
H  -9.39300 19.84200 23.75800
H  -5.51500 25.80300 20.59500
H  -2.84600 25.83600 21.74200
H  -3.25700 23.91700 20.59800
H  -4.47600 24.28900 19.29700
H  -4.88800 23.15900 20.61600
H  -3.82000 28.37900 21.83000
H  -4.79900 27.88200 20.60700
H  -2.90400 28.56900 19.32300
H  -2.29700 27.02500 19.70500
H  -1.84900 28.53300 20.66200
H  -1.20800 29.21200 25.09600
H  -0.31700 27.77200 25.48500
H  -0.39700 29.03300 26.72100
H  -3.85900 27.81300 30.39400
H  -1.83200 24.86800 32.84000
H  -1.71400 26.34600 33.93400
H  -0.75200 26.06200 32.43400

