79

Mg 7.20600 53.99700 40.81800
C  6.32800 50.59000 40.71700
C  10.19600 53.18400 39.33800
C  7.79800 57.31700 40.46600
C  3.88600 54.59500 41.61300
N  8.10700 52.10300 40.04000
C  7.63700 50.89400 40.15300
C  8.63100 49.84100 39.52400
C  9.95100 50.68000 39.49900
C  9.38600 52.06000 39.55600
C  11.09900 50.26100 40.56300
C  8.19700 49.21600 38.15500
C  8.42000 50.08700 36.83800
H  7.14000 50.45500 36.09800
N  8.81900 55.09100 40.08200
C  9.97500 54.53400 39.54200
C  11.02800 55.54900 39.36800
C  10.34000 56.78300 39.75200
C  8.95300 56.45700 40.13700
C  12.43800 55.32100 39.09300
C  10.97000 58.19800 39.83800
O  12.11000 58.35200 39.40100
C  10.32500 59.39300 40.46300
N  5.97600 55.76300 40.72100
C  6.44200 56.99000 40.74100
C  5.34400 58.06000 40.94000
C  4.07100 57.14400 41.14600
C  4.65400 55.73700 41.16800
C  5.75700 59.21000 42.04000
C  2.77000 57.27400 40.25200
C  1.40700 57.25500 40.93600
N  5.49300 52.87600 41.26400
C  4.23200 53.27300 41.55500
C  3.41400 52.07800 42.00300
C  4.23200 50.99700 41.70000
C  5.44200 51.56200 41.14100
C  2.07700 52.09500 42.67100
C  4.33200 49.54800 41.75900
O  3.50900 48.77800 42.13200
C  5.64500 49.24500 41.09200
C  5.36600 48.39100 39.88000
O  4.66000 48.74500 38.94000
O  5.90900 47.09400 39.92800
C  5.79200 46.23900 38.80400
H  11.20600 52.85200 39.08700
H  8.05700 58.37600 40.51300
H  2.85100 54.80600 41.89300
H  8.64500 48.89800 40.07000
H  10.41300 50.52200 38.52400
H  10.72600 49.53000 41.28000
H  11.22600 51.10300 41.24300
H  11.98800 49.92200 40.03100
H  7.12500 49.01700 38.16500
H  8.80000 48.31000 38.09200
H  9.00800 49.48900 36.14300
H  9.11700 50.91500 36.96000
H  13.04300 56.13000 39.50300
H  12.79000 55.11200 38.08300
H  12.64200 54.41400 39.66200
H  11.07800 60.14200 40.71200
H  9.93300 59.11500 41.44100
H  9.57100 59.80300 39.79100
H  5.24900 58.64700 40.02600
H  3.66600 57.27900 42.14900
H  6.73500 59.04000 42.49100
H  5.03600 59.30900 42.85200
H  5.77500 60.19100 41.56700
H  2.75200 56.44400 39.54700
H  2.88200 58.23600 39.75200
H  0.71600 57.96000 40.47400
H  1.59300 57.24000 42.01000
H  0.96700 56.30400 40.63600
H  1.53800 51.22600 42.29400
H  1.46500 52.99200 42.57700
H  2.23300 51.98200 43.74400
H  6.18400 48.59300 41.78000
H  6.52500 45.43800 38.90500
H  5.82300 46.90300 37.94000
H  4.79900 45.82200 38.96700

