79

Mg 50.45300 45.21100 41.40200
C  47.30900 46.03400 40.04000
C  49.85700 41.89900 40.30700
C  53.88700 44.48900 41.45600
C  51.25900 48.58900 41.32500
N  48.67900 44.08500 40.58700
C  47.50400 44.57400 40.04400
C  46.69300 43.44000 39.44400
C  47.35500 42.13100 39.90200
C  48.74000 42.71300 40.38100
C  46.76700 41.33400 41.04000
C  46.74700 43.60300 37.88000
C  45.36600 43.60200 37.18100
H  45.22300 44.54100 35.99400
N  51.59500 43.41800 41.15100
C  51.19900 42.22700 40.65900
C  52.41600 41.46500 40.41700
C  53.54000 42.08700 40.99400
C  53.02800 43.36100 41.30200
C  52.34800 40.22100 39.61800
C  54.95400 41.50700 41.13200
O  55.35000 40.49300 40.55700
C  55.93200 42.10200 42.02100
N  52.30000 46.34600 41.41100
C  53.57700 45.80800 41.55900
C  54.63100 46.95800 41.38100
C  53.80000 48.22100 41.38000
C  52.35000 47.71000 41.44500
C  55.75800 46.85800 42.42800
C  53.98800 49.22800 40.23100
C  54.39300 50.65600 40.72500
N  49.46400 46.96000 41.03800
C  49.89600 48.25400 41.07100
C  48.81900 49.22300 40.78500
C  47.77500 48.33800 40.36700
C  48.19300 47.00500 40.44600
C  48.91700 50.64900 40.70200
C  46.43400 48.38900 39.82500
O  45.69900 49.32100 39.50800
C  46.15500 46.91400 39.47900
C  44.82900 46.51400 40.04000
O  43.85900 46.20400 39.35800
O  44.76700 46.54700 41.40100
C  43.40100 46.60400 41.99700
H  49.81000 40.92800 39.80900
H  54.97000 44.37900 41.37000
H  51.40000 49.66500 41.44600
H  45.68500 43.49000 39.85700
H  47.48400 41.45700 39.05500
H  46.14500 42.02200 41.61300
H  47.48600 40.88000 41.72200
H  46.11900 40.65700 40.48400
H  47.39900 42.81200 37.50800
H  47.27100 44.53600 37.67300
H  44.51700 43.65700 37.86200
H  45.18400 42.56100 36.91100
H  51.42700 39.72900 39.93200
H  53.11300 39.46300 39.78700
H  52.16000 40.42500 38.56400
H  55.49200 42.69800 42.82100
H  56.61100 42.72900 41.44300
H  56.54200 41.32600 42.48400
H  54.99900 46.80900 40.36600
H  54.01300 48.69500 42.33900
H  56.09800 47.80100 42.85700
H  56.70000 46.54500 41.97800
H  55.60400 46.11100 43.20700
H  53.06300 49.26000 39.65600
H  54.69100 48.81700 39.50600
H  55.10300 51.05500 40.00000
H  54.88300 50.79000 41.68900
H  53.52600 51.31100 40.63800
H  47.90100 51.03000 40.80900
H  49.40200 50.97700 39.78300
H  49.52500 50.94600 41.55600
H  45.98400 46.80700 38.40800
H  43.39800 46.48500 43.08000
H  42.80800 45.82600 41.51600
H  42.86600 47.49400 41.66500

