79

Mg 8.87000 4.31900 27.11600
C  9.89400 2.76900 29.95600
C  6.55000 6.05300 29.06000
C  7.66900 5.70100 24.21300
C  10.38600 1.80900 25.17100
N  8.25400 4.31500 29.19200
C  8.97100 3.72500 30.21700
C  8.47700 4.08000 31.58600
C  7.15900 4.85900 31.29100
C  7.32400 5.10100 29.77500
C  5.90300 3.99900 31.62900
C  9.43000 4.92700 32.43000
C  9.30300 4.65100 33.94000
H  10.57100 4.41100 34.80600
N  7.41500 5.80500 26.72400
C  6.56100 6.40000 27.62600
C  5.86000 7.41600 27.00400
C  6.16200 7.32500 25.57300
C  7.16700 6.29200 25.42600
C  4.87000 8.26000 27.78500
C  5.46700 8.03000 24.47400
O  5.74300 7.89900 23.29100
C  4.42200 9.14400 24.80900
N  9.08900 3.88500 24.94700
C  8.50200 4.63100 23.96200
C  8.77000 4.00800 22.53100
C  9.71300 2.83500 22.92400
C  9.72000 2.75900 24.42000
C  7.50700 3.63200 21.83600
C  11.15000 3.09200 22.40700
C  11.97300 1.96200 21.77400
N  10.06500 2.68300 27.42000
C  10.60700 1.77500 26.54000
C  11.32800 0.80400 27.31800
C  11.15400 1.20900 28.71100
C  10.32700 2.32300 28.65400
C  12.20200 -0.28300 26.91300
C  11.44700 0.86500 30.14000
O  12.14400 0.03200 30.64300
C  10.79800 2.04500 31.05600
C  10.15400 1.36900 32.20000
O  9.21500 0.57600 32.11300
O  10.89600 1.53600 33.34300
C  10.20200 0.92400 34.50800
H  5.90300 6.64200 29.71400
H  7.19100 5.99400 23.27600
H  10.86000 0.95200 24.68800
H  8.26500 3.08600 31.98000
H  6.97400 5.74800 31.89400
H  5.49100 4.42200 32.54500
H  6.12100 2.96600 31.89900
H  5.19500 3.94500 30.80200
H  9.14700 5.97800 32.35900
H  10.45100 4.90100 32.05000
H  8.64800 3.78000 33.92900
H  8.64300 5.38500 34.40200
H  3.91100 8.00600 27.33300
H  5.09100 9.32500 27.84500
H  4.91400 8.06300 28.85700
H  4.59100 9.66800 25.74900
H  3.46900 8.61900 24.88300
H  4.24200 9.88600 24.03100
H  9.19900 4.88900 22.05400
H  9.39500 1.92700 22.41000
H  7.53500 2.68100 21.30300
H  7.08700 4.43800 21.23500
H  6.77200 3.61000 22.64000
H  11.68600 3.53500 23.24600
H  11.24700 3.81200 21.59500
H  11.38700 1.17900 21.29300
H  12.56900 1.52700 22.57600
H  12.60300 2.39400 20.99700
H  12.69800 0.04200 25.99800
H  11.66800 -1.19700 26.64800
H  12.96700 -0.41900 27.67700
H  11.66900 2.53700 31.48800
H  10.22800 -0.16500 34.53600
H  9.16300 1.24500 34.57800
H  10.80500 1.26400 35.35100

