79

Mg 9.18100 48.89400 26.22900
C  7.09500 49.36500 28.94700
C  11.83800 49.95500 28.10000
C  11.10300 48.43300 23.51500
C  6.32800 48.17700 24.22700
N  9.38100 49.62300 28.31100
C  8.44800 49.68700 29.26800
C  9.05800 50.17000 30.57000
C  10.49300 50.64500 30.08400
C  10.63000 50.01300 28.73100
C  10.77100 52.19400 30.05100
C  9.22400 49.00000 31.60300
C  8.29500 49.05800 32.84500
H  8.42600 48.01500 33.95100
N  11.20700 49.00700 25.86600
C  12.09300 49.50800 26.79000
C  13.44600 49.33900 26.26200
C  13.34000 48.83700 24.97800
C  11.87000 48.77300 24.66400
C  14.73700 49.68800 26.90300
C  14.36000 48.43700 23.93800
O  14.08800 47.81300 22.89200
C  15.77800 48.67000 24.23700
N  8.75900 48.31400 24.14800
C  9.74400 48.31000 23.20000
C  9.19400 47.84500 21.87200
C  7.64100 47.88900 22.03600
C  7.54500 48.08400 23.58300
C  9.50100 48.68600 20.60300
C  6.95800 46.52800 21.55000
C  6.34300 46.64300 20.15200
N  7.16500 48.78500 26.42300
C  6.08500 48.59100 25.58400
C  4.81600 48.72400 26.21400
C  5.17100 48.96000 27.55000
C  6.59100 48.98500 27.64200
C  3.46600 48.72900 25.50400
C  4.69100 49.19200 28.88400
O  3.50800 49.21600 29.29200
C  5.89100 49.39000 29.81100
C  5.93300 48.21000 30.66700
O  6.65700 47.20100 30.72700
O  4.99400 48.52600 31.69900
C  4.70100 47.46800 32.59700
H  12.69400 50.34100 28.65700
H  11.78300 48.32800 22.66600
H  5.41900 48.06600 23.63300
H  8.40400 50.98500 30.87900
H  11.29400 50.13400 30.61700
H  9.92200 52.83600 30.29000
H  11.11200 52.52700 29.07100
H  11.46700 52.43200 30.85500
H  10.20700 48.89000 32.06200
H  9.21000 48.05300 31.06200
H  7.25600 49.04400 32.51500
H  8.49200 50.01800 33.32100
H  14.73800 49.98100 27.95200
H  15.25400 50.48600 26.37000
H  15.34700 48.78600 26.88300
H  16.01600 48.00800 25.07000
H  15.86000 49.72500 24.49700
H  16.29900 48.27900 23.36300
H  9.70500 46.89900 21.68900
H  7.20500 48.76100 21.54800
H  10.03300 49.58400 20.91900
H  8.70900 48.95200 19.90300
H  10.21900 48.10800 20.02100
H  6.08800 46.20700 22.12300
H  7.59100 45.64500 21.46400
H  5.36000 46.17400 20.11300
H  7.07200 46.14600 19.51200
H  6.30300 47.64100 19.71500
H  3.14000 47.91900 24.85200
H  3.34200 49.68100 24.98900
H  2.65300 48.74700 26.22900
H  5.87200 50.35400 30.32000
H  5.31200 47.39000 33.49600
H  4.47300 46.47200 32.21600
H  3.73300 47.73700 33.02100

