79

Mg 42.55300 41.69000 25.41800
C  42.08400 44.34100 27.67800
C  43.94900 39.89500 28.07800
C  43.58900 39.41100 23.32400
C  41.97800 43.96000 22.79800
N  42.92700 42.10200 27.65300
C  42.67500 43.29700 28.32800
C  42.91400 43.06800 29.86300
C  43.56500 41.62800 29.95100
C  43.56200 41.21900 28.48800
C  44.91800 41.63800 30.67900
C  41.63600 43.27400 30.74500
C  41.55900 42.64600 32.22200
H  41.42300 43.57300 33.44400
N  43.39400 39.76800 25.63200
C  43.88600 39.22400 26.78900
C  44.13900 37.85600 26.52300
C  44.06500 37.55400 25.12200
C  43.64500 38.91200 24.62100
C  44.62300 36.84300 27.59000
C  44.37300 36.36900 24.28700
O  44.33700 36.27200 23.09100
C  44.95900 35.20800 24.90500
N  42.64600 41.64100 23.34900
C  43.15500 40.54600 22.73200
C  43.18100 40.71500 21.22500
C  42.58300 42.16400 21.03000
C  42.37200 42.65900 22.46100
C  44.60800 40.49900 20.59600
C  41.29800 42.10100 20.29800
C  39.97000 42.05500 21.03400
N  42.07900 43.75900 25.22700
C  41.83900 44.51200 24.10000
C  41.40000 45.78000 24.51600
C  41.47000 45.82600 25.95800
C  41.87900 44.49600 26.31400
C  40.90000 46.81600 23.65400
C  41.29900 46.54900 27.17400
O  41.01600 47.71000 27.32800
C  41.55500 45.57900 28.28800
C  42.66200 46.15200 29.25800
O  43.83800 46.17000 28.97000
O  42.11700 46.74600 30.36900
C  43.03400 47.31000 31.36400
H  44.44800 39.42500 28.92800
H  44.11200 38.88300 22.52400
H  41.63400 44.63000 22.00700
H  43.56400 43.86900 30.21600
H  42.84200 40.97100 30.43500
H  45.05900 42.44500 31.39900
H  45.74000 41.75400 29.97300
H  44.98000 40.62000 31.06300
H  40.83400 42.99200 30.06200
H  41.47600 44.33900 30.91100
H  42.28200 41.85700 32.42700
H  40.62000 42.10900 32.08700
H  45.68700 36.74900 27.37400
H  44.14000 35.86700 27.54200
H  44.48500 37.08200 28.64500
H  45.03700 34.44200 24.13300
H  44.32700 34.80800 25.69800
H  45.97300 35.43300 25.23600
H  42.44600 39.98000 20.89800
H  43.35500 42.76700 20.55300
H  44.83200 41.26800 19.85700
H  44.54600 39.52200 20.11600
H  45.44200 40.52200 21.29800
H  41.26100 41.28700 19.57400
H  41.32400 42.97100 19.64300
H  39.94700 42.18800 22.11600
H  39.50300 41.07200 20.98400
H  39.19100 42.73600 20.69200
H  39.84500 46.54600 23.60200
H  41.26300 46.74500 22.62900
H  40.93000 47.84300 24.01900
H  40.65500 45.47500 28.89400
H  43.76800 46.55000 31.63100
H  42.54500 47.67800 32.26500
H  43.67000 48.07100 30.91200

