79

Mg 36.43500 49.38600 25.24600
C  36.69500 47.61000 28.12700
C  35.34400 51.99500 26.99800
C  36.00300 51.02900 22.23600
C  37.68500 46.61100 23.43200
N  35.89700 49.64300 27.29500
C  36.29200 48.85200 28.32200
C  36.06200 49.43500 29.74500
C  35.28400 50.77300 29.28300
C  35.56300 50.85300 27.77700
C  33.79300 50.64200 29.69400
C  37.41400 49.77900 30.46900
C  37.47200 49.55700 31.97100
H  36.20200 49.67200 32.82100
N  35.56600 51.22300 24.71100
C  35.31800 52.20900 25.61200
C  34.81800 53.39300 24.87300
C  34.95600 53.03800 23.45600
C  35.49400 51.67000 23.41000
C  34.50200 54.70300 25.53300
C  34.59000 53.89200 22.17900
O  34.78600 53.54600 21.01500
C  33.92900 55.23800 22.37600
N  36.68700 48.86000 23.08400
C  36.44900 49.70800 22.07000
C  36.73700 49.07500 20.67300
C  37.67600 47.89100 21.17200
C  37.29600 47.74200 22.67100
C  35.42100 48.55300 20.03400
C  39.24500 47.99200 20.88300
C  39.74700 46.78400 20.09200
N  37.07300 47.53500 25.66000
C  37.46900 46.51800 24.80000
C  37.87900 45.41100 25.62200
C  37.62500 45.78700 26.95200
C  37.03900 47.06400 26.89200
C  38.48600 44.11800 25.17300
C  37.74000 45.48900 28.38300
O  38.28100 44.63300 29.04300
C  36.98100 46.63000 29.27200
C  35.71100 46.00100 29.88000
O  34.64500 45.90700 29.35200
O  36.08200 45.76800 31.16300
C  34.94500 45.30300 31.95400
H  35.03900 52.82900 27.63500
H  35.95600 51.55600 21.28100
H  38.15300 45.79700 22.87500
H  35.45300 48.76000 30.34600
H  35.58600 51.68400 29.79900
H  33.29800 50.65600 28.72300
H  33.54100 51.54800 30.24700
H  33.51400 49.72600 30.21600
H  37.55100 50.84700 30.30000
H  38.19100 49.26100 29.90600
H  38.09000 50.35100 32.39100
H  38.06800 48.68500 32.23800
H  34.99900 55.56500 25.09000
H  34.59000 54.66000 26.61800
H  33.41700 54.79400 25.48300
H  33.24100 55.31200 23.21800
H  33.32400 55.44600 21.49400
H  34.71900 55.95400 22.60100
H  37.34300 49.76900 20.09100
H  37.39800 46.89300 20.83400
H  35.69500 47.77000 19.32700
H  34.88200 49.43700 19.69400
H  34.83200 48.01800 20.77900
H  39.81200 47.98000 21.81400
H  39.55800 48.89200 20.35300
H  38.97300 46.10500 19.73500
H  40.55200 46.29900 20.64500
H  40.16200 47.13000 19.14500
H  39.30300 44.39700 24.50700
H  37.78100 43.37400 24.80400
H  38.93400 43.69900 26.07400
H  37.62700 46.98900 30.07300
H  33.94900 45.68800 31.73400
H  35.17600 45.81600 32.88800
H  34.96300 44.22800 32.12800

