79

Mg -8.53700 18.27100 42.87800
C  -5.07100 17.71700 42.74700
C  -8.07700 21.57000 41.48600
C  -11.79900 18.50700 42.23800
C  -8.96500 14.77900 43.04400
N  -6.80400 19.43900 42.20800
C  -5.42800 19.06000 42.26700
C  -4.54100 20.19600 41.92900
C  -5.54200 21.38200 41.57700
C  -6.91800 20.75000 41.72800
C  -5.31100 22.71100 42.34500
C  -3.39900 19.85700 40.88000
C  -3.73100 18.90200 39.65500
H  -3.42700 19.52100 38.31100
N  -9.86300 19.92200 42.21500
C  -9.44200 21.17000 41.69600
C  -10.66400 21.88400 41.36100
C  -11.80900 20.99600 41.66400
C  -11.16500 19.74700 42.04600
C  -10.60300 23.27700 40.76700
C  -13.28400 21.34400 41.39300
O  -13.51700 22.40600 40.87100
C  -14.36600 20.52200 41.74700
N  -10.15400 16.81000 42.64300
C  -11.47600 17.24000 42.58700
C  -12.46200 16.14000 42.89300
C  -11.53500 14.91000 42.99400
C  -10.13400 15.51500 42.98000
C  -13.50900 16.33200 44.03700
C  -11.66300 13.81800 41.86800
C  -11.79700 12.31900 42.28100
N  -7.21900 16.57000 43.06500
C  -7.59500 15.18700 43.14700
C  -6.39400 14.46800 43.42200
C  -5.37300 15.40700 43.26900
C  -5.91000 16.63000 43.03400
C  -6.18000 13.06200 43.76600
C  -3.93800 15.58400 43.32900
O  -3.04200 14.76400 43.48700
C  -3.66100 17.09200 43.02900
C  -2.78100 17.66700 44.11100
O  -1.57000 17.77500 43.97600
O  -3.53800 18.18300 45.14300
C  -2.88400 18.83300 46.29000
H  -7.98100 22.62500 41.22200
H  -12.87600 18.50200 42.05400
H  -9.06300 13.69100 43.03300
H  -3.97900 20.41900 42.83600
H  -5.39500 21.62500 40.52500
H  -6.21700 22.91800 42.91300
H  -5.11700 23.49300 41.61100
H  -4.49800 22.52400 43.04600
H  -2.50900 19.54600 41.42700
H  -3.09400 20.78300 40.39200
H  -4.76300 18.56700 39.75900
H  -3.15500 17.97700 39.70400
H  -9.94800 23.32000 39.89700
H  -10.23100 23.89000 41.58800
H  -11.54600 23.73100 40.46100
H  -14.01600 20.11300 42.69400
H  -14.49100 19.63900 41.12000
H  -15.27400 21.10800 41.88900
H  -12.94100 15.91300 41.94100
H  -11.93100 14.41600 43.88100
H  -14.42900 16.49500 43.47600
H  -13.26600 17.23200 44.60200
H  -13.74000 15.51100 44.71700
H  -10.80500 13.87400 41.19800
H  -12.53100 13.94400 41.22100
H  -12.71400 11.90300 41.86200
H  -11.84100 12.34200 43.37000
H  -10.96900 11.69300 41.95100
H  -5.61000 12.66200 42.92700
H  -7.13000 12.54200 43.88800
H  -5.56300 13.11200 44.66300
H  -3.04500 17.05500 42.13100
H  -3.31600 19.83400 46.30700
H  -1.80800 18.79100 46.12500
H  -3.14800 18.27100 47.18600

