79

Mg -11.25100 38.46100 42.09700
C  -9.33300 35.87900 40.58400
C  -9.39900 40.86400 40.68100
C  -13.72300 40.68900 42.89200
C  -13.51300 35.77700 43.12100
N  -9.55300 38.34300 40.80400
C  -8.93800 37.24600 40.30300
C  -7.67000 37.61800 39.55000
C  -7.63300 39.17400 39.64300
C  -8.96300 39.52000 40.38800
C  -6.37300 39.75300 40.35800
C  -7.65800 36.99400 38.11900
C  -6.34800 36.21900 37.75500
H  -5.44800 36.81000 36.67300
N  -11.43500 40.57400 41.92000
C  -10.56200 41.35700 41.25000
C  -11.08700 42.70700 41.34500
C  -12.38600 42.65600 41.84200
C  -12.55600 41.25300 42.25400
C  -10.37500 43.86900 40.66500
C  -13.35700 43.78400 41.99500
O  -13.03500 44.90100 41.61900
C  -14.64000 43.74400 42.86200
N  -13.32900 38.21200 42.77200
C  -14.05000 39.37900 43.17300
C  -15.38000 38.91400 43.71000
C  -15.25200 37.38000 43.76500
C  -13.99300 37.09100 43.10500
C  -15.86600 39.62400 45.04700
C  -16.52000 36.63400 43.23200
C  -17.31600 35.90300 44.32800
N  -11.35000 36.31500 41.98000
C  -12.29400 35.40600 42.48200
C  -11.76800 33.97700 42.29500
C  -10.65900 34.16500 41.53100
C  -10.42700 35.58400 41.36200
C  -12.34400 32.62100 42.68700
C  -9.57400 33.40300 40.91700
O  -9.29900 32.22200 40.93500
C  -8.63200 34.55300 40.29800
C  -7.41300 34.50300 41.23100
O  -7.33200 34.79600 42.43300
O  -6.48900 33.86300 40.46800
C  -5.23800 33.33500 41.04700
H  -8.74400 41.65800 40.31800
H  -14.51400 41.38900 43.17000
H  -14.14500 35.03400 43.61200
H  -6.81800 37.31400 40.15700
H  -7.56800 39.66400 38.67100
H  -6.34400 40.83500 40.22500
H  -5.48000 39.34600 39.88300
H  -6.41100 39.50800 41.41900
H  -7.84800 37.76900 37.37800
H  -8.56700 36.39700 38.04300
H  -6.53800 35.16400 37.55400
H  -5.64900 36.12400 38.58600
H  -10.51500 44.74000 41.30400
H  -10.87400 44.12000 39.72900
H  -9.31800 43.63100 40.54800
H  -15.45500 43.21500 42.36800
H  -14.95200 44.78800 42.89700
H  -14.44600 43.40100 43.87900
H  -16.00800 39.20300 42.86700
H  -15.16600 37.12600 44.82100
H  -16.73800 40.23100 44.80400
H  -15.09300 40.27800 45.45200
H  -16.18500 38.88500 45.78200
H  -16.00300 35.99300 42.51800
H  -17.16500 37.39300 42.78900
H  -17.78300 36.56600 45.05600
H  -16.67900 35.22900 44.90100
H  -18.05500 35.25300 43.86000
H  -12.46100 32.66800 43.76900
H  -11.78600 31.78600 42.26300
H  -13.32700 32.45200 42.24600
H  -8.28600 34.39700 39.27700
H  -4.37100 33.33900 40.38600
H  -5.40200 32.32400 41.41900
H  -5.10000 33.96700 41.92400

