79

Mg 35.51500 1.12300 29.59900
C  33.49500 2.60200 32.03500
C  38.07300 1.09900 31.95000
C  37.59800 0.52700 27.16200
C  32.93500 1.64200 27.42600
N  35.75200 1.77400 31.76800
C  34.75800 2.28200 32.52400
C  35.21100 2.39400 33.97300
C  36.74400 2.15100 33.84500
C  36.88000 1.62200 32.45800
C  37.62600 3.44600 33.98700
C  34.52500 1.35600 34.97700
C  33.82600 1.92800 36.25200
H  34.64900 2.80200 37.10600
N  37.62500 0.65900 29.53500
C  38.45900 0.72300 30.58500
C  39.80200 0.36800 30.17900
C  39.76000 0.28100 28.70600
C  38.25300 0.46000 28.41600
C  41.00500 0.30800 31.22700
C  40.79900 -0.10800 27.68300
O  40.66000 -0.11900 26.48800
C  42.22000 -0.43400 28.13300
N  35.27300 1.00400 27.68300
C  36.32500 0.71900 26.84200
C  35.81000 0.54900 25.37300
C  34.28700 0.75000 25.51400
C  34.11600 1.09600 27.01800
C  36.57700 1.45300 24.32400
C  33.40100 -0.53700 25.13200
C  31.95400 -0.15300 24.74200
N  33.42400 1.79800 29.68400
C  32.55000 1.99700 28.70900
C  31.34700 2.65900 29.23100
C  31.69600 2.92600 30.52900
C  32.94500 2.41200 30.75200
C  30.09300 2.89400 28.46500
C  31.21700 3.55400 31.67400
O  30.24700 4.22100 31.94200
C  32.30100 3.31400 32.73400
C  32.76500 4.52200 33.39300
O  33.66000 5.26400 32.93700
O  31.98500 4.76600 34.52100
C  32.43400 5.94800 35.32600
H  38.85400 1.00600 32.70700
H  38.24400 0.44000 26.28500
H  32.25300 1.84500 26.59700
H  34.94100 3.42100 34.22000
H  37.02500 1.43500 34.61700
H  36.90700 4.16600 34.37900
H  38.21100 3.62900 33.08600
H  38.31100 3.22900 34.80600
H  35.15700 0.56400 35.37700
H  33.68600 0.92200 34.43300
H  33.39000 1.09700 36.80700
H  32.92400 2.48000 35.98700
H  41.83900 -0.23100 30.77600
H  40.89200 -0.24100 32.16200
H  41.32500 1.30000 31.54500
H  42.78500 -0.15900 27.24200
H  42.34400 -1.46300 28.47000
H  42.47200 0.26600 28.92900
H  36.07100 -0.47800 25.11400
H  33.94700 1.60100 24.92300
H  37.29900 0.95900 23.67300
H  37.13100 2.24300 24.83100
H  36.00500 1.83600 23.47800
H  33.46400 -1.22900 25.97100
H  33.90300 -1.03300 24.30100
H  31.81100 -0.59000 23.75400
H  31.76600 0.92000 24.68700
H  31.19500 -0.52700 25.42900
H  30.31300 3.27900 27.46900
H  29.64800 3.74600 28.97900
H  29.43600 2.02900 28.55400
H  31.90400 2.67300 33.52100
H  31.74800 6.77200 35.12900
H  33.44000 6.35200 35.20500
H  32.44000 5.79400 36.40500

