79

Mg 47.63700 17.10500 28.73900
C  45.47500 16.28300 31.45300
C  49.72700 18.60800 31.09800
C  49.69000 18.13100 26.33400
C  45.46400 15.65000 26.55500
N  47.57200 17.39500 31.03200
C  46.61700 16.93000 31.91000
C  46.94700 17.32200 33.34300
C  48.05900 18.45400 33.09300
C  48.56200 18.06900 31.65100
C  47.63100 19.95200 33.25100
C  47.39400 16.04000 34.08500
C  47.02700 16.01300 35.64100
H  46.99600 17.35700 36.39000
N  49.55000 18.25600 28.75300
C  50.21800 18.72600 29.81100
C  51.48200 19.30200 29.35400
C  51.50900 19.12600 27.95500
C  50.21700 18.43700 27.62900
C  52.47000 19.94400 30.25100
C  52.59000 19.39400 26.99100
O  52.56300 18.93000 25.82500
C  53.68400 20.31500 27.34300
N  47.58200 16.89600 26.76300
C  48.56400 17.44100 25.94700
C  48.11500 17.22500 24.46300
C  47.00600 16.11300 24.57500
C  46.62200 16.24100 26.01100
C  47.66100 18.49800 23.67600
C  47.42800 14.59800 24.26100
C  46.46000 13.76700 23.37800
N  45.82100 16.06800 28.89800
C  45.04100 15.56400 27.87100
C  43.87300 14.97200 28.53200
C  43.91400 15.16700 29.87800
C  45.14700 15.90700 30.10000
C  42.76500 14.07200 27.80000
C  43.34900 15.00700 31.20400
O  42.31400 14.49000 31.50400
C  44.28900 15.65100 32.29000
C  43.54900 16.73100 33.10900
O  43.11800 17.81900 32.78000
O  43.57300 16.30200 34.36700
C  43.35700 17.28800 35.42200
H  50.27000 19.11300 31.90000
H  50.21500 18.47100 25.43900
H  44.78800 15.15500 25.85500
H  46.01100 17.70400 33.75000
H  48.85300 18.36800 33.83400
H  46.71600 19.79000 33.82100
H  47.58200 20.36800 32.24500
H  48.32800 20.52400 33.86400
H  48.48200 15.98400 34.13000
H  47.11400 15.09700 33.61400
H  47.83600 15.50500 36.16600
H  46.10800 15.42700 35.64200
H  53.45000 19.52900 30.01500
H  52.27000 19.65700 31.28300
H  52.37200 21.01200 30.05600
H  54.48300 19.81700 27.89300
H  53.21400 21.14000 27.87900
H  54.16000 20.70900 26.44500
H  48.97900 16.80300 23.94900
H  46.14800 16.39500 23.96500
H  46.68100 18.33400 23.22800
H  48.33700 18.74000 22.85700
H  47.61000 19.36700 24.33200
H  47.42200 14.17800 25.26700
H  48.43100 14.63300 23.83500
H  46.89200 13.60700 22.39000
H  45.49000 14.26200 23.33500
H  46.52400 12.80400 23.88500
H  43.31400 13.48900 27.06100
H  41.90300 14.51400 27.29900
H  42.41200 13.36300 28.54900
H  44.67400 14.83600 32.90200
H  43.72600 16.95000 36.39000
H  42.28800 17.36600 35.62000
H  43.63900 18.31400 35.18600

