79

Mg 26.70000 49.61900 25.50200
C  24.67000 50.94400 28.22900
C  29.17600 48.92100 27.80800
C  28.41800 48.45300 23.08300
C  24.35000 51.01700 23.30400
N  26.89900 49.88400 27.71300
C  25.93200 50.35300 28.64800
C  26.40500 50.16600 30.13600
C  27.95300 49.82100 29.89900
C  28.03700 49.44000 28.40700
C  28.87600 51.03000 30.23600
C  25.60800 49.13100 31.09000
C  25.27400 49.64400 32.47100
H  26.26100 50.30700 33.37100
N  28.53500 48.72400 25.50000
C  29.42100 48.54600 26.50900
C  30.57800 47.82300 26.03600
C  30.27200 47.44600 24.66300
C  28.99100 48.16700 24.33400
C  31.81900 47.44700 27.03900
C  30.86900 46.42700 23.75400
O  30.37000 46.33800 22.62700
C  31.92300 45.53900 24.11400
N  26.42400 49.78600 23.47000
C  27.31100 49.21600 22.67500
C  27.12600 49.65000 21.17000
C  25.74100 50.41100 21.21300
C  25.41700 50.39900 22.73200
C  28.25400 50.41200 20.37300
C  24.61200 49.74300 20.28900
C  23.85000 48.48000 20.75500
N  25.00400 50.78600 25.68600
C  24.07800 51.21700 24.68300
C  23.00700 51.97300 25.26600
C  23.25900 51.90400 26.63400
C  24.42500 51.17600 26.85400
C  21.81000 52.47800 24.61500
C  22.59000 52.20900 27.88500
O  21.50800 52.68600 28.10100
C  23.60900 51.75000 28.96600
C  24.19700 52.90300 29.75100
O  25.14800 53.55800 29.40300
O  23.59900 53.15100 30.88000
C  24.12900 54.21500 31.73300
H  29.93300 48.62500 28.53800
H  28.94900 48.23600 22.15500
H  23.64700 51.41600 22.57000
H  26.19900 51.11400 30.63300
H  28.18000 49.12300 30.70400
H  29.76000 51.16800 29.61400
H  29.08200 50.78400 31.27800
H  28.30700 51.95900 30.20600
H  26.25100 48.26400 31.24200
H  24.85300 48.65100 30.46700
H  24.97600 48.69300 32.91200
H  24.38000 50.26800 32.48900
H  31.91200 48.19600 27.82500
H  32.74700 47.45100 26.46700
H  31.86600 46.46100 27.50200
H  31.69300 44.62900 23.55900
H  31.85700 45.33800 25.18300
H  32.85600 45.98900 23.77600
H  27.20600 48.69300 20.65600
H  25.84500 51.42800 20.83400
H  27.93400 50.69000 19.36800
H  29.20800 49.88800 20.33700
H  28.52700 51.32100 20.90900
H  25.19100 49.46700 19.40700
H  23.97600 50.59100 20.03300
H  23.99300 47.75300 19.95600
H  22.81100 48.76300 20.92100
H  24.18400 47.95400 21.65000
H  21.88100 53.44000 24.10700
H  20.95700 52.54200 25.29000
H  21.33000 51.80900 23.90100
H  23.12600 51.16800 29.75200
H  24.04200 55.15000 31.18000
H  25.12200 53.89300 32.04900
H  23.53800 54.15700 32.64700

