79

Mg 36.03000 50.12900 25.85700
C  36.07000 48.23800 28.69900
C  34.56700 52.64300 27.71500
C  35.52700 51.91400 23.04200
C  36.93500 47.39800 23.91700
N  35.51900 50.49400 27.97400
C  35.65000 49.48700 28.90900
C  35.33400 50.11000 30.32800
C  34.58800 51.35700 29.97800
C  34.87000 51.53100 28.44100
C  32.97600 51.37200 30.29000
C  36.56000 50.33000 31.20400
C  36.35800 49.59800 32.53400
H  34.98800 49.67900 33.16600
N  35.30100 52.06600 25.44800
C  34.80900 52.94500 26.38500
C  34.38900 54.12900 25.71500
C  34.69500 54.02700 24.34500
C  35.22800 52.62300 24.19000
C  33.81000 55.25900 26.38500
C  34.41800 55.00400 23.13500
O  34.70900 54.72000 21.92900
C  33.82400 56.42400 23.30800
N  36.36200 49.81100 23.75100
C  36.07900 50.68800 22.78200
C  36.42800 50.11800 21.39300
C  36.93600 48.71400 21.71400
C  36.66700 48.56400 23.21700
C  35.27800 50.25000 20.32700
C  38.31800 48.41200 21.17500
C  39.50900 48.92300 22.02900
N  36.40800 48.17200 26.17600
C  36.80000 47.16700 25.29600
C  37.15200 45.98300 26.07900
C  36.86400 46.35300 27.42200
C  36.44100 47.69700 27.39600
C  37.48700 44.66500 25.50200
C  36.86100 45.82900 28.73900
O  37.24100 44.74000 29.15300
C  36.21100 47.03600 29.63800
C  34.89900 46.48300 30.11800
O  33.91500 46.29100 29.47800
O  35.01400 46.11000 31.38200
C  33.86200 45.56600 32.05400
H  34.07500 53.31800 28.41900
H  35.38700 52.43700 22.09300
H  37.41600 46.57700 23.38100
H  34.62400 49.45700 30.83500
H  34.96800 52.22600 30.51600
H  32.72500 50.37500 30.65300
H  32.41800 51.65800 29.39800
H  32.77600 51.83200 31.25700
H  36.69500 51.40500 31.31900
H  37.44200 49.84400 30.78600
H  37.12100 50.00500 33.19800
H  36.70900 48.57800 32.37400
H  33.51000 55.15900 27.42800
H  32.91300 55.45100 25.79700
H  34.53700 56.06400 26.27200
H  34.28900 57.09500 24.03000
H  32.77200 56.40200 23.59200
H  33.72200 56.92500 22.34500
H  37.27300 50.68800 21.00500
H  36.24300 47.97300 21.31500
H  34.51700 50.92200 20.72500
H  34.91700 49.26800 20.02100
H  35.60400 50.76000 19.42000
H  38.43200 48.88000 20.19700
H  38.35500 47.33100 21.04500
H  39.95700 48.06500 22.53100
H  39.15100 49.64900 22.75900
H  40.31300 49.33100 21.41600
H  37.96800 44.01600 26.23400
H  38.21300 44.86700 24.71400
H  36.63700 44.14300 25.06200
H  36.80000 47.35100 30.49900
H  33.04200 46.27100 31.92000
H  34.04100 45.32100 33.10100
H  33.42800 44.66600 31.61800

