79

Mg -0.69900 18.36200 28.11900
C  -1.21300 16.20900 30.74500
C  -1.49500 21.07000 30.05600
C  -0.39800 20.59800 25.37500
C  -0.34100 15.74900 25.86200
N  -1.11000 18.59800 30.20100
C  -1.26800 17.54300 31.11100
C  -1.47400 18.09400 32.46800
C  -1.83900 19.61400 32.22800
C  -1.35800 19.87900 30.74500
C  -3.29400 20.00000 32.51800
C  -0.30000 17.83300 33.49700
C  -0.73500 17.61300 34.95600
H  0.38600 17.28800 35.91000
N  -0.90200 20.51500 27.76300
C  -1.29900 21.45400 28.71900
C  -1.25800 22.79900 28.17000
C  -0.96300 22.69100 26.76200
C  -0.74300 21.22300 26.58000
C  -1.52200 24.09100 28.98900
C  -0.88200 23.66300 25.64400
O  -0.89000 23.36400 24.46000
C  -0.77700 25.12700 26.01600
N  -0.42300 18.16000 25.98700
C  -0.34400 19.22800 25.10600
C  -0.20200 18.67200 23.63400
C  0.14200 17.23300 23.84900
C  -0.26200 16.99000 25.31100
C  -1.56100 18.85900 22.85400
C  1.65300 16.80800 23.58300
C  2.70200 17.46700 24.50100
N  -0.79100 16.39300 28.19400
C  -0.58100 15.43600 27.23300
C  -0.84400 14.13700 27.79500
C  -1.05000 14.37900 29.14600
C  -1.01400 15.80900 29.34600
C  -0.77200 12.84000 27.11000
C  -1.31500 13.75400 30.46500
O  -1.41300 12.56200 30.73400
C  -1.40100 14.87900 31.56000
C  -0.43400 14.55900 32.65400
O  0.76900 14.69300 32.52400
O  -1.07700 13.83800 33.64300
C  -0.29600 13.27400 34.75000
H  -1.70700 21.98400 30.61500
H  -0.33600 21.28600 24.52900
H  -0.34800 14.98200 25.08400
H  -2.38100 17.56700 32.76500
H  -1.24100 20.34600 32.77100
H  -3.81900 19.17700 33.00200
H  -3.62600 20.18700 31.49600
H  -3.37900 20.92400 33.09100
H  0.34500 18.70900 33.43000
H  0.33000 17.00000 33.18200
H  -1.57100 16.91900 35.04300
H  -0.99500 18.54800 35.45200
H  -1.97200 24.88700 28.39600
H  -0.60800 24.44900 29.46400
H  -2.28500 23.81400 29.71600
H  -0.24000 25.28200 26.95200
H  -1.80600 25.48600 26.02400
H  -0.37900 25.64000 25.14000
H  0.65900 19.12600 23.14400
H  -0.45200 16.67100 23.12900
H  -1.99800 19.80000 23.18900
H  -2.25600 18.02500 22.95700
H  -1.22100 18.92500 21.82000
H  1.88700 17.06400 22.54900
H  1.72500 15.72700 23.70200
H  3.31400 16.75000 25.04600
H  2.37100 18.26600 25.16500
H  3.48300 17.90300 23.87800
H  -1.80200 12.48500 27.14900
H  -0.11800 12.15300 27.64900
H  -0.45600 12.92900 26.07100
H  -2.41200 14.90800 31.96700
H  -0.08100 13.98600 35.54700
H  0.66400 12.93100 34.36200
H  -0.89400 12.41800 35.06200

