79

Mg 36.92600 49.29400 25.44200
C  37.01200 47.10500 28.25700
C  34.87100 51.32000 27.40100
C  36.06900 50.91000 22.67100
C  38.15000 46.61100 23.48100
N  36.13700 49.18400 27.60400
C  36.43200 48.33000 28.62400
C  36.03300 48.74800 30.02100
C  35.07300 49.91100 29.61700
C  35.37100 50.20400 28.15200
C  33.54300 49.76400 30.04000
C  37.35300 49.16200 30.63500
C  37.63200 48.63000 32.01900
H  36.38600 48.51200 32.93200
N  35.83200 50.96100 25.14400
C  35.16600 51.67600 26.06500
C  34.77600 53.02100 25.49300
C  35.05400 52.92500 24.07100
C  35.67800 51.55000 23.90800
C  34.42400 54.23200 26.38300
C  34.84100 53.88900 23.00300
O  35.04500 53.54600 21.84700
C  34.45900 55.31600 23.27000
N  37.17100 48.80500 23.44700
C  36.68200 49.67000 22.45900
C  36.96800 49.17700 21.04600
C  37.83700 47.88600 21.36600
C  37.69100 47.71800 22.80900
C  35.75400 48.99800 20.13700
C  39.34200 48.06100 20.89900
C  40.44700 48.60600 21.84500
N  37.52300 47.30800 25.74800
C  38.09400 46.41500 24.87700
C  38.35900 45.18700 25.60000
C  38.04000 45.48800 26.96700
C  37.47200 46.67500 26.98300
C  38.68500 43.86200 25.03300
C  37.94700 44.87400 28.25500
O  38.16300 43.73200 28.55900
C  37.51700 45.99800 29.20300
C  36.41300 45.39400 30.04300
O  35.26200 45.28800 29.67800
O  36.89400 45.08100 31.30200
C  35.89100 44.78400 32.32000
H  34.24600 51.96400 28.02300
H  35.88500 51.42100 21.72300
H  38.73500 45.87000 22.93200
H  35.45600 47.99400 30.55600
H  35.39200 50.80600 30.15200
H  32.87400 49.78000 29.17900
H  33.39900 50.72200 30.54000
H  33.29200 48.94600 30.71400
H  37.49000 50.23900 30.73400
H  38.17700 48.81000 30.01400
H  38.19000 49.38200 32.57700
H  38.31000 47.77900 32.07900
H  33.82300 54.97300 25.85500
H  35.27900 54.72900 26.84100
H  33.79700 53.93000 27.22200
H  35.18300 55.74700 23.96200
H  33.44400 55.32800 23.66800
H  34.47600 55.81500 22.30100
H  37.57000 49.96200 20.58900
H  37.56100 47.00500 20.78800
H  35.83400 48.19400 19.40600
H  35.51600 49.90500 19.58100
H  34.86600 48.80100 20.73800
H  39.38100 48.61400 19.96100
H  39.70800 47.06900 20.63600
H  39.96300 48.96800 22.75200
H  41.08000 49.33900 21.34400
H  40.96600 47.66400 22.02200
H  39.07300 43.22900 25.83100
H  39.50600 43.92400 24.31900
H  37.85800 43.41200 24.48300
H  38.38900 46.38400 29.73200
H  35.54500 43.75400 32.24500
H  34.97800 45.37400 32.24300
H  36.36100 45.12500 33.24300

