79

Mg 1.51800 9.10200 26.78300
C  1.74200 11.34000 29.57100
C  1.70700 6.51400 29.00300
C  2.13200 7.02800 24.09400
C  1.78600 11.76000 24.64400
N  1.74800 8.98300 29.00600
C  1.45300 9.98300 29.84100
C  1.23600 9.43700 31.25400
C  1.53500 7.93900 31.16600
C  1.63300 7.77200 29.62700
C  2.79500 7.37000 31.90200
C  -0.26100 9.75500 31.68700
C  -0.47400 9.57500 33.20000
H  0.70700 9.01400 34.10900
N  1.76200 6.96300 26.54900
C  1.83500 6.15100 27.64900
C  1.99500 4.77700 27.12300
C  2.00800 4.84900 25.66500
C  1.96100 6.30000 25.35200
C  1.98900 3.52600 28.11300
C  1.98500 3.85700 24.53600
O  1.86700 4.16400 23.33500
C  2.20500 2.44500 24.87500
N  1.68200 9.32900 24.73700
C  1.98100 8.37500 23.84400
C  2.01500 8.94800 22.44200
C  1.41900 10.35100 22.65800
C  1.66600 10.47700 24.11300
C  3.47900 9.01500 21.86000
C  -0.14600 10.45200 22.32100
C  -0.46200 11.46900 21.18400
N  1.76900 11.18800 26.95700
C  1.89100 12.16000 25.99500
C  2.12000 13.44400 26.69100
C  2.08000 13.13800 28.09800
C  1.91000 11.74800 28.21000
C  2.38900 14.80800 26.03400
C  2.16800 13.67700 29.42400
O  2.51700 14.80000 29.64500
C  1.83100 12.52900 30.46700
C  2.93000 12.48100 31.44700
O  4.08700 12.37800 31.16200
O  2.45000 12.57200 32.69500
C  3.40300 12.44100 33.74000
H  1.73900 5.73700 29.77000
H  2.28400 6.52300 23.13800
H  1.71300 12.61000 23.96200
H  1.97500 9.95300 31.86800
H  0.67000 7.37200 31.51000
H  3.21500 7.89900 32.75800
H  3.63800 7.17600 31.23900
H  2.51600 6.42800 32.37400
H  -0.86000 9.12100 31.03400
H  -0.60400 10.76800 31.47900
H  -1.29200 8.86900 33.33800
H  -0.57200 10.58300 33.60200
H  2.70400 3.73300 28.90900
H  2.24700 2.57600 27.64700
H  1.01200 3.46800 28.59300
H  1.27300 2.10900 25.33000
H  2.90100 2.35000 25.70800
H  2.54200 1.87600 24.00900
H  1.39200 8.35300 21.77400
H  1.92300 11.13800 22.09600
H  3.85400 10.03800 21.85500
H  3.27300 8.64000 20.85700
H  4.17600 8.47500 22.50100
H  -0.71900 10.76100 23.19500
H  -0.38600 9.48800 21.87200
H  0.45500 11.37900 20.60100
H  -0.45200 12.50900 21.51100
H  -1.39300 11.36200 20.62700
H  1.56400 15.50000 26.20600
H  2.58200 14.74800 24.96300
H  3.40500 15.00500 26.37600
H  0.91700 12.81900 30.98600
H  4.16900 11.68300 33.57700
H  2.78300 12.16500 34.59200
H  3.74000 13.46400 33.90100

