79

Mg -5.20500 25.32100 25.84700
C  -3.55300 26.53100 28.61000
C  -6.42900 22.84300 27.69100
C  -6.08900 23.91900 22.90700
C  -3.09400 27.55000 23.84800
N  -5.01100 24.77000 27.92100
C  -4.45400 25.52000 28.93000
C  -5.02400 25.10600 30.29800
C  -5.63800 23.71600 29.98000
C  -5.65600 23.69200 28.39500
C  -4.68400 22.59300 30.51900
C  -5.90800 26.24400 31.00300
C  -5.39500 26.63200 32.44100
H  -5.41600 25.44600 33.47000
N  -6.37300 23.76700 25.36800
C  -6.74600 22.82300 26.29500
C  -7.47600 21.74900 25.62000
C  -7.49800 22.13600 24.19200
C  -6.62500 23.35900 24.08000
C  -8.04100 20.52000 26.37400
C  -8.19100 21.38300 23.04800
O  -8.15500 21.81600 21.91000
C  -8.82100 20.04400 23.20300
N  -4.84000 25.84800 23.66100
C  -5.33600 25.03400 22.71300
C  -4.90000 25.53000 21.28300
C  -3.71900 26.50500 21.62200
C  -3.90300 26.71100 23.14400
C  -4.39600 24.37400 20.33900
C  -3.68800 27.76100 20.65700
C  -4.72800 28.85000 20.80300
N  -3.76300 26.81600 26.07900
C  -3.00000 27.63100 25.23600
C  -2.04800 28.45700 25.99700
C  -2.26400 28.09300 27.33100
C  -3.21500 27.02000 27.30400
C  -1.12700 29.43000 25.49800
C  -1.93800 28.37700 28.75500
O  -1.07200 29.20500 29.19100
C  -2.71600 27.38800 29.56800
C  -1.90100 26.53200 30.46200
O  -1.32000 25.51700 30.19400
O  -1.79400 27.17300 31.69000
C  -1.21600 26.55400 32.83900
H  -6.79000 21.93700 28.18100
H  -6.29400 23.33800 22.00500
H  -2.35900 28.11100 23.26700
H  -4.15300 24.95200 30.93500
H  -6.64900 23.49500 30.32400
H  -4.34400 22.83800 31.52500
H  -3.76600 22.55800 29.93200
H  -5.15900 21.61300 30.47200
H  -6.94000 25.90400 31.08600
H  -5.91200 27.10300 30.33100
H  -5.94500 27.50700 32.78600
H  -4.35400 26.95300 32.41200
H  -9.10900 20.36600 26.21500
H  -7.85000 20.45800 27.44600
H  -7.51000 19.67800 25.92900
H  -8.10100 19.27300 23.47900
H  -9.10000 19.66400 22.22000
H  -9.71600 20.07600 23.82500
H  -5.60800 26.14000 20.72300
H  -2.80300 25.93200 21.47600
H  -5.21200 23.78800 19.91700
H  -3.77400 23.66300 20.88300
H  -3.78300 24.69200 19.49500
H  -3.87700 27.47300 19.62300
H  -2.70200 28.22500 20.62700
H  -5.23800 28.83800 21.76600
H  -5.40900 28.78900 19.95300
H  -4.32500 29.85600 20.68500
H  -1.58900 30.11000 24.78200
H  -0.19900 29.06300 25.05900
H  -0.84800 30.08900 26.32000
H  -3.39800 27.93900 30.21600
H  -1.94200 25.87600 33.28600
H  -1.01900 27.34000 33.56900
H  -0.27700 26.07100 32.56700

