79

Mg 6.08900 53.35300 41.67200
C  5.54500 49.91100 41.38200
C  9.29800 52.78000 40.49800
C  6.54000 56.61500 41.88100
C  2.72100 53.74900 42.60300
N  7.25800 51.51300 40.75100
C  6.81900 50.20800 40.90400
C  7.87100 49.27000 40.21900
C  9.20000 50.16800 40.52700
C  8.60800 51.61300 40.63200
C  10.11200 49.83200 41.67300
C  7.64900 48.80200 38.77900
C  6.72100 49.66200 37.92400
H  7.39600 50.37600 36.76800
N  7.76000 54.57300 41.25700
C  8.98600 54.14400 40.83900
C  9.80700 55.39300 40.72200
C  9.10400 56.43900 41.31500
C  7.72900 55.87500 41.55800
C  11.22800 55.23000 40.19200
C  9.66600 57.85600 41.43900
O  10.83100 58.03000 41.07100
C  8.78200 59.06600 41.83900
N  4.76900 54.94600 42.11700
C  5.19400 56.19900 42.07200
C  4.08600 57.25800 42.36900
C  2.81600 56.33800 42.54300
C  3.40300 54.90200 42.43100
C  4.42500 58.31900 43.47400
C  1.60400 56.53200 41.57300
C  0.27100 56.87400 42.22900
N  4.44000 52.11300 41.97400
C  3.16100 52.41500 42.43100
C  2.42800 51.14600 42.75100
C  3.33700 50.15900 42.28300
C  4.48700 50.78600 41.77700
C  1.11100 50.98300 43.38000
C  3.50400 48.74000 42.10000
O  2.72900 47.81500 42.33400
C  4.89100 48.54600 41.51100
C  4.71800 47.68600 40.20800
O  4.06900 48.20700 39.26400
O  5.28800 46.44900 40.37600
C  5.01400 45.60000 39.14300
H  10.32400 52.55700 40.19800
H  6.69800 57.68300 42.04400
H  1.67200 53.98400 42.79200
H  7.95300 48.40700 40.88000
H  9.76900 49.92000 39.63100
H  10.11200 50.60400 42.44300
H  11.16000 49.83400 41.37200
H  9.87800 48.85300 42.09200
H  7.21000 47.80500 38.83200
H  8.64300 48.73300 38.33700
H  6.15100 50.34200 38.55800
H  6.04500 48.99000 37.39500
H  11.95900 55.39300 40.98400
H  11.39500 55.93300 39.37600
H  11.50200 54.22200 39.88200
H  9.37200 59.97900 41.74900
H  8.58500 58.90900 42.89900
H  7.88600 58.98600 41.22400
H  4.05700 57.71700 41.38100
H  2.56700 56.55000 43.58300
H  4.40300 59.28000 42.96000
H  5.36700 58.15200 43.99800
H  3.72700 58.27900 44.31000
H  1.51500 55.55300 41.10300
H  1.75800 57.22200 40.74300
H  -0.54600 56.31800 41.77100
H  0.00800 57.93100 42.19100
H  0.31400 56.68200 43.30100
H  0.48900 50.22500 42.90500
H  0.55800 51.92200 43.39800
H  1.18900 50.78600 44.45000
H  5.41500 47.89000 42.20500
H  3.94700 45.61900 38.91800
H  5.36900 44.61000 39.43000
H  5.57200 45.94400 38.27300

