79

Mg 9.79300 47.79500 26.32300
C  8.07200 47.72200 29.40300
C  12.42500 49.19600 27.95500
C  11.29700 47.87600 23.30600
C  6.81000 46.74900 24.72200
N  10.19500 48.32200 28.45800
C  9.38000 48.07400 29.61800
C  10.17200 48.34000 30.90300
C  11.32000 49.27500 30.29300
C  11.37500 48.94200 28.77500
C  11.09200 50.83500 30.53200
C  10.70200 46.98800 31.65600
C  10.88300 47.15800 33.14200
H  10.07200 46.07500 33.99200
N  11.63700 48.33000 25.79000
C  12.59600 48.93600 26.53400
C  13.82600 49.14900 25.81900
C  13.52000 48.68600 24.49500
C  12.07700 48.25400 24.45100
C  15.04100 49.66100 26.37500
C  14.38800 48.76800 23.26800
O  14.11900 48.33200 22.12100
C  15.74400 49.38100 23.36500
N  9.19300 47.37700 24.21900
C  9.99500 47.49900 23.16300
C  9.42300 46.96400 21.93700
C  8.05900 46.37500 22.48200
C  7.96100 46.82500 23.91800
C  9.45300 48.03100 20.87800
C  7.89000 44.86800 22.43100
C  9.11300 44.06300 22.84100
N  7.88200 47.38200 26.84700
C  6.73800 47.05000 26.10500
C  5.60800 46.85700 26.92100
C  6.06500 47.12800 28.20600
C  7.47300 47.37500 28.13200
C  4.16900 46.47300 26.45600
C  5.66700 47.15400 29.65900
O  4.58000 46.91900 30.18200
C  6.93400 47.45300 30.52000
C  7.18700 46.32500 31.41100
O  7.70900 45.26000 31.07600
O  6.62600 46.69200 32.65300
C  6.40600 45.58000 33.59100
H  13.25400 49.76200 28.38500
H  11.87200 47.89800 22.37800
H  5.97000 46.40300 24.11700
H  9.54100 48.85000 31.63100
H  12.26000 48.92300 30.71800
H  11.96600 51.20100 31.07200
H  10.18300 50.92800 31.12600
H  11.02200 51.43100 29.62200
H  11.69000 46.81900 31.22600
H  10.19600 46.06100 31.38600
H  10.66300 48.14800 33.53900
H  11.91300 46.93700 33.42500
H  15.16000 50.64300 25.91700
H  15.95900 49.09100 26.23100
H  15.01900 49.65900 27.46500
H  15.56300 50.32700 23.87500
H  16.32600 49.64700 22.48300
H  16.37700 48.67900 23.90800
H  10.01300 46.12400 21.57100
H  7.25000 46.77400 21.87100
H  8.54800 48.02600 20.27200
H  10.33800 47.83100 20.27300
H  9.45200 49.06700 21.21800
H  7.71700 44.74500 21.36200
H  7.03600 44.61900 23.06100
H  8.71500 43.28900 23.49800
H  9.76300 44.64100 23.49800
H  9.72600 43.61700 22.05800
H  3.63700 47.42200 26.51600
H  3.62700 45.70800 27.01100
H  4.14000 46.01900 25.46500
H  6.65300 48.38000 31.02000
H  5.35300 45.35100 33.75900
H  6.92500 45.77500 34.53000
H  6.80500 44.61900 33.26700

