79

Mg 35.22700 49.01100 25.25800
C  35.58400 47.33200 28.36500
C  33.95300 51.69200 26.94900
C  34.89300 50.45700 22.27900
C  36.65700 46.19900 23.70200
N  34.71400 49.38000 27.43500
C  34.95000 48.58500 28.55600
C  34.52400 49.36400 29.79400
C  33.83000 50.66100 29.25500
C  34.17400 50.59700 27.79400
C  32.35900 50.99400 29.62400
C  35.74400 49.50400 30.85100
C  35.50000 49.82400 32.32900
H  34.05400 49.56500 32.89400
N  34.56400 50.79800 24.69300
C  34.13500 51.82500 25.52000
C  33.98700 53.04300 24.77500
C  34.09200 52.70200 23.42500
C  34.51700 51.24100 23.42300
C  33.83500 54.36600 25.39300
C  33.97700 53.58000 22.20000
O  34.38200 53.15700 21.12600
C  33.38200 54.98900 22.28100
N  35.79500 48.45000 23.21400
C  35.41300 49.17100 22.12500
C  35.98600 48.56500 20.79400
C  36.65200 47.27200 21.35800
C  36.36800 47.29600 22.83400
C  34.91500 48.30200 19.71200
C  38.17300 47.05900 20.93600
C  39.30100 47.63300 21.86700
N  35.91700 47.14100 25.83100
C  36.48700 46.09900 25.06400
C  36.68200 44.99400 25.94100
C  36.36400 45.45600 27.21900
C  35.95600 46.79100 27.13800
C  37.33000 43.66600 25.46800
C  36.31300 44.99300 28.59900
O  36.59200 43.91300 29.11900
C  35.86200 46.25500 29.43000
C  34.61000 45.88000 30.16200
O  33.49000 45.79700 29.64500
O  35.01000 45.45900 31.46200
C  33.81700 44.92500 32.14400
H  33.44700 52.43300 27.57100
H  34.84500 50.96900 21.31500
H  37.17500 45.35000 23.25100
H  33.73300 48.80000 30.28900
H  34.34500 51.52100 29.68400
H  31.86800 50.12700 30.06700
H  31.79000 51.10500 28.70100
H  32.30000 51.92300 30.19100
H  36.24300 50.41100 30.51000
H  36.39300 48.65200 30.64900
H  35.83200 50.82400 32.60500
H  36.10600 49.22800 33.01200
H  32.90900 54.89800 25.17400
H  34.68900 54.94800 25.04800
H  33.89800 54.21700 26.47100
H  33.93800 55.66500 22.93000
H  32.33000 54.87700 22.54300
H  33.41600 55.38200 21.26500
H  36.79300 49.23600 20.49800
H  36.19300 46.36100 20.97500
H  34.46400 47.32000 19.85700
H  35.43600 48.27200 18.75500
H  34.17500 49.10200 19.68900
H  38.38100 47.49300 19.95900
H  38.33300 45.98200 20.89200
H  39.80500 46.80700 22.37000
H  38.80600 48.30300 22.56900
H  39.96300 48.22200 21.23200
H  36.51800 43.22700 24.88800
H  37.43300 43.24100 26.46600
H  38.25300 43.84800 24.91700
H  36.66700 46.33600 30.16000
H  32.92900 45.55600 32.18500
H  34.09600 44.80800 33.19100
H  33.59000 43.91500 31.80200

