79

Mg 35.38700 2.67200 29.23600
C  33.44700 3.99200 31.79200
C  38.00800 2.66700 31.28700
C  37.21800 1.79100 26.73000
C  32.63400 3.24700 27.04400
N  35.73000 3.53600 31.20900
C  34.77100 3.74800 32.15600
C  35.16100 3.57800 33.56300
C  36.72700 3.49300 33.39500
C  36.85200 3.14500 31.86200
C  37.58300 4.74600 33.68300
C  34.44700 2.50700 34.40900
C  34.08500 2.89700 35.82400
H  35.06200 3.83900 36.63500
N  37.38900 2.16900 29.01400
C  38.28000 2.23600 30.02400
C  39.57400 1.76900 29.56400
C  39.38500 1.49300 28.17300
C  37.96100 1.74900 27.89800
C  40.81500 1.74600 30.45600
C  40.41800 1.20000 27.05000
O  40.00500 1.07800 25.88700
C  41.92300 1.04400 27.35900
N  34.96400 2.49900 27.16700
C  35.94900 2.23200 26.38900
C  35.44600 2.25000 24.92700
C  33.93300 2.38500 25.06900
C  33.80000 2.74400 26.50400
C  36.18700 3.31900 23.97600
C  33.02100 1.19800 24.49300
C  32.71100 0.03300 25.42200
N  33.41000 3.30300 29.38600
C  32.39500 3.39600 28.41000
C  31.13500 3.92100 29.09200
C  31.55700 4.20900 30.39800
C  32.88400 3.78400 30.49000
C  29.83300 4.17200 28.52200
C  31.03800 4.66100 31.66400
O  29.96900 5.08300 32.01500
C  32.21100 4.44800 32.70400
C  32.39000 5.63600 33.57700
O  32.92500 6.64600 33.19100
O  31.74100 5.54500 34.82200
C  31.64800 6.74400 35.65300
H  38.78400 2.40900 32.01100
H  37.77900 1.45700 25.85500
H  31.83700 3.52100 26.35000
H  34.93300 4.50600 34.08800
H  37.09000 2.70600 34.05600
H  36.86800 5.47000 34.07200
H  37.94000 5.17000 32.74400
H  38.42100 4.42500 34.30100
H  35.22700 1.75400 34.52600
H  33.57900 2.04800 33.93500
H  34.10100 1.95000 36.36300
H  33.11100 3.36600 35.96100
H  41.16100 0.71300 30.44100
H  40.60400 2.10000 31.46500
H  41.57900 2.34900 29.96700
H  42.08200 0.11200 27.90200
H  42.23100 1.80000 28.08100
H  42.37500 1.17200 26.37500
H  35.73700 1.30500 24.46800
H  33.64100 3.25600 24.48300
H  36.94000 3.92700 24.47800
H  35.41700 3.98700 23.59000
H  36.65300 2.74400 23.17600
H  33.54900 0.69400 23.68300
H  32.12600 1.53500 23.97100
H  32.71100 -0.91000 24.87500
H  31.72600 0.10200 25.88400
H  33.48800 -0.13000 26.16900
H  29.86000 4.01400 27.44300
H  29.54900 5.22400 28.51300
H  29.09800 3.53200 29.00900
H  31.91500 3.59900 33.32100
H  32.20800 6.58300 36.57300
H  30.65400 7.01900 36.00500
H  32.15200 7.54300 35.10900

