79

Mg 47.00100 24.18800 28.97100
C  47.81100 26.67800 31.48300
C  46.20000 22.10600 31.36300
C  46.95300 21.92400 26.67700
C  48.16100 26.62500 26.57900
N  46.88800 24.44200 31.12300
C  47.28500 25.51100 31.98900
C  46.72300 25.19300 33.40400
C  46.51700 23.68700 33.42400
C  46.47400 23.39400 31.91000
C  47.68000 22.87900 34.15200
C  45.48200 26.06000 33.80700
C  45.64000 26.88400 35.08200
H  44.63300 26.67200 36.19300
N  46.45500 22.26200 28.97200
C  46.14200 21.55500 30.06800
C  45.82800 20.17900 29.62900
C  46.04000 20.12700 28.27500
C  46.52100 21.47700 27.91400
C  45.48600 19.10500 30.66400
C  45.76600 18.89300 27.30900
O  45.88900 19.02800 26.12200
C  45.21500 17.57000 27.84700
N  47.45200 24.28600 26.97000
C  47.33400 23.13700 26.22600
C  47.85000 23.39500 24.89000
C  47.88400 24.95500 24.75300
C  47.91200 25.35300 26.20500
C  49.27300 22.74600 24.62900
C  46.69500 25.57400 23.99700
C  45.43600 25.94400 24.67300
N  47.81500 26.25900 28.94800
C  48.12600 27.10400 27.89800
C  48.47700 28.44200 28.42300
C  48.47100 28.30500 29.85700
C  48.02100 26.95800 30.10100
C  48.94600 29.61700 27.67400
C  48.70400 28.98600 31.13800
O  49.13700 30.06800 31.48500
C  48.27000 27.91500 32.20900
C  49.38400 27.66400 33.14600
O  50.43400 27.07700 32.91100
O  49.08300 28.19000 34.41000
C  50.11400 27.91000 35.42200
H  45.91300 21.47900 32.20900
H  47.15900 21.24600 25.84600
H  48.47300 27.28000 25.76300
H  47.59500 25.46600 33.99900
H  45.55800 23.38100 33.84100
H  47.20600 22.36000 34.98500
H  48.41600 23.60400 34.50200
H  48.23400 22.18000 33.52600
H  44.70900 25.30600 33.95900
H  45.24900 26.78700 33.02900
H  45.47900 27.96200 35.07500
H  46.58300 26.62400 35.56200
H  45.48400 19.47200 31.69000
H  46.13800 18.23800 30.76300
H  44.51000 18.71700 30.37300
H  45.87000 17.35600 28.69200
H  45.05100 16.89300 27.00900
H  44.22000 17.85100 28.19100
H  47.25800 22.89800 24.12200
H  48.78300 25.29600 24.24100
H  49.51600 22.37900 25.62700
H  49.88300 23.58400 24.29200
H  49.14800 21.96800 23.87700
H  46.52900 24.92100 23.14000
H  47.03800 26.53600 23.61900
H  44.62500 25.80000 23.96000
H  45.54100 26.90900 25.16800
H  45.26800 25.15400 25.40500
H  48.29400 29.69400 26.80400
H  50.01000 29.51500 27.46000
H  48.81500 30.54100 28.23800
H  47.32800 28.29800 32.60200
H  50.24900 26.83300 35.51600
H  49.76400 28.29100 36.38200
H  51.00100 28.47400 35.13300

