79

Mg -11.09200 16.65700 41.72900
C  -7.76400 17.37400 41.56100
C  -11.83500 19.99100 41.14500
C  -14.37100 15.85600 41.60300
C  -10.34100 13.25200 42.13100
N  -9.94200 18.42400 41.34500
C  -8.61000 18.44300 41.26800
C  -8.07900 19.83400 40.91700
C  -9.36200 20.75900 41.16200
C  -10.43600 19.66300 41.26200
C  -9.34400 21.51800 42.51900
C  -7.67500 19.89000 39.44000
C  -6.20600 20.33300 39.19200
H  -5.52600 19.65100 38.02300
N  -12.85900 17.76700 41.17300
C  -12.95300 19.09200 41.08500
C  -14.33300 19.41400 40.90000
C  -15.07700 18.21600 40.96700
C  -14.08500 17.20400 41.28400
C  -14.73400 20.82700 40.73800
C  -16.59000 18.13600 40.58600
O  -17.26100 19.15000 40.38800
C  -17.20400 16.74400 40.33500
N  -12.19600 14.75300 41.80400
C  -13.54800 14.70100 41.83100
C  -14.10300 13.30200 42.04300
C  -12.76600 12.41700 42.01900
C  -11.70800 13.51100 41.96700
C  -14.89800 13.12300 43.27600
C  -12.84900 11.39800 40.80400
C  -13.14000 9.91200 41.09100
N  -9.37200 15.46700 41.86600
C  -9.22600 14.14400 42.13000
C  -7.75500 13.82300 41.98100
C  -7.17700 15.12900 41.90400
C  -8.20600 16.06600 41.80100
C  -7.13100 12.49600 41.94500
C  -5.86500 15.80800 41.83500
O  -4.67800 15.44700 41.93500
C  -6.23800 17.31100 41.65100
C  -5.64000 18.10700 42.72300
O  -6.29000 18.65900 43.54100
O  -4.28800 18.05800 42.57700
C  -3.53400 19.11800 43.32300
H  -12.04500 21.05700 41.03000
H  -15.41200 15.60300 41.81500
H  -10.13000 12.19000 42.27200
H  -7.24200 20.16000 41.53500
H  -9.59300 21.44200 40.34400
H  -8.66100 21.05300 43.23100
H  -10.34600 21.63400 42.93200
H  -8.94600 22.50900 42.30200
H  -8.27900 20.47600 38.74800
H  -7.78300 18.89800 39.00200
H  -5.59800 20.31300 40.09600
H  -6.24000 21.36900 38.85500
H  -14.66100 21.14400 39.69800
H  -14.16400 21.47800 41.40100
H  -15.73400 20.79200 41.17000
H  -18.11100 16.89000 39.74900
H  -17.46400 16.19300 41.23900
H  -16.52100 16.20000 39.68300
H  -14.72200 13.17500 41.15400
H  -12.68300 11.84000 42.94000
H  -15.81300 13.68700 43.09300
H  -14.26500 13.60900 44.01900
H  -14.95100 12.07400 43.56800
H  -11.86200 11.42800 40.34200
H  -13.57500 11.79300 40.09300
H  -13.70600 9.81500 42.01700
H  -12.18200 9.41000 41.23100
H  -13.68000 9.49500 40.24100
H  -6.85700 12.38700 40.89500
H  -7.88500 11.71100 41.99900
H  -6.22000 12.35900 42.52800
H  -5.81400 17.74000 40.74300
H  -4.07300 20.06600 43.34100
H  -2.52400 19.20500 42.92300
H  -3.41600 18.79300 44.35600

