79

Mg 7.46500 2.80300 28.09900
C  8.80700 1.32200 30.95700
C  5.26000 4.52100 30.09400
C  6.06400 3.97200 25.27900
C  9.62500 0.90900 26.14500
N  7.02900 2.76700 30.25600
C  7.82800 2.29100 31.25800
C  7.38100 2.68600 32.67100
C  6.15700 3.61500 32.37000
C  6.13100 3.67800 30.79500
C  4.87500 3.22300 33.00700
C  8.49400 3.33900 33.50400
C  8.48700 2.80700 34.99200
H  8.78400 3.92100 35.99900
N  5.94700 4.20500 27.76800
C  5.14300 4.76400 28.68200
C  4.25400 5.70400 28.09600
C  4.59100 5.66000 26.67900
C  5.54700 4.52200 26.49000
C  3.35500 6.56600 28.85100
C  4.18900 6.49700 25.52800
O  4.60100 6.44000 24.37100
C  3.14900 7.58800 25.93600
N  7.75500 2.45100 25.94300
C  7.02100 3.01600 25.07900
C  7.39100 2.67200 23.64000
C  8.59000 1.72000 23.87000
C  8.64600 1.69700 25.39300
C  6.20400 1.96400 22.82500
C  9.99300 2.18600 23.26800
C  10.70300 3.31800 23.89600
N  8.85200 1.30700 28.41200
C  9.66700 0.68100 27.54300
C  10.55700 -0.28300 28.19300
C  10.33400 -0.01100 29.56100
C  9.25600 0.93800 29.63600
C  11.62400 -1.15200 27.57800
C  10.73900 -0.37300 30.90600
O  11.64200 -1.05900 31.34500
C  9.77100 0.55200 31.88400
C  9.02800 -0.34100 32.82000
O  8.10400 -0.98400 32.50000
O  9.67300 -0.36800 34.05400
C  9.27900 -1.34000 35.08200
H  4.65500 5.12600 30.77300
H  5.52300 4.18100 24.35400
H  10.34200 0.31800 25.57200
H  7.04100 1.78800 33.18700
H  6.41000 4.61100 32.73200
H  4.68200 3.95600 33.79000
H  4.97000 2.26700 33.52200
H  3.99900 3.32900 32.36700
H  8.34200 4.41300 33.39800
H  9.52000 3.23700 33.14900
H  9.19500 2.00700 35.21000
H  7.45100 2.53900 35.19500
H  3.79100 7.56400 28.80800
H  3.22600 6.35000 29.91200
H  2.34400 6.57500 28.44300
H  2.25200 7.11000 26.33100
H  2.91900 8.09000 24.99600
H  3.54800 8.38000 26.57000
H  7.81100 3.53700 23.12700
H  8.41600 0.69100 23.55800
H  5.25100 2.12000 23.33000
H  6.31900 0.89700 22.63600
H  6.10300 2.39900 21.83100
H  9.80000 2.55400 22.26100
H  10.67500 1.35800 23.07400
H  10.25800 3.72100 24.80600
H  10.68500 4.11200 23.15000
H  11.72600 3.06400 24.17300
H  11.12800 -2.10500 27.39300
H  12.44200 -1.34900 28.27100
H  11.96400 -0.79000 26.60700
H  10.39500 1.21700 32.48000
H  8.64700 -2.12400 34.66500
H  8.70200 -0.82400 35.84900
H  10.21800 -1.64400 35.54500

