79

Mg 16.98300 -1.14700 27.69100
C  15.98300 0.63000 30.39700
C  19.09700 -3.21700 29.92700
C  18.62500 -2.49900 25.14600
C  15.35500 1.09700 25.70900
N  17.42100 -1.41500 29.96700
C  16.80600 -0.46500 30.81700
C  17.24900 -0.76700 32.24100
C  18.44800 -1.69000 32.07700
C  18.34200 -2.19600 30.57800
C  19.83800 -1.02900 32.28000
C  16.08700 -1.21900 33.21300
C  16.06100 -0.65900 34.67900
H  17.33900 -0.21900 35.42400
N  18.54600 -2.62000 27.52500
C  19.18700 -3.38000 28.50600
C  19.93500 -4.38900 27.92400
C  19.70600 -4.36300 26.48600
C  18.98700 -3.11000 26.32500
C  20.66100 -5.46600 28.70700
C  20.08500 -5.27000 25.42900
O  19.87200 -5.02800 24.21600
C  20.71600 -6.63000 25.70600
N  16.88400 -0.90600 25.69100
C  17.63200 -1.55100 24.79800
C  17.60200 -0.95500 23.43000
C  16.44600 0.14400 23.56200
C  16.12800 0.12700 25.11400
C  18.95700 -0.43500 22.85300
C  15.20300 -0.13400 22.71700
C  15.11700 0.70700 21.37600
N  15.72000 0.49500 27.92200
C  15.30400 1.38200 27.03200
C  14.71000 2.50300 27.72800
C  14.92500 2.23300 29.04700
C  15.56600 0.97900 29.11500
C  14.07800 3.57600 27.09400
C  14.61100 2.66200 30.36400
O  13.90500 3.61100 30.67800
C  15.37300 1.67000 31.33300
C  16.35500 2.50800 32.02200
O  17.50500 2.68100 31.65200
O  15.86700 2.85500 33.28600
C  16.61700 3.87600 34.00200
H  19.83800 -3.73100 30.54300
H  19.01500 -2.82700 24.18000
H  15.03900 1.93200 25.08100
H  17.61600 0.19100 32.60900
H  18.42200 -2.60100 32.67500
H  20.51800 -1.69700 32.80900
H  19.79500 -0.15100 32.92400
H  20.23300 -0.70200 31.31800
H  16.06200 -2.30800 33.19100
H  15.22100 -0.77600 32.72100
H  15.67300 -1.51300 35.23500
H  15.38700 0.19600 34.73200
H  21.68900 -5.33100 28.37000
H  20.46100 -6.52600 28.54800
H  20.83600 -5.35300 29.77700
H  21.53200 -6.30500 26.35100
H  21.05900 -7.07300 24.77100
H  19.96600 -7.22100 26.23100
H  17.33200 -1.77000 22.75900
H  16.81600 1.15000 23.36300
H  19.64800 -0.41000 23.69600
H  18.88800 0.59200 22.49300
H  19.41300 -1.01000 22.04600
H  14.29800 0.01400 23.30500
H  15.16000 -1.13500 22.28700
H  16.06700 1.17500 21.11700
H  14.40900 1.53500 21.40600
H  14.89800 -0.00900 20.58400
H  13.66500 4.29200 27.80500
H  13.23700 3.08500 26.60400
H  14.69200 4.02600 26.31400
H  14.68600 1.30600 32.09800
H  16.02400 4.51100 34.66100
H  17.17300 4.62100 33.43200
H  17.40300 3.31500 34.50800

