79

Mg 17.12100 50.91700 26.12300
C  18.79100 49.91900 29.02900
C  14.64100 52.09100 28.00200
C  15.70800 51.81700 23.23000
C  19.81900 49.57100 24.32500
N  16.73000 50.73700 28.32000
C  17.54600 50.38700 29.32000
C  16.95400 50.69700 30.72700
C  15.48700 51.14700 30.38500
C  15.53600 51.26700 28.80600
C  14.37000 50.18500 30.84400
C  17.87800 51.81200 31.46100
C  18.18500 51.50900 32.99500
H  17.29600 50.55100 33.77800
N  15.45700 51.84900 25.72300
C  14.57900 52.32700 26.64000
C  13.59800 53.20200 25.99100
C  13.88000 53.12000 24.58200
C  15.01300 52.19200 24.46100
C  12.45800 53.90000 26.75900
C  13.27600 53.87800 23.36600
O  13.65800 53.71000 22.21900
C  12.12800 54.84100 23.68000
N  17.65700 50.59700 24.03200
C  16.88800 51.09200 23.01600
C  17.51000 50.78400 21.62100
C  18.82700 50.13500 22.06400
C  18.75800 50.08400 23.55800
C  16.54800 50.03300 20.71100
C  20.07000 50.92400 21.54900
C  20.28800 52.36500 22.11000
N  18.90500 50.02200 26.49000
C  19.91800 49.48600 25.68900
C  20.98600 48.82600 26.47000
C  20.54300 49.02500 27.77700
C  19.29600 49.73900 27.74900
C  22.25400 48.17600 25.94600
C  20.96600 48.75800 29.11600
O  21.97900 48.19500 29.46400
C  19.86400 49.38300 30.05400
C  19.31500 48.21800 30.97200
O  18.55100 47.38500 30.50700
O  19.75000 48.24900 32.28900
C  19.48900 46.95800 32.95200
H  13.79400 52.53100 28.53100
H  15.26600 52.21800 22.31500
H  20.70700 49.29900 23.75100
H  16.88000 49.78000 31.31100
H  15.25500 52.18100 30.63900
H  14.37900 49.90200 31.89700
H  14.40500 49.34900 30.14500
H  13.48900 50.81300 30.71200
H  17.37400 52.77200 31.35000
H  18.75200 51.88500 30.81400
H  18.11000 52.48200 33.47900
H  19.21800 51.18000 33.11200
H  11.54000 54.02900 26.18600
H  12.73200 54.90500 27.08100
H  12.07700 53.24300 27.54100
H  12.34300 55.60600 24.42700
H  11.18700 54.38100 23.98200
H  11.95000 55.41300 22.76900
H  17.56500 51.72300 21.07000
H  18.94100 49.16500 21.57900
H  16.78300 49.18400 20.06900
H  15.94900 50.59900 19.99800
H  15.72200 49.66200 21.31800
H  19.83600 51.01900 20.48900
H  21.02000 50.40800 21.69000
H  21.33200 52.50400 22.38900
H  19.70200 52.50500 23.01800
H  19.88300 53.07400 21.38800
H  22.71700 48.74700 25.14100
H  21.83700 47.22400 25.61800
H  23.04700 48.04300 26.68200
H  20.33000 50.14800 30.67500
H  19.83200 46.11400 32.35300
H  18.47600 46.77900 33.31300
H  20.04000 46.85100 33.88700

