79

Mg 24.31500 -5.19300 46.08800
C  26.24100 -2.77900 44.10200
C  21.60000 -4.41500 44.07200
C  22.84600 -7.84500 47.20400
C  27.43200 -6.06100 47.47400
N  24.02400 -3.81800 44.27800
C  24.91700 -2.89800 43.67700
C  24.19900 -1.99400 42.71600
C  22.69300 -2.39300 42.84900
C  22.75200 -3.65300 43.79000
C  21.71900 -1.35900 43.35500
C  24.71300 -2.10800 41.21800
C  24.82300 -0.87500 40.35000
H  24.61400 -1.04900 38.79000
N  22.40100 -5.99500 45.71300
C  21.44900 -5.54100 44.89800
C  20.35100 -6.41100 44.98200
C  20.75700 -7.50500 45.75900
C  22.05800 -7.17400 46.28000
C  19.00700 -6.12100 44.35200
C  19.80000 -8.70300 45.99500
O  18.68300 -8.71900 45.53100
C  20.31600 -9.78600 46.82900
N  25.08900 -6.78100 47.11100
C  24.21900 -7.65100 47.62000
C  25.01700 -8.58700 48.61300
C  26.39500 -7.89900 48.82300
C  26.34800 -6.90800 47.69000
C  24.28400 -9.02000 49.87600
C  27.71100 -8.86900 48.94900
C  28.40700 -9.27400 47.63100
N  26.34700 -4.44200 45.94300
C  27.47400 -4.96100 46.58900
C  28.63400 -4.14400 46.18500
C  28.20800 -3.28900 45.23300
C  26.83400 -3.54600 45.10600
C  30.03100 -4.22600 46.80800
C  28.61800 -2.15100 44.40200
O  29.66900 -1.46500 44.33400
C  27.27400 -1.75400 43.65300
C  26.88600 -0.34100 44.08400
O  26.30900 -0.01600 45.08800
O  27.42000 0.53800 43.19700
C  27.31700 2.02100 43.22500
H  20.83800 -4.11400 43.35000
H  22.39700 -8.64500 47.79700
H  28.33900 -6.30400 48.03000
H  24.30100 -1.04500 43.24100
H  22.29300 -2.76000 41.90400
H  21.11700 -0.83700 42.61000
H  22.19200 -0.53100 43.88300
H  21.04200 -1.75900 44.10900
H  24.08300 -2.81500 40.67800
H  25.66200 -2.64200 41.25000
H  25.89000 -0.65500 40.40100
H  24.16000 -0.11100 40.75500
H  18.93700 -6.72700 43.44800
H  18.82300 -5.12300 43.95400
H  18.10700 -6.40900 44.89500
H  20.29800 -9.21300 47.75600
H  21.31500 -10.14700 46.58300
H  19.66500 -10.65100 46.95400
H  25.24200 -9.48200 48.03200
H  26.27400 -7.19400 49.64500
H  24.46400 -10.08700 50.00800
H  23.24400 -8.71100 49.77300
H  24.77000 -8.51200 50.70900
H  27.51800 -9.81700 49.45100
H  28.41700 -8.17400 49.40400
H  28.05500 -10.29000 47.45200
H  29.48300 -9.10400 47.66900
H  28.04500 -8.72500 46.76200
H  30.59600 -3.33500 46.53500
H  30.62300 -5.05600 46.42200
H  30.15900 -4.27700 47.89000
H  27.36000 -1.82400 42.56800
H  26.55000 2.30500 42.50400
H  28.24500 2.49200 42.90200
H  27.13100 2.39200 44.23300

