79

Mg 8.04300 2.40000 27.81400
C  9.94200 0.92000 30.52600
C  6.32900 4.20600 30.07500
C  6.43700 3.57800 25.20300
C  9.56200 -0.10000 25.78200
N  8.18800 2.44500 30.06600
C  9.10300 1.92800 30.97400
C  8.99400 2.58500 32.36700
C  7.64700 3.43800 32.14600
C  7.32800 3.38900 30.67200
C  6.48000 3.00400 32.97200
C  10.29200 3.32900 32.73000
C  10.97200 2.82700 34.03600
H  11.03000 3.81100 35.19300
N  6.58500 3.74600 27.65400
C  6.03100 4.43800 28.69700
C  5.03900 5.35300 28.09100
C  5.08700 5.21400 26.71200
C  6.04700 4.19900 26.45200
C  4.23900 6.28500 29.03900
C  4.38000 5.99100 25.60800
O  4.38700 5.67300 24.38400
C  3.68800 7.29300 25.99600
N  8.04700 1.84500 25.82600
C  7.20400 2.43200 24.89700
C  7.47700 1.93900 23.46000
C  8.61100 0.94600 23.72500
C  8.72600 0.85800 25.21200
C  6.17200 1.29100 22.80600
C  9.99600 1.23300 23.08100
C  10.89800 0.10500 22.57600
N  9.44700 0.66400 28.04300
C  9.91100 -0.16000 27.13600
C  10.84400 -0.98500 27.74300
C  10.93400 -0.63900 29.07300
C  9.98900 0.38800 29.24600
C  11.54200 -2.09700 27.01200
C  11.59100 -0.96200 30.42900
O  12.40000 -1.76400 30.77000
C  10.88700 0.10400 31.35400
C  10.23400 -0.55500 32.53600
O  9.13300 -1.02000 32.53400
O  11.01200 -0.39700 33.67400
C  10.35500 -0.76000 34.95600
H  5.76200 4.90900 30.68900
H  5.92800 3.91900 24.29900
H  10.18400 -0.69500 25.11100
H  8.90500 1.80300 33.12200
H  7.77100 4.51800 32.22600
H  5.92000 2.28200 32.37800
H  5.84000 3.84900 33.22500
H  6.73100 2.41700 33.85500
H  9.99500 4.37500 32.81200
H  11.05100 3.16100 31.96600
H  11.99900 2.53200 33.82400
H  10.52000 1.90700 34.40700
H  4.31700 6.03600 30.09800
H  3.24900 6.51300 28.64500
H  4.73900 7.24700 28.92500
H  2.80500 7.14300 26.61700
H  3.30100 7.68200 25.05300
H  4.39700 7.98300 26.45300
H  7.75800 2.78700 22.83500
H  8.32600 0.02100 23.22400
H  5.31900 1.71100 23.33900
H  6.01600 0.21300 22.83100
H  6.21100 1.77300 21.82900
H  10.53000 1.76700 23.86700
H  9.74500 1.91000 22.26400
H  11.76700 -0.07100 23.20900
H  11.35700 0.34600 21.61700
H  10.43400 -0.87300 22.45000
H  12.55100 -2.34700 27.34200
H  11.68400 -1.96900 25.93900
H  10.85200 -2.92700 27.16300
H  11.64400 0.73400 31.82100
H  10.41200 -1.82700 35.17100
H  9.30200 -0.47900 34.91200
H  10.97100 -0.17900 35.64200

