79

Mg -1.66300 16.68400 27.16500
C  -2.00200 14.39900 29.78600
C  -2.70200 19.13800 29.27900
C  -1.81900 18.74100 24.53000
C  -1.44200 14.01300 25.04500
N  -2.08600 16.74700 29.32000
C  -2.00600 15.75800 30.24300
C  -2.06200 16.28700 31.71900
C  -2.40300 17.83800 31.50700
C  -2.43900 17.87200 29.92400
C  -3.71800 18.38000 32.13300
C  -0.77700 15.97600 32.54700
C  -0.44900 17.01300 33.65900
H  0.26700 16.48000 34.96700
N  -2.01800 18.72700 26.95800
C  -2.44500 19.59400 27.96200
C  -2.55200 20.94400 27.41000
C  -2.10000 20.82300 26.05400
C  -1.97000 19.37900 25.77500
C  -2.93500 22.16600 28.31600
C  -1.91100 21.86600 24.92200
O  -1.43100 21.57200 23.83600
C  -2.36700 23.31000 25.07400
N  -1.74800 16.40900 25.05800
C  -1.69400 17.39000 24.17400
C  -1.60400 16.93000 22.72600
C  -1.53900 15.42700 22.86700
C  -1.49100 15.26100 24.41300
C  -2.75500 17.44100 21.73500
C  -0.54500 14.61200 22.04300
C  0.88000 14.65300 22.68300
N  -1.71700 14.60200 27.30300
C  -1.53500 13.63600 26.34900
C  -1.57800 12.35300 26.87600
C  -1.80200 12.59000 28.25200
C  -1.90200 13.94300 28.48700
C  -1.50700 11.03100 26.17900
C  -1.98700 11.96000 29.52100
O  -2.00000 10.76300 29.91200
C  -2.22600 13.12600 30.54600
C  -1.49400 12.89900 31.79100
O  -0.32700 12.57000 31.74300
O  -2.22900 13.02800 32.96800
C  -1.48500 12.67700 34.22400
H  -2.74800 19.91700 30.04200
H  -1.91500 19.38400 23.65400
H  -1.12200 13.13200 24.48400
H  -2.82200 15.79500 32.32600
H  -1.54700 18.41800 31.85300
H  -4.30100 18.85400 31.34400
H  -3.42700 19.17500 32.81900
H  -4.37800 17.65700 32.61200
H  -0.00200 15.89000 31.78400
H  -0.97500 15.10400 33.17000
H  -1.45700 17.35000 33.90200
H  0.04300 17.83500 33.14000
H  -3.97700 22.18500 28.63900
H  -2.64300 23.05200 27.75200
H  -2.31000 22.12600 29.20800
H  -1.74800 23.74200 25.86100
H  -3.35900 23.17900 25.50700
H  -2.37200 23.73900 24.07200
H  -0.68200 17.38600 22.36500
H  -2.57600 15.14300 22.68300
H  -3.51400 16.70300 21.47400
H  -2.29800 17.60600 20.76000
H  -3.21500 18.32600 22.17400
H  -0.58500 15.10500 21.07100
H  -0.87600 13.57800 21.94800
H  1.60800 15.02000 21.95900
H  1.14000 13.62800 22.94800
H  0.96600 15.28600 23.56600
H  -1.84400 11.01900 25.14300
H  -2.07300 10.28200 26.73300
H  -0.44900 10.76800 26.16000
H  -3.27400 13.25700 30.81400
H  -2.26200 12.33900 34.91000
H  -0.97400 13.52100 34.68800
H  -0.85900 11.82200 33.97200

