79

Mg 0.22400 43.40900 25.74800
C  1.71400 43.53000 28.89000
C  -2.81900 42.68800 27.16900
C  -1.14100 42.75100 22.60300
C  3.41900 43.96800 24.24500
N  -0.39900 43.05900 27.79500
C  0.32000 43.28500 28.94800
C  -0.50900 43.05600 30.24300
C  -1.92100 42.71900 29.56500
C  -1.75000 42.82100 28.07500
C  -2.68200 41.47300 30.13000
C  -0.46400 44.34600 31.09600
C  -0.07200 44.02000 32.56300
H  -0.14800 42.51000 33.00100
N  -1.70500 42.87800 24.99900
C  -2.81300 42.74000 25.82300
C  -3.96200 42.57100 24.97600
C  -3.51900 42.53300 23.60700
C  -2.06600 42.69300 23.68100
C  -5.39200 42.35300 25.55500
C  -4.41900 42.46200 22.35600
O  -3.91600 42.28200 21.25100
C  -5.94600 42.53300 22.45300
N  1.08000 43.18200 23.78500
C  0.28200 42.95400 22.66900
C  1.13400 42.99100 21.41300
C  2.44200 43.76900 21.86400
C  2.36200 43.63300 23.39900
C  1.42700 41.59500 20.76500
C  2.67200 45.28000 21.57100
C  1.38500 46.09000 21.66800
N  2.15400 43.55200 26.37600
C  3.34900 43.81800 25.67700
C  4.38200 44.08700 26.68400
C  3.86700 43.91500 27.93800
C  2.46700 43.69100 27.73500
C  5.81900 44.54100 26.34600
C  4.14400 43.95000 29.34100
O  5.18700 44.16200 29.90200
C  2.82700 43.65200 29.98500
C  3.08200 42.30300 30.59100
O  2.73900 41.22500 30.15200
O  3.68900 42.54500 31.75100
C  4.21000 41.32000 32.44700
H  -3.78300 42.52100 27.65500
H  -1.53000 42.84100 21.58700
H  4.37200 44.24700 23.79200
H  -0.02100 42.16900 30.64800
H  -2.55300 43.57100 29.81200
H  -2.00300 40.93300 30.79000
H  -2.93500 40.81200 29.30100
H  -3.66200 41.78700 30.48900
H  -1.45400 44.80100 31.13400
H  0.27000 44.97700 30.59500
H  -0.48600 44.63800 33.36000
H  0.96800 44.34000 32.48800
H  -5.97200 43.17200 25.13000
H  -5.47000 42.69800 26.58600
H  -5.71500 41.35500 25.25700
H  -6.37600 41.64300 22.91400
H  -6.27700 42.69900 21.42800
H  -6.14900 43.46900 22.97300
H  0.52300 43.59900 20.74500
H  3.28500 43.32700 21.33200
H  2.38700 41.31400 20.33000
H  0.59300 41.54900 20.06500
H  1.17000 40.75700 21.41300
H  3.14900 45.38700 20.59700
H  3.30400 45.80800 22.28600
H  1.06000 46.27300 20.64400
H  1.59100 47.04700 22.14700
H  0.67000 45.58100 22.31500
H  6.40100 43.74500 25.88100
H  6.37800 44.66600 27.27300
H  5.79500 45.37500 25.64400
H  2.65500 44.45100 30.70600
H  4.65400 40.65000 31.71000
H  3.41900 40.77300 32.95900
H  4.95200 41.59400 33.19700

