79

Mg 41.52800 41.88900 26.84100
C  40.45800 44.23400 29.30900
C  42.22800 39.86600 29.26100
C  42.84900 39.90700 24.51900
C  41.23000 44.44900 24.51600
N  41.31000 42.11900 29.03300
C  40.75000 43.01000 29.87200
C  40.72200 42.63700 31.37500
C  41.61600 41.30800 31.36100
C  41.75000 41.04700 29.80100
C  42.97500 41.34900 32.03200
C  39.27600 42.52600 31.97100
C  39.00300 43.29900 33.28700
H  38.56700 42.46600 34.48000
N  42.34600 40.09800 26.85600
C  42.54500 39.41200 27.98600
C  43.10500 38.12700 27.68400
C  43.27500 38.07900 26.24400
C  42.79400 39.40500 25.80000
C  43.26400 37.02000 28.72000
C  43.75600 37.00000 25.30800
O  43.85100 37.18200 24.12300
C  44.07000 35.65500 25.86600
N  41.73000 42.12500 24.65200
C  42.42600 41.17800 24.00300
C  42.77200 41.68600 22.56000
C  41.97200 43.02800 22.45800
C  41.66500 43.21800 23.97400
C  44.23300 41.74000 22.20100
C  40.66300 42.92100 21.66400
C  40.27800 44.29100 21.27100
N  40.90100 43.85000 26.83400
C  40.87000 44.78900 25.84400
C  40.46300 46.10100 26.36000
C  40.20000 45.87500 27.71100
C  40.54100 44.54300 27.95800
C  40.35800 47.52100 25.72400
C  39.64600 46.52400 28.92900
O  39.23500 47.64500 29.22600
C  39.87200 45.40500 29.98800
C  40.78900 45.97600 30.99200
O  41.98300 46.03900 30.85700
O  40.13500 46.38900 32.10800
C  40.96500 46.62800 33.34000
H  42.45100 39.17700 30.07900
H  43.32600 39.27300 23.76900
H  41.19900 45.24400 23.76900
H  41.30200 43.38900 31.90900
H  41.18000 40.50100 31.95000
H  43.00700 41.92900 32.95400
H  43.67800 41.88400 31.39400
H  43.39800 40.34400 32.03200
H  38.95500 41.48900 32.06200
H  38.64700 43.02400 31.23200
H  38.23400 44.05600 33.13300
H  39.94400 43.79600 33.52500
H  43.57400 37.50500 29.64600
H  44.18700 36.51500 28.43700
H  42.46900 36.27500 28.73000
H  43.20500 35.23900 26.38200
H  44.87900 35.87500 26.56200
H  44.45500 35.02000 25.06800
H  42.40200 40.92000 21.87900
H  42.66100 43.86200 22.32200
H  44.56100 42.69300 22.61700
H  44.42400 41.66300 21.13000
H  44.68800 40.91200 22.74500
H  39.88700 42.47200 22.28400
H  40.77100 42.39700 20.71400
H  39.67600 44.64500 22.10800
H  39.71400 44.37000 20.34200
H  41.08800 45.01800 21.21700
H  40.89700 48.21200 26.37200
H  39.28300 47.62600 25.58000
H  40.86000 47.61000 24.76100
H  38.91900 45.15900 30.45800
H  42.00200 46.29400 33.31800
H  40.55500 46.16500 34.23700
H  40.98500 47.69300 33.56900

