79

Mg 35.34300 2.14400 29.70800
C  33.05100 3.26900 32.18700
C  37.83200 2.32000 32.12200
C  37.63600 1.67500 27.28600
C  32.78900 2.39300 27.29000
N  35.41700 2.66000 31.90600
C  34.37900 3.07300 32.71400
C  34.82300 3.29000 34.15800
C  36.32500 2.97200 34.10800
C  36.58000 2.63600 32.59900
C  37.22700 4.13700 34.69900
C  33.98700 2.41900 35.15900
C  34.49800 2.06800 36.58500
H  35.05300 3.19100 37.40000
N  37.40400 1.88700 29.73900
C  38.27900 1.94400 30.79500
C  39.61100 1.62300 30.40200
C  39.60900 1.35100 29.01600
C  38.18500 1.68900 28.59100
C  40.75200 1.58100 31.32900
C  40.78500 1.01200 28.16300
O  40.68500 0.86300 26.96400
C  42.15900 0.81000 28.74300
N  35.23500 1.92200 27.70300
C  36.29000 1.77800 26.86400
C  35.90900 1.86500 25.31900
C  34.39100 1.82600 25.44900
C  34.10300 2.03500 26.95200
C  36.42000 3.19600 24.73900
C  33.66600 0.49200 24.96900
C  32.58900 0.56300 23.87300
N  33.28700 2.68700 29.65900
C  32.37300 2.86100 28.60000
C  31.11000 3.38000 29.11600
C  31.37200 3.49000 30.54800
C  32.67900 3.06800 30.80200
C  29.90000 3.72100 28.30500
C  30.74600 3.96200 31.79800
O  29.61500 4.49700 31.98700
C  31.77200 3.62600 32.98500
C  31.96800 4.85900 33.85100
O  32.76400 5.83500 33.66200
O  31.18000 4.67500 35.03200
C  31.15100 5.81600 35.91200
H  38.70800 2.38000 32.77100
H  38.36200 1.53500 26.48200
H  32.03100 2.35600 26.50400
H  34.68400 4.34700 34.38600
H  36.60300 2.02100 34.56300
H  36.67000 4.88800 35.26000
H  37.66500 4.72900 33.89500
H  38.00100 3.80500 35.39100
H  33.78400 1.43800 34.73000
H  33.07700 3.01500 35.22400
H  35.22000 1.26900 36.41800
H  33.60900 1.70500 37.10100
H  41.69500 1.95400 30.92800
H  40.92700 0.54100 31.60400
H  40.56700 2.20600 32.20200
H  42.54300 1.78200 29.05300
H  42.77200 0.34200 27.97300
H  42.22400 0.08600 29.55500
H  36.42300 1.02400 24.85400
H  33.95900 2.69800 24.95900
H  35.70300 3.99500 24.54700
H  36.95200 2.98500 23.81100
H  37.17000 3.68900 25.35700
H  33.26200 -0.12300 25.77300
H  34.35700 -0.20200 24.48900
H  33.22600 0.43200 22.99900
H  32.15200 1.56100 23.91200
H  31.92700 -0.29700 23.97300
H  29.46700 4.43900 29.00100
H  29.19000 2.89600 28.23400
H  30.12600 4.24500 27.37700
H  31.29300 2.79900 33.51100
H  30.80900 5.55300 36.91300
H  30.64500 6.65400 35.43100
H  32.12900 6.26600 36.08500

