79

Mg -6.37000 25.35100 26.15500
C  -5.04700 26.88200 29.09100
C  -8.11200 23.26100 28.28600
C  -7.08400 23.43800 23.49100
C  -4.22600 27.21700 24.29500
N  -6.43800 25.09300 28.44000
C  -5.91400 25.87000 29.44200
C  -6.46100 25.49000 30.83100
C  -7.30100 24.20900 30.57100
C  -7.28200 24.17200 29.01000
C  -6.86100 22.90200 31.25600
C  -7.08300 26.60600 31.65500
C  -6.72300 26.73700 33.15000
H  -6.06400 25.60500 33.86500
N  -7.54300 23.71400 25.88100
C  -8.17800 22.99700 26.88500
C  -9.10400 22.11800 26.26400
C  -8.91000 22.20500 24.87000
C  -7.81000 23.14600 24.68700
C  -10.14000 21.28500 27.05500
C  -9.64700 21.55400 23.72500
O  -9.34900 21.83400 22.59600
C  -10.62400 20.46200 24.07200
N  -5.79700 25.29600 24.25200
C  -6.21700 24.50300 23.23200
C  -5.45700 24.61700 21.95400
C  -4.86700 26.10100 22.16500
C  -4.87300 26.13600 23.73400
C  -4.47000 23.49000 21.61500
C  -5.64000 27.23300 21.47200
C  -5.15100 27.85900 20.15800
N  -4.99400 26.84300 26.56100
C  -4.19100 27.55200 25.66600
C  -3.52000 28.65100 26.38500
C  -3.78600 28.37300 27.70800
C  -4.71800 27.30700 27.76200
C  -2.69600 29.75200 25.73400
C  -3.46400 28.76600 29.02800
O  -2.67300 29.60500 29.47300
C  -4.30000 27.83500 29.91500
C  -3.26400 27.13500 30.79100
O  -2.58300 26.20500 30.49600
O  -3.34100 27.77900 31.97000
C  -2.25700 27.52200 32.88400
H  -8.73100 22.59300 28.88900
H  -7.18200 22.68200 22.71000
H  -3.74300 27.85200 23.55000
H  -5.59100 25.24700 31.44100
H  -8.26800 24.58000 30.91200
H  -7.38800 22.05300 30.81900
H  -7.14900 22.90400 32.30700
H  -5.78100 22.79600 31.35300
H  -8.17200 26.58000 31.69700
H  -6.85000 27.48700 31.05700
H  -7.60900 27.04800 33.70400
H  -6.03200 27.57800 33.10700
H  -9.88100 21.40900 28.10600
H  -10.26400 20.24200 26.76200
H  -11.08700 21.80400 26.90300
H  -10.14300 19.71400 24.70300
H  -11.06200 20.15800 23.12200
H  -11.43400 20.82600 24.70500
H  -6.11500 24.76400 21.09800
H  -3.80200 26.21100 21.96100
H  -4.48100 22.81000 22.46700
H  -3.45600 23.74200 21.30300
H  -4.89400 22.97700 20.75300
H  -5.83800 28.05300 22.16300
H  -6.66200 26.88900 21.31400
H  -4.71300 28.83400 20.37200
H  -5.87300 27.85700 19.34100
H  -4.23000 27.36400 19.85100
H  -2.07100 29.30200 24.96300
H  -2.11200 30.35000 26.43400
H  -3.42900 30.32900 25.17100
H  -4.89200 28.47300 30.57100
H  -1.28400 27.89400 32.56300
H  -2.24600 26.49000 33.23200
H  -2.53100 28.11600 33.75600

