79

Mg 52.72500 24.27100 45.77500
C  50.29300 26.13700 44.41500
C  51.93700 21.60500 43.82700
C  55.88100 22.89500 46.34600
C  54.15300 27.37500 46.95100
N  51.26900 23.94500 44.36300
C  50.41900 24.80800 43.88200
C  49.58300 24.25700 42.71500
C  49.90700 22.77900 42.71600
C  51.12300 22.75300 43.65300
C  48.65000 21.82800 43.17600
C  49.98100 25.01500 41.42400
C  48.97800 25.04300 40.28800
H  49.39900 24.28000 38.89700
N  53.64000 22.39700 45.31400
C  53.09700 21.38200 44.55200
C  53.91000 20.24000 44.66300
C  55.09200 20.57800 45.38700
C  54.93700 22.03200 45.73800
C  53.39900 18.92400 44.12200
C  56.16300 19.58300 45.82000
O  56.05200 18.39300 45.48300
C  57.14100 19.92400 46.82000
N  54.74900 25.07800 46.56600
C  55.78500 24.28300 46.68300
C  56.91600 25.07900 47.49900
C  56.52100 26.55200 47.45500
C  55.04300 26.35700 47.00400
C  57.00900 24.47500 48.89100
C  57.32400 27.42700 46.45600
C  58.37000 28.29800 47.13100
N  52.19800 26.21400 46.03500
C  52.79800 27.33900 46.59300
C  51.90600 28.53800 46.46800
C  50.92100 28.00100 45.65700
C  51.14300 26.65600 45.39400
C  52.11900 29.97600 47.00600
C  49.79100 28.49200 44.94100
O  49.22300 29.57200 44.81600
C  49.28700 27.29600 44.10100
C  49.21900 27.88100 42.67600
O  50.17200 28.21600 42.02200
O  47.89300 27.99500 42.38800
C  47.34400 28.48100 41.08500
H  51.54800 20.75300 43.26600
H  56.87900 22.49700 46.54100
H  54.63500 28.31900 47.21700
H  48.51100 24.40600 42.84100
H  50.32900 22.45100 41.76600
H  48.76700 20.87100 42.66600
H  47.71400 22.26800 42.83200
H  48.63100 21.60500 44.24300
H  50.83100 24.48000 41.00000
H  50.41200 25.97200 41.72100
H  48.78400 26.11100 40.19000
H  48.06300 24.49400 40.51000
H  54.02600 18.60900 43.28800
H  52.32900 18.90100 43.91500
H  53.45000 18.05100 44.77300
H  58.08200 20.18100 46.33300
H  57.32800 19.08300 47.48900
H  56.90000 20.76700 47.46800
H  57.75900 24.77400 46.87900
H  56.58400 26.96900 48.46000
H  58.00400 24.76000 49.23300
H  56.94700 23.38800 48.84100
H  56.19800 24.83400 49.52500
H  56.61400 28.04800 45.90900
H  57.92700 26.77000 45.82900
H  58.45300 29.28400 46.67500
H  59.35700 27.83400 47.15300
H  58.02200 28.49700 48.14500
H  52.59700 30.65000 46.29500
H  52.94300 30.00600 47.71900
H  51.31100 30.38000 47.61600
H  48.30400 27.05600 44.50500
H  47.51700 28.00600 40.11900
H  47.91200 29.39100 40.89200
H  46.26000 28.54600 41.17800

