79

Mg 42.05200 41.23500 26.02200
C  41.11200 43.48500 28.48300
C  43.18200 39.00400 28.39000
C  43.07200 39.17400 23.47900
C  41.30900 43.69100 23.65900
N  42.23100 41.31300 28.17000
C  41.60100 42.23100 28.99800
C  41.69000 41.80000 30.48500
C  42.49800 40.45300 30.41300
C  42.66800 40.17700 28.92500
C  43.87100 40.38100 31.12700
C  40.34200 41.80400 31.28000
C  40.34200 41.21400 32.71700
H  39.84800 42.09600 33.78300
N  43.02700 39.31700 25.95600
C  43.40200 38.58900 27.07000
C  43.83100 37.22800 26.62700
C  43.79900 37.22200 25.19800
C  43.32500 38.66100 24.79500
C  44.23100 36.23000 27.66200
C  44.23900 36.18200 24.22400
O  44.16000 36.36400 22.98600
C  44.81200 34.83600 24.78300
N  42.34700 41.48700 24.01500
C  42.69000 40.49600 23.13100
C  42.34300 40.74000 21.71800
C  41.51200 42.00300 21.84400
C  41.78300 42.48200 23.24500
C  43.56500 40.89900 20.79300
C  40.01200 41.81000 21.58200
C  39.25800 40.84500 22.51100
N  41.48900 43.27300 26.03700
C  41.25800 44.12700 25.00700
C  40.88700 45.43800 25.65300
C  40.69100 45.26800 26.96400
C  41.19500 43.89200 27.14800
C  40.47700 46.60000 24.75400
C  40.27500 45.88400 28.24000
O  39.88600 46.94500 28.68700
C  40.67100 44.73500 29.31700
C  41.60700 45.36900 30.26000
O  42.82300 45.29200 30.06600
O  41.08100 45.75500 31.50200
C  42.09900 46.34900 32.41600
H  43.44100 38.28600 29.17100
H  43.22400 38.44600 22.67900
H  40.95700 44.37200 22.88200
H  42.39700 42.54500 30.85100
H  41.92400 39.58300 30.73200
H  44.70200 40.05200 30.50300
H  43.73900 39.51900 31.78100
H  44.05700 41.33500 31.62200
H  39.63700 41.34600 30.58600
H  40.04400 42.84400 31.41100
H  41.41700 41.10600 32.86400
H  39.82700 40.25600 32.79000
H  45.22800 36.23200 28.10200
H  44.14000 35.26000 27.17300
H  43.47700 36.13900 28.44400
H  45.22900 34.31300 23.92200
H  44.06200 34.18500 25.23200
H  45.53300 34.95700 25.59100
H  41.70800 39.93400 21.35000
H  41.84800 42.83000 21.21800
H  44.42000 40.38300 21.22800
H  43.83700 41.95200 20.71800
H  43.41600 40.51800 19.78300
H  39.99800 41.36700 20.58600
H  39.48300 42.76300 21.60500
H  39.22800 39.86400 22.03800
H  38.28000 41.11900 22.90600
H  39.80300 40.66700 23.43900
H  39.90300 46.34600 23.86300
H  41.38500 47.14800 24.50200
H  39.84900 47.27100 25.34100
H  39.78000 44.56900 29.92400
H  42.97700 46.82600 31.98000
H  42.43200 45.47000 32.96700
H  41.62400 47.08400 33.06500

