79

Mg 50.30900 45.32200 42.16800
C  47.31700 46.36500 40.68800
C  50.10800 42.28400 40.39900
C  53.61100 44.83600 42.78200
C  50.72800 48.73000 43.14500
N  48.97700 44.54100 40.65800
C  47.77700 45.10000 40.19900
C  46.98100 44.10500 39.36500
C  47.67900 42.74600 39.58600
C  49.05700 43.16800 40.18200
C  46.82400 41.74500 40.42300
C  46.86700 44.58900 37.81400
C  45.49500 44.72300 37.20100
H  45.42500 44.54600 35.70100
N  51.65600 43.70300 41.74400
C  51.26500 42.50500 41.15100
C  52.34300 41.59500 41.28000
C  53.49600 42.26300 41.97900
C  52.93600 43.65900 42.27400
C  52.35100 40.19900 40.69100
C  54.83200 41.69600 42.43900
O  55.16000 40.59900 42.19200
C  55.74400 42.49600 43.31700
N  52.02900 46.65200 42.76300
C  53.24600 46.18900 43.03900
C  54.22100 47.36700 43.45000
C  53.14300 48.48700 43.87000
C  51.89300 47.97200 43.19800
C  55.25800 47.02500 44.57900
C  53.65100 49.89400 43.60500
C  53.38400 50.98600 44.63400
N  49.21100 47.11100 42.18600
C  49.47200 48.37700 42.60400
C  48.37500 49.25300 42.34900
C  47.46800 48.49700 41.68100
C  48.06800 47.17200 41.56800
C  48.35900 50.73300 42.60100
C  46.17000 48.48900 40.92900
O  45.37800 49.39200 40.65600
C  45.92000 47.04700 40.39900
C  44.75800 46.54700 41.09600
O  43.63200 46.43800 40.69100
O  45.22000 46.12800 42.29300
C  44.24500 45.42600 43.24000
H  50.00000 41.26200 40.03100
H  54.67700 44.73600 42.99900
H  50.69800 49.73600 43.56900
H  45.95400 44.03800 39.72200
H  47.80200 42.31000 38.59400
H  46.63400 40.81800 39.88300
H  45.80900 42.13600 40.49400
H  47.25900 41.43600 41.37400
H  47.60300 43.97800 37.29100
H  47.34200 45.55900 37.66300
H  45.01500 45.65500 37.49900
H  44.93400 43.93100 37.69700
H  51.83500 40.10600 39.73600
H  51.77100 39.60600 41.39900
H  53.34300 39.86500 40.38900
H  55.07000 42.90600 44.06900
H  56.33000 43.20000 42.72700
H  56.39300 41.87700 43.93700
H  54.77400 47.63600 42.55000
H  52.91000 48.41600 44.93300
H  55.25900 47.80600 45.33900
H  56.23400 47.06700 44.09500
H  55.10600 46.02600 44.98600
H  53.15700 50.26900 42.70900
H  54.72800 49.90200 43.43700
H  52.30700 50.96300 44.80500
H  53.57100 51.91100 44.08900
H  53.89100 50.82100 45.58400
H  47.89300 51.08900 43.51900
H  47.60400 51.07200 41.89200
H  49.29200 51.25800 42.39400
H  45.71500 47.12400 39.33200
H  43.53300 46.17300 43.59000
H  44.90400 44.96500 43.97600
H  43.72800 44.71600 42.59500

