79

Mg 24.16800 -5.69900 46.32500
C  26.14400 -3.30500 44.60700
C  21.62600 -4.90100 43.99800
C  22.56800 -8.52000 47.23800
C  26.94900 -6.75100 47.94600
N  23.93900 -4.27700 44.44200
C  24.87400 -3.42000 43.99200
C  24.32200 -2.58900 42.87200
C  22.80700 -2.76100 43.06600
C  22.75200 -4.09100 43.81000
C  22.04600 -1.71300 43.90900
C  24.86900 -2.99600 41.45300
C  25.32300 -1.69100 40.68300
H  24.72100 -1.46600 39.20400
N  22.32200 -6.45100 45.86300
C  21.45700 -6.05600 44.86200
C  20.31100 -6.92900 44.87700
C  20.45800 -7.85800 45.89700
C  21.84000 -7.63600 46.44800
C  19.05100 -6.65300 43.93700
C  19.40700 -8.91300 46.29600
O  18.32600 -8.89600 45.72900
C  19.53000 -10.08500 47.28700
N  24.73500 -7.47600 47.33600
C  23.85100 -8.45700 47.70600
C  24.57400 -9.57200 48.65300
C  25.85300 -8.67500 49.11900
C  25.88600 -7.59400 48.05300
C  23.63600 -10.24900 49.76300
C  27.10400 -9.55300 49.29500
C  27.88400 -9.18900 50.57700
N  26.08400 -5.15800 46.37600
C  27.10500 -5.64100 47.08200
C  28.36100 -4.88900 46.89100
C  27.99500 -4.05200 45.93400
C  26.61900 -4.20700 45.60600
C  29.69600 -5.04200 47.52500
C  28.50300 -2.89900 45.15000
O  29.59400 -2.40700 45.07800
C  27.27800 -2.43900 44.25300
C  27.21300 -0.93000 44.38100
O  26.48300 -0.33700 45.15000
O  28.03700 -0.32000 43.47500
C  28.13600 1.13300 43.43100
H  20.89500 -4.52900 43.27700
H  21.95900 -9.38200 47.51800
H  27.72900 -6.99300 48.67000
H  24.50400 -1.55500 43.16400
H  22.34600 -2.84600 42.08200
H  21.57100 -2.15600 44.78500
H  21.23100 -1.32800 43.29700
H  22.66100 -0.83000 44.08400
H  24.24600 -3.54300 40.74500
H  25.79100 -3.55200 41.62200
H  26.41300 -1.66200 40.70500
H  25.07800 -0.82400 41.29700
H  18.91700 -7.53500 43.31100
H  19.16100 -5.72500 43.37500
H  18.18600 -6.33400 44.51900
H  20.01700 -9.65700 48.16300
H  20.13700 -10.90000 46.89500
H  18.54400 -10.46600 47.55400
H  24.94900 -10.44000 48.11100
H  25.56700 -8.16400 50.03800
H  22.64400 -9.79700 49.73700
H  23.94200 -10.03200 50.78600
H  23.61800 -11.33200 49.64000
H  27.74400 -9.37700 48.43100
H  26.73500 -10.57800 49.33900
H  28.90200 -8.84600 50.39200
H  27.92800 -10.12700 51.13100
H  27.31000 -8.45900 51.14800
H  30.47400 -4.85700 46.78500
H  29.66700 -6.05400 47.92900
H  29.97900 -4.34400 48.31200
H  27.55800 -2.62400 43.21600
H  27.47900 1.64800 44.13100
H  27.94000 1.45500 42.40800
H  29.15200 1.44600 43.66900

