79

Mg 1.52500 8.47600 25.79300
C  2.33200 10.37800 28.59600
C  1.95100 5.65100 27.64400
C  1.38700 6.56200 23.06400
C  1.54300 11.34300 23.86800
N  2.00200 8.05900 27.81900
C  2.21700 8.99800 28.81800
C  2.28500 8.37700 30.20800
C  2.35600 6.88600 29.81600
C  2.12600 6.85600 28.30600
C  3.75100 6.11800 30.12300
C  1.07200 8.87600 30.92100
C  1.12600 8.79500 32.49500
H  2.42500 8.15500 33.11000
N  1.39300 6.40400 25.41700
C  1.61600 5.37500 26.27200
C  1.37500 4.10300 25.68500
C  1.16500 4.39400 24.32500
C  1.30500 5.88400 24.19600
C  1.33100 2.83700 26.53600
C  0.83800 3.43900 23.21900
O  0.59000 3.75200 22.07300
C  0.93600 1.93600 23.60100
N  1.44800 8.93100 23.76300
C  1.43800 7.94400 22.81700
C  1.24900 8.56400 21.40700
C  0.96200 10.02000 21.73300
C  1.36700 10.12600 23.22500
C  2.52400 8.26100 20.60300
C  -0.56100 10.45100 21.53800
C  -0.97200 10.95000 20.17200
N  1.89800 10.44400 26.11600
C  1.94000 11.52900 25.21500
C  2.35400 12.74200 25.93100
C  2.41700 12.33600 27.30800
C  2.16900 10.93000 27.36400
C  2.30300 14.08000 25.35600
C  2.75600 12.86200 28.64600
O  3.16400 13.97100 28.96300
C  2.56000 11.64300 29.57000
C  3.79700 11.54400 30.44500
O  4.89400 11.25800 30.06000
O  3.39400 11.90000 31.67600
C  4.48500 12.23900 32.55800
H  2.17400 4.76100 28.23700
H  1.47300 5.78800 22.29800
H  1.33200 12.25100 23.29900
H  3.17100 8.72600 30.73700
H  1.51100 6.28700 30.15500
H  3.50100 5.33000 30.83300
H  4.53100 6.71900 30.59100
H  4.18300 5.69000 29.21800
H  0.28000 8.19300 30.61400
H  0.70000 9.86800 30.66800
H  0.34200 8.12400 32.84700
H  1.05000 9.82000 32.85700
H  1.43400 2.98900 27.61000
H  2.25100 2.34600 26.21700
H  0.53400 2.10400 26.41600
H  1.81800 1.79300 24.22400
H  1.21100 1.54500 22.62200
H  0.01300 1.47500 23.95400
H  0.49000 8.00700 20.85600
H  1.52800 10.56300 20.97700
H  3.21200 8.03800 21.41800
H  2.89300 9.10700 20.02300
H  2.38200 7.32900 20.05600
H  -0.79500 11.13500 22.35400
H  -1.20100 9.64600 21.90100
H  -0.17700 10.67900 19.47700
H  -1.12100 12.01200 19.97700
H  -1.86900 10.38600 19.91700
H  1.22500 14.22400 25.41700
H  2.53700 14.10300 24.29100
H  2.96500 14.84100 25.76800
H  1.63900 11.89200 30.09600
H  5.04000 13.04700 32.08200
H  5.27100 11.53300 32.82700
H  4.08900 12.68600 33.47000

