79

Mg 25.10300 -7.27600 48.01400
C  27.34600 -5.09000 46.82400
C  22.97800 -6.51700 45.36500
C  23.08300 -9.93800 48.76700
C  27.44700 -8.47800 50.21100
N  25.14500 -5.97100 46.26900
C  26.19300 -5.14000 46.01900
C  25.90100 -4.19300 44.80600
C  24.34800 -4.46000 44.63100
C  24.12500 -5.73600 45.45100
C  23.35100 -3.27100 45.08600
C  26.75200 -4.49400 43.48500
C  27.45400 -3.25900 42.88800
H  27.07900 -2.80400 41.46600
N  23.19500 -8.06900 47.23200
C  22.56400 -7.56100 46.14600
C  21.33600 -8.32300 45.89800
C  21.33400 -9.42700 46.83100
C  22.53600 -9.15600 47.70200
C  20.29900 -7.90400 44.83400
C  20.30300 -10.59300 46.81500
O  19.45200 -10.66100 45.89500
C  20.21800 -11.67400 47.82600
N  25.25000 -8.99800 49.32700
C  24.29500 -9.89900 49.53900
C  24.83600 -11.13100 50.29000
C  26.15900 -10.59600 50.78000
C  26.30900 -9.25100 50.05400
C  23.96500 -11.54000 51.57600
C  27.40300 -11.56200 50.39300
C  28.29900 -11.96400 51.60800
N  26.94800 -6.80500 48.48200
C  27.80500 -7.33100 49.48800
C  28.97100 -6.48000 49.60400
C  28.86400 -5.62100 48.54200
C  27.61500 -5.84600 47.88900
C  30.10100 -6.60000 50.59100
C  29.50700 -4.52900 47.87500
O  30.59400 -4.04200 48.01800
C  28.49300 -4.14400 46.73000
C  28.25700 -2.72700 46.94500
O  28.05000 -2.16700 48.03200
O  28.08000 -2.08400 45.76000
C  27.68200 -0.63800 45.78800
H  22.44100 -6.34000 44.43000
H  22.68700 -10.93900 48.94600
H  28.22000 -8.92600 50.84000
H  25.92000 -3.14800 45.11600
H  24.01800 -4.60700 43.60300
H  23.82300 -2.34600 45.41700
H  22.95000 -3.69100 46.00900
H  22.59400 -3.06400 44.33000
H  25.95000 -4.74000 42.78800
H  27.48000 -5.29600 43.60500
H  28.51500 -3.49500 42.80000
H  27.37700 -2.33700 43.46500
H  20.57900 -7.96700 43.78200
H  20.13000 -6.83000 44.90100
H  19.33900 -8.37800 45.04200
H  20.09800 -11.25200 48.82400
H  21.07800 -12.34000 47.74800
H  19.26500 -12.18000 47.66900
H  24.82800 -12.04100 49.68900
H  26.10600 -10.20100 51.79500
H  23.50900 -10.58800 51.85000
H  24.48500 -11.94700 52.44300
H  23.27600 -12.25600 51.12900
H  27.89900 -11.16100 49.50900
H  26.97400 -12.54100 50.17900
H  29.34400 -11.89700 51.30500
H  28.17600 -13.02100 51.84500
H  28.08200 -11.30800 52.45100
H  29.89200 -6.33300 51.62700
H  30.98000 -6.05700 50.24300
H  30.47900 -7.62300 50.57800
H  29.05300 -4.16300 45.79500
H  28.16300 -0.18100 46.65300
H  26.61500 -0.49800 45.96100
H  27.97500 -0.25500 44.81000

