79

Mg 5.75200 54.00500 40.44000
C  4.92300 50.44300 40.21900
C  8.71000 53.14600 38.92200
C  6.07700 57.18400 40.07500
C  2.46800 54.33800 41.68300
N  6.70500 51.94400 39.67700
C  6.18000 50.70800 39.65100
C  7.21000 49.69500 39.11300
C  8.53600 50.63100 38.95200
C  7.96900 52.04700 39.14100
C  9.60100 50.30900 40.01300
C  6.89000 49.19700 37.71400
C  6.14200 50.22600 36.76900
H  6.23900 50.13700 35.30700
N  7.22900 54.98200 39.62600
C  8.46900 54.47900 39.07900
C  9.27500 55.62700 38.85700
C  8.48100 56.76300 39.02600
C  7.21900 56.36200 39.58900
C  10.70500 55.46800 38.36900
C  8.99800 58.15800 38.77300
O  10.18500 58.38100 38.53800
C  8.22300 59.38900 38.96200
N  4.41500 55.56000 40.73100
C  4.85200 56.85800 40.63100
C  3.75500 57.88100 41.17000
C  2.60900 56.87200 41.55700
C  3.16300 55.50500 41.25400
C  4.35500 58.71800 42.32600
C  1.26200 57.18100 40.89000
C  -0.10900 56.88900 41.64900
N  4.00000 52.63300 40.91300
C  2.79000 52.99100 41.49700
C  1.98300 51.82600 41.73900
C  2.85600 50.78900 41.40000
C  4.01200 51.34000 40.76700
C  0.57400 51.78200 42.26400
C  3.01900 49.38300 41.28700
O  2.32600 48.48600 41.74000
C  4.32300 49.06200 40.50100
C  3.93700 48.15800 39.39100
O  3.28100 48.46300 38.37700
O  4.49800 46.94000 39.65100
C  4.36200 45.90300 38.57800
H  9.71100 53.02800 38.50100
H  6.30300 58.24800 39.98100
H  1.52800 54.54500 42.20000
H  7.45200 48.86100 39.77100
H  8.95600 50.70800 37.94900
H  9.53800 49.28000 40.36800
H  9.65600 51.10500 40.75500
H  10.51300 50.28400 39.41700
H  6.20600 48.37700 37.92900
H  7.79000 48.81500 37.23200
H  6.50300 51.24600 36.90600
H  5.08100 50.09300 36.97800
H  10.83700 56.01000 37.43200
H  11.07300 54.44500 38.28300
H  11.34800 55.88500 39.14500
H  8.79100 60.26700 38.65500
H  8.01500 59.46500 40.02900
H  7.36900 59.29800 38.29000
H  3.50900 58.47200 40.28800
H  2.39800 56.99300 42.62000
H  5.42300 58.85500 42.15800
H  4.10000 58.27500 43.28900
H  3.81000 59.66200 42.32600
H  1.26400 56.71200 39.90600
H  1.38600 58.19300 40.50200
H  -0.49900 57.86100 41.95300
H  -0.07800 56.23300 42.51900
H  -0.75500 56.37700 40.93600
H  -0.01500 52.26300 41.48300
H  0.36600 52.36500 43.16200
H  0.20500 50.78600 42.51100
H  5.00500 48.57800 41.19900
H  4.57300 46.22900 37.56000
H  3.36100 45.47000 38.57600
H  5.12100 45.18300 38.88400

