79

Mg -10.18200 39.05600 41.23400
C  -9.00000 35.81300 40.70500
C  -7.13300 40.13700 39.96900
C  -11.32700 42.20100 41.01600
C  -13.39300 37.81600 41.96400
N  -8.35500 38.02500 40.27000
C  -8.08900 36.71100 40.22600
C  -6.75700 36.55100 39.43000
C  -6.03500 37.89700 39.62000
C  -7.26500 38.74400 39.98000
C  -4.95300 37.92000 40.69100
C  -7.08300 36.12300 37.96200
C  -6.11700 35.12600 37.31300
H  -5.70400 35.71300 35.94500
N  -9.37300 40.94800 40.62300
C  -8.09100 41.18800 40.17600
C  -7.85800 42.55700 39.99200
C  -9.06700 43.14400 40.33000
C  -9.98900 42.10600 40.62800
C  -6.64200 43.17800 39.43200
C  -9.35300 44.68500 40.31800
O  -8.44600 45.50700 39.98600
C  -10.74100 45.29300 40.55400
N  -12.18100 39.93900 41.24400
C  -12.34500 41.28600 41.30800
C  -13.78200 41.63300 41.86500
C  -14.42400 40.16400 42.03200
C  -13.26500 39.19400 41.70700
C  -13.92200 42.52200 43.01100
C  -15.73500 39.84300 41.13400
C  -16.87900 39.24300 41.87200
N  -11.02000 37.24800 41.34300
C  -12.32700 36.88500 41.81800
C  -12.42300 35.44800 41.89200
C  -11.14100 34.96400 41.46400
C  -10.31700 36.12300 41.13300
C  -13.54800 34.55800 42.35300
C  -10.30500 33.82000 41.27900
O  -10.52000 32.64300 41.46400
C  -8.91900 34.30400 40.76300
C  -7.75100 33.80200 41.54600
O  -6.94600 32.98100 41.14500
O  -7.84500 34.16400 42.86900
C  -6.93400 33.64600 43.85500
H  -6.15700 40.43700 39.58200
H  -11.73300 43.19100 41.23300
H  -14.40800 37.52200 42.23500
H  -6.25200 35.71400 39.91300
H  -5.65700 38.17300 38.63600
H  -4.63500 36.92600 41.00700
H  -5.31200 38.45900 41.56800
H  -4.17600 38.47100 40.16100
H  -7.24000 37.02600 37.37200
H  -8.04400 35.61400 38.03100
H  -6.70600 34.22100 37.17000
H  -5.24100 34.87200 37.91000
H  -6.74800 43.26900 38.35100
H  -5.75700 42.54200 39.46700
H  -6.40800 44.14300 39.88100
H  -11.38500 44.98600 39.73000
H  -10.61100 46.37500 40.53500
H  -11.16700 44.95500 41.49900
H  -14.37400 42.16600 41.12200
H  -14.68900 40.09500 43.08700
H  -14.91000 42.51000 43.47200
H  -13.83800 43.58400 42.77700
H  -13.07600 42.26400 43.64800
H  -15.56800 39.17000 40.29300
H  -16.18000 40.74800 40.72000
H  -17.70800 39.93400 42.02900
H  -16.52800 38.97400 42.86800
H  -17.34400 38.39300 41.37300
H  -13.26000 33.62900 42.84400
H  -13.93600 34.13100 41.42800
H  -14.21500 35.11200 43.01300
H  -8.78300 33.90100 39.76000
H  -6.23400 32.87600 43.53200
H  -7.45800 33.25200 44.72600
H  -6.40000 34.51800 44.23300

