79

Mg 23.74800 -5.31500 46.28800
C  25.81800 -2.73200 45.13100
C  21.24000 -4.04600 44.23200
C  22.18100 -8.21200 46.38100
C  26.57400 -6.73000 47.98100
N  23.56300 -3.53900 44.83900
C  24.54500 -2.72000 44.41800
C  24.00100 -1.63200 43.47200
C  22.48100 -1.83700 43.57100
C  22.39100 -3.17800 44.27900
C  21.80300 -0.71200 44.48000
C  24.52100 -1.70500 42.06800
C  24.76000 -0.34100 41.31400
H  24.04900 -0.14400 39.96400
N  21.87300 -6.01400 45.47700
C  20.99100 -5.37100 44.66500
C  19.83000 -6.20100 44.49700
C  20.04600 -7.49100 45.15700
C  21.40400 -7.26500 45.72800
C  18.66300 -5.76700 43.57500
C  19.12500 -8.75400 45.32700
O  18.09900 -8.79900 44.64600
C  19.38200 -9.90700 46.18300
N  24.39500 -7.17200 46.98400
C  23.46200 -8.17400 47.02700
C  24.06100 -9.46300 47.60600
C  25.53100 -9.02100 47.93500
C  25.52000 -7.53700 47.61900
C  23.14100 -9.94800 48.78100
C  26.75900 -9.85000 47.23600
C  27.75200 -10.43800 48.22500
N  25.71300 -4.74000 46.74100
C  26.76400 -5.41300 47.45700
C  27.85100 -4.46400 47.58600
C  27.50200 -3.41500 46.70300
C  26.24900 -3.64400 46.19100
C  29.17100 -4.71700 48.23400
C  28.00800 -2.17200 46.11100
O  29.02500 -1.50300 46.28800
C  26.87800 -1.68700 45.05800
C  26.57300 -0.30600 45.52400
O  26.19700 0.04700 46.63900
O  26.79100 0.53400 44.43100
C  26.31700 1.89400 44.59900
H  20.36900 -3.65600 43.70100
H  21.91100 -9.24100 46.13700
H  27.37300 -7.24300 48.52100
H  24.35500 -0.70700 43.92700
H  21.95500 -1.89500 42.61900
H  22.47500 0.10100 44.75600
H  21.41300 -1.04800 45.44100
H  20.99300 -0.24100 43.92300
H  23.89500 -2.34100 41.44200
H  25.46200 -2.25500 42.06500
H  25.84500 -0.25200 41.28100
H  24.41800 0.46100 41.96800
H  18.19500 -6.67000 43.18200
H  19.13600 -5.16100 42.80300
H  17.87400 -5.26600 44.13500
H  18.47900 -10.40200 46.54000
H  19.88600 -9.52900 47.07200
H  19.92600 -10.73100 45.72100
H  24.14800 -10.11600 46.73700
H  25.54100 -9.14100 49.01800
H  22.37300 -10.53100 48.27500
H  22.58900 -9.15900 49.29300
H  23.82400 -10.45300 49.46500
H  27.42000 -9.25600 46.60500
H  26.38200 -10.72300 46.70200
H  27.51100 -11.49900 48.28500
H  27.64700 -9.99500 49.21600
H  28.77700 -10.40500 47.85500
H  29.16500 -4.04000 49.08800
H  29.99300 -4.40900 47.58800
H  29.16300 -5.78500 48.45400
H  27.44200 -1.69400 44.12500
H  25.58000 1.93100 45.40000
H  25.92400 2.28000 43.65800
H  27.17000 2.48200 44.93900

