79

Mg 15.92300 -1.26800 27.85600
C  14.69800 0.92300 30.39500
C  18.19600 -2.38200 30.17600
C  17.51600 -2.95300 25.36100
C  14.51500 0.88300 25.55100
N  16.41500 -0.68800 29.99700
C  15.73500 0.15300 30.84400
C  16.22900 0.00200 32.31800
C  17.50700 -0.90900 32.15400
C  17.39900 -1.33900 30.73800
C  18.84400 -0.24200 32.48000
C  15.16800 -0.51000 33.33600
C  15.09000 0.41500 34.57400
H  16.39400 1.05100 35.17100
N  17.29100 -2.75800 27.80400
C  18.13400 -3.09600 28.89900
C  18.91900 -4.25800 28.55900
C  18.70600 -4.48700 27.16500
C  17.75500 -3.34800 26.73300
C  19.85500 -4.97700 29.51100
C  19.31400 -5.41000 26.17300
O  18.99300 -5.43300 24.95800
C  20.40400 -6.37600 26.64900
N  16.09000 -1.04200 25.73000
C  16.70200 -1.93100 24.87600
C  16.45400 -1.64100 23.40700
C  15.40100 -0.43300 23.46500
C  15.27800 -0.19800 25.00400
C  17.78900 -1.31700 22.56000
C  14.06600 -0.79000 22.94900
C  13.27900 0.38200 22.32400
N  14.69700 0.49200 27.90800
C  14.19200 1.16800 26.90300
C  13.35200 2.28200 27.40900
C  13.43300 2.14400 28.82000
C  14.36000 1.10400 29.02600
C  12.59200 3.27700 26.52800
C  13.02900 2.84100 29.97100
O  12.36000 3.83400 30.19900
C  13.75500 1.95300 31.14000
C  14.48000 2.91500 31.92500
O  15.50400 3.47900 31.57700
O  13.81200 3.23300 33.08100
C  14.29400 4.50400 33.66400
H  18.84700 -2.76900 30.96200
H  17.86600 -3.60400 24.55700
H  14.09600 1.49300 24.74800
H  16.57300 0.99100 32.62000
H  17.41000 -1.85200 32.69100
H  18.65400 0.68500 33.02200
H  19.37500 0.00400 31.56100
H  19.36200 -0.89500 33.18200
H  15.38000 -1.55200 33.57700
H  14.23000 -0.53000 32.78000
H  14.60100 -0.08200 35.41200
H  14.43200 1.22700 34.26300
H  19.47100 -5.98000 29.69500
H  19.90600 -4.40900 30.43900
H  20.87700 -4.95500 29.13200
H  21.12300 -6.01500 27.38400
H  20.96800 -6.59700 25.74300
H  19.83200 -7.19300 27.08900
H  15.99900 -2.51200 22.93500
H  15.83500 0.51400 23.14600
H  17.89400 -0.24500 22.39500
H  17.86100 -1.74800 21.56200
H  18.65700 -1.43800 23.20800
H  13.50900 -1.35800 23.69300
H  14.29500 -1.45700 22.11700
H  12.81100 0.10100 21.38100
H  13.92700 1.24400 22.16400
H  12.45600 0.68500 22.97100
H  13.34300 3.98200 26.17300
H  11.84400 3.84200 27.08500
H  12.11100 2.85100 25.64800
H  13.05000 1.42000 31.77800
H  13.51500 4.81800 34.35800
H  14.48900 5.34300 32.99500
H  15.16600 4.16900 34.22500

