79

Mg 30.50000 57.98400 40.43800
C  27.79900 55.99900 39.18500
C  32.69400 55.49800 39.28400
C  33.03400 60.15000 40.87800
C  28.19200 60.57700 40.95000
N  30.23900 55.98300 39.31600
C  29.08300 55.36200 39.09200
C  29.38200 53.92400 38.46700
C  30.87700 53.72500 38.80400
C  31.33200 55.16400 39.19100
C  31.24500 52.73400 39.85100
C  29.12700 53.80500 36.86800
C  28.08700 52.92200 36.34700
H  27.06600 53.61400 35.43100
N  32.54100 57.87000 40.08900
C  33.29200 56.76600 39.64300
C  34.76400 57.10500 39.64400
C  34.83600 58.43600 40.18100
C  33.40100 58.90600 40.35600
C  35.89300 56.18800 39.24800
C  36.16700 59.16100 40.48600
O  37.17800 58.62600 40.13900
C  36.27100 60.31100 41.34500
N  30.62500 60.09900 40.91500
C  31.78900 60.71800 41.03800
C  31.61400 62.25100 41.27400
C  30.04200 62.37200 41.27600
C  29.58700 60.93300 41.10500
C  32.31300 62.76800 42.53200
C  29.43600 63.41300 40.22900
C  29.21900 64.80200 40.71400
N  28.38700 58.28200 40.21000
C  27.59400 59.40100 40.47800
C  26.17700 59.07200 40.25400
C  26.21000 57.75600 39.75100
C  27.58700 57.35500 39.72000
C  24.92800 59.86500 40.58000
C  25.39700 56.61600 39.34000
O  24.19400 56.48200 39.34100
C  26.37300 55.44100 39.07100
C  26.14800 54.30500 40.03300
O  26.45700 54.35500 41.24500
O  25.60800 53.23800 39.42700
C  25.37800 52.09400 40.35600
H  33.46900 54.73700 39.17500
H  33.77400 60.95200 40.90600
H  27.53200 61.44000 41.05600
H  28.70100 53.23400 38.96500
H  31.45800 53.45100 37.92400
H  30.30500 52.25700 40.12700
H  31.68500 53.06200 40.79300
H  31.91600 51.94000 39.52500
H  29.99800 53.30200 36.44700
H  29.05600 54.82700 36.49500
H  27.45500 52.52900 37.14400
H  28.53200 52.04400 35.87800
H  36.69600 55.98600 39.95600
H  36.33200 56.51400 38.30500
H  35.47900 55.19900 39.05400
H  35.40400 60.24600 42.00200
H  36.31300 61.22500 40.75300
H  37.10200 60.25700 42.04800
H  31.95200 62.84400 40.42400
H  29.72500 62.69800 42.26600
H  31.53900 63.21900 43.15200
H  33.20800 63.37800 42.40900
H  32.72500 61.89500 43.03900
H  28.48900 63.03700 39.84100
H  30.06800 63.46500 39.34300
H  30.03200 65.44100 40.37100
H  29.20400 64.87500 41.80100
H  28.39200 65.30900 40.21600
H  25.23000 60.65500 41.26700
H  24.11700 59.28300 41.01800
H  24.53900 60.39800 39.71200
H  26.14200 55.05700 38.07800
H  26.17300 51.91800 41.08100
H  25.38100 51.27700 39.63400
H  24.46600 52.14000 40.95100

