79

Mg 17.05700 52.63200 26.00400
C  18.66500 51.12900 28.70500
C  14.35400 53.27800 28.35100
C  15.13600 53.75000 23.50900
C  19.31400 51.38900 23.82900
N  16.54900 52.24100 28.22700
C  17.47600 51.66900 29.14000
C  16.93700 51.70100 30.60100
C  15.41300 52.06300 30.38900
C  15.41300 52.52600 28.91600
C  14.47700 50.84500 30.52500
C  17.77100 52.68600 31.50200
C  17.27900 52.96800 32.99000
H  16.29800 52.01800 33.70600
N  14.99400 53.60900 25.94200
C  14.11300 53.76200 27.01100
C  12.94600 54.47500 26.48200
C  13.10400 54.56900 25.08300
C  14.41300 53.91300 24.75500
C  11.83000 54.94900 27.29400
C  12.30100 55.26200 24.06100
O  12.63100 55.35800 22.86100
C  10.98300 56.14600 24.51800
N  17.13700 52.44500 24.00600
C  16.27200 53.04400 23.11600
C  16.81000 52.92800 21.67200
C  18.17200 52.25000 21.75200
C  18.22400 52.03100 23.25600
C  15.83900 52.49200 20.57400
C  19.42700 53.06300 21.08400
C  20.10000 52.37500 19.86100
N  18.65300 51.45700 26.16000
C  19.51600 51.03700 25.18800
C  20.63000 50.28500 25.79500
C  20.36900 50.40700 27.18600
C  19.16000 51.03200 27.37100
C  21.74900 49.60700 25.05700
C  20.88800 49.92900 28.46100
O  21.78900 49.15000 28.75800
C  19.78700 50.49700 29.49400
C  19.39100 49.32600 30.31300
O  18.78200 48.33900 29.86500
O  19.80700 49.46300 31.59700
C  19.42200 48.33900 32.47000
H  13.54800 53.37500 29.08100
H  14.56400 53.88300 22.58900
H  20.07900 51.20400 23.07300
H  17.09200 50.72100 31.05100
H  15.04500 52.91000 30.96700
H  15.14200 50.08000 30.92400
H  14.22800 50.42500 29.55100
H  13.62900 51.04600 31.18100
H  17.67700 53.62900 30.96300
H  18.84200 52.52000 31.62200
H  16.90500 53.99000 32.93800
H  18.10200 53.07400 33.69700
H  11.66200 56.02600 27.31800
H  11.99000 54.62200 28.32100
H  10.92400 54.55600 26.83300
H  11.29900 56.96600 25.16300
H  10.21700 55.53000 24.98800
H  10.56600 56.42100 23.54900
H  16.93200 53.97800 21.40600
H  18.19300 51.24400 21.33300
H  16.00200 53.20600 19.76700
H  14.85200 52.52400 21.03600
H  16.14300 51.50100 20.23900
H  20.17200 53.21200 21.86600
H  19.13300 54.05100 20.72900
H  21.05200 51.91600 20.12900
H  20.34300 53.12400 19.10700
H  19.53700 51.54400 19.43700
H  22.47700 49.51900 25.86300
H  22.04800 50.29200 24.26300
H  21.40000 48.66800 24.62900
H  20.36700 51.25600 30.01800
H  18.63400 47.66100 32.14400
H  18.99400 48.92300 33.28400
H  20.32500 47.87100 32.86200

