79

Mg 6.49900 55.01500 40.72300
C  5.15700 51.65600 40.15300
C  9.37100 54.02300 39.20300
C  7.15500 58.34200 40.24400
C  3.16800 55.81900 41.61200
N  7.12600 53.04100 39.85700
C  6.45400 51.85000 39.61500
C  7.33700 50.91300 38.74400
C  8.77000 51.48900 38.98200
C  8.46700 52.91500 39.41400
C  9.65200 50.71700 40.01600
C  6.91600 50.90300 37.25700
C  6.85500 49.48800 36.56200
H  7.60600 49.45000 35.25800
N  8.07200 56.02600 39.85800
C  9.21900 55.42800 39.43200
C  10.22000 56.47600 39.23900
C  9.58300 57.70500 39.46600
C  8.19600 57.39600 39.93400
C  11.67200 56.24300 38.90600
C  10.30600 58.94900 39.29400
O  11.41500 59.04400 38.77500
C  9.80700 60.22500 40.05600
N  5.25300 56.82200 40.72100
C  5.80700 58.09900 40.70800
C  4.81300 59.17500 41.19400
C  3.57100 58.30900 41.47200
C  4.05900 56.90400 41.37300
C  5.21300 60.17800 42.41600
C  2.35900 58.53000 40.59700
C  1.17800 59.16800 41.34100
N  4.67500 53.92200 41.17000
C  3.46200 54.45400 41.61000
C  2.60300 53.33800 41.89800
C  3.16100 52.20700 41.22500
C  4.42600 52.66200 40.81400
C  1.22700 53.38100 42.57200
C  2.99200 50.79100 40.92000
O  2.09300 50.01100 41.12700
C  4.35100 50.40400 40.30400
C  4.15100 49.60200 39.05200
O  4.02000 50.02200 37.93500
O  4.21700 48.26900 39.29800
C  3.87700 47.36000 38.11800
H  10.37900 53.67900 38.96000
H  7.43500 59.38500 40.08300
H  2.12700 56.09700 41.79300
H  7.34700 49.90900 39.16600
H  9.31900 51.50400 38.04000
H  9.42800 49.66000 39.87100
H  9.47600 50.98000 41.06000
H  10.69600 50.94300 39.80200
H  7.53400 51.59900 36.69100
H  5.95200 51.41200 37.26700
H  5.84200 49.08700 36.52200
H  7.35600 48.82800 37.27000
H  12.00200 56.85300 38.06500
H  11.99000 55.22000 38.70500
H  12.24200 56.58600 39.76900
H  10.63000 60.89500 40.30900
H  9.41200 59.72400 40.94000
H  9.07800 60.64900 39.36600
H  4.62800 59.78500 40.31000
H  3.24500 58.48300 42.49800
H  6.17800 59.89000 42.83100
H  4.53600 60.13900 43.27000
H  5.39200 61.19300 42.06200
H  1.92800 57.72900 39.99600
H  2.66400 59.24700 39.83500
H  1.37500 60.23600 41.43800
H  1.01700 58.93900 42.39500
H  0.29400 58.98100 40.73000
H  0.49400 53.34000 41.76600
H  1.12500 54.32000 43.11500
H  1.08600 52.53200 43.24200
H  4.88100 49.64600 40.88200
H  2.80100 47.22700 38.22600
H  4.40900 46.41800 38.24900
H  4.11400 47.61900 37.08600

