79

Mg -4.85300 25.58100 25.82200
C  -3.62200 26.87100 28.85200
C  -6.80100 23.38300 27.64700
C  -6.09500 24.32100 23.02500
C  -2.52900 27.50900 24.07100
N  -5.21200 25.25000 27.99100
C  -4.65900 25.89000 29.05700
C  -5.13900 25.41800 30.40600
C  -6.19900 24.28500 29.99200
C  -5.99700 24.17800 28.47200
C  -5.88400 22.90600 30.65000
C  -5.82200 26.62300 31.21100
C  -5.98000 26.41900 32.69800
H  -5.20500 25.28300 33.45300
N  -6.17700 24.09400 25.38400
C  -6.92200 23.36900 26.23500
C  -7.93700 22.59300 25.54600
C  -7.76600 22.91000 24.17400
C  -6.60500 23.75600 24.13100
C  -9.03100 21.71200 26.18800
C  -8.54900 22.35400 22.97300
O  -8.28300 22.64300 21.80300
C  -9.75800 21.45000 23.10900
N  -4.25400 25.68800 23.85000
C  -4.96200 25.21000 22.87000
C  -4.43400 25.53900 21.49800
C  -3.37100 26.58600 21.87800
C  -3.32300 26.60000 23.35900
C  -3.93500 24.25600 20.66600
C  -3.61600 27.98500 21.36000
C  -2.72800 28.50600 20.19700
N  -3.41400 26.86900 26.30300
C  -2.53700 27.66000 25.50800
C  -1.77900 28.50300 26.34600
C  -2.16000 28.23100 27.65700
C  -3.15400 27.21800 27.58600
C  -0.78700 29.56200 25.88000
C  -1.85100 28.57300 29.05100
O  -1.00100 29.35500 29.52700
C  -2.89500 27.74000 29.86100
C  -2.09900 26.93000 30.88100
O  -1.75900 25.71800 30.82100
O  -2.02700 27.77000 32.01700
C  -1.30100 27.20000 33.15900
H  -7.53700 22.74200 28.13600
H  -6.46400 24.06600 22.02900
H  -1.84700 28.03400 23.39900
H  -4.26800 24.92100 30.83300
H  -7.25700 24.37800 30.23600
H  -5.21500 23.11300 31.48500
H  -5.43700 22.19400 29.95500
H  -6.69600 22.27900 31.02000
H  -6.80300 26.68400 30.73900
H  -5.24400 27.54300 31.13100
H  -7.05600 26.41200 32.86900
H  -5.61300 27.32000 33.19000
H  -9.31200 20.81300 25.63800
H  -9.98700 22.20700 26.35700
H  -8.69200 21.44100 27.18800
H  -10.03400 21.18700 22.08900
H  -10.65800 21.95000 23.46800
H  -9.56600 20.53300 23.66600
H  -5.27600 25.97000 20.95600
H  -2.33700 26.33200 21.64400
H  -4.57900 24.07000 19.80700
H  -3.97200 23.47200 21.42200
H  -2.88800 24.36300 20.38100
H  -3.65700 28.75200 22.13300
H  -4.69000 28.05200 21.18500
H  -2.19600 27.71300 19.67100
H  -2.13100 29.34500 20.55400
H  -3.42000 28.92700 19.46700
H  -0.27100 29.23400 24.97800
H  -0.01800 29.57400 26.65200
H  -1.25300 30.52700 25.68000
H  -3.49600 28.47100 30.40200
H  -1.68400 27.74500 34.02200
H  -0.23300 27.26000 32.95000
H  -1.60600 26.17600 33.37000

