79

Mg -2.39100 16.80000 25.95100
C  -3.10000 14.42100 28.32400
C  -3.02500 19.30600 28.18300
C  -2.48900 18.90000 23.32100
C  -2.77500 14.06600 23.48500
N  -2.93300 16.87900 27.99100
C  -3.11900 15.77200 28.82300
C  -3.34000 16.15600 30.30600
C  -3.34600 17.74100 30.23900
C  -3.05500 18.02400 28.73100
C  -4.64800 18.38900 30.82700
C  -2.31800 15.49100 31.34900
C  -1.73200 16.24200 32.61000
H  -1.37300 15.38300 33.80600
N  -2.55000 18.76500 25.79200
C  -2.66700 19.66000 26.84300
C  -2.60000 20.99500 26.38700
C  -2.33800 20.93200 24.99500
C  -2.47500 19.43400 24.63500
C  -2.78400 22.24500 27.18800
C  -1.95500 22.06700 24.06500
O  -1.80100 21.98200 22.86700
C  -1.58100 23.44500 24.56400
N  -2.59700 16.53900 23.69300
C  -2.56800 17.61800 22.89600
C  -2.81400 17.20100 21.42800
C  -2.93700 15.65700 21.52000
C  -2.70000 15.36000 22.98800
C  -3.86200 18.01000 20.64000
C  -1.96000 14.85100 20.54600
C  -2.76500 14.52100 19.26300
N  -2.95400 14.73000 25.85800
C  -2.80300 13.76300 24.86800
C  -2.91600 12.44700 25.38200
C  -3.14900 12.63900 26.73300
C  -3.11000 14.03800 26.97800
C  -2.84400 11.16100 24.74200
C  -3.30200 11.99800 27.95300
O  -3.49700 10.82400 28.22200
C  -3.17300 13.05300 29.06400
C  -2.09700 12.65000 29.94900
O  -0.92400 12.90000 29.76700
O  -2.71500 11.97200 30.99200
C  -1.72900 11.41800 31.96700
H  -3.16100 20.12500 28.89200
H  -2.48600 19.73200 22.61300
H  -2.71400 13.20000 22.82200
H  -4.29500 15.72000 30.59900
H  -2.49300 18.13500 30.79100
H  -4.35600 19.16900 31.52900
H  -5.24700 17.62200 31.31800
H  -5.09200 18.93700 29.99600
H  -1.43500 15.16000 30.80300
H  -2.73600 14.59700 31.81100
H  -2.41900 17.07100 32.77800
H  -0.77600 16.62800 32.25500
H  -1.97400 22.97400 27.19100
H  -3.05800 22.11600 28.23500
H  -3.57200 22.74700 26.62600
H  -2.46700 24.04500 24.77500
H  -1.01900 24.00700 23.81800
H  -0.87000 23.37900 25.38800
H  -1.83200 17.39700 20.99600
H  -3.98400 15.47200 21.27900
H  -4.59900 17.39800 20.12000
H  -3.55000 18.87700 20.05800
H  -4.42400 18.52500 21.42000
H  -1.45800 13.99300 20.99300
H  -1.17000 15.49500 20.15800
H  -3.70000 14.13700 19.67200
H  -2.31500 13.70800 18.69300
H  -2.89100 15.47300 18.74700
H  -3.84700 10.88900 24.41600
H  -2.59500 10.41400 25.49600
H  -2.21200 11.13500 23.85400
H  -4.10000 13.04900 29.63800
H  -2.29900 11.41000 32.89600
H  -0.80800 11.96400 32.16900
H  -1.48100 10.39900 31.66800

