79

Mg 35.99900 2.30900 30.50300
C  33.43900 3.03000 32.53600
C  38.10500 2.37500 33.10300
C  38.58400 2.02000 28.23300
C  33.79900 2.52800 27.69100
N  35.75500 2.79700 32.60200
C  34.59800 2.99300 33.31400
C  34.86500 3.09300 34.81600
C  36.40800 3.24600 34.84900
C  36.78400 2.78400 33.43700
C  36.93800 4.67900 35.17900
C  34.38500 1.85500 35.59400
C  34.06500 2.08500 37.10800
H  34.55000 3.37700 37.83300
N  38.04900 2.15000 30.63500
C  38.72600 2.12800 31.83300
C  40.13400 1.92600 31.58900
C  40.27300 1.59100 30.15700
C  38.94100 1.97100 29.58800
C  41.09700 1.86600 32.72000
C  41.47300 1.03600 29.44800
O  41.43000 0.90100 28.22300
C  42.72500 0.47200 30.17700
N  36.13700 2.22400 28.24500
C  37.37100 2.19200 27.62300
C  37.21400 1.94900 26.11200
C  35.61500 1.75500 25.95300
C  35.14000 2.18100 27.35600
C  37.88700 2.99100 25.10300
C  34.99600 0.32300 25.43200
C  34.21900 0.32900 24.13700
N  34.07500 2.76000 30.11800
C  33.26300 2.67300 28.96200
C  31.91800 3.06700 29.35100
C  31.98100 3.13100 30.72900
C  33.26700 2.91300 31.18100
C  30.72500 3.25700 28.43400
C  31.09800 3.30300 31.84700
O  29.89800 3.42300 31.92400
C  32.00400 3.18600 33.07800
C  31.71300 4.31400 33.95100
O  32.01000 5.49500 33.86500
O  31.15000 3.74900 35.07600
C  30.91000 4.87300 36.06000
H  38.83200 2.14700 33.88500
H  39.47700 2.07500 27.60800
H  33.05000 2.54600 26.89600
H  34.33100 3.97600 35.16800
H  36.91000 2.56700 35.53900
H  37.52900 5.09800 34.36500
H  37.38500 4.74000 36.17100
H  36.12500 5.39500 35.29800
H  35.06500 1.02200 35.41900
H  33.55800 1.47500 34.99500
H  34.41800 1.19100 37.62200
H  32.98300 2.06400 37.24300
H  41.90400 2.59100 32.61000
H  41.60300 0.90100 32.74900
H  40.71300 2.16900 33.69400
H  43.39700 -0.10500 29.54200
H  42.38500 -0.10400 31.03700
H  43.37500 1.22900 30.61800
H  37.64300 0.96500 25.92400
H  35.23000 2.54200 25.30400
H  38.55200 2.38800 24.48500
H  38.44800 3.71000 25.70000
H  37.06300 3.45400 24.56100
H  34.35900 -0.11500 26.20100
H  35.88500 -0.26900 25.21700
H  33.18300 0.07700 24.36100
H  34.57400 -0.42900 23.43700
H  34.26700 1.22800 23.52300
H  30.26100 2.40000 27.94600
H  31.08900 3.79900 27.56100
H  29.93300 3.80400 28.94500
H  31.70500 2.30400 33.64500
H  30.36000 5.70000 35.60900
H  31.82300 5.25800 36.51600
H  30.18800 4.54900 36.80900

