79

Mg 52.94400 23.53300 45.47400
C  50.47800 25.67400 44.10500
C  51.16900 20.89100 44.26100
C  55.81000 21.87100 45.45000
C  54.63000 26.47300 46.42500
N  51.04300 23.35000 44.41900
C  50.26100 24.31700 43.79600
C  48.98000 23.74600 43.15800
C  49.14700 22.22700 43.46100
C  50.57100 22.10400 44.06900
C  48.14400 21.68500 44.48000
C  48.93200 24.08300 41.67400
C  47.49500 24.15600 41.05200
H  47.22300 23.24400 39.81100
N  53.41300 21.53100 45.13100
C  52.56800 20.60500 44.71500
C  53.25000 19.36700 44.70000
C  54.59100 19.57800 45.04500
C  54.67900 21.05100 45.20200
C  52.55400 18.03100 44.37400
C  55.64600 18.55200 45.09400
O  55.41100 17.36100 44.93900
C  57.06600 18.95400 45.44700
N  55.04100 24.25200 45.76100
C  56.02200 23.31400 45.79700
C  57.34500 23.90900 46.21400
C  56.90100 25.40600 46.62000
C  55.47700 25.38600 46.16600
C  58.19600 23.02100 47.18300
C  57.82900 26.54600 45.93800
C  58.40600 27.47800 47.01900
N  52.54800 25.61700 45.50500
C  53.32300 26.67400 45.95500
C  52.52400 27.83400 45.96100
C  51.43400 27.52800 45.11600
C  51.50700 26.13600 44.90300
C  52.80800 29.28800 46.38900
C  50.34900 28.08800 44.40500
O  49.88200 29.22400 44.41200
C  49.72100 26.92300 43.59500
C  49.92400 27.27500 42.21500
O  50.99700 27.44000 41.64200
O  48.64900 27.40600 41.61500
C  48.66200 27.89300 40.19500
H  50.51800 20.09100 43.90100
H  56.77400 21.36300 45.39000
H  55.06400 27.41400 46.77000
H  48.06900 24.14400 43.60500
H  49.06300 21.75900 42.47900
H  48.17300 20.61100 44.66300
H  47.21100 21.91800 43.96700
H  48.12800 22.29000 45.38700
H  49.53600 23.41600 41.05800
H  49.30500 25.09900 41.54700
H  47.26800 25.19200 40.80200
H  46.77600 23.73900 41.75700
H  53.12700 17.30400 44.95000
H  52.64600 17.88200 43.29800
H  51.54400 18.11700 44.77600
H  57.54400 19.43200 44.59200
H  57.63500 18.03500 45.59100
H  57.19500 19.46100 46.40300
H  57.99500 24.03900 45.34900
H  56.92000 25.38200 47.71000
H  57.54500 22.18200 47.42900
H  58.45300 23.63400 48.04700
H  59.04900 22.65000 46.61500
H  57.25300 27.09100 45.19000
H  58.75100 26.12400 45.53800
H  59.48900 27.59900 47.00000
H  58.20000 27.21900 48.05700
H  57.97500 28.46300 46.83800
H  52.01500 30.02400 46.25700
H  53.60600 29.68600 45.76300
H  53.15700 29.28100 47.42200
H  48.67200 26.81900 43.87400
H  47.66100 27.75400 39.78600
H  49.47700 27.36500 39.70200
H  48.83900 28.96700 40.13100

