79

Mg -0.26300 7.68300 26.00700
C  0.64100 9.43800 28.92800
C  -0.56500 4.72400 27.70900
C  -0.48200 6.07900 23.06600
C  0.47100 10.73500 24.14000
N  0.11700 7.15900 28.00400
C  0.30300 8.07300 29.03700
C  0.05800 7.40800 30.42600
C  -0.16500 5.87500 30.06400
C  -0.29500 5.89400 28.49200
C  0.85600 4.83100 30.65700
C  -1.07300 8.16400 31.29300
C  -0.74600 8.42300 32.76000
H  0.40700 7.69800 33.53400
N  -0.56500 5.69500 25.47200
C  -0.65400 4.61700 26.30500
C  -0.97000 3.42800 25.59700
C  -0.96100 3.81500 24.23900
C  -0.62800 5.25700 24.19300
C  -1.20900 2.07200 26.28200
C  -1.24900 2.93200 23.01500
O  -1.29800 3.33800 21.82600
C  -1.61100 1.43600 23.10100
N  0.01000 8.33400 23.91100
C  -0.25000 7.45400 22.90900
C  -0.12400 8.14900 21.53300
C  0.10600 9.63800 21.93000
C  0.17400 9.58500 23.46300
C  0.97000 7.48700 20.64500
C  -1.00600 10.62600 21.33900
C  -2.17500 10.98900 22.24000
N  0.24200 9.68500 26.41800
C  0.56000 10.79300 25.54200
C  0.77800 11.93500 26.36500
C  0.78200 11.52400 27.78500
C  0.56700 10.09000 27.73400
C  1.00200 13.35300 25.89800
C  1.04500 11.92200 29.12300
O  1.25700 13.02300 29.59200
C  0.95000 10.58600 29.93800
C  2.22500 10.36000 30.52400
O  3.16000 9.84100 29.93900
O  2.23200 10.87600 31.80700
C  3.52500 10.84300 32.51300
H  -0.87000 3.86600 28.31100
H  -0.63100 5.52000 22.14000
H  0.70200 11.62300 23.54900
H  1.00500 7.54200 30.95000
H  -1.16300 5.66000 30.44500
H  1.28400 4.21500 29.86500
H  0.38600 4.14300 31.36000
H  1.60000 5.28400 31.31200
H  -1.93500 7.49900 31.23000
H  -1.52300 9.04500 30.83500
H  -1.62400 8.15700 33.35000
H  -0.49100 9.47500 32.89000
H  -1.86500 2.07300 27.15200
H  -0.28700 1.58100 26.59500
H  -1.70200 1.35900 25.62200
H  -2.47100 1.22600 23.73800
H  -0.69000 0.98400 23.46900
H  -1.72200 0.99900 22.10900
H  -1.03600 8.04300 20.94500
H  1.08100 10.03200 21.64400
H  1.80400 8.18300 20.55500
H  0.55600 7.58500 19.64100
H  1.24300 6.47200 20.93500
H  -1.24900 10.21300 20.36000
H  -0.45600 11.52700 21.06400
H  -3.10500 10.93200 21.67400
H  -2.13400 12.03700 22.53700
H  -2.31400 10.36100 23.11900
H  0.08100 13.93300 25.83200
H  1.29400 13.43800 24.85100
H  1.65200 13.81100 26.64300
H  0.16200 10.72800 30.67800
H  3.70400 11.82700 32.94700
H  4.32800 10.51800 31.85200
H  3.39900 10.08900 33.29000

