79

Mg -5.62500 25.69700 25.94500
C  -4.36300 27.26400 28.90800
C  -7.38900 23.50100 27.88500
C  -6.29500 23.93900 23.26200
C  -3.30400 27.63300 24.26300
N  -5.75200 25.33700 28.09900
C  -5.22800 26.18300 29.18000
C  -5.81900 25.70000 30.48600
C  -6.44700 24.31000 30.10100
C  -6.60300 24.37700 28.61700
C  -5.48800 23.09000 30.45500
C  -6.77600 26.73900 31.03000
C  -6.86100 27.02800 32.55300
H  -6.27200 26.02900 33.57900
N  -6.78300 24.08700 25.55600
C  -7.48500 23.28200 26.48300
C  -8.12700 22.23200 25.80200
C  -7.85400 22.35800 24.39300
C  -6.96200 23.52800 24.32600
C  -8.86300 21.06200 26.46300
C  -8.21600 21.50300 23.13800
O  -7.80600 21.63300 22.02200
C  -9.29200 20.47000 23.29800
N  -4.87400 25.70700 24.11100
C  -5.24600 24.84600 23.11800
C  -4.54100 25.12800 21.80300
C  -3.57900 26.31100 22.09400
C  -3.94600 26.62400 23.57100
C  -3.84800 23.78500 21.21200
C  -3.58600 27.44000 20.97500
C  -4.64800 28.55400 21.08400
N  -4.19100 27.27200 26.43200
C  -3.40300 27.98500 25.57500
C  -2.77300 29.05100 26.29900
C  -3.07200 28.77900 27.66300
C  -3.93300 27.66800 27.66000
C  -1.96200 30.16500 25.78400
C  -2.84400 29.11000 29.04400
O  -2.19100 30.02200 29.47500
C  -3.63500 28.14200 29.94000
C  -2.66800 27.44200 30.79600
O  -1.50200 27.25000 30.47600
O  -3.16000 27.36600 32.11700
C  -2.11900 27.31000 33.18500
H  -7.78800 22.72500 28.54100
H  -6.62100 23.58400 22.28200
H  -2.50800 28.12900 23.70400
H  -5.07000 25.60400 31.27200
H  -7.41300 24.06600 30.54300
H  -4.65600 23.46900 31.04800
H  -5.05100 22.72700 29.52500
H  -5.96800 22.30700 31.04200
H  -7.77400 26.34900 30.83000
H  -6.71300 27.69300 30.50600
H  -7.89600 27.10700 32.88300
H  -6.31500 27.95800 32.70900
H  -9.84600 21.53100 26.46500
H  -8.57600 20.89500 27.50200
H  -9.01800 20.08500 26.00400
H  -9.92700 20.43400 22.41200
H  -9.99900 20.77600 24.06900
H  -8.84800 19.48300 23.42200
H  -5.31900 25.50100 21.13700
H  -2.56500 25.92600 22.19700
H  -4.21600 23.70100 20.18900
H  -4.25700 22.90200 21.70400
H  -2.77000 23.92800 21.27900
H  -3.75300 27.01500 19.98500
H  -2.57500 27.84600 20.95700
H  -4.93600 28.86100 22.09000
H  -5.46700 28.22400 20.44500
H  -4.19100 29.40100 20.57300
H  -1.63100 30.88300 26.53400
H  -2.72800 30.68200 25.20500
H  -1.13900 29.96600 25.09700
H  -4.36800 28.73500 30.48800
H  -2.10400 26.36500 33.72800
H  -2.36700 28.11200 33.88000
H  -1.18900 27.59000 32.69100

