79

Mg 27.10000 50.44000 26.60200
C  24.95100 51.31600 29.31100
C  29.48800 49.74200 28.92600
C  28.97300 49.41100 24.08700
C  24.74700 51.75400 24.33900
N  27.15900 50.48200 28.83500
C  26.18200 50.76100 29.72700
C  26.62400 50.42800 31.21100
C  28.15900 50.04400 31.04200
C  28.29400 50.16800 29.51500
C  29.14800 50.94700 31.90500
C  25.79300 49.41400 31.93700
C  24.95100 49.82800 33.15900
H  24.97500 48.89800 34.48800
N  28.88500 49.63300 26.55100
C  29.71800 49.40400 27.63500
C  30.97100 48.80900 27.12200
C  30.91200 48.75600 25.64400
C  29.56000 49.29300 25.34200
C  32.15300 48.36200 28.01100
C  32.06900 48.55200 24.59900
O  31.88100 48.78100 23.40200
C  33.50200 48.09000 25.15800
N  26.95900 50.75200 24.46000
C  27.83800 50.19100 23.64100
C  27.51900 50.52200 22.20400
C  26.03300 51.03300 22.32600
C  25.87000 51.22400 23.75300
C  28.54500 51.56500 21.53600
C  24.94800 50.04700 21.67600
C  23.86500 50.69700 20.72900
N  25.30700 51.25500 26.68600
C  24.49200 51.73700 25.71600
C  23.27500 52.36200 26.33500
C  23.46900 52.17600 27.69100
C  24.70800 51.48400 27.93100
C  22.20600 53.14700 25.57700
C  22.82100 52.46400 28.94700
O  21.78000 52.93900 29.31300
C  23.72700 51.79900 30.04000
C  24.10700 52.75200 31.10500
O  24.84400 53.69800 30.90100
O  23.37400 52.47700 32.24700
C  23.22500 53.54600 33.25300
H  30.17800 49.34000 29.67000
H  29.38700 48.77800 23.29800
H  24.08700 52.13800 23.55800
H  26.47500 51.37000 31.73800
H  28.26700 48.97700 31.23800
H  29.90300 50.33800 32.40300
H  28.56400 51.38100 32.71600
H  29.71700 51.62300 31.26700
H  26.34800 48.53000 32.25200
H  24.96900 49.21900 31.25100
H  23.93300 49.82800 32.77100
H  25.27300 50.84600 33.37900
H  31.84300 48.36200 29.05600
H  32.90900 49.14300 28.08800
H  32.48100 47.35300 27.76000
H  33.93200 48.88900 25.76200
H  34.17200 48.07600 24.29900
H  33.56300 47.09100 25.58700
H  27.43800 49.55000 21.71800
H  25.98100 52.00900 21.84400
H  29.54000 51.54100 21.98100
H  28.22200 52.60100 21.63000
H  28.62500 51.20700 20.50900
H  24.38400 49.62800 22.51000
H  25.30200 49.23900 21.03600
H  22.86100 50.45900 21.07900
H  23.98500 50.39900 19.68700
H  23.92700 51.78500 20.72600
H  21.74400 52.66900 24.71300
H  22.59800 54.14000 25.35700
H  21.32500 53.21500 26.21400
H  23.10800 51.01800 30.48200
H  23.33200 54.48700 32.71200
H  23.66100 53.41500 34.24300
H  22.15000 53.52200 33.43100

