79

Mg 17.14400 -1.05600 28.80200
C  15.89700 1.17900 31.29300
C  18.61300 -2.90500 31.32200
C  18.64700 -2.91000 26.47300
C  15.43900 0.74200 26.32100
N  17.15100 -0.85200 31.06900
C  16.66900 0.17300 31.87200
C  17.07200 -0.00100 33.35300
C  17.98000 -1.26900 33.28900
C  17.91100 -1.69900 31.78600
C  19.44100 -0.96400 33.76000
C  15.85300 -0.05300 34.33300
C  15.82800 -1.03500 35.50100
H  16.81400 -0.91200 36.64200
N  18.39000 -2.71600 28.86400
C  18.92700 -3.27500 30.00100
C  19.76700 -4.46400 29.62100
C  19.86900 -4.45200 28.19900
C  18.93700 -3.36600 27.77400
C  20.54400 -5.33900 30.63400
C  20.72400 -5.20200 27.23700
O  20.85700 -5.10600 26.02100
C  21.62400 -6.20200 27.90700
N  17.23800 -0.93200 26.65500
C  17.89900 -1.84300 26.01600
C  17.85300 -1.44300 24.47000
C  16.73900 -0.40400 24.36500
C  16.37100 -0.17300 25.86000
C  19.16600 -0.87400 23.95700
C  15.50900 -0.93200 23.57400
C  15.35500 -0.31900 22.20800
N  15.96500 0.62300 28.75400
C  15.22700 1.19100 27.70800
C  14.52000 2.39400 28.23300
C  14.76100 2.37900 29.61900
C  15.56700 1.29100 29.88300
C  13.65400 3.30200 27.45100
C  14.60000 3.20600 30.78200
O  14.05400 4.26000 30.89700
C  15.28100 2.37400 31.99800
C  16.23900 3.30200 32.76400
O  17.24200 3.83500 32.41100
O  15.76500 3.43500 34.03900
C  16.70400 3.71300 35.14100
H  18.96300 -3.54200 32.13700
H  18.98700 -3.58800 25.68800
H  14.82100 1.33500 25.64400
H  17.57500 0.91400 33.66300
H  17.73800 -2.18000 33.83800
H  19.88200 -1.69400 34.43800
H  19.43700 0.09000 34.03900
H  20.00900 -0.97600 32.82900
H  14.91300 -0.25100 33.81700
H  15.67200 0.86600 34.88900
H  15.78400 -2.03800 35.07700
H  14.86700 -0.86400 35.98500
H  20.35600 -6.40600 30.52100
H  20.25200 -5.07300 31.65000
H  21.59800 -5.06200 30.67200
H  21.04100 -7.01000 28.34900
H  22.41400 -5.83800 28.56400
H  22.10400 -6.62500 27.02400
H  17.65100 -2.38900 23.96800
H  17.08000 0.55700 23.97900
H  19.60000 -1.46500 23.15100
H  19.91700 -0.78000 24.74200
H  19.09100 0.09700 23.46600
H  14.64600 -0.76000 24.21700
H  15.50900 -2.00400 23.37800
H  16.30500 0.15400 21.95900
H  14.59600 0.46100 22.15100
H  15.13300 -1.05100 21.43200
H  13.68700 4.33300 27.80400
H  12.63100 2.96100 27.61300
H  13.69900 3.16000 26.37100
H  14.54400 1.97100 32.69300
H  17.70700 3.30500 35.01800
H  16.12300 3.16800 35.88400
H  16.84300 4.78200 35.30600

