79

Mg 0.48700 43.73400 26.34700
C  2.91900 43.35100 28.94800
C  -1.94600 42.90500 28.68100
C  -1.59300 43.44300 23.88800
C  3.23200 43.94300 24.09800
N  0.58500 43.29300 28.56100
C  1.58500 43.23000 29.36900
C  1.14900 43.10400 30.88800
C  -0.24500 42.51400 30.65700
C  -0.58200 42.92800 29.23300
C  -0.21600 40.86500 30.78900
C  1.12500 44.49900 31.51300
C  1.47700 44.56300 32.99800
H  1.09600 43.43000 33.91700
N  -1.52900 43.35400 26.31800
C  -2.36900 43.06200 27.36700
C  -3.66300 43.05900 26.84700
C  -3.60700 43.07600 25.45300
C  -2.26000 43.30400 25.13700
C  -4.81600 43.13900 27.78200
C  -4.82000 42.98200 24.40100
O  -4.66000 43.32000 23.22800
C  -6.25700 42.75100 24.85500
N  0.79700 43.52400 24.31800
C  -0.26400 43.48800 23.48400
C  0.19200 43.22000 22.05000
C  1.70300 43.59000 22.08600
C  1.95600 43.61700 23.62200
C  -0.05700 41.74700 21.62100
C  1.94400 44.96300 21.44500
C  2.51500 44.95200 20.02000
N  2.66500 43.80000 26.48800
C  3.57500 43.96500 25.47600
C  4.94200 43.99200 26.00400
C  4.71300 43.88800 27.38300
C  3.39200 43.59400 27.58500
C  6.16700 43.99400 25.24700
C  5.31400 43.77600 28.73500
O  6.50100 43.82700 28.96900
C  4.24700 43.41700 29.82000
C  4.53700 42.20000 30.52400
O  4.46700 41.05800 30.06500
O  4.87700 42.53800 31.81100
C  5.30400 41.51600 32.71400
H  -2.74200 42.74100 29.41000
H  -2.31400 43.27700 23.08600
H  3.97800 44.07000 23.31000
H  1.87600 42.43900 31.35400
H  -0.95300 42.85600 31.41200
H  -0.80200 40.61400 31.67200
H  0.78300 40.43200 30.73800
H  -0.74600 40.41900 29.94700
H  0.19700 45.03800 31.32000
H  1.85400 45.03500 30.90500
H  1.04700 45.45700 33.45000
H  2.55000 44.73300 33.08800
H  -5.11600 42.14600 28.11600
H  -5.62300 43.64300 27.25000
H  -4.57800 43.68100 28.69700
H  -6.90400 42.47300 24.02300
H  -6.60600 43.75400 25.10000
H  -6.22400 41.90700 25.54500
H  -0.42500 43.85400 21.41200
H  2.42600 42.90400 21.64500
H  0.74200 41.08200 21.94800
H  -0.34200 41.59300 20.58100
H  -0.93300 41.35500 22.13800
H  2.69600 45.58200 21.93400
H  0.98600 45.46400 21.30600
H  1.74500 45.17200 19.28100
H  2.81500 43.94000 19.74700
H  3.31300 45.67500 19.84600
H  6.22400 44.96000 24.74600
H  6.15100 43.18600 24.51500
H  7.10500 44.03900 25.80200
H  4.12300 44.24200 30.52100
H  6.32100 41.12400 32.68300
H  4.67000 40.63300 32.63700
H  5.10600 41.99100 33.67500

