79

Mg 44.16200 4.78000 46.53500
C  42.37600 7.81300 46.46200
C  41.17100 3.24900 45.47900
C  45.89500 2.01100 45.52300
C  47.09100 6.56400 46.64400
N  42.05400 5.46200 46.14500
C  41.61400 6.72800 46.11000
C  40.26300 6.83100 45.42400
C  39.75700 5.35700 45.65400
C  41.06700 4.60600 45.81200
C  38.51700 5.01400 46.68200
C  40.32200 7.47000 43.90800
C  39.39700 6.90300 42.84000
H  39.03700 7.83700 41.62800
N  43.62300 2.87800 45.73500
C  42.35600 2.41600 45.42400
C  42.48500 1.01900 45.02200
C  43.82800 0.66600 45.06200
C  44.54500 1.84300 45.45800
C  41.26500 0.20800 44.59000
C  44.38500 -0.74400 44.76400
O  43.52800 -1.62600 44.50500
C  45.78200 -1.11600 44.60600
N  46.18400 4.33800 46.04500
C  46.67700 3.09100 45.90000
C  48.20500 3.00400 45.80400
C  48.56500 4.48100 46.12000
C  47.23500 5.19500 46.31600
C  48.75200 1.91100 46.71400
C  49.43500 5.14900 45.06600
C  50.89700 5.32400 45.49600
N  44.68200 6.70900 46.82500
C  45.88400 7.29800 46.81700
C  45.67500 8.73300 47.15100
C  44.33000 8.90600 47.05800
C  43.76000 7.69000 46.75100
C  46.68500 9.81100 47.11400
C  43.35500 9.97100 46.94100
O  43.47300 11.21800 47.10800
C  42.03100 9.32200 46.58900
C  41.07700 9.53100 47.76500
O  40.67600 8.62700 48.49600
O  40.68500 10.82900 47.75900
C  39.33300 11.07200 48.28500
H  40.20300 2.81300 45.22400
H  46.56800 1.16500 45.37100
H  48.03000 7.11100 46.75200
H  39.55600 7.38600 46.04200
H  39.38400 4.95400 44.71300
H  37.66000 4.75000 46.06200
H  38.36600 5.95400 47.21300
H  38.69900 4.14000 47.30700
H  41.36300 7.35500 43.60500
H  40.01400 8.51600 43.88100
H  38.54200 6.36700 43.25300
H  39.89800 6.12200 42.26800
H  41.39900 -0.04600 43.53900
H  40.29900 0.70300 44.68600
H  41.21600 -0.66600 45.24000
H  45.73400 -2.14000 44.23500
H  46.30600 -1.09500 45.56200
H  46.15800 -0.43700 43.84100
H  48.50400 2.77200 44.78100
H  49.14300 4.44700 47.04400
H  48.96300 2.26700 47.72200
H  49.58800 1.39200 46.24600
H  47.96300 1.20300 46.96800
H  49.02100 6.13700 44.86700
H  49.40700 4.51500 44.17900
H  51.13600 4.83200 46.43900
H  50.98700 6.40900 45.55300
H  51.64200 5.01900 44.76100
H  47.70500 9.42900 47.09200
H  46.51600 10.55600 47.89100
H  46.56900 10.28300 46.13900
H  41.47300 9.74400 45.75300
H  39.19000 12.09300 48.63700
H  39.17400 10.44600 49.16300
H  38.67900 10.66500 47.51400

