79

Mg 41.97200 41.06500 27.78600
C  41.50200 43.61400 30.00200
C  43.40800 39.13300 30.21500
C  42.31600 38.66100 25.42200
C  41.33200 43.37400 25.14800
N  42.29000 41.27400 29.85500
C  41.88400 42.39100 30.60200
C  41.97900 42.08400 32.09400
C  42.77700 40.70400 32.17100
C  42.81600 40.31200 30.63700
C  44.16800 40.78900 32.75200
C  40.59800 41.90700 32.79300
C  40.27700 42.79100 33.99000
H  39.68500 42.16700 35.31200
N  42.64400 39.11900 27.82900
C  43.25100 38.52600 28.89200
C  43.57000 37.16900 28.55000
C  43.16200 36.97900 27.18800
C  42.67900 38.26600 26.72600
C  44.33800 36.14900 29.38600
C  43.17900 35.66200 26.29800
O  42.75500 35.70500 25.13300
C  43.76900 34.36400 26.76800
N  41.80700 41.00000 25.59400
C  41.92300 39.90100 24.88300
C  41.52600 40.01800 23.38100
C  41.17000 41.56400 23.39400
C  41.49900 42.07400 24.78800
C  42.75800 39.62700 22.50800
C  39.63600 41.92200 22.89100
C  38.58300 41.76800 24.01100
N  41.49900 43.06900 27.55800
C  41.28400 43.86300 26.46400
C  40.96600 45.23800 26.85000
C  41.02500 45.10700 28.28400
C  41.37600 43.81500 28.63300
C  40.66800 46.36600 25.96900
C  40.84000 45.86700 29.46200
O  40.57600 47.05000 29.60900
C  40.87500 44.81000 30.62500
C  41.86200 45.35600 31.59200
O  43.04300 45.21500 31.36900
O  41.32400 45.97300 32.67200
C  42.29800 46.49800 33.65900
H  43.78800 38.42400 30.95300
H  42.47800 37.84600 24.71400
H  41.06200 44.08700 24.36700
H  42.48700 42.87400 32.64700
H  42.28400 39.95900 32.79500
H  44.57600 41.71400 32.34500
H  44.92900 40.06700 32.45600
H  44.07400 40.78600 33.83800
H  40.42000 40.89300 33.15000
H  39.85200 42.12800 32.03000
H  39.62600 43.61700 33.70700
H  41.16700 43.35200 34.27500
H  44.71700 36.60500 30.30000
H  45.13100 35.79300 28.72900
H  43.68300 35.31500 29.64200
H  43.31200 34.02200 27.69700
H  44.75300 34.38800 27.23800
H  43.59100 33.53400 26.08400
H  40.60400 39.46600 23.19900
H  41.88700 42.05200 22.73400
H  43.60600 39.36000 23.13800
H  43.10800 40.52100 21.99000
H  42.41700 38.80400 21.88000
H  39.30200 41.26500 22.08700
H  39.66200 42.94600 22.51700
H  39.00700 41.94300 25.00000
H  38.39900 40.69500 24.06600
H  37.64700 42.30500 23.85500
H  39.65500 46.73100 26.13800
H  40.74400 46.08100 24.91900
H  41.41300 47.13200 26.18200
H  39.83300 44.80000 30.94400
H  41.68100 47.32100 34.02100
H  43.24000 46.80700 33.20700
H  42.47700 45.72700 34.40900

