79

Mg -2.36000 35.31700 26.19600
C  -4.08900 33.72700 28.83000
C  -1.12200 37.48400 28.43000
C  -0.95200 36.78300 23.66800
C  -4.06400 33.05200 24.03000
N  -2.69900 35.67200 28.38700
C  -3.29500 34.84100 29.24700
C  -2.99900 35.24400 30.67500
C  -2.15400 36.58100 30.51100
C  -1.97000 36.62600 29.03700
C  -2.63200 37.90700 31.12400
C  -2.39700 34.16900 31.61500
C  -2.10300 34.61200 33.03900
H  -2.52100 33.87700 34.30100
N  -1.11700 36.93800 26.03000
C  -0.63000 37.67300 27.09500
C  0.24900 38.80400 26.52100
C  0.24100 38.57700 25.09500
C  -0.65100 37.37600 24.83000
C  0.90300 39.83000 27.37500
C  1.03700 39.37700 23.95100
O  1.07800 38.98000 22.77800
C  2.02900 40.31700 24.41000
N  -2.50900 34.96400 24.13800
C  -1.70700 35.67800 23.27000
C  -1.87700 35.27500 21.76000
C  -2.78500 34.04000 21.97300
C  -3.24200 34.03400 23.43100
C  -2.42500 36.27700 20.73000
C  -1.94600 32.75400 21.60100
C  -1.08200 32.14200 22.72600
N  -3.79600 33.73100 26.35200
C  -4.31100 32.87500 25.35900
C  -5.19800 31.92600 25.99600
C  -5.07500 32.18800 27.38600
C  -4.27000 33.27900 27.52200
C  -5.97400 30.83400 25.31000
C  -5.58300 31.78500 28.67800
O  -6.33000 30.86400 29.00500
C  -4.91700 32.78700 29.64800
C  -6.02200 33.40400 30.45000
O  -6.96900 33.93200 30.00600
O  -5.86100 33.07400 31.76300
C  -7.00200 33.27300 32.65600
H  -0.57700 38.05900 29.18100
H  -0.45600 37.15200 22.76800
H  -4.50400 32.26900 23.41000
H  -3.96600 35.56100 31.06400
H  -1.14500 36.46800 30.90800
H  -1.81200 38.27500 31.74100
H  -3.54300 37.66300 31.67100
H  -2.70700 38.61900 30.30300
H  -1.47800 33.78000 31.17700
H  -3.11600 33.35200 31.66900
H  -2.29900 35.68200 33.09300
H  -1.02700 34.49200 33.16500
H  0.47500 40.82300 27.23900
H  1.96000 39.92200 27.12400
H  0.78900 39.58100 28.43000
H  2.62100 40.84800 23.66500
H  2.74400 39.70000 24.95400
H  1.62500 41.01800 25.14000
H  -0.90000 34.99900 21.36300
H  -3.61500 33.94500 21.27400
H  -3.07300 36.93800 21.30600
H  -2.86700 35.66100 19.94700
H  -1.57000 36.80800 20.31200
H  -1.16800 33.00200 20.87900
H  -2.58800 31.93900 21.26600
H  -1.51900 31.21300 23.09400
H  -1.05200 32.75400 23.62700
H  -0.09700 31.94000 22.30500
H  -5.64300 30.72000 24.27800
H  -7.04300 31.04000 25.35900
H  -5.80100 29.93700 25.90600
H  -4.41100 32.21300 30.42500
H  -6.51200 33.91800 33.38500
H  -7.38700 32.35000 33.09000
H  -7.78500 33.92400 32.26800

