79

Mg 4.89100 55.07100 41.53000
C  3.72600 51.73100 41.50700
C  7.64400 54.06700 39.70800
C  5.57100 58.42500 41.01400
C  1.73600 55.97600 42.93300
N  5.53100 53.14900 40.62100
C  4.93600 51.92000 40.80800
C  5.69100 50.86200 39.95700
C  7.05400 51.56000 39.70900
C  6.77500 53.02300 40.08300
C  8.28600 51.01900 40.49200
C  4.95100 50.43300 38.62700
C  4.94200 48.91500 38.26800
H  5.55800 48.41300 36.99600
N  6.39800 56.12500 40.55200
C  7.46700 55.47300 39.90400
C  8.41400 56.56100 39.36400
C  7.79800 57.78400 39.77200
C  6.54200 57.49400 40.49200
C  9.57900 56.18200 38.42700
C  8.45000 59.18000 39.43800
O  9.52900 59.22700 38.80500
C  7.82900 60.53900 39.76900
N  3.77500 56.91700 41.87000
C  4.32400 58.21400 41.66500
C  3.45600 59.36400 42.12200
C  2.13200 58.47700 42.50200
C  2.59700 57.01200 42.53400
C  3.97500 60.38300 43.22400
C  0.98700 58.62700 41.46900
C  -0.05900 59.83200 41.74100
N  3.12300 54.07100 42.17400
C  2.03400 54.60600 42.80600
C  1.19600 53.48400 43.25200
C  1.88600 52.37300 42.74900
C  2.98700 52.73900 42.06700
C  -0.03100 53.61600 43.95600
C  1.75700 50.89700 42.65900
O  0.99000 50.13300 43.20000
C  3.09000 50.41100 42.00200
C  2.97000 49.33200 41.02500
O  2.12100 49.33700 40.11500
O  3.81100 48.34800 41.40200
C  3.63800 46.99600 40.95200
H  8.51600 53.68800 39.17100
H  5.89400 59.43100 40.73900
H  0.78300 56.25200 43.39000
H  5.86100 49.96000 40.54500
H  7.20100 51.53600 38.63000
H  8.80700 50.45700 39.71700
H  8.04700 50.31300 41.28800
H  8.98000 51.77300 40.86300
H  5.41900 51.04000 37.85200
H  3.94600 50.85200 38.59200
H  3.96800 48.44100 38.38900
H  5.55700 48.44700 39.03700
H  9.15200 55.63600 37.58600
H  10.36700 55.63200 38.94100
H  10.06300 57.08800 38.06200
H  8.40200 61.41600 39.46800
H  7.80700 60.58800 40.85800
H  6.90700 60.69300 39.20900
H  3.36700 59.94800 41.20600
H  1.69600 58.67400 43.48100
H  3.11000 60.65000 43.83200
H  4.37000 61.27900 42.74700
H  4.69600 59.94300 43.91400
H  0.25900 57.81700 41.51200
H  1.33900 58.88900 40.47100
H  0.08300 60.09600 42.78900
H  -1.03300 59.39700 41.51500
H  0.13600 60.72500 41.14600
H  -0.72800 53.95400 43.18900
H  -0.10000 54.33300 44.77400
H  -0.45400 52.69100 44.35000
H  3.59600 49.91700 42.83200
H  2.82900 46.43000 41.41600
H  4.59700 46.48000 40.99200
H  3.37000 47.05400 39.89700

