79

Mg -0.02300 43.14700 26.22300
C  2.12200 43.06300 29.02000
C  -2.57600 42.06600 28.18600
C  -1.80700 42.92100 23.45000
C  2.76100 44.13000 24.29900
N  -0.25500 42.79500 28.36500
C  0.80600 42.75100 29.31600
C  0.21600 42.32900 30.69000
C  -1.24900 41.77000 30.36700
C  -1.40900 42.25400 28.86600
C  -1.45900 40.21200 30.46200
C  0.15500 43.50500 31.66600
C  0.65100 43.19300 33.08300
H  0.15000 41.85800 33.74500
N  -1.91200 42.59200 25.85500
C  -2.78400 42.20800 26.79500
C  -4.04600 41.98300 26.07700
C  -3.81800 42.04700 24.67900
C  -2.44500 42.57000 24.62100
C  -5.32300 41.53500 26.81200
C  -4.78200 41.81200 23.54100
O  -4.48400 42.12300 22.37200
C  -6.19700 41.22300 23.81700
N  0.41800 43.46600 24.13300
C  -0.50700 43.37800 23.15600
C  0.01800 43.82500 21.78000
C  1.41800 44.38800 22.15700
C  1.53300 43.98600 23.63300
C  -0.05500 42.61900 20.75400
C  1.60200 45.83000 21.91100
C  0.97000 46.44900 20.65800
N  1.97900 43.62300 26.52000
C  2.98300 44.02800 25.70200
C  4.19800 44.14600 26.40200
C  3.86300 43.84600 27.71800
C  2.54500 43.48100 27.77100
C  5.56600 44.30900 25.85900
C  4.38200 43.75200 29.11500
O  5.50900 44.03500 29.60600
C  3.22400 43.28200 30.03900
C  3.65900 42.04900 30.67100
O  3.95500 40.97700 30.24700
O  3.77500 42.32500 32.04900
C  4.26200 41.28000 32.97400
H  -3.41100 41.59600 28.71000
H  -2.33000 42.76800 22.50300
H  3.62000 44.43000 23.69500
H  0.83900 41.56300 31.15100
H  -1.90000 42.20500 31.12600
H  -0.50500 39.74800 30.71200
H  -1.79900 39.60700 29.62100
H  -2.04600 40.05200 31.36700
H  -0.82800 43.97500 31.68000
H  0.83700 44.29000 31.33900
H  0.38800 44.00100 33.76600
H  1.74000 43.21200 33.04300
H  -5.21700 41.44700 27.89300
H  -5.69600 40.61600 26.35900
H  -6.09400 42.29300 26.67600
H  -6.87300 41.28900 22.96500
H  -6.64300 41.96300 24.48100
H  -6.23100 40.20300 24.20200
H  -0.67000 44.58900 21.41900
H  2.18000 43.77800 21.67100
H  0.92700 42.53000 20.28900
H  -0.81700 42.89100 20.02400
H  -0.22500 41.68300 21.28500
H  2.68800 45.92600 21.89900
H  1.16400 46.29200 22.79600
H  0.46600 45.77500 19.96600
H  1.75800 46.92600 20.07600
H  0.28500 47.20500 21.04300
H  6.14600 43.41400 26.08700
H  6.02500 45.26000 26.13100
H  5.63500 44.26100 24.77200
H  3.00400 43.99100 30.83700
H  4.71500 41.62400 33.90400
H  5.04400 40.67200 32.52000
H  3.40100 40.65300 33.20600

