79

Mg 41.53000 40.70700 26.67800
C  40.99300 43.11100 29.29600
C  42.62600 38.63800 29.07000
C  42.28700 38.53600 24.10500
C  40.84900 43.11000 24.32600
N  41.81400 40.88200 28.89100
C  41.40600 41.89500 29.77500
C  41.52700 41.51400 31.19800
C  42.35500 40.19700 31.08200
C  42.17100 39.83100 29.62000
C  43.88600 40.29000 31.62300
C  40.20600 41.46900 32.04900
C  40.21700 42.28600 33.39100
H  39.54500 41.62800 34.56000
N  42.26900 38.85900 26.57100
C  42.61600 38.14200 27.68900
C  43.22900 36.86200 27.27000
C  43.12700 36.81900 25.83000
C  42.54200 38.09800 25.40400
C  43.82600 35.79100 28.20400
C  43.59100 35.71700 24.85100
O  43.55700 35.90200 23.61000
C  44.17500 34.36100 25.34900
N  41.51900 40.80200 24.48000
C  41.87700 39.80500 23.64800
C  41.70900 40.18200 22.14300
C  41.18200 41.63900 22.28500
C  41.18800 41.88700 23.79700
C  42.98400 39.99600 21.32200
C  39.74600 41.93700 21.62400
C  39.75800 43.03900 20.52600
N  40.98300 42.64500 26.68500
C  40.76900 43.54100 25.72200
C  40.42400 44.84200 26.23700
C  40.39500 44.71500 27.66400
C  40.83300 43.37300 27.90800
C  40.08900 46.06300 25.42800
C  40.05100 45.35100 28.94500
O  39.50100 46.41700 29.09600
C  40.50700 44.36200 30.06100
C  41.69000 45.13100 30.69300
O  42.77400 45.31000 30.10800
O  41.33000 45.46000 31.95100
C  42.45900 46.02500 32.81300
H  43.00800 37.92400 29.80300
H  42.51300 38.04500 23.15600
H  40.49500 43.91200 23.67500
H  42.13500 42.32000 31.61100
H  41.73600 39.56000 31.71400
H  44.09000 41.13300 32.28400
H  44.53400 40.22000 30.74900
H  44.04100 39.35700 32.16400
H  39.91100 40.44500 32.27400
H  39.38900 41.81000 31.41300
H  39.59100 43.11400 33.06100
H  41.18700 42.75300 33.56000
H  43.93200 36.13700 29.23200
H  44.87200 35.61900 27.94800
H  43.19000 34.90600 28.20900
H  44.52600 33.75000 24.51700
H  43.38100 33.90900 25.94500
H  45.07300 34.41500 25.96300
H  40.97900 39.46200 21.77500
H  41.96800 42.22400 21.80700
H  43.80400 39.77000 22.00300
H  43.26000 40.83500 20.68400
H  42.97500 39.21300 20.56300
H  38.99800 42.18000 22.37900
H  39.31600 41.06300 21.13400
H  39.76100 42.46300 19.60100
H  40.72500 43.53600 20.60900
H  38.94700 43.76600 20.56600
H  39.02300 46.28800 25.45100
H  40.36200 46.00200 24.37500
H  40.64900 46.86500 25.90900
H  39.69300 44.26000 30.77800
H  41.95800 46.89800 33.23200
H  43.35900 46.32200 32.27400
H  42.69100 45.24100 33.53400

