79

Mg 39.93400 9.72500 30.05600
C  41.78000 10.84300 32.80200
C  37.99200 7.88000 32.25000
C  38.29800 8.59500 27.41900
C  42.44200 11.04400 28.03600
N  40.04900 9.28200 32.25200
C  40.75700 9.97800 33.21500
C  40.36700 9.52200 34.65900
C  39.35000 8.43500 34.35600
C  39.01700 8.54100 32.87700
C  39.84200 6.95900 34.70300
C  39.90600 10.75700 35.55200
C  40.37600 10.72500 36.98200
H  39.32500 11.16900 38.12100
N  38.27900 8.48000 29.89900
C  37.56000 7.90700 30.87600
C  36.43400 7.18400 30.25200
C  36.53300 7.44100 28.88100
C  37.71100 8.19200 28.69000
C  35.44100 6.29700 30.99400
C  35.52000 7.05600 27.76500
O  35.51700 7.69500 26.67600
C  34.38100 6.04700 28.10100
N  40.45200 9.62000 28.09800
C  39.48000 9.27700 27.14100
C  39.96400 9.59800 25.69200
C  41.26500 10.47400 26.02000
C  41.45300 10.26700 27.46400
C  40.23400 8.26600 24.85900
C  41.17900 11.95800 25.57900
C  39.96500 12.76300 26.16500
N  41.77500 10.73700 30.26800
C  42.69400 11.20200 29.34300
C  43.81900 11.83000 30.04800
C  43.41200 11.78100 31.44300
C  42.19200 11.08700 31.52800
C  45.06200 12.27200 29.42200
C  43.78900 12.15000 32.78100
O  44.69200 12.82600 33.14000
C  42.82500 11.51900 33.77400
C  43.55700 10.64100 34.81800
O  43.80300 9.48800 34.68200
O  43.58800 11.30300 35.95600
C  44.28300 10.71600 37.09100
H  37.35000 7.26900 32.88800
H  37.79700 8.46700 26.45700
H  43.19400 11.50600 27.39300
H  41.20200 9.06900 35.19400
H  38.37800 8.60300 34.82000
H  39.93900 6.29300 33.84600
H  39.00400 6.48500 35.21500
H  40.77500 6.78000 35.23800
H  38.82300 10.87300 35.59600
H  40.29000 11.64400 35.04700
H  41.11000 11.52700 37.05800
H  40.71400 9.73800 37.29700
H  35.58300 6.31000 32.07500
H  35.67700 5.30800 30.60200
H  34.43600 6.68600 30.83000
H  33.84100 5.84000 27.17700
H  33.71900 6.46900 28.85600
H  34.72700 5.06700 28.43000
H  39.23400 10.11600 25.07000
H  42.08300 9.93300 25.54500
H  40.03700 8.40300 23.79600
H  39.57600 7.47200 25.21100
H  41.24700 7.86500 24.88600
H  40.96500 11.81700 24.52000
H  42.06700 12.56400 25.76300
H  39.25900 12.16000 26.73500
H  39.49200 13.17000 25.27100
H  40.31500 13.55400 26.82900
H  44.80600 13.15900 28.84300
H  45.49200 11.51800 28.76300
H  45.65200 12.64300 30.26000
H  42.36900 12.34000 34.32700
H  43.53500 10.02300 37.47400
H  44.64300 11.44400 37.81800
H  45.09100 10.09200 36.70900

