79

Mg -10.24000 38.80300 42.20300
C  -8.51900 35.73000 41.61600
C  -7.85100 40.34300 40.43900
C  -12.51100 41.32300 41.88100
C  -12.84400 36.76300 43.50100
N  -8.49000 38.04100 40.95900
C  -7.95000 36.79500 40.87100
C  -6.66900 36.75800 40.04400
C  -6.38800 38.25200 39.98000
C  -7.61600 38.95100 40.52900
C  -5.10200 38.83900 40.69500
C  -6.80400 36.03700 38.63300
C  -5.67300 35.07900 38.27400
H  -4.70600 35.42700 37.16600
N  -10.14600 40.71600 41.32400
C  -9.06200 41.20200 40.68100
C  -9.29300 42.58800 40.44400
C  -10.63300 42.92900 40.82500
C  -11.18700 41.66800 41.43600
C  -8.31900 43.40500 39.58900
C  -11.31100 44.28200 40.66900
O  -10.73400 45.21700 40.10900
C  -12.64200 44.57200 41.32000
N  -12.25700 39.05600 42.67000
C  -12.99100 40.16800 42.45900
C  -14.46900 40.08100 42.91200
C  -14.57300 38.53000 43.34300
C  -13.12500 38.04800 43.13200
C  -14.69600 41.08800 44.04000
C  -15.55800 37.54900 42.52900
C  -16.46700 36.73500 43.49600
N  -10.57700 36.73000 42.64600
C  -11.63600 36.07600 43.29500
C  -11.24600 34.68600 43.50100
C  -9.99800 34.47100 42.84500
C  -9.69100 35.77100 42.34800
C  -12.00600 33.67300 44.25600
C  -9.00500 33.53400 42.52800
O  -8.91600 32.38100 42.73800
C  -7.94900 34.32900 41.69900
C  -6.59500 34.18100 42.36200
O  -5.90300 33.17100 42.42800
O  -6.19100 35.40900 42.78800
C  -4.96300 35.46700 43.60400
H  -7.05600 40.86300 39.90100
H  -13.29000 42.07300 41.72300
H  -13.73100 36.24400 43.87000
H  -5.85700 36.30500 40.61400
H  -6.34800 38.49600 38.91800
H  -5.38900 39.74200 41.23300
H  -4.37000 39.10600 39.93300
H  -4.59100 38.18000 41.39800
H  -6.70100 36.80900 37.87100
H  -7.72900 35.46000 38.61900
H  -6.09300 34.11700 37.97900
H  -5.02100 34.76400 39.08800
H  -8.91100 44.07700 38.96700
H  -7.73600 42.86000 38.84600
H  -7.75100 44.12800 40.17400
H  -12.81900 44.18100 42.32200
H  -13.19800 44.02400 40.55900
H  -12.90500 45.62200 41.19300
H  -15.13500 40.30300 42.07800
H  -14.77200 38.39600 44.40600
H  -14.84000 42.13100 43.75900
H  -13.88200 40.91800 44.74400
H  -15.65000 40.85700 44.51400
H  -15.04500 36.87600 41.84100
H  -16.14800 38.38600 42.15700
H  -16.52400 35.69500 43.17400
H  -17.45600 37.16300 43.66000
H  -16.00000 36.77900 44.48000
H  -11.50300 32.71000 44.33900
H  -12.99200 33.70200 43.79300
H  -12.11000 34.01200 45.28700
H  -8.00900 33.85100 40.72100
H  -4.58600 34.49900 43.93600
H  -5.14900 35.95400 44.56100
H  -4.15600 36.01700 43.12000

