79

Mg -5.29800 24.61500 26.26000
C  -3.71000 26.23200 29.00300
C  -7.35300 22.92400 28.36100
C  -6.52100 23.12600 23.55500
C  -3.17400 26.54700 24.17500
N  -5.53700 24.59800 28.34700
C  -4.80000 25.31800 29.30300
C  -5.26300 24.88300 30.67400
C  -6.23900 23.73300 30.48500
C  -6.40000 23.75500 28.97300
C  -5.90000 22.39000 31.15800
C  -5.89400 26.08700 31.44500
C  -5.66300 26.19800 32.98000
H  -5.05100 25.05900 33.70000
N  -6.68600 23.11300 26.06300
C  -7.53600 22.60700 27.03200
C  -8.54300 21.75700 26.36500
C  -8.24600 21.70900 24.99600
C  -7.08400 22.62900 24.78800
C  -9.62100 21.01900 27.18100
C  -8.87000 20.85200 23.83200
O  -8.59300 20.91300 22.65200
C  -9.77200 19.79200 24.26000
N  -4.72600 24.60800 24.17600
C  -5.46100 24.07300 23.23400
C  -5.10000 24.44800 21.82500
C  -4.16500 25.65900 22.09400
C  -3.93200 25.58600 23.56700
C  -4.57200 23.23400 21.01700
C  -4.81600 26.98300 21.61200
C  -4.15700 27.63300 20.48400
N  -3.82000 26.20600 26.46300
C  -3.05000 26.87300 25.53100
C  -2.22200 27.85500 26.17700
C  -2.43800 27.63300 27.56700
C  -3.36100 26.55700 27.64600
C  -1.29600 28.91600 25.52300
C  -2.17000 28.08300 28.92100
O  -1.62000 29.10600 29.34600
C  -2.85400 27.12900 29.85700
C  -1.73900 26.48400 30.68400
O  -0.81000 25.79500 30.25300
O  -1.82600 26.79300 32.00800
C  -0.92100 26.25500 32.95900
H  -8.10400 22.52800 29.04800
H  -7.06700 22.86300 22.64600
H  -2.70600 27.29300 23.53000
H  -4.38700 24.57400 31.24400
H  -7.24000 24.04900 30.78100
H  -5.70800 21.59000 30.44400
H  -6.69400 22.12600 31.85700
H  -4.94300 22.40200 31.67800
H  -6.95400 26.09200 31.19200
H  -5.53000 27.00900 30.99200
H  -6.59700 26.54000 33.42800
H  -4.95500 27.01500 33.11300
H  -9.35100 19.98700 27.40500
H  -10.57800 21.23300 26.70500
H  -9.79400 21.40700 28.18500
H  -9.79400 19.04300 23.46900
H  -10.73900 20.16500 24.60000
H  -9.33100 19.27300 25.11100
H  -6.04300 24.77500 21.38700
H  -3.21700 25.44700 21.60100
H  -5.16300 23.16400 20.10400
H  -4.58400 22.34800 21.65100
H  -3.53400 23.44700 20.76100
H  -4.84000 27.65000 22.47400
H  -5.82300 26.87100 21.20800
H  -4.85000 27.52400 19.65000
H  -3.21200 27.17400 20.19300
H  -3.85900 28.67100 20.63000
H  -1.77500 29.84200 25.84000
H  -1.06800 28.85600 24.45900
H  -0.38300 29.01100 26.11200
H  -3.42100 27.77700 30.52500
H  0.07200 26.07700 32.54400
H  -1.24300 25.34800 33.47100
H  -0.85700 26.88500 33.84600

