79

Mg 29.54500 58.62800 39.60700
C  26.77300 56.96700 38.59100
C  31.51200 55.88700 38.93600
C  32.34500 60.59000 39.64500
C  27.54200 61.57800 39.93400
N  29.20400 56.74900 38.60600
C  27.98400 56.15600 38.33400
C  28.11600 54.76700 37.88100
C  29.60800 54.39000 38.15500
C  30.16600 55.74400 38.71000
C  30.01400 53.27600 39.20600
C  27.82500 54.86800 36.43500
C  26.79900 53.89900 35.80000
H  25.97900 54.48800 34.62500
N  31.66800 58.24900 39.28300
C  32.23400 57.07200 38.98100
C  33.65600 57.30400 39.01000
C  33.90100 58.66600 39.19400
C  32.62300 59.27600 39.32900
C  34.60300 56.14800 38.86700
C  35.27300 59.28000 39.08300
O  36.24400 58.56900 38.93900
C  35.58200 60.74800 39.20500
N  29.87100 60.82600 39.36200
C  31.13200 61.33800 39.71700
C  31.13200 62.78900 40.21800
C  29.61000 63.16100 40.08900
C  28.94900 61.77700 39.75200
C  31.71600 63.08800 41.64600
C  29.37200 64.18700 38.95900
C  28.47100 65.37300 39.23200
N  27.60600 59.17400 39.42000
C  26.90600 60.34000 39.69800
C  25.48200 60.11600 39.57200
C  25.37700 58.76700 39.16000
C  26.69500 58.27000 39.11800
C  24.32100 61.02500 39.97300
C  24.42400 57.64900 38.86700
O  23.20500 57.53400 39.04300
C  25.34700 56.43800 38.43600
C  25.00900 55.30900 39.31800
O  25.15400 55.36300 40.52300
O  24.43100 54.29000 38.62700
C  24.06500 53.12400 39.38200
H  32.04100 54.93500 39.02000
H  33.22700 61.17300 39.92100
H  26.98200 62.49700 40.11800
H  27.43300 54.24300 38.55000
H  30.09600 54.02400 37.25200
H  29.06200 52.88900 39.56900
H  30.71300 53.69800 39.92800
H  30.58900 52.49100 38.71600
H  28.72700 54.61800 35.87500
H  27.68200 55.87000 36.03000
H  26.15300 53.48900 36.57600
H  27.47400 53.12900 35.42500
H  34.14100 55.38400 39.49200
H  35.61800 56.28400 39.24200
H  34.68800 55.73500 37.86300
H  35.71800 61.10500 40.22600
H  34.91000 61.32000 38.56500
H  36.54500 60.87900 38.71000
H  31.68800 63.33000 39.45200
H  29.10400 63.44400 41.01200
H  32.13200 62.16200 42.04300
H  30.96200 63.52500 42.30000
H  32.52700 63.81700 41.65800
H  28.91200 63.73300 38.08100
H  30.24500 64.69200 38.54500
H  29.10500 66.25700 39.30800
H  28.04600 65.34800 40.23500
H  27.58300 65.41700 38.60200
H  23.65100 60.65200 40.74700
H  23.79100 61.23700 39.04400
H  24.78600 61.94100 40.33800
H  25.09100 56.15300 37.41500
H  23.07500 52.79700 39.06500
H  24.09000 53.18700 40.47000
H  24.73900 52.34100 39.03400

