79

Mg 1.08000 8.52400 26.79700
C  1.36600 10.90300 29.36900
C  1.12600 6.06500 29.21600
C  0.85400 6.18500 24.29800
C  1.13500 11.08300 24.38800
N  1.43100 8.50500 29.08100
C  1.40500 9.59900 29.92000
C  1.12100 9.24700 31.36200
C  1.22800 7.65200 31.30800
C  1.23700 7.38700 29.81000
C  2.42800 7.01500 32.01700
C  -0.29900 9.58900 31.85300
C  -0.63600 9.38500 33.35800
H  0.42000 9.00200 34.39500
N  0.98100 6.40400 26.74400
C  1.06800 5.58800 27.87600
C  1.00900 4.18800 27.40400
C  0.81500 4.19500 25.97200
C  0.89500 5.61900 25.62100
C  1.17000 3.08600 28.38900
C  0.73700 3.06000 25.00100
O  0.55300 3.11900 23.78600
C  0.71200 1.70800 25.63600
N  1.05300 8.65000 24.68300
C  0.89800 7.53000 23.87800
C  0.65300 7.99700 22.49000
C  0.49800 9.50500 22.48500
C  0.95700 9.77600 23.93800
C  1.81500 7.54800 21.64500
C  -0.90700 10.08700 22.10300
C  -0.93100 10.95500 20.78400
N  1.43800 10.50500 26.80200
C  1.37100 11.43800 25.76500
C  1.66300 12.77200 26.32900
C  1.50400 12.59100 27.67700
C  1.48300 11.17300 27.96300
C  1.90600 14.06600 25.61800
C  1.52100 13.28900 28.89300
O  1.51100 14.50500 29.13900
C  1.23800 12.22700 30.06000
C  2.31300 12.45000 31.08100
O  3.49000 12.68100 30.89300
O  1.80800 12.49000 32.37800
C  2.75600 12.78700 33.49500
H  1.09800 5.30600 30.00000
H  0.72400 5.46300 23.49000
H  1.09600 11.93000 23.70000
H  1.88900 9.79500 31.90800
H  0.42000 7.13000 31.82200
H  2.11100 6.58500 32.96800
H  3.29300 7.65200 32.19800
H  2.79900 6.24600 31.33900
H  -1.03200 9.05900 31.24600
H  -0.44300 10.63300 31.57400
H  -1.44200 8.65400 33.29400
H  -1.07000 10.27500 33.81300
H  2.00300 2.44900 28.09200
H  0.28500 2.46200 28.26500
H  1.37200 3.38400 29.41800
H  -0.14400 1.79000 26.30600
H  1.62500 1.46700 26.18000
H  0.46300 0.91200 24.93400
H  -0.17900 7.43700 22.06300
H  1.15300 10.04800 21.80400
H  1.88200 8.15200 20.74000
H  1.90100 6.48700 21.41100
H  2.72100 7.74000 22.21900
H  -1.27700 10.63100 22.97200
H  -1.60600 9.27900 21.89100
H  -1.80700 10.67600 20.19900
H  -0.10500 10.80900 20.08800
H  -1.07500 11.99800 21.06400
H  1.26400 14.13100 24.73900
H  2.95200 14.02200 25.31400
H  1.69400 14.86900 26.32400
H  0.26500 12.29900 30.54600
H  3.49400 11.98800 33.41700
H  2.23300 12.64300 34.44100
H  3.14700 13.80400 33.49500

