79

Mg 6.07500 55.70900 40.11200
C  5.57100 52.22900 39.89000
C  9.37700 55.10000 39.18200
C  6.59600 58.84200 40.03300
C  2.58200 56.14500 40.50100
N  7.30000 53.82800 39.31600
C  6.91700 52.55300 39.55300
C  7.97100 51.62000 39.26100
C  9.29000 52.45200 39.53500
C  8.66200 53.92500 39.35700
C  9.85500 52.34200 40.97100
C  7.94300 50.85400 37.80800
C  7.52400 51.65800 36.61200
H  6.94600 50.95400 35.41400
N  7.69800 56.81600 39.59700
C  8.92900 56.43300 39.24800
C  9.82200 57.54700 38.94600
C  9.07900 58.67300 39.22300
C  7.69500 58.14400 39.59800
C  11.26700 57.53500 38.46400
C  9.46700 60.17400 39.00700
O  10.62200 60.44800 38.90000
C  8.49100 61.43800 38.99400
N  4.65900 57.30500 39.77400
C  5.24300 58.48800 40.08500
C  4.07100 59.54700 40.26300
C  2.86400 58.55400 40.62100
C  3.36800 57.23000 40.18700
C  4.31800 60.57100 41.38200
C  1.52200 59.01000 40.02000
C  0.25600 59.06500 40.91800
N  4.35600 54.50800 40.15300
C  3.04400 54.83600 40.39500
C  2.31100 53.62700 40.51300
C  3.23700 52.57400 40.41900
C  4.51300 53.14700 40.19400
C  0.76600 53.49700 40.79600
C  3.33200 51.07900 40.38600
O  2.49100 50.23100 40.43300
C  4.91500 50.84100 40.15000
C  5.00000 49.95800 39.00900
O  4.73400 50.18200 37.80300
O  5.30000 48.63600 39.52000
C  5.47200 47.57300 38.50300
H  10.46100 54.98700 39.10200
H  6.78800 59.87400 40.33400
H  1.51000 56.20500 40.70300
H  7.89500 50.71300 39.86000
H  10.06100 52.18700 38.81100
H  10.93900 52.23600 40.94100
H  9.28900 51.51700 41.40500
H  9.62600 53.27600 41.48400
H  7.28000 49.99000 37.82700
H  8.97200 50.53900 37.63500
H  8.49200 52.02700 36.27200
H  6.88700 52.48700 36.92100
H  11.76700 57.89700 39.36200
H  11.53500 58.24700 37.68400
H  11.58100 56.49300 38.42000
H  8.93800 62.35000 38.59900
H  8.10300 61.60900 39.99800
H  7.67100 61.19200 38.31900
H  3.93600 60.00900 39.28500
H  2.75900 58.49600 41.70400
H  5.31700 60.47500 41.80600
H  3.65500 60.51600 42.24600
H  4.17700 61.57900 40.99200
H  1.39400 58.41300 39.11700
H  1.63000 60.02900 39.64600
H  -0.39500 58.32300 40.45700
H  -0.19600 60.04700 41.05400
H  0.52200 58.77100 41.93400
H  0.34000 52.78900 40.08500
H  0.29800 54.43500 40.49900
H  0.48200 53.06800 41.75700
H  5.40400 50.35600 40.99400
H  4.44200 47.21700 38.49400
H  6.08000 46.73800 38.84900
H  5.87300 47.86400 37.53200

