79

Mg 42.54800 41.69600 25.55700
C  41.66400 43.75600 28.08500
C  44.01200 39.58400 27.90600
C  43.55600 39.46900 23.06400
C  41.92400 44.07000 23.20500
N  42.68200 41.61400 27.81000
C  42.17800 42.57800 28.63500
C  42.30400 42.23800 30.15200
C  43.29400 40.94700 29.95500
C  43.46000 40.74000 28.47700
C  44.59300 40.92700 30.73600
C  41.06600 41.98600 31.00700
C  41.21400 42.54600 32.39800
H  40.15000 42.28000 33.49600
N  43.66200 39.79200 25.51000
C  44.07900 39.08500 26.60400
C  44.70300 37.84600 26.16900
C  44.56500 37.81700 24.76900
C  43.91500 39.07600 24.41700
C  45.36000 36.86400 27.08500
C  45.02600 36.68200 23.88700
O  45.07000 36.87500 22.68700
C  45.34500 35.34300 24.48200
N  42.96400 41.86400 23.44400
C  43.12600 40.71900 22.65900
C  42.71500 40.99200 21.21000
C  42.28600 42.42200 21.27200
C  42.30600 42.82700 22.74000
C  43.82800 40.83000 20.15500
C  40.79200 42.60300 20.67800
C  40.58800 43.82400 19.80500
N  41.90900 43.49900 25.59600
C  41.69900 44.35400 24.59100
C  41.18700 45.62100 25.10700
C  41.11200 45.38200 26.48100
C  41.57500 44.07100 26.75000
C  40.86800 46.91900 24.39900
C  40.78200 46.04300 27.71500
O  40.38100 47.19300 27.99800
C  41.06800 44.95600 28.76900
C  42.04500 45.63900 29.65800
O  43.20900 45.90300 29.27700
O  41.43300 46.03100 30.85000
C  42.45200 46.54600 31.75300
H  44.36900 38.85000 28.63100
H  43.55200 38.78700 22.21100
H  41.70300 44.82700 22.45000
H  43.01900 42.96400 30.53900
H  42.76400 40.06000 30.30300
H  45.49200 41.48700 30.47900
H  44.81400 39.91300 31.07000
H  44.24600 41.41000 31.64900
H  40.97900 40.92300 31.23400
H  40.13900 42.42700 30.64100
H  41.27700 43.62500 32.25800
H  42.17900 42.23900 32.80200
H  44.69100 36.01900 27.24500
H  45.59200 37.35000 28.03300
H  46.31500 36.42600 26.79500
H  46.31100 35.49800 24.96300
H  45.40500 34.66000 23.63500
H  44.56300 35.17800 25.22300
H  41.96100 40.28700 20.86100
H  42.97900 43.13100 20.82000
H  43.71100 39.81800 19.76800
H  44.82400 40.80600 20.59600
H  43.69900 41.57900 19.37400
H  39.96000 42.54700 21.37900
H  40.58200 41.79000 19.98300
H  40.46900 43.48700 18.77500
H  41.49700 44.42400 19.77400
H  39.72100 44.43600 20.05300
H  39.79600 46.88800 24.20300
H  41.30100 47.07100 23.41000
H  40.97100 47.73800 25.11000
H  40.16500 44.69500 29.32000
H  41.93300 46.69400 32.70000
H  43.17600 47.29600 31.43500
H  43.22600 45.82500 32.01500

