79

Mg 47.37600 25.42700 28.02600
C  48.56600 27.38300 30.76600
C  45.87500 23.32000 30.28600
C  46.69100 23.38400 25.57800
C  49.29200 27.58800 25.96400
N  47.34700 25.33400 30.20500
C  47.91300 26.24200 31.14900
C  47.35700 25.82700 32.58500
C  46.73200 24.42800 32.35100
C  46.62200 24.37000 30.85500
C  47.46200 23.24900 32.83300
C  46.42200 26.94100 33.19000
C  46.91100 27.51500 34.52000
H  45.89700 27.76700 35.67700
N  46.36200 23.57400 27.93900
C  45.79000 22.88100 29.04300
C  45.20800 21.67400 28.51900
C  45.50200 21.62900 27.13300
C  46.18000 22.85400 26.81800
C  44.55500 20.59300 29.31400
C  45.06500 20.63600 26.04800
O  45.37600 20.69000 24.89400
C  44.27900 19.46300 26.52400
N  48.01700 25.41800 26.07000
C  47.41500 24.52600 25.17200
C  47.76600 24.93100 23.70300
C  48.61900 26.23400 23.94800
C  48.64300 26.45900 25.44900
C  48.46700 23.87200 22.90000
C  48.02500 27.45600 23.22100
C  48.91300 28.20700 22.35200
N  48.71000 27.20200 28.24500
C  49.45800 27.92100 27.32100
C  50.14400 29.00100 27.96100
C  49.74800 28.87200 29.32300
C  48.93400 27.74300 29.41000
C  50.99500 30.11300 27.34400
C  49.87600 29.41300 30.63400
O  50.46600 30.39700 31.11400
C  49.07700 28.45000 31.57700
C  50.17700 28.10300 32.58400
O  51.14600 27.40300 32.33300
O  49.95200 28.72300 33.81800
C  51.01400 28.55800 34.90700
H  45.43900 22.59500 30.97600
H  46.43300 22.90500 24.63100
H  49.75500 28.26200 25.24100
H  48.09800 25.60500 33.35200
H  45.73100 24.36400 32.77500
H  48.33800 23.39000 33.46600
H  48.02200 22.74900 32.04300
H  46.66200 22.66800 33.29200
H  45.43100 26.51600 33.34900
H  46.24900 27.81100 32.55600
H  47.36100 28.48900 34.32500
H  47.76400 26.99800 34.95900
H  43.64300 20.19200 28.87200
H  44.28600 20.82400 30.34500
H  45.36100 19.88100 29.49200
H  44.88000 18.81900 27.16500
H  44.33100 18.76700 25.68700
H  43.21700 19.64800 26.69100
H  46.81400 25.08400 23.19400
H  49.63600 26.03900 23.60700
H  48.03100 23.77900 21.90500
H  48.71400 22.97600 23.46900
H  49.44900 24.20300 22.56200
H  47.60700 28.19500 23.90500
H  47.12900 27.14000 22.68600
H  49.32800 29.00100 22.97400
H  48.24200 28.66100 21.62300
H  49.69200 27.56700 21.93700
H  50.52300 31.09400 27.40000
H  51.32800 29.86700 26.33600
H  51.83200 30.32500 28.00900
H  48.25100 28.97000 32.06200
H  50.63600 27.83200 35.62700
H  51.26000 29.48300 35.42900
H  51.89900 28.01700 34.57300

