79

Mg -9.31600 18.65600 42.93700
C  -5.90200 17.79800 43.08300
C  -8.48200 21.97800 42.60200
C  -12.54500 19.32700 42.38600
C  -10.04700 15.14500 42.76600
N  -7.36100 19.70000 42.63600
C  -6.03800 19.20600 42.82500
C  -5.01800 20.38600 42.81300
C  -5.96300 21.67500 42.97800
C  -7.37800 21.07900 42.61900
C  -5.88500 22.55200 44.31900
C  -4.14300 20.19700 41.55200
C  -4.71000 19.52700 40.27800
H  -4.35400 20.08500 38.91500
N  -10.40400 20.41500 42.68700
C  -9.82900 21.63500 42.57800
C  -10.90600 22.57700 42.26100
C  -12.15700 21.88600 42.18200
C  -11.68300 20.47600 42.42200
C  -10.80200 24.07200 42.04900
C  -13.56900 22.49900 42.08700
O  -13.79400 23.73200 41.94700
C  -14.92600 21.66200 42.16600
N  -10.96600 17.39900 42.46500
C  -12.21900 17.95800 42.46500
C  -13.31500 16.90100 42.34200
C  -12.50000 15.62100 42.57100
C  -11.09900 16.07200 42.56100
C  -14.48100 17.00500 43.34600
C  -12.76300 14.43800 41.55700
C  -13.48100 13.15500 42.16400
N  -8.28400 16.79800 43.03200
C  -8.71300 15.48300 43.01800
C  -7.58200 14.58300 43.32000
C  -6.52800 15.53900 43.39600
C  -6.90800 16.79600 43.13900
C  -7.63900 13.13000 43.58700
C  -5.07600 15.61800 43.61900
O  -4.25800 14.69300 43.93000
C  -4.65800 17.07900 43.42500
C  -3.79800 17.42200 44.65100
O  -2.57700 17.43200 44.70500
O  -4.66100 17.63100 45.69800
C  -3.98800 18.01200 46.98300
H  -8.22700 23.04000 42.58700
H  -13.62200 19.44600 42.24800
H  -10.18200 14.06100 42.77300
H  -4.34100 20.32700 43.66500
H  -5.62800 22.39100 42.22700
H  -5.01600 22.43400 44.96700
H  -6.84600 22.47900 44.82900
H  -5.91500 23.58900 43.98600
H  -3.18900 19.79000 41.88700
H  -3.82200 21.16500 41.16600
H  -5.78800 19.69200 40.28700
H  -4.44100 18.47300 40.21400
H  -10.96600 24.40600 41.02400
H  -9.79000 24.31000 42.37700
H  -11.63800 24.52600 42.58100
H  -14.93800 20.99500 43.02800
H  -15.22900 21.19000 41.23100
H  -15.73600 22.37500 42.31900
H  -13.78900 16.84700 41.36200
H  -12.69000 15.25500 43.58000
H  -14.09300 17.75100 44.04000
H  -14.55200 16.05400 43.87300
H  -15.35100 17.36300 42.79700
H  -11.81400 14.12600 41.12000
H  -13.35100 14.72400 40.68500
H  -13.87700 13.25100 43.17500
H  -12.68200 12.41900 42.25100
H  -14.27500 12.76600 41.52500
H  -6.61400 12.81300 43.77900
H  -7.92600 12.57400 42.69500
H  -8.17200 12.86100 44.49900
H  -4.10200 17.12100 42.48800
H  -4.65600 18.70800 47.49000
H  -2.99300 18.44400 46.87200
H  -3.91400 17.17500 47.67700

