79

Mg -12.58400 38.16300 42.09700
C  -10.40700 35.64100 40.92900
C  -10.39200 40.56800 41.25400
C  -15.04800 40.48000 42.67900
C  -14.87400 35.50000 42.89100
N  -10.66000 38.13500 41.09200
C  -9.91700 36.98300 40.74300
C  -8.56600 37.37100 40.22700
C  -8.51700 38.93600 40.65000
C  -9.95300 39.23800 40.94800
C  -7.60200 39.25000 41.83100
C  -8.42300 37.10600 38.73500
C  -7.25300 36.18800 38.23200
H  -6.44200 36.75900 37.02800
N  -12.66300 40.28600 42.05100
C  -11.60400 41.03600 41.73900
C  -12.10700 42.43500 41.67700
C  -13.44600 42.45500 42.13800
C  -13.77700 41.01500 42.28800
C  -11.13300 43.60300 41.26000
C  -14.35500 43.72300 42.26300
O  -13.84700 44.82100 41.91100
C  -15.78400 43.73600 42.69500
N  -14.74800 37.99300 42.80400
C  -15.46800 39.16600 42.90000
C  -16.92000 38.80100 43.17400
C  -16.84200 37.21600 43.28500
C  -15.45400 36.80200 42.90300
C  -17.63500 39.50500 44.30500
C  -17.99500 36.58900 42.40900
C  -19.41400 36.64300 42.81600
N  -12.73800 36.05600 41.99200
C  -13.69000 35.14000 42.35400
C  -13.16600 33.80300 42.33100
C  -11.90100 33.92600 41.68000
C  -11.69200 35.33500 41.49900
C  -13.80300 32.58100 42.93600
C  -10.79500 33.21000 41.12900
O  -10.62400 32.00000 41.09300
C  -9.76600 34.27500 40.66100
C  -8.50500 34.08900 41.43000
O  -8.37600 34.28500 42.60000
O  -7.57700 33.52000 40.64800
C  -6.27700 33.30900 41.30300
H  -9.65600 41.37400 41.20200
H  -15.85400 41.20900 42.78800
H  -15.63200 34.74100 43.09700
H  -7.84600 36.88800 40.88800
H  -8.27400 39.67100 39.88200
H  -6.63400 38.78400 41.64400
H  -8.04700 38.69000 42.65300
H  -7.49100 40.29700 42.11200
H  -8.39500 38.12200 38.34200
H  -9.37600 36.65800 38.45200
H  -7.60800 35.22300 37.87100
H  -6.48800 35.91900 38.96100
H  -11.35600 44.50700 41.82700
H  -11.35400 43.84500 40.22000
H  -10.10100 43.27500 41.38600
H  -16.51400 43.20800 42.08200
H  -16.10700 44.77200 42.80400
H  -15.77300 43.25400 43.67200
H  -17.51000 39.11400 42.31200
H  -16.91000 36.88200 44.32000
H  -17.04800 40.40100 44.51100
H  -17.64500 38.84500 45.17200
H  -18.61900 39.83900 43.97600
H  -17.79700 35.52000 42.33200
H  -17.85100 36.96100 41.39500
H  -20.09600 36.56100 41.97000
H  -19.52600 37.45500 43.53500
H  -19.65200 35.74000 43.37800
H  -13.18300 31.69800 42.78100
H  -14.69600 32.32800 42.36400
H  -13.92400 32.75300 44.00500
H  -9.61200 34.07600 39.60100
H  -6.05100 34.21100 41.87100
H  -5.49200 33.10800 40.57400
H  -6.33600 32.45600 41.97900

