79

Mg 17.16400 51.52900 25.74100
C  18.90800 50.60300 28.49000
C  14.57100 52.66800 27.80600
C  15.29700 51.93600 23.03500
C  19.74900 50.56600 23.71000
N  16.82400 51.68000 27.95900
C  17.70000 51.25300 28.91400
C  17.21700 51.50500 30.28900
C  15.80200 52.14200 30.06600
C  15.67900 52.18200 28.50900
C  14.60900 51.39600 30.74600
C  18.14700 52.30700 31.21800
C  18.23200 51.73000 32.61100
H  17.08000 50.90000 33.20200
N  15.27100 52.28600 25.39100
C  14.35500 52.73600 26.37900
C  13.08200 53.08600 25.74800
C  13.30900 52.96600 24.32200
C  14.62200 52.35600 24.14500
C  11.86300 53.60300 26.53000
C  12.43700 53.39700 23.19400
O  12.77900 53.34000 22.01400
C  11.04500 53.87300 23.47200
N  17.52400 51.46300 23.64800
C  16.56800 51.46300 22.79600
C  16.97800 51.09600 21.36600
C  18.50700 50.88800 21.53200
C  18.64200 51.03900 23.05900
C  16.03400 50.05400 20.72900
C  19.56100 51.92800 20.89500
C  20.80500 51.15800 20.26000
N  18.90000 50.70800 26.00800
C  19.89100 50.40100 25.10200
C  20.98000 49.76700 25.80200
C  20.65300 49.84200 27.10900
C  19.42700 50.48800 27.24400
C  22.05900 48.97000 25.17100
C  20.94800 49.33800 28.39100
O  21.98000 48.75400 28.76700
C  19.79900 49.79400 29.42200
C  19.14100 48.62800 30.04400
O  18.18000 48.00600 29.55900
O  19.79600 48.24500 31.21700
C  19.15300 47.22100 32.11300
H  13.79400 53.04200 28.47600
H  14.70200 52.03900 22.12500
H  20.61500 50.19700 23.15600
H  17.13100 50.50700 30.71700
H  15.70900 53.13100 30.51600
H  13.95000 51.12800 29.91900
H  14.06800 52.08000 31.40000
H  15.03600 50.58600 31.33700
H  17.78500 53.33500 31.20700
H  19.14200 52.28300 30.77300
H  18.34800 52.60000 33.25700
H  19.15600 51.15900 32.70000
H  11.54300 54.61700 26.28900
H  12.08600 53.63700 27.59600
H  11.11600 52.82900 26.35100
H  10.59600 53.96900 22.48400
H  10.96700 54.74600 24.12000
H  10.53900 53.09000 24.03600
H  16.82900 52.02600 20.81700
H  18.70300 49.85900 21.23100
H  15.41600 49.62800 21.52000
H  16.59800 49.24000 20.27400
H  15.38800 50.44600 19.94300
H  19.93500 52.62300 21.64700
H  19.09400 52.57100 20.15000
H  21.69800 51.14400 20.88400
H  21.06900 51.58400 19.29200
H  20.61600 50.14400 19.90800
H  22.35000 49.47900 24.25200
H  21.79200 47.91600 25.10800
H  22.86900 49.03300 25.89700
H  20.12400 50.27800 30.34300
H  18.65600 47.75700 32.92100
H  19.93300 46.61600 32.57700
H  18.51600 46.48200 31.62800

