79

Mg 26.19300 0.02700 29.34200
C  28.09900 -0.33600 32.22200
C  23.39400 0.65800 31.36900
C  24.24000 0.20800 26.66200
C  28.86000 -1.28100 27.45800
N  25.80100 0.10300 31.54500
C  26.72900 -0.01600 32.57300
C  26.15900 0.12100 33.95200
C  24.59400 0.12000 33.58200
C  24.57100 0.29700 32.10000
C  23.79200 -1.14800 34.12600
C  26.78900 1.35700 34.59300
C  26.01000 1.85900 35.88900
H  26.79700 2.06800 37.15400
N  24.19900 0.46300 29.05600
C  23.20300 0.69400 29.96400
C  21.92000 0.90200 29.31800
C  22.10200 0.86300 27.96100
C  23.56100 0.53900 27.83300
C  20.65300 1.19700 30.07100
C  21.20000 1.11200 26.75900
O  21.54100 1.02000 25.59800
C  19.86000 1.61100 27.01800
N  26.56700 -0.41200 27.36400
C  25.56400 -0.22200 26.44300
C  26.14000 -0.69300 25.07900
C  27.69200 -0.73400 25.28700
C  27.72800 -0.87300 26.80400
C  25.53300 -2.02300 24.47100
C  28.55900 0.49300 24.82800
C  30.03000 0.19900 24.50700
N  28.06600 -0.62900 29.68300
C  29.10000 -1.11400 28.85300
C  30.26900 -1.35500 29.53900
C  30.00000 -1.06200 30.85800
C  28.61400 -0.59900 30.91300
C  31.44800 -2.05600 28.86500
C  30.48900 -1.04500 32.24000
O  31.57800 -1.26700 32.69700
C  29.28300 -0.63200 33.14000
C  29.03000 -1.84200 34.04300
O  28.54800 -2.88600 33.68800
O  29.29900 -1.52800 35.35500
C  29.17200 -2.60800 36.33000
H  22.46300 0.80300 31.92100
H  23.79700 0.29300 25.66800
H  29.66400 -1.60300 26.79300
H  26.34000 -0.78200 34.53400
H  24.19800 1.03500 34.02100
H  24.46500 -1.84000 34.63300
H  23.38700 -1.73300 33.30100
H  23.02600 -0.81000 34.82300
H  26.79100 2.26200 33.98500
H  27.80800 1.15100 34.92000
H  25.07700 1.32000 36.05600
H  25.60500 2.85700 35.72500
H  20.08800 1.99900 29.59700
H  20.69800 1.48900 31.12100
H  19.93300 0.39400 29.91000
H  19.96600 2.56000 27.54500
H  19.29700 0.84300 27.54900
H  19.31800 1.81800 26.09600
H  25.94700 0.11300 24.37100
H  28.07900 -1.63200 24.80500
H  26.22200 -2.86300 24.55700
H  25.17200 -1.80900 23.46500
H  24.66600 -2.30000 25.07100
H  28.58000 1.10700 25.72800
H  28.22400 1.06300 23.96200
H  30.27100 0.72100 23.58100
H  30.17400 -0.88100 24.47700
H  30.68500 0.60600 25.27700
H  32.24000 -2.33600 29.55900
H  31.90100 -1.38600 28.13400
H  31.07100 -2.97800 28.42200
H  29.47000 0.19300 33.82700
H  29.95800 -3.36300 36.34300
H  28.19400 -3.02400 36.08800
H  29.00000 -2.15700 37.30700

