79

Mg 41.16500 8.90100 28.94300
C  42.80200 10.27700 31.67800
C  38.88800 7.63800 31.10600
C  39.58000 7.64800 26.22300
C  43.92900 9.78800 26.88200
N  40.93800 8.94100 31.19000
C  41.58900 9.78500 32.05200
C  41.00200 9.83300 33.44500
C  39.78100 8.79900 33.24700
C  39.85000 8.40900 31.71400
C  39.86500 7.52500 34.08500
C  40.58000 11.23400 33.96900
C  39.96000 11.35100 35.39800
H  40.79600 11.89900 36.59500
N  39.50300 7.78600 28.65900
C  38.68800 7.39500 29.73800
C  37.61600 6.59100 29.19100
C  37.82900 6.43600 27.76500
C  38.97700 7.36300 27.50100
C  36.49000 6.05700 30.13900
C  37.03600 5.71500 26.70400
O  37.41400 5.76300 25.54300
C  35.82300 5.01800 27.18000
N  41.64700 8.70700 26.78600
C  40.81300 8.23000 25.85500
C  41.30500 8.40700 24.41700
C  42.72500 9.04300 24.67500
C  42.84200 9.20400 26.23200
C  41.29700 7.13300 23.61400
C  42.91700 10.34300 23.90600
C  42.54000 11.67100 24.55600
N  43.04700 9.64800 29.13400
C  44.02600 10.05200 28.26500
C  45.00900 10.95200 28.92300
C  44.55600 10.92000 30.27800
C  43.40900 10.17600 30.41200
C  46.18400 11.67000 28.33000
C  44.89000 11.43900 31.54100
O  45.75500 12.21500 31.87500
C  43.74400 11.12700 32.58300
C  44.35000 10.36600 33.64100
O  45.14200 9.42000 33.46200
O  43.98600 10.82300 34.87600
C  44.70000 10.31600 36.08900
H  38.16800 7.21700 31.81100
H  39.05800 7.51600 25.27200
H  44.85300 10.08100 26.37800
H  41.72300 9.49300 34.18800
H  38.86500 9.30300 33.55600
H  40.66800 7.66600 34.81000
H  40.02700 6.67600 33.42200
H  39.00200 7.40900 34.74100
H  39.84500 11.68400 33.30200
H  41.48100 11.84600 33.95500
H  39.65800 10.37300 35.77200
H  39.01700 11.89500 35.33800
H  35.61700 6.04700 29.48700
H  36.28600 6.72000 30.98000
H  36.80500 5.12500 30.60800
H  36.09100 4.18900 27.83500
H  35.45700 4.48900 26.30000
H  35.07000 5.66200 27.63400
H  40.68900 9.13000 23.88400
H  43.44500 8.26600 24.41400
H  41.09100 6.37100 24.36500
H  42.16400 6.85900 23.01200
H  40.43900 7.17900 22.94300
H  42.29400 10.31800 23.01200
H  43.93000 10.30700 23.50500
H  43.31100 12.07700 25.21100
H  41.60800 11.43700 25.07000
H  42.28400 12.49500 23.88900
H  47.14000 11.16400 28.46800
H  46.31000 12.62100 28.84700
H  46.01900 11.83500 27.26500
H  43.27500 12.03200 32.96900
H  43.91700 10.63800 36.77500
H  45.70800 10.72900 36.11300
H  44.62200 9.22900 36.12000

