79

Mg 17.47500 -1.87700 27.03400
C  16.50400 0.15600 29.83400
C  19.44600 -3.69500 29.31800
C  18.66300 -3.53800 24.43100
C  15.81500 0.31600 24.99400
N  17.98400 -1.73800 29.33600
C  17.35100 -0.92300 30.23100
C  17.77800 -1.24900 31.64300
C  18.84600 -2.40000 31.46800
C  18.73000 -2.63900 29.97300
C  20.29700 -2.09100 31.78800
C  16.54300 -1.57400 32.50800
C  16.43500 -0.85900 33.81500
H  17.78400 -0.69500 34.48700
N  18.84100 -3.37700 26.92000
C  19.46900 -4.08100 27.94200
C  20.20600 -5.12700 27.30400
C  20.02800 -5.11100 25.91600
C  19.12400 -3.94500 25.68500
C  21.03900 -6.10200 28.14200
C  20.63900 -6.05000 24.87800
O  20.32900 -6.03300 23.71000
C  21.61700 -7.10300 25.25700
N  17.28900 -1.65400 25.03100
C  17.88500 -2.37300 24.07500
C  17.56400 -2.03200 22.65100
C  16.47100 -0.96700 22.91300
C  16.49700 -0.73800 24.40400
C  18.71800 -1.51400 21.74100
C  15.03800 -1.27200 22.34500
C  13.95600 -1.64100 23.34800
N  16.30600 -0.15700 27.32900
C  15.63200 0.55800 26.45800
C  14.84100 1.59500 26.97300
C  15.12800 1.47700 28.37100
C  16.01200 0.41700 28.51500
C  13.91000 2.48100 26.28500
C  14.86400 2.00600 29.72200
O  14.21700 3.01000 30.02900
C  15.76900 1.16500 30.69900
C  16.57300 2.14400 31.41100
O  17.71000 2.49100 31.14000
O  15.78600 2.67200 32.41500
C  16.35300 3.72900 33.26600
H  19.99500 -4.31400 30.03100
H  19.09300 -4.16500 23.64700
H  15.27200 0.99700 24.33500
H  18.15600 -0.31600 32.06000
H  18.49200 -3.29600 31.97800
H  20.44500 -1.18300 32.37300
H  20.93800 -1.87000 30.93400
H  20.74400 -2.95600 32.27700
H  16.57500 -2.64400 32.71000
H  15.65400 -1.48400 31.88400
H  15.89800 -1.54300 34.47300
H  15.85100 0.05900 33.74600
H  21.19000 -7.12100 27.78500
H  20.56000 -6.28100 29.10500
H  22.01300 -5.63800 28.29300
H  22.32400 -6.86400 26.05100
H  22.19000 -7.51200 24.42500
H  20.96500 -7.88900 25.63700
H  17.23200 -2.98300 22.23400
H  16.79600 0.01500 22.57000
H  19.60800 -1.48500 22.36900
H  18.44800 -0.56900 21.27100
H  18.84500 -2.19500 20.90000
H  15.11000 -2.10400 21.64500
H  14.66500 -0.37900 21.84200
H  13.38600 -0.74300 23.58700
H  14.45500 -2.09300 24.20500
H  13.40300 -2.43900 22.85300
H  13.44400 1.76100 25.61200
H  14.64400 3.05800 25.72300
H  13.17200 3.06000 26.84100
H  15.17200 0.65700 31.45600
H  15.70500 4.57300 33.03000
H  17.37100 4.04000 33.03100
H  16.20800 3.58800 34.33700

