79

Mg 26.87700 50.45300 26.94900
C  24.83500 51.47300 29.66800
C  29.16100 49.17600 29.24200
C  28.88300 49.72000 24.44600
C  24.50100 51.61300 24.77800
N  26.95400 50.26300 29.18900
C  25.98600 50.77900 30.11800
C  26.40400 50.31700 31.53600
C  27.86500 49.84800 31.36400
C  28.04100 49.73500 29.86900
C  28.97900 50.75700 32.04500
C  25.47300 49.16200 32.02100
C  24.24800 49.55100 32.87500
H  24.36800 49.01500 34.27700
N  28.81400 49.58400 26.83900
C  29.50800 49.06100 27.87500
C  30.75100 48.38900 27.35100
C  30.82500 48.62900 25.94300
C  29.46900 49.32400 25.67500
C  31.76700 47.64800 28.28100
C  31.79200 48.35500 24.89800
O  31.66800 48.67100 23.71900
C  33.03800 47.59700 25.28800
N  26.82900 50.86300 24.87300
C  27.76500 50.41200 24.03100
C  27.42900 50.75300 22.56700
C  25.84900 50.94500 22.70100
C  25.68300 51.19600 24.20200
C  28.19500 52.01100 21.97300
C  24.98800 49.70400 22.14200
C  23.80000 50.10000 21.28000
N  25.08100 51.51700 27.10200
C  24.22300 51.91200 26.15900
C  22.99200 52.49900 26.83200
C  23.25000 52.34600 28.17700
C  24.50500 51.65200 28.30600
C  21.83800 53.17200 26.19000
C  22.69500 52.61300 29.48900
O  21.73900 53.29600 29.73300
C  23.66000 51.97300 30.52400
C  24.08700 53.01100 31.51000
O  25.15100 53.63100 31.50200
O  23.12100 53.18800 32.49400
C  23.53400 54.19800 33.46600
H  29.81700 48.63700 29.92900
H  29.39100 49.44400 23.52000
H  23.69700 51.87800 24.08900
H  26.32100 51.15200 32.23300
H  27.95500 48.82900 31.74100
H  29.17700 51.53600 31.30900
H  29.90600 50.18700 32.09800
H  28.69000 50.95000 33.07900
H  25.95500 48.43100 32.67000
H  25.15700 48.62500 31.12700
H  23.29400 49.25800 32.43700
H  24.13000 50.63100 32.95800
H  31.61400 48.00200 29.30000
H  32.80100 47.72900 27.94400
H  31.36900 46.63700 28.36900
H  33.52400 48.04400 26.15500
H  33.80400 47.62000 24.51300
H  32.74500 46.59400 25.60000
H  27.52800 49.89300 21.90400
H  25.67100 51.84400 22.11100
H  29.19100 51.97900 22.41300
H  27.58600 52.89500 22.16100
H  28.32300 51.93100 20.89300
H  24.55000 49.33200 23.06800
H  25.52700 48.89300 21.65200
H  23.83900 49.76700 20.24300
H  23.57000 51.16300 21.34900
H  22.93800 49.59900 21.72100
H  21.60400 54.14200 26.62900
H  20.95000 52.54900 26.08400
H  22.09300 53.34400 25.14400
H  23.18800 51.15900 31.07400
H  23.68200 55.15600 32.96700
H  24.40100 53.85000 34.02800
H  22.69900 54.33300 34.15300

