79

Mg -4.94000 25.57100 25.81300
C  -3.21900 27.11700 28.46100
C  -5.93000 23.10600 28.24900
C  -6.40800 23.90000 23.31800
C  -3.36300 27.58400 23.56400
N  -4.61600 25.22400 28.02300
C  -4.00600 26.07700 28.86400
C  -4.41900 25.68700 30.32700
C  -4.74100 24.15100 30.14900
C  -5.07500 24.15700 28.74300
C  -3.57100 23.15600 30.63200
C  -5.55500 26.66700 30.84000
C  -5.37600 26.97500 32.34200
H  -4.85200 25.88000 33.29300
N  -6.17600 23.92000 25.86100
C  -6.45500 23.03500 26.90700
C  -7.40900 22.06000 26.36900
C  -7.68900 22.38000 24.95400
C  -6.70800 23.41900 24.61400
C  -8.12400 21.07500 27.23100
C  -8.69700 21.63700 23.99000
O  -8.76500 21.89700 22.80000
C  -9.50600 20.49300 24.48900
N  -4.64700 25.54500 23.72400
C  -5.45400 24.82600 22.93800
C  -5.21400 25.09900 21.44700
C  -4.36300 26.38100 21.58700
C  -4.01800 26.47800 23.01600
C  -4.70000 23.88800 20.43900
C  -5.00700 27.64500 20.87400
C  -4.00900 28.44900 20.02500
N  -3.60500 27.07200 25.93500
C  -3.16500 27.87800 24.91000
C  -2.37400 28.98700 25.54500
C  -2.33400 28.72300 26.91700
C  -3.06500 27.50500 27.07600
C  -1.62900 30.01900 24.78500
C  -1.89700 29.14500 28.23600
O  -1.23800 30.07500 28.60100
C  -2.56600 28.15800 29.26400
C  -1.44500 27.76400 30.15300
O  -0.28200 27.62100 29.82000
O  -1.94700 27.82000 31.42200
C  -1.07000 27.68900 32.59000
H  -6.29000 22.37400 28.97400
H  -7.11400 23.39100 22.65900
H  -2.90700 28.10500 22.72000
H  -3.49400 25.80800 30.89200
H  -5.62900 23.97400 30.75600
H  -2.60300 23.65700 30.64800
H  -3.56900 22.36600 29.88100
H  -3.83100 22.74400 31.60700
H  -6.50600 26.15200 30.70400
H  -5.55200 27.62900 30.32700
H  -6.40300 27.19200 32.63700
H  -4.78500 27.88800 32.40500
H  -9.19800 21.11300 27.05100
H  -8.08200 21.37500 28.27800
H  -7.76100 20.06700 27.03100
H  -10.33000 20.62300 25.19100
H  -8.71500 19.83800 24.85500
H  -9.83900 19.86300 23.66400
H  -6.19700 25.38300 21.07200
H  -3.40300 26.27700 21.08000
H  -5.45400 23.68900 19.67700
H  -4.39400 23.04300 21.05600
H  -3.81300 24.21700 19.89700
H  -5.37700 28.30800 21.65600
H  -5.87800 27.38900 20.27000
H  -3.91000 29.43200 20.48300
H  -4.22600 28.55600 18.96200
H  -2.97700 28.09900 19.98000
H  -2.19800 30.28000 23.89200
H  -0.61800 29.65300 24.60600
H  -1.51000 30.92800 25.37400
H  -3.21400 28.81200 29.84800
H  0.01900 27.65700 32.57300
H  -1.38500 26.87700 33.24400
H  -1.21700 28.65700 33.06900

