79

Mg -2.72600 16.99300 26.15900
C  -3.17200 14.88700 28.85600
C  -2.99500 19.67400 28.31100
C  -2.40000 19.03600 23.47500
C  -2.52600 14.31900 23.97200
N  -3.09900 17.19000 28.28700
C  -3.24200 16.17000 29.23500
C  -3.27900 16.79600 30.65900
C  -3.57800 18.31100 30.37900
C  -3.12000 18.42500 28.91200
C  -5.03900 18.65700 30.66000
C  -2.03200 16.36400 31.62100
C  -1.68100 17.28800 32.77600
H  -1.04800 16.67200 34.06800
N  -2.66900 19.07600 25.96400
C  -2.75600 20.05000 26.97200
C  -2.85200 21.34400 26.31600
C  -2.49200 21.13800 24.95300
C  -2.49400 19.68500 24.74600
C  -3.06200 22.57800 27.21200
C  -2.19200 22.23000 23.95100
O  -1.70800 21.92400 22.87600
C  -2.38600 23.71300 24.34600
N  -2.48500 16.64800 24.07400
C  -2.41200 17.72000 23.20900
C  -2.37700 17.23700 21.72300
C  -2.55300 15.72800 21.86300
C  -2.38600 15.49900 23.39500
C  -3.34800 17.99200 20.83100
C  -1.82300 14.82700 20.83800
C  -2.74800 14.35100 19.64100
N  -2.85100 14.96800 26.29600
C  -2.69600 14.01900 25.34800
C  -2.87100 12.73900 25.95400
C  -3.07000 13.01300 27.32400
C  -3.02300 14.39200 27.47200
C  -2.68300 11.45100 25.24600
C  -3.24800 12.34400 28.59200
O  -3.38600 11.16600 28.81500
C  -3.34700 13.57700 29.65300
C  -2.22400 13.33900 30.64500
O  -1.04900 13.59600 30.50100
O  -2.76400 12.76500 31.76500
C  -1.86100 12.53600 32.95600
H  -2.90600 20.41400 29.10900
H  -2.44400 19.71500 22.62200
H  -2.58500 13.43500 23.33400
H  -4.08400 16.20300 31.09400
H  -2.92000 18.90300 31.01600
H  -5.56400 17.86200 31.18900
H  -5.50100 18.82300 29.68700
H  -5.26100 19.59600 31.16700
H  -1.07900 16.26500 31.10000
H  -2.33700 15.43100 32.09400
H  -2.67300 17.62100 33.08200
H  -1.11600 18.13600 32.39000
H  -2.15700 23.16700 27.36200
H  -3.43900 22.34100 28.20700
H  -3.79000 23.25000 26.76000
H  -2.37400 24.27700 23.41300
H  -1.53300 24.08600 24.91200
H  -3.30300 24.01900 24.85100
H  -1.36600 17.42000 21.35900
H  -3.60700 15.56700 21.63500
H  -3.98900 18.76300 21.26200
H  -3.83300 17.27700 20.16600
H  -2.82000 18.67500 20.16700
H  -1.26000 14.03400 21.33200
H  -1.06700 15.33500 20.24000
H  -2.54600 15.05700 18.83600
H  -3.76900 14.41700 20.01700
H  -2.53500 13.32800 19.33100
H  -3.34100 11.34200 24.38400
H  -2.87300 10.62700 25.93300
H  -1.62400 11.50700 24.99500
H  -4.35300 13.62900 30.06900
H  -1.37700 11.56700 32.83000
H  -2.40800 12.41500 33.89100
H  -1.01500 13.22200 32.97400

