79

Mg 0.04000 7.64200 27.73200
C  1.07900 10.05100 30.13300
C  -0.46300 5.43600 30.43500
C  -1.04300 5.35300 25.59700
C  1.06600 9.80400 25.23300
N  0.30100 7.75200 29.96400
C  0.60800 8.86200 30.70600
C  0.29500 8.55600 32.18800
C  0.25100 6.98900 32.28800
C  0.06600 6.69400 30.76600
C  1.48600 6.31000 32.98500
C  -1.04200 9.23200 32.50300
C  -1.69800 9.00500 33.90300
H  -0.85500 8.67400 35.09500
N  -0.68400 5.67700 27.93800
C  -0.98100 5.01700 29.13200
C  -1.63800 3.78600 28.75200
C  -1.82500 3.78100 27.38700
C  -1.17100 4.92800 26.94300
C  -2.08100 2.84100 29.81500
C  -2.54200 2.77800 26.53100
O  -2.76300 2.90600 25.31400
C  -3.16600 1.62100 27.20700
N  0.17600 7.55000 25.69600
C  -0.44100 6.51600 25.00800
C  -0.70900 6.90900 23.56100
C  0.08400 8.30400 23.41600
C  0.50200 8.57400 24.84100
C  -0.25100 5.70000 22.65400
C  -0.74900 9.47100 22.83900
C  0.01200 10.40300 21.77300
N  0.76900 9.55600 27.66400
C  1.25900 10.29900 26.54300
C  1.72600 11.63200 27.03300
C  1.66300 11.54500 28.36200
C  1.12100 10.26000 28.71800
C  2.20000 12.83900 26.24000
C  1.87000 12.29700 29.62200
O  2.23300 13.46400 29.79000
C  1.49700 11.31600 30.87300
C  2.66100 10.99700 31.69700
O  3.53000 10.14600 31.50500
O  2.78400 11.94400 32.65000
C  4.01200 11.90200 33.46900
H  -0.62400 4.73200 31.25400
H  -1.63400 4.96600 24.76400
H  1.29600 10.48400 24.41000
H  1.05600 8.95000 32.86200
H  -0.63300 6.80800 32.89900
H  1.90400 5.51000 32.37500
H  1.07200 5.96700 33.93400
H  2.19000 7.11600 33.18900
H  -1.80100 8.97000 31.76600
H  -0.82500 10.30000 32.48500
H  -2.49300 8.26100 33.87000
H  -2.20500 9.92900 34.18100
H  -2.36000 3.42600 30.69100
H  -1.29100 2.14000 30.08300
H  -2.96200 2.22000 29.65300
H  -3.63600 1.04700 26.40900
H  -3.96600 2.04400 27.81500
H  -2.34600 1.19700 27.78700
H  -1.76000 7.16900 23.43900
H  0.91500 8.07700 22.74900
H  -1.10400 5.22500 22.16900
H  0.25000 4.95200 23.26800
H  0.42000 5.93400 21.82700
H  -1.04700 10.17500 23.61700
H  -1.61400 8.97900 22.39500
H  -0.57500 10.51100 20.86100
H  1.04700 10.12600 21.57400
H  0.12100 11.35400 22.29600
H  2.76500 13.51300 26.88400
H  1.30900 13.39500 25.94700
H  2.67700 12.55500 25.30200
H  0.66600 11.47400 31.56100
H  4.70400 12.45900 32.83700
H  4.31900 10.87300 33.65500
H  3.73200 12.40500 34.39500

