79

Mg -2.23800 34.09200 26.78700
C  -3.61200 32.48600 29.54500
C  -0.69400 36.29400 28.96200
C  -1.23800 35.93000 24.09700
C  -4.31700 32.23800 24.66900
N  -2.25600 34.33000 29.00800
C  -2.69500 33.40500 29.92000
C  -1.98100 33.51700 31.28000
C  -1.15800 34.85400 31.12600
C  -1.35400 35.26200 29.57400
C  -1.53300 35.91000 32.10200
C  -1.15600 32.27800 31.83700
C  -1.47600 31.86000 33.30200
H  -0.27400 31.84200 34.27600
N  -1.07900 35.86400 26.56800
C  -0.52800 36.56400 27.60600
C  0.28600 37.56400 27.11700
C  0.15600 37.48000 25.66800
C  -0.69700 36.37300 25.35700
C  1.15200 38.54900 27.86600
C  0.83900 38.24000 24.49200
O  0.72500 37.98000 23.30300
C  1.76800 39.33300 24.85700
N  -2.88300 34.20400 24.64900
C  -2.23900 34.98700 23.76000
C  -2.80700 34.77400 22.32400
C  -3.82700 33.63700 22.48700
C  -3.66300 33.34400 24.03000
C  -3.32400 36.07400 21.65500
C  -3.64400 32.48900 21.54200
C  -2.42100 31.61700 21.73700
N  -3.66000 32.64400 26.97900
C  -4.31800 31.90900 26.04000
C  -5.15800 30.90100 26.74900
C  -4.76900 31.07300 28.11200
C  -3.97100 32.17600 28.18000
C  -6.07500 29.92300 26.07700
C  -5.00200 30.52400 29.43100
O  -5.73000 29.60600 29.80800
C  -4.11300 31.34300 30.39100
C  -5.03400 31.90000 31.36700
O  -5.96700 32.62300 31.04300
O  -4.77600 31.64900 32.66900
C  -5.61800 32.28900 33.71800
H  -0.14700 37.04400 29.53700
H  -0.93400 36.41100 23.16500
H  -4.91700 31.54500 24.07500
H  -2.82800 33.72200 31.93400
H  -0.08000 34.70000 31.15800
H  -2.36900 35.71400 32.77300
H  -1.89600 36.77800 31.55100
H  -0.65700 36.29300 32.62600
H  -0.11600 32.60500 31.82500
H  -1.26400 31.36700 31.24800
H  -1.83400 30.85000 33.49800
H  -2.11100 32.66800 33.66600
H  2.18900 38.37700 27.58000
H  0.87700 38.56500 28.92100
H  0.78900 39.50800 27.49500
H  1.92100 40.01700 24.02200
H  2.74200 38.95000 25.16200
H  1.27800 39.91900 25.63500
H  -2.01300 34.31400 21.73600
H  -4.80800 34.11300 22.47700
H  -3.12800 36.07000 20.58300
H  -2.85900 37.01100 21.96200
H  -4.40500 36.18700 21.74000
H  -3.72500 32.79600 20.49900
H  -4.51700 31.84800 21.66400
H  -1.90200 31.85800 20.80900
H  -2.62200 30.54600 21.70200
H  -1.80600 31.91200 22.58700
H  -6.17000 30.08700 25.00300
H  -7.04400 29.97700 26.57300
H  -5.73800 28.90000 26.24300
H  -3.43300 30.63200 30.86100
H  -4.99400 32.56400 34.56800
H  -6.29600 31.50400 34.05400
H  -6.01000 33.23900 33.35600

