79

Mg 51.59300 46.06000 41.99200
C  48.72300 47.51200 40.73900
C  50.35500 42.95600 40.77400
C  54.58100 44.75400 42.21300
C  52.81700 49.33300 42.77800
N  49.75600 45.31800 40.82100
C  48.70800 46.06300 40.60600
C  47.55200 45.20800 39.97000
C  47.93100 43.74800 40.33600
C  49.47300 44.03500 40.65000
C  47.09500 43.22200 41.52600
C  47.13400 45.40100 38.46800
C  45.66200 45.31500 38.23000
H  45.30300 43.94100 37.55300
N  52.32900 44.08900 41.78300
C  51.68700 42.99000 41.22000
C  52.62500 41.89600 41.24200
C  53.91000 42.33100 41.68500
C  53.64600 43.79100 41.86400
C  52.19500 40.50800 40.91100
C  55.16700 41.50700 41.83600
O  55.11000 40.27600 41.70700
C  56.51100 41.99700 42.11700
N  53.46700 46.96700 42.57200
C  54.53600 46.16400 42.54600
C  55.75300 46.97200 42.86200
C  55.18700 48.40100 43.15100
C  53.77400 48.31700 42.82400
C  56.79200 46.28600 43.83300
C  55.79600 49.67100 42.53900
C  57.31700 49.89200 42.33100
N  50.90800 48.01000 41.87200
C  51.45800 49.21000 42.29800
C  50.53000 50.32100 42.08000
C  49.35800 49.67700 41.48900
C  49.71300 48.29300 41.40700
C  50.74200 51.78500 42.34200
C  48.08600 49.92200 40.90300
O  47.40400 50.95500 40.69400
C  47.66900 48.46800 40.44000
C  46.27800 48.04800 40.69600
O  45.41400 48.33100 39.84700
O  46.09500 47.47500 41.91400
C  44.68200 47.06900 42.22400
H  49.91400 41.98000 40.56100
H  55.61900 44.42300 42.13500
H  53.12000 50.34700 43.04800
H  46.76600 45.63100 40.59500
H  47.68500 43.12800 39.47400
H  47.71600 42.70000 42.25400
H  46.31000 42.61600 41.07400
H  46.56600 44.06100 41.97800
H  47.56500 44.60300 37.86400
H  47.66000 46.27600 38.08400
H  45.50100 46.11000 37.50100
H  44.99300 45.36200 39.08900
H  51.97000 39.87700 41.77100
H  53.03400 40.03800 40.39800
H  51.34200 40.42200 40.23800
H  56.50000 42.43700 43.11500
H  56.57100 42.76700 41.34800
H  57.27400 41.21900 42.09400
H  56.29600 47.04800 41.91900
H  55.20100 48.57900 44.22700
H  57.14400 47.03000 44.54800
H  57.67300 45.98100 43.26800
H  56.27800 45.42900 44.26700
H  55.44300 50.42100 43.24700
H  55.43000 49.87200 41.53200
H  57.40400 50.94200 42.61100
H  57.72900 49.78100 41.32800
H  57.73200 49.20300 43.06700
H  51.40200 52.19800 41.58000
H  51.18400 52.01700 43.31100
H  49.76700 52.25500 42.21700
H  47.55000 48.48700 39.35600
H  44.79000 46.33500 43.02300
H  44.18500 46.73900 41.31200
H  44.19800 48.01500 42.46800

