79

Mg -2.49400 16.28400 26.57500
C  -2.86300 14.14700 29.16600
C  -3.57700 18.82400 28.49700
C  -2.00600 18.30600 23.88700
C  -1.99600 13.53400 24.40900
N  -3.15700 16.41600 28.57700
C  -3.16300 15.42500 29.44700
C  -3.62100 15.91000 30.82800
C  -3.95500 17.41800 30.58100
C  -3.59800 17.58800 29.13200
C  -5.40000 17.86100 30.84300
C  -2.61100 15.50300 32.07900
C  -2.68600 16.41600 33.28500
H  -1.48000 16.26600 34.34300
N  -2.65400 18.33300 26.27900
C  -3.14900 19.18200 27.17400
C  -3.20900 20.48900 26.56000
C  -2.49700 20.34700 25.32200
C  -2.29700 18.93400 25.13800
C  -3.69800 21.78200 27.28800
C  -2.02300 21.44700 24.36600
O  -1.41700 21.20600 23.31700
C  -2.26800 22.87400 24.65800
N  -2.26400 15.96900 24.32100
C  -2.03400 16.98800 23.50300
C  -1.86900 16.39800 22.06700
C  -1.44200 14.94300 22.29500
C  -1.97900 14.73700 23.72900
C  -3.13200 16.64000 21.14600
C  -0.04900 14.56200 22.21300
C  0.60100 14.77700 20.81200
N  -2.55800 14.28300 26.63800
C  -2.29400 13.22900 25.72300
C  -2.35200 11.94800 26.36500
C  -2.42000 12.28400 27.71400
C  -2.59500 13.67800 27.84600
C  -2.25500 10.50200 25.65600
C  -2.39400 11.65700 28.97300
O  -2.18300 10.49600 29.35000
C  -2.74100 12.87100 30.05600
C  -1.64000 12.83900 31.02600
O  -0.56400 13.37800 30.88800
O  -1.94600 12.00500 32.07300
C  -1.04100 12.04800 33.21900
H  -3.90500 19.69100 29.07400
H  -1.83500 18.92500 23.00400
H  -1.69700 12.71100 23.75700
H  -4.51600 15.31700 31.01400
H  -3.42700 18.21400 31.10700
H  -5.42200 18.83700 31.32700
H  -5.97800 17.18700 31.47400
H  -5.94200 17.86900 29.89700
H  -1.56000 15.45700 31.79100
H  -3.12500 14.60100 32.40900
H  -3.46700 16.06600 33.95900
H  -2.76400 17.47000 33.01800
H  -4.47100 22.40400 26.83700
H  -2.87000 22.47900 27.42200
H  -4.05100 21.49800 28.27900
H  -3.33600 23.05900 24.77800
H  -1.76600 23.46100 23.88800
H  -1.70600 23.09700 25.56500
H  -0.94200 16.88200 21.75900
H  -1.84900 14.24600 21.56200
H  -3.44500 17.65800 21.37500
H  -3.87900 15.87100 21.34400
H  -2.80300 16.59100 20.10800
H  -0.00900 13.50400 22.47300
H  0.51500 15.17300 22.91800
H  1.30700 15.59700 20.94000
H  -0.07100 15.11700 20.02400
H  1.12900 13.86800 20.52800
H  -3.06700 9.88800 26.04400
H  -1.33600 10.07000 26.05300
H  -2.24000 10.70700 24.58500
H  -3.74000 12.54000 30.34100
H  -1.56500 12.10700 34.17200
H  -0.30200 12.84600 33.15100
H  -0.59700 11.05200 33.24400

