79

Mg 9.64100 47.44800 27.01100
C  7.28400 46.84600 29.59800
C  11.83600 48.41900 29.44500
C  11.95300 48.07300 24.63600
C  7.21000 47.12700 24.66700
N  9.52100 47.45300 29.21200
C  8.48000 47.20500 30.12300
C  8.83000 47.40600 31.52700
C  10.16700 48.23200 31.36900
C  10.57800 48.04400 29.85000
C  10.24400 49.75900 31.84800
C  8.90300 46.06500 32.40900
C  9.93900 46.07800 33.53800
H  9.58800 45.17800 34.70100
N  11.66800 48.09000 27.02600
C  12.40200 48.45500 28.10900
C  13.78700 48.82300 27.72900
C  13.85800 48.65800 26.30700
C  12.46600 48.20000 25.91500
C  14.82000 49.12700 28.78700
C  15.05700 48.82700 25.25300
O  14.98800 48.50100 24.08500
C  16.26200 49.28100 25.93400
N  9.58700 47.81000 24.93600
C  10.63800 47.90000 24.15000
C  10.34500 47.82300 22.59000
C  8.76700 47.68500 22.62300
C  8.47700 47.46700 24.13800
C  10.82900 48.96800 21.67100
C  8.07200 46.54700 21.70800
C  7.28600 47.03000 20.43800
N  7.65400 47.00000 27.05200
C  6.80600 46.87200 25.98000
C  5.48300 46.58500 26.43200
C  5.58100 46.50600 27.89400
C  6.96200 46.78000 28.19200
C  4.28000 46.34300 25.59500
C  4.86800 46.30100 29.15300
O  3.70800 46.00400 29.45000
C  6.02600 46.41700 30.33300
C  6.06300 45.10100 31.05500
O  6.90700 44.24100 30.92400
O  5.20200 45.10000 32.12300
C  5.17400 43.91500 33.03800
H  12.54500 48.81000 30.17700
H  12.76200 48.16900 23.90800
H  6.49900 46.83000 23.89300
H  8.06900 48.08300 31.91500
H  10.96000 47.66400 31.85400
H  11.18800 49.92300 32.36800
H  9.45100 50.08300 32.52200
H  10.18100 50.38800 30.95900
H  9.03600 45.21900 31.73500
H  7.92100 45.95100 32.86900
H  10.17100 47.10800 33.80900
H  10.69200 45.38000 33.17000
H  14.99700 50.19800 28.68500
H  15.65500 48.45200 28.59900
H  14.48700 48.97100 29.81300
H  15.95300 50.13600 26.53700
H  16.99200 49.54100 25.16800
H  16.59400 48.45500 26.56300
H  10.86800 46.94100 22.21900
H  8.22200 48.62100 22.50600
H  11.27800 49.78800 22.23200
H  10.08000 49.44200 21.03700
H  11.71000 48.71900 21.07900
H  7.53900 45.86500 22.37100
H  8.91200 45.96500 21.33000
H  7.99100 47.27100 19.64200
H  6.87500 48.02600 20.60300
H  6.65800 46.19800 20.12000
H  3.97900 47.31500 25.20400
H  3.42400 45.90400 26.10700
H  4.57100 45.72300 24.74600
H  5.65200 47.14200 31.05700
H  5.33900 44.26700 34.05600
H  5.99100 43.22900 32.81500
H  4.14500 43.55600 33.06700

