79

Mg -1.91700 34.97800 26.82900
C  -3.67400 33.15000 29.22900
C  -0.65200 36.95700 29.30100
C  -0.58500 36.70300 24.39900
C  -3.69900 33.03800 24.33800
N  -2.02500 34.96700 29.01400
C  -2.77300 34.11300 29.76900
C  -2.50800 34.37200 31.32400
C  -1.66500 35.67800 31.29000
C  -1.40200 35.85100 29.74100
C  -2.38500 36.93500 31.91800
C  -1.91500 33.08600 32.10300
C  -2.81200 32.54600 33.34800
H  -2.10400 32.63000 34.75400
N  -0.71800 36.51100 26.84900
C  -0.33700 37.25800 27.94600
C  0.57900 38.31200 27.53100
C  0.71600 38.16900 26.17200
C  -0.23100 37.11900 25.70400
C  1.30900 39.35100 28.44000
C  1.52000 38.98900 25.17400
O  1.47000 38.68800 23.97500
C  2.43500 40.08700 25.48600
N  -2.27500 34.92200 24.68200
C  -1.52400 35.73500 23.95800
C  -1.69500 35.55700 22.47600
C  -2.79800 34.40800 22.39200
C  -2.99700 34.14200 23.84700
C  -1.97800 36.84200 21.58000
C  -2.50300 33.11700 21.59000
C  -1.16800 32.46500 21.92000
N  -3.39700 33.41100 26.73300
C  -4.02200 32.78600 25.68100
C  -4.80900 31.66200 26.21200
C  -4.65800 31.78500 27.60300
C  -3.86100 32.87000 27.87800
C  -5.54800 30.55600 25.41800
C  -5.12000 31.25900 28.88300
O  -5.92600 30.34700 29.10800
C  -4.49300 32.17300 30.00700
C  -5.55800 32.87100 30.81400
O  -6.02200 33.99900 30.63000
O  -6.00400 32.05600 31.82300
C  -7.02300 32.66400 32.72800
H  -0.29900 37.55000 30.14700
H  -0.31800 37.40500 23.60700
H  -4.18400 32.35200 23.64000
H  -3.46100 34.48300 31.84100
H  -0.66200 35.65100 31.71600
H  -1.71600 37.26400 32.71300
H  -3.24900 36.61400 32.49900
H  -2.62900 37.68000 31.16000
H  -1.00400 33.39200 32.61600
H  -1.78600 32.25600 31.40800
H  -2.99000 31.47900 33.21200
H  -3.77200 33.06200 33.32100
H  0.83200 40.32100 28.30400
H  2.33700 39.53600 28.13100
H  1.21200 39.15000 29.50700
H  2.73800 40.53900 24.54200
H  3.34700 39.67500 25.91900
H  1.94300 40.84200 26.09800
H  -0.77600 35.08700 22.12400
H  -3.70400 34.83800 21.96600
H  -2.31300 37.70000 22.16300
H  -2.73600 36.58600 20.84100
H  -1.11600 37.11100 20.96800
H  -2.47300 33.35600 20.52700
H  -3.30600 32.38000 21.60600
H  -1.33900 31.44500 22.26600
H  -0.53100 33.03100 22.59900
H  -0.56900 32.34200 21.01800
H  -5.75000 29.87900 26.24800
H  -4.96800 30.16200 24.58300
H  -6.45800 30.89900 24.92600
H  -3.86200 31.55000 30.64100
H  -6.51300 33.17000 33.54800
H  -7.64300 31.86500 33.13600
H  -7.65200 33.28000 32.08600

