79

Mg 4.97500 54.99100 40.75300
C  4.55500 51.54000 40.68200
C  7.89900 54.67400 39.29800
C  4.97800 58.28100 40.40300
C  1.78900 55.14500 42.20600
N  5.99700 53.28100 39.94400
C  5.79500 51.91900 40.15000
C  6.92800 51.06200 39.69700
C  8.10500 52.12400 39.45100
C  7.26400 53.40600 39.53800
C  9.32600 52.09000 40.41400
C  6.66600 50.07800 38.44500
C  5.63800 50.51600 37.38200
H  6.16700 51.04000 36.03300
N  6.26300 56.33400 39.90000
C  7.46400 55.98100 39.41400
C  8.11200 57.12400 38.87000
C  7.40200 58.28100 39.31800
C  6.14300 57.66300 39.90400
C  9.45500 56.99200 38.08700
C  7.75600 59.66300 39.09800
O  8.77500 59.92700 38.49400
C  6.95600 60.82900 39.62800
N  3.49500 56.47100 41.07900
C  3.82600 57.76600 40.93200
C  2.63000 58.63300 41.39500
C  1.53200 57.63000 41.57100
C  2.26200 56.32400 41.60000
C  3.03600 59.54600 42.63900
C  0.39000 57.56700 40.48600
C  -0.99200 57.86500 40.96300
N  3.47000 53.61700 41.36700
C  2.28900 53.83900 41.99300
C  1.66200 52.58500 42.37400
C  2.57100 51.56300 41.87300
C  3.53600 52.30900 41.19600
C  0.42700 52.45200 43.17800
C  2.82500 50.18400 41.72000
O  2.11600 49.21900 42.12600
C  4.23300 50.07100 41.09200
C  4.12700 49.07100 40.01700
O  3.35200 49.22300 39.03000
O  4.85000 47.90800 40.33700
C  4.85700 46.83900 39.31500
H  8.89400 54.56900 38.86200
H  4.96000 59.35900 40.22600
H  0.78800 55.15500 42.64200
H  7.25200 50.37300 40.47600
H  8.54000 51.95700 38.46600
H  10.17400 51.79000 39.79900
H  9.28900 51.45900 41.30200
H  9.44500 53.09400 40.82000
H  6.42100 49.09800 38.85600
H  7.62600 50.10800 37.93000
H  4.87500 51.21400 37.72800
H  5.21800 49.54700 37.11200
H  10.12700 56.89700 38.93900
H  9.83400 57.91500 37.64800
H  9.46800 56.08800 37.47700
H  7.55600 61.73300 39.51800
H  6.65600 60.56800 40.64300
H  5.99400 60.93700 39.12900
H  2.40100 59.34300 40.60100
H  1.19400 57.69200 42.60500
H  2.65600 59.13700 43.57400
H  2.67200 60.57300 42.59700
H  4.09600 59.61200 42.88600
H  0.20100 56.60200 40.01500
H  0.51500 58.37800 39.76800
H  -1.28300 58.82900 40.54600
H  -0.95700 57.91000 42.05100
H  -1.70800 57.08000 40.71800
H  0.17100 51.42400 42.92100
H  -0.41600 53.13700 43.08900
H  0.79200 52.41000 44.20400
H  5.02600 49.78700 41.78400
H  4.57400 47.25200 38.34700
H  4.18400 46.04000 39.62500
H  5.83900 46.37400 39.22400

