79

Mg 9.99900 47.72800 26.44300
C  7.69100 47.90100 28.89300
C  12.30600 49.00200 28.47000
C  12.06400 47.97600 23.71100
C  7.44600 46.77700 24.10300
N  9.94500 48.40200 28.42900
C  8.91300 48.37700 29.21300
C  9.40200 48.84000 30.61500
C  10.73700 49.57600 30.36900
C  11.04600 48.99800 29.04100
C  10.72100 51.14300 30.34800
C  9.40900 47.59600 31.58700
C  10.12700 47.75300 32.84400
H  9.78600 46.73500 34.01900
N  11.91400 48.29700 26.24700
C  12.75100 48.66900 27.20400
C  14.09400 48.84300 26.68500
C  14.01200 48.61800 25.30200
C  12.61000 48.20500 25.03100
C  15.21700 49.30500 27.62300
C  15.13700 48.69100 24.21400
O  14.95600 48.23600 23.10900
C  16.44700 49.19400 24.55300
N  9.74000 47.43700 24.22000
C  10.77700 47.60900 23.40300
C  10.40600 47.26700 21.95600
C  9.01100 46.55400 22.09200
C  8.68100 46.92200 23.54400
C  10.51000 48.58100 21.10700
C  8.90400 45.09400 21.59000
C  9.30000 43.95400 22.44900
N  7.99000 47.45400 26.43000
C  7.04800 47.07100 25.45800
C  5.73600 46.94800 26.12700
C  5.96800 47.18300 27.45500
C  7.32500 47.55400 27.57200
C  4.46500 46.58900 25.42100
C  5.32700 47.27800 28.73700
O  4.12900 47.16200 28.99000
C  6.46700 47.54200 29.77000
C  6.56300 46.29600 30.59100
O  7.03700 45.25400 30.14900
O  5.98600 46.33600 31.83000
C  6.18600 45.15500 32.64000
H  13.01400 49.42600 29.18500
H  12.74900 48.07300 22.86600
H  6.68000 46.41400 23.41500
H  8.73400 49.65200 30.90100
H  11.49000 49.23700 31.08000
H  11.31000 51.57300 31.15900
H  9.73600 51.52800 30.61300
H  11.13800 51.55800 29.43100
H  9.68500 46.67500 31.07300
H  8.37200 47.58000 31.92200
H  9.87700 48.74800 33.21300
H  11.17300 47.54400 32.62400
H  16.11000 48.69300 27.49700
H  14.99700 49.13000 28.67600
H  15.47200 50.33000 27.35600
H  16.34800 50.16600 25.03800
H  17.00100 49.45100 23.65000
H  16.87500 48.35800 25.10500
H  11.12500 46.49200 21.68900
H  8.19800 47.03900 21.55100
H  10.57100 49.56900 21.56400
H  9.75400 48.55800 20.32200
H  11.46800 48.65900 20.59300
H  9.25000 44.96300 20.56500
H  7.81400 45.09600 21.61700
H  10.00100 44.33300 23.19300
H  9.83700 43.16600 21.92200
H  8.42800 43.53100 22.94800
H  4.69800 45.90700 24.60300
H  4.15000 47.51100 24.93300
H  3.78400 46.25600 26.20500
H  6.15900 48.36800 30.41100
H  5.16000 45.02300 32.98300
H  6.84700 45.25100 33.50100
H  6.51200 44.23900 32.14700

