79

Mg 40.62600 9.65800 29.43600
C  42.40400 10.96500 32.22800
C  38.35100 8.34000 31.53100
C  39.26800 8.11200 26.82700
C  43.37800 10.50100 27.50200
N  40.55100 9.39600 31.66600
C  41.22000 10.20000 32.53500
C  40.68300 9.96100 33.93900
C  39.63100 8.78500 33.75000
C  39.38100 8.91800 32.22400
C  40.23200 7.40300 34.08000
C  40.01300 11.26000 34.60600
C  39.52700 11.02000 36.01900
H  40.01900 12.08800 36.95800
N  38.88100 8.57500 29.16400
C  38.07900 8.18500 30.17600
C  36.88500 7.49800 29.59600
C  37.07600 7.51100 28.16900
C  38.44900 8.02300 27.97600
C  35.74300 6.88100 30.40000
C  36.12900 7.10500 27.01000
O  36.54200 7.03600 25.83100
C  34.65400 6.74500 27.32300
N  41.31800 9.16900 27.55900
C  40.52000 8.62900 26.59300
C  41.25700 8.39200 25.23900
C  42.39400 9.47200 25.45800
C  42.36800 9.72000 26.92600
C  41.85100 6.94400 25.13400
C  42.22100 10.73000 24.62300
C  41.55800 11.94300 25.26400
N  42.49300 10.62300 29.72600
C  43.48100 10.97700 28.83100
C  44.56700 11.74400 29.45000
C  44.11300 11.80400 30.77900
C  42.84600 11.12800 30.89700
C  45.93200 12.16400 28.83800
C  44.54400 12.26400 32.09700
O  45.56000 12.86600 32.41800
C  43.37700 11.76600 33.09500
C  44.03900 10.91800 34.13100
O  44.57200 9.88200 33.95300
O  43.93800 11.52700 35.37600
C  44.30800 10.66900 36.50900
H  37.54400 8.04400 32.20400
H  38.73300 7.67900 25.97900
H  44.21200 10.89000 26.91400
H  41.42300 9.52800 34.61200
H  38.70800 8.97300 34.29900
H  40.12000 7.15700 35.13600
H  41.30800 7.56000 34.00500
H  39.95600 6.58700 33.41300
H  39.11900 11.51900 34.03900
H  40.72200 12.07800 34.47000
H  39.81000 10.00300 36.29300
H  38.44600 11.04100 35.88800
H  35.44100 5.88400 30.08000
H  34.84900 7.50100 30.47400
H  35.97700 6.71200 31.45100
H  34.05100 6.66400 26.42000
H  34.32400 7.60600 27.90400
H  34.52000 6.01800 28.12400
H  40.64200 8.59300 24.36200
H  43.36500 9.03700 25.22300
H  41.50000 6.43400 26.03100
H  42.93800 6.85900 25.15400
H  41.39100 6.50200 24.25100
H  41.69000 10.49600 23.70000
H  43.27300 10.93300 24.42200
H  40.89900 11.69500 26.09600
H  40.94500 12.28700 24.43100
H  42.28700 12.66200 25.63600
H  46.27100 12.90900 29.55700
H  45.95500 12.62700 27.85100
H  46.62300 11.33100 28.70700
H  42.90700 12.55600 33.68100
H  43.94200 9.64300 36.46600
H  43.91200 11.14800 37.40500
H  45.38600 10.58500 36.64800

