79

Mg 49.23400 46.06400 43.94100
C  45.59900 46.34100 43.29000
C  49.18600 43.04700 42.46300
C  52.58500 46.16300 44.10300
C  49.10100 49.54600 44.59400
N  47.57500 44.89200 42.68900
C  46.20800 45.11900 42.75600
C  45.41500 43.96100 42.14000
C  46.54300 42.86400 42.14100
C  47.87500 43.61300 42.43900
C  46.27000 41.52600 42.96200
C  44.83600 44.44100 40.75600
C  43.59300 43.61500 40.33500
H  43.44800 42.69600 39.08800
N  50.67600 44.75900 43.38400
C  50.41100 43.58800 42.83300
C  51.65400 42.84300 42.72500
C  52.70000 43.62600 43.32900
C  52.00100 44.90500 43.68900
C  51.77100 41.43600 42.25600
C  54.15700 43.21400 43.48800
O  54.48800 42.23300 42.83500
C  55.17900 44.02100 44.24200
N  50.67400 47.64800 44.19000
C  51.97900 47.36600 44.33900
C  52.68100 48.55900 45.07200
C  51.64700 49.65700 44.94500
C  50.37900 48.88400 44.57200
C  53.17100 48.30300 46.50400
C  52.01900 50.79700 43.85700
C  52.01700 52.17100 44.38900
N  47.69400 47.62400 44.00400
C  47.80500 48.97600 44.37300
C  46.45400 49.58700 44.33000
C  45.57400 48.57100 44.00700
C  46.40900 47.40300 43.76100
C  46.11300 51.01600 44.53600
C  44.14200 48.21500 43.75400
O  43.08300 48.85900 43.75000
C  44.20300 46.77200 43.21200
C  43.27700 45.85600 43.97700
O  43.43300 45.38300 45.08500
O  42.21500 45.68000 43.18800
C  41.19900 44.78300 43.77500
H  49.26600 41.97400 42.27300
H  53.65600 46.30300 44.26400
H  48.98400 50.56500 44.97000
H  44.61700 43.67200 42.82400
H  46.80800 42.51000 41.14500
H  47.15600 41.53100 43.59700
H  46.32200 40.72000 42.23000
H  45.32300 41.49100 43.50000
H  45.70400 44.30600 40.11000
H  44.53400 45.47600 40.92100
H  42.75000 44.29000 40.19200
H  43.22900 43.04500 41.19000
H  52.65000 41.10900 41.70000
H  50.98800 41.34000 41.50500
H  51.61800 40.59700 42.93400
H  54.85500 44.39000 45.21500
H  55.42400 44.85900 43.59000
H  56.04100 43.37200 44.39800
H  53.54100 48.82500 44.45800
H  51.60100 50.10100 45.93900
H  53.13900 47.24600 46.76700
H  52.52000 48.77700 47.23900
H  54.23200 48.54900 46.53800
H  51.26300 50.77800 43.07200
H  53.00800 50.58000 43.45600
H  51.52300 52.80200 43.64900
H  53.02800 52.55400 44.52200
H  51.59100 52.30400 45.38300
H  46.36700 51.30300 45.55700
H  45.08800 51.34300 44.35600
H  46.75600 51.57500 43.85700
H  43.71700 46.90100 42.24500
H  40.40400 44.67100 43.03800
H  40.81400 45.27000 44.67100
H  41.62300 43.83400 44.10600

