79

Mg 0.62600 7.21300 25.66800
C  1.64000 9.13800 28.51300
C  0.65600 4.51600 27.65500
C  0.30300 5.45600 22.85100
C  1.27700 10.21300 23.71500
N  1.19000 6.92000 27.80900
C  1.40400 7.80700 28.82100
C  1.41300 7.16200 30.19000
C  1.15500 5.63000 29.91400
C  1.03600 5.71200 28.34600
C  2.10100 4.61500 30.50700
C  0.35200 7.71000 31.23600
C  0.87600 7.91600 32.70200
H  2.03700 7.16500 33.13500
N  0.41800 5.32000 25.28400
C  0.32100 4.32300 26.30100
C  0.01700 3.08200 25.62600
C  0.03800 3.34200 24.21800
C  0.24500 4.75100 24.07400
C  -0.11800 1.78900 26.34000
C  0.04000 2.41100 23.05200
O  0.00300 2.72300 21.88400
C  0.02500 0.94500 23.30300
N  0.77500 7.75800 23.56400
C  0.53700 6.80800 22.59800
C  0.58300 7.45900 21.25500
C  0.74000 8.98800 21.53500
C  0.99200 9.00000 23.01400
C  1.71100 6.84100 20.40200
C  -0.46600 9.88400 21.18300
C  -0.13200 11.00000 20.23000
N  1.23200 9.28300 26.00200
C  1.39000 10.32200 25.17000
C  1.73800 11.51600 25.90900
C  1.96600 11.13400 27.19400
C  1.53600 9.80600 27.22300
C  2.00900 12.90300 25.29100
C  2.29200 11.54400 28.51400
O  2.71200 12.58000 28.92900
C  2.02300 10.34600 29.45100
C  3.18400 10.18000 30.48200
O  4.23000 9.55000 30.32300
O  2.75300 10.83800 31.63900
C  3.81600 11.17400 32.59500
H  0.63300 3.64500 28.31300
H  0.12900 5.01000 21.86900
H  1.49600 11.14800 23.19600
H  2.42600 7.35500 30.54300
H  0.14100 5.36500 30.21300
H  2.83600 5.13900 31.11700
H  2.52900 3.96300 29.74600
H  1.56800 3.95800 31.19500
H  -0.47300 7.01300 31.38300
H  0.00500 8.66900 30.85200
H  0.03700 7.60600 33.32600
H  1.03100 8.98500 32.84900
H  -0.86600 1.27300 25.73900
H  -0.45800 1.86700 27.37200
H  0.82000 1.23500 26.33800
H  -0.87100 0.65700 23.85200
H  0.84200 0.72300 23.99000
H  0.23900 0.32700 22.43000
H  -0.39300 7.10300 20.92600
H  1.70700 9.27600 21.12300
H  2.20500 7.64200 19.85200
H  1.24900 6.27000 19.59600
H  2.36900 6.21300 21.00200
H  -0.90500 10.41700 22.02600
H  -1.35500 9.35700 20.83800
H  -1.11700 11.37700 19.95200
H  0.50900 10.90000 19.35400
H  0.27300 11.77900 20.87600
H  2.81800 13.40700 25.81900
H  1.15300 13.57100 25.38400
H  2.16100 12.81100 24.21600
H  1.11500 10.57800 30.00700
H  3.24400 11.58900 33.42400
H  4.57000 11.88900 32.26500
H  4.43200 10.39100 33.03700

