79

Mg 48.61100 44.90300 42.95000
C  45.18900 45.15600 41.77000
C  48.42200 41.53500 42.39800
C  51.97500 44.79300 43.30500
C  48.74200 48.30400 42.99100
N  46.88300 43.46400 42.15600
C  45.63500 43.76700 41.79000
C  44.88300 42.52100 41.32300
C  45.92900 41.33600 41.68900
C  47.15700 42.15100 42.13400
C  45.49500 40.31700 42.77500
C  44.38500 42.57300 39.89800
C  45.08800 43.50300 38.80500
H  45.49700 42.77500 37.41800
N  49.99300 43.37600 42.89300
C  49.69200 42.07400 42.71000
C  50.85400 41.34000 42.80500
C  51.92600 42.19500 43.08000
C  51.36300 43.54400 43.10800
C  50.92100 39.87700 42.60900
C  53.37400 41.76300 43.24700
O  53.78400 40.60000 43.14300
C  54.42200 42.70800 43.61900
N  50.21300 46.35500 43.09700
C  51.49700 46.06700 43.27400
C  52.32100 47.38300 43.28900
C  51.23800 48.51700 43.22300
C  49.93300 47.68200 43.06600
C  53.30100 47.46100 44.41500
C  51.38300 49.51600 42.05500
C  51.02200 50.97200 42.26600
N  47.10700 46.44600 42.73100
C  47.42200 47.81300 42.73200
C  46.27800 48.55800 42.34500
C  45.32000 47.54200 41.96600
C  45.93900 46.29500 42.22500
C  46.07500 50.06300 42.21200
C  44.04400 47.27700 41.37800
O  43.18300 48.05200 40.95400
C  43.92200 45.71700 41.15100
C  42.68900 45.25700 41.80900
O  41.84200 44.56700 41.26300
O  42.53300 45.78800 43.04300
C  41.12300 45.79500 43.67200
H  48.35000 40.46500 42.19300
H  53.04500 44.62400 43.16600
H  48.76000 49.39200 43.07900
H  44.02200 42.47700 41.99000
H  46.08100 40.75900 40.77700
H  45.27700 39.35900 42.30300
H  44.56100 40.53600 43.29200
H  46.28500 40.11700 43.50000
H  43.33500 42.86600 39.88800
H  44.40800 41.55200 39.51800
H  45.90500 43.99700 39.33200
H  44.30700 44.13200 38.37900
H  51.61700 39.43200 43.32000
H  51.38400 39.66000 41.64600
H  49.98100 39.32700 42.65100
H  55.32100 42.16300 43.90700
H  54.05900 43.36100 44.41300
H  54.66900 43.37300 42.79200
H  52.92800 47.45100 42.38700
H  51.26900 49.09400 44.14700
H  53.10700 46.74700 45.21600
H  53.39000 48.48800 44.76900
H  54.26200 47.13400 44.01800
H  50.74700 49.20200 41.22800
H  52.39100 49.66600 41.66800
H  51.71800 51.60700 41.71800
H  51.03800 51.28800 43.30900
H  50.09600 51.21300 41.74400
H  46.39200 50.59800 43.10700
H  45.04600 50.42500 42.20800
H  46.65100 50.31000 41.32000
H  43.84500 45.51800 40.08300
H  40.41100 46.35700 43.06800
H  41.16500 46.37900 44.59200
H  40.80200 44.76000 43.78900

