79

Mg 26.47900 50.30100 26.47100
C  24.28200 51.68000 28.99400
C  28.49700 49.28100 28.87900
C  28.72100 49.42900 24.11100
C  24.37800 51.91000 24.08000
N  26.33000 50.49000 28.66900
C  25.36800 50.96700 29.54700
C  25.73200 50.82000 31.05100
C  27.13100 50.17400 30.88400
C  27.35100 49.97000 29.35400
C  28.32900 51.04700 31.49100
C  24.57400 50.00800 31.81200
C  24.15500 50.47900 33.26600
H  25.17200 50.88400 34.27000
N  28.33000 49.42700 26.49100
C  28.96200 48.97400 27.57500
C  30.21300 48.32500 27.19900
C  30.31800 48.37300 25.78400
C  29.10500 49.08400 25.42500
C  31.20200 47.74900 28.20000
C  31.33700 47.75900 24.82000
O  31.25700 47.82800 23.58700
C  32.63300 47.14500 25.36900
N  26.44100 50.55100 24.37500
C  27.49800 50.06100 23.61200
C  27.25900 50.28400 22.10400
C  25.81600 50.97100 22.16200
C  25.49500 51.11000 23.61700
C  28.24100 51.24000 21.31600
C  24.65100 50.15600 21.50400
C  24.68900 48.61300 21.46000
N  24.73000 51.56600 26.46500
C  24.00600 52.03400 25.41700
C  22.84400 52.71000 25.85600
C  22.93700 52.57600 27.26500
C  24.10200 51.82800 27.57200
C  21.87200 53.46800 24.95900
C  22.24300 52.93000 28.45700
O  21.17900 53.51900 28.68100
C  23.09200 52.37100 29.67200
C  23.45000 53.52900 30.51500
O  24.11400 54.51800 30.17800
O  22.86100 53.42200 31.78400
C  22.75100 54.62700 32.58400
H  29.09000 48.84600 29.68600
H  29.29800 49.16600 23.22200
H  23.87600 52.50000 23.31100
H  25.65400 51.79900 31.52300
H  27.11300 49.21300 31.39700
H  28.02900 52.07600 31.69100
H  29.21100 50.90600 30.86600
H  28.55700 50.47400 32.39000
H  25.02300 49.02400 31.94800
H  23.72500 49.99000 31.12800
H  23.47100 49.80800 33.78500
H  23.54500 51.34500 33.00700
H  31.93000 48.55500 28.30000
H  31.68800 46.82600 27.88400
H  30.71300 47.61700 29.16500
H  33.16200 47.95300 25.87500
H  33.24400 46.73300 24.56600
H  32.53600 46.26400 26.00400
H  27.14200 49.28700 21.67800
H  25.63000 51.93400 21.68800
H  29.18100 51.42000 21.83600
H  27.65600 52.14400 21.15000
H  28.44400 50.87500 20.30900
H  24.46300 50.46200 20.47500
H  23.71900 50.41100 22.00800
H  23.75100 48.23300 21.86500
H  25.53100 48.23000 22.03600
H  24.80400 48.24500 20.44000
H  22.33100 53.81500 24.03300
H  21.46900 54.32800 25.49400
H  21.07600 52.76400 24.71600
H  22.39800 51.67300 30.14200
H  21.78500 54.58200 33.08700
H  22.78500 55.62400 32.14600
H  23.48800 54.49500 33.37700

