79

Mg 25.69300 52.13400 26.07700
C  23.71200 53.25100 28.87000
C  28.38200 51.84800 28.30500
C  27.86000 52.01000 23.47900
C  23.19500 53.37200 23.97800
N  25.99700 52.46400 28.27500
C  25.01400 52.75700 29.22000
C  25.46300 52.54100 30.72000
C  26.98100 52.14300 30.51000
C  27.14400 52.06800 28.94200
C  27.98500 53.12900 31.33200
C  24.59300 51.37500 31.47800
C  23.87400 51.74800 32.74500
H  24.64800 52.51600 33.78400
N  27.77500 51.71300 25.89300
C  28.67500 51.63000 26.95500
C  30.04500 51.36500 26.42300
C  29.86900 51.47100 24.96900
C  28.49900 51.81900 24.69400
C  31.23000 51.09100 27.28400
C  30.95100 51.45800 23.96100
O  30.69900 51.78000 22.80300
C  32.31100 51.08800 24.45900
N  25.58700 52.55800 24.05100
C  26.55500 52.30500 23.19600
C  26.13600 52.80300 21.79800
C  24.62800 53.02900 21.90500
C  24.38700 52.94200 23.41600
C  27.04900 53.98300 21.20100
C  23.67000 52.11100 21.12900
C  23.40500 52.44500 19.64700
N  23.81400 53.06300 26.28900
C  22.89000 53.45300 25.33900
C  21.69000 53.99900 25.94200
C  22.05800 53.98300 27.35000
C  23.28900 53.38700 27.49800
C  20.46100 54.48400 25.19400
C  21.56600 54.35700 28.69800
O  20.48000 54.83800 29.06600
C  22.52800 53.71300 29.74800
C  23.01200 54.82600 30.63100
O  24.01400 55.45300 30.53200
O  22.07400 55.01700 31.63000
C  22.46800 56.13900 32.52100
H  29.24300 51.64800 28.94800
H  28.42500 51.99600 22.54400
H  22.39800 53.64600 23.28400
H  25.42700 53.49100 31.25400
H  27.15200 51.21500 31.05500
H  28.69800 53.66500 30.70600
H  28.53100 52.57900 32.09900
H  27.41700 53.85600 31.91200
H  25.14100 50.48100 31.77400
H  23.78600 51.10000 30.79900
H  23.56000 50.88300 33.32900
H  23.00000 52.34300 32.47800
H  31.76100 50.19700 26.95600
H  30.93300 50.88700 28.31200
H  31.96900 51.89200 27.28100
H  32.92700 50.95100 23.57100
H  32.34200 50.07600 24.86400
H  32.72800 51.83500 25.13500
H  26.26600 51.91700 21.17800
H  24.50900 54.04600 21.53000
H  26.37100 54.83500 21.14200
H  27.38000 53.76100 20.18600
H  27.91100 54.14900 21.84700
H  22.71200 52.18200 21.64300
H  24.10500 51.11300 21.18200
H  24.18200 53.16000 19.37800
H  22.39800 52.86100 19.67500
H  23.49100 51.53900 19.04600
H  20.17000 53.75000 24.44300
H  20.58800 55.39600 24.61000
H  19.65700 54.69500 25.90000
H  21.94200 53.00500 30.33300
H  22.64700 56.94700 31.81100
H  23.39000 55.91600 33.05800
H  21.62900 56.30500 33.19700

