79

Mg 47.73400 15.12200 28.03800
C  45.56100 14.86800 30.79600
C  49.78700 16.89800 30.10100
C  49.62700 16.02200 25.43400
C  45.39700 13.46000 26.10800
N  47.53500 15.95500 30.11500
C  46.65800 15.62700 31.05600
C  47.06200 16.18800 32.43300
C  48.27400 17.07200 32.09800
C  48.60900 16.58900 30.67300
C  47.99600 18.61800 32.06100
C  47.40900 15.06400 33.45300
C  46.76500 15.35300 34.85200
H  47.84600 15.90800 35.82800
N  49.51000 16.17900 27.80000
C  50.24400 16.80800 28.72700
C  51.52300 17.16200 28.21400
C  51.47000 17.00500 26.83000
C  50.16700 16.35500 26.62300
C  52.61900 17.62400 29.13600
C  52.53500 17.25900 25.76300
O  52.38400 16.94000 24.61600
C  53.86200 17.76000 26.13500
N  47.51800 14.79900 25.99800
C  48.42300 15.21100 25.15800
C  48.20400 14.44700 23.78600
C  46.81000 13.77300 23.96900
C  46.53300 14.07900 25.45900
C  48.38300 15.40400 22.45500
C  46.81200 12.19900 23.63500
C  47.74900 11.36300 24.47100
N  45.79300 14.39000 28.30500
C  45.04000 13.65400 27.49100
C  44.01400 13.02700 28.28200
C  44.09200 13.53000 29.57100
C  45.19900 14.42000 29.52700
C  42.98400 12.06200 27.84500
C  43.52600 13.44900 30.89400
O  42.66000 12.72400 31.34700
C  44.45200 14.47700 31.78100
C  43.70000 15.76600 32.14800
O  43.43200 16.65800 31.33200
O  43.52900 15.83700 33.48800
C  42.83000 16.98200 34.07200
H  50.41900 17.46400 30.78900
H  50.26700 16.22600 24.57300
H  44.73600 12.77600 25.57300
H  46.17900 16.78900 32.65100
H  49.04800 16.80900 32.82000
H  47.78300 18.99900 31.06200
H  48.86800 19.06000 32.54400
H  47.09100 18.94500 32.57300
H  48.48300 14.92400 33.57300
H  47.19700 14.11700 32.95700
H  46.47500 14.35600 35.18200
H  45.93800 16.06300 34.81800
H  53.42700 18.01000 28.51600
H  52.93500 16.72400 29.66400
H  52.26000 18.39000 29.82300
H  53.86400 18.74200 26.60900
H  54.42100 17.82100 25.20100
H  54.49000 17.21600 26.84000
H  49.00800 13.71200 23.78700
H  46.02400 14.21400 23.35600
H  49.06900 14.86600 21.80100
H  48.74800 16.37900 22.77800
H  47.41700 15.43600 21.95200
H  47.13200 12.25500 22.59500
H  45.77400 11.87600 23.55500
H  48.58600 10.99900 23.87400
H  47.23800 10.47500 24.84300
H  48.13800 11.79900 25.39100
H  43.12200 11.45700 26.94900
H  42.02500 12.55600 27.68200
H  42.82100 11.31600 28.62200
H  44.87700 14.11200 32.71600
H  43.48000 17.54100 34.74600
H  41.93500 16.67300 34.61200
H  42.59200 17.76100 33.34800

