79

Mg 47.02200 34.32100 28.02000
C  45.26600 32.50400 30.29600
C  47.30400 36.85400 30.19000
C  48.11700 36.31300 25.45200
C  46.06300 31.98500 25.58200
N  46.46100 34.57300 30.02500
C  45.84200 33.64100 30.82200
C  45.97200 34.03300 32.28900
C  46.27700 35.57100 32.20800
C  46.64400 35.72200 30.78200
C  45.10100 36.49600 32.69900
C  47.16000 33.32100 32.99700
C  46.93000 33.05200 34.47500
H  46.15800 34.05400 35.20500
N  47.89900 36.23200 27.94100
C  47.98000 37.12000 28.95900
C  48.72500 38.23300 28.62000
C  48.91000 38.20200 27.23500
C  48.34000 36.90400 26.80000
C  49.09200 39.24600 29.68000
C  49.55500 39.21900 26.31500
O  49.71600 38.95100 25.11600
C  50.05700 40.50800 26.83300
N  47.20300 34.05400 25.81500
C  47.55900 35.07700 25.03600
C  47.36500 34.74400 23.50800
C  46.97400 33.25400 23.54900
C  46.78800 33.06000 25.09100
C  46.26300 35.62600 22.73800
C  47.93400 32.22700 22.92200
C  48.94500 31.53100 23.80800
N  46.00300 32.52400 27.89800
C  45.69200 31.67800 26.85700
C  44.99200 30.55300 27.43100
C  44.74000 30.91000 28.76900
C  45.41800 32.06600 28.98000
C  44.56700 29.31800 26.61800
C  44.06300 30.42300 29.98200
O  43.51000 29.35100 30.22700
C  44.21900 31.58200 30.89800
C  44.37100 31.12100 32.33000
O  45.32900 30.59900 32.78000
O  43.23400 31.25300 33.03100
C  43.30500 30.88100 34.47900
H  47.34800 37.55100 31.02900
H  48.33400 36.96200 24.60000
H  45.68100 31.22600 24.89600
H  45.01500 33.84300 32.77400
H  47.13000 35.86500 32.82000
H  45.04500 36.67100 33.77300
H  44.12200 36.08000 32.46000
H  45.27600 37.41500 32.13900
H  48.07900 33.88800 32.85100
H  47.37200 32.36100 32.52500
H  47.89800 32.91900 34.95900
H  46.36100 32.12900 34.58700
H  50.13600 39.52000 29.52300
H  49.00600 38.86900 30.69900
H  48.45100 40.12100 29.57600
H  49.29000 41.20400 27.17200
H  50.45500 41.11000 26.01700
H  50.86400 40.44900 27.56400
H  48.36100 34.89200 23.09100
H  45.98500 33.06300 23.13300
H  45.66300 35.02900 22.05000
H  46.81600 36.43300 22.25700
H  45.55900 35.94900 23.50600
H  48.48500 32.82200 22.19300
H  47.38400 31.46500 22.36900
H  49.94700 31.68200 23.40600
H  48.71700 30.46900 23.72200
H  48.89700 31.71200 24.88200
H  45.18600 29.14400 25.73700
H  43.50900 29.30000 26.35600
H  44.68700 28.37400 27.15000
H  43.29000 32.15100 30.88400
H  43.56200 29.83200 34.62000
H  42.31800 31.09500 34.89000
H  44.03000 31.50800 34.99900

