79

Mg 54.24200 24.40700 44.41700
C  51.67400 26.65800 43.66200
C  52.23300 21.86100 43.19900
C  56.95300 22.51600 44.43800
C  56.34600 27.28500 44.66500
N  52.22000 24.25100 43.65000
C  51.35000 25.31500 43.45400
C  49.97900 24.75300 42.93900
C  50.07800 23.22400 43.28300
C  51.59900 23.06700 43.37200
C  49.38700 22.71100 44.58500
C  49.72300 24.96500 41.44100
C  48.26100 25.25900 41.01000
H  48.05300 24.79100 39.57400
N  54.55000 22.38500 43.96200
C  53.59800 21.46300 43.44700
C  54.22700 20.20500 43.41400
C  55.60400 20.34800 43.85200
C  55.79000 21.78800 44.12600
C  53.45200 19.01400 42.85200
C  56.64300 19.19400 43.83600
O  56.41600 18.13500 43.28200
C  57.98300 19.35000 44.46200
N  56.37000 24.83400 44.29700
C  57.26900 23.89200 44.57300
C  58.64500 24.47700 44.93100
C  58.41300 25.91600 45.04700
C  56.95400 26.01000 44.65800
C  59.34600 23.83600 46.18700
C  59.34800 26.75900 44.14300
C  59.91400 27.97500 44.75400
N  54.06100 26.60600 44.34400
C  55.01200 27.65000 44.54900
C  54.34400 28.90800 44.69600
C  53.01900 28.57500 44.31600
C  52.91200 27.13000 44.10900
C  54.91100 30.21100 44.93000
C  51.64900 29.12400 44.13700
O  51.26600 30.28900 44.32100
C  50.83400 27.92100 43.44900
C  50.45300 28.22800 42.07500
O  51.24700 28.24200 41.14400
O  49.09100 28.71200 41.98700
C  48.74700 29.19300 40.61400
H  51.54000 21.09400 42.84700
H  57.76700 21.78800 44.44900
H  57.08400 28.07000 44.84300
H  49.20900 25.31000 43.47300
H  49.86200 22.54500 42.45900
H  50.07500 22.05900 45.12300
H  48.43100 22.20800 44.43600
H  49.22500 23.53400 45.28100
H  50.11000 24.14300 40.83900
H  50.40100 25.73900 41.08100
H  48.06400 26.33000 41.04300
H  47.53400 24.85300 41.71400
H  53.62500 18.81000 41.79600
H  52.37800 19.17300 42.94800
H  53.65500 18.20700 43.55700
H  58.46200 18.38600 44.63700
H  57.75600 19.88100 45.38600
H  58.69300 19.99400 43.94300
H  59.18500 24.24400 44.01300
H  58.38300 26.22000 46.09300
H  58.59300 23.37900 46.82900
H  59.87200 24.52900 46.84300
H  60.07100 23.11600 45.80800
H  58.91200 27.13600 43.21900
H  60.23900 26.20000 43.85600
H  59.77900 28.90900 44.20900
H  61.00000 27.90700 44.81100
H  59.49800 28.02600 45.76000
H  54.28000 30.55300 45.75100
H  54.62800 30.82500 44.07500
H  55.95800 30.18500 45.23100
H  50.04600 27.73000 44.17700
H  49.55300 29.51500 39.95500
H  48.20900 30.14000 40.59000
H  48.14800 28.36800 40.22800

