79

Mg 16.06700 -1.95700 27.46000
C  15.07600 0.36700 29.87900
C  18.14400 -3.51300 29.78800
C  17.65900 -3.45100 25.04500
C  14.36600 0.11400 25.15400
N  16.70400 -1.40600 29.50800
C  16.01000 -0.54400 30.37500
C  16.47800 -0.81000 31.78000
C  17.68600 -1.82000 31.61600
C  17.46200 -2.33900 30.23400
C  19.07500 -1.22400 31.89300
C  15.37000 -1.40500 32.76300
C  15.67600 -1.12100 34.27000
H  16.92800 -0.41300 34.78800
N  17.48600 -3.51300 27.46200
C  18.26700 -3.96300 28.48000
C  19.15100 -5.03700 27.97600
C  18.90800 -5.08300 26.53500
C  17.99800 -4.00500 26.31300
C  19.94300 -5.95100 28.86400
C  19.38600 -6.14200 25.42900
O  18.91200 -6.17200 24.33300
C  20.40000 -7.25800 25.77100
N  15.99300 -1.67600 25.41100
C  16.79400 -2.42100 24.63700
C  16.64700 -2.00200 23.18400
C  15.31100 -1.14500 23.15200
C  15.14100 -0.91500 24.65300
C  17.87100 -1.10900 22.66000
C  14.08900 -1.79000 22.39000
C  13.32600 -0.85600 21.32000
N  14.77100 -0.20000 27.43400
C  14.15600 0.46600 26.46400
C  13.37900 1.55300 27.02000
C  13.61300 1.53200 28.37700
C  14.54700 0.47200 28.55000
C  12.53700 2.45000 26.20400
C  13.39800 2.15400 29.69100
O  12.56700 3.01200 29.92900
C  14.22300 1.33300 30.72800
C  15.02300 2.34400 31.43200
O  16.07600 2.85700 31.12600
O  14.33000 2.52700 32.61600
C  14.82600 3.48900 33.54400
H  18.82300 -4.06600 30.44100
H  18.17400 -3.84500 24.16600
H  13.78500 0.80700 24.54200
H  16.85200 0.14300 32.15400
H  17.62400 -2.69200 32.26700
H  18.89200 -0.15000 31.94800
H  19.68000 -1.50100 31.03000
H  19.43900 -1.53800 32.87200
H  15.35000 -2.48300 32.60700
H  14.45500 -0.99100 32.34000
H  15.75100 -2.14000 34.65100
H  14.86300 -0.57100 34.74300
H  19.56300 -6.96000 28.70600
H  19.91600 -5.66400 29.91500
H  20.96200 -6.00100 28.48000
H  20.55500 -7.75800 24.81500
H  19.99900 -8.05200 26.40100
H  21.27600 -6.82600 26.25500
H  16.55700 -2.93600 22.62900
H  15.52800 -0.17500 22.70500
H  18.65300 -0.93700 23.40000
H  17.53700 -0.14000 22.29100
H  18.28600 -1.68100 21.83000
H  13.41700 -2.12300 23.18000
H  14.40600 -2.69600 21.87400
H  13.43300 -1.36400 20.36100
H  13.85000 0.09300 21.21000
H  12.26700 -0.67900 21.50500
H  13.24900 3.20000 25.86000
H  11.74000 2.83000 26.84300
H  12.11900 1.96600 25.32100
H  13.51100 0.80000 31.35800
H  13.98200 4.14800 33.74800
H  15.72300 3.99700 33.19100
H  15.09600 2.93700 34.44400

