79

Mg 23.87600 -4.72700 45.14200
C  26.02000 -2.50100 43.60500
C  21.51300 -4.10600 42.83000
C  22.15800 -7.51100 46.21200
C  26.41900 -5.68000 47.35300
N  23.69100 -3.38300 43.44000
C  24.68800 -2.44300 43.08300
C  24.21400 -1.48900 41.92700
C  22.65100 -1.90200 41.86500
C  22.57800 -3.19900 42.74100
C  21.76000 -0.85900 42.57700
C  25.00900 -1.75000 40.65000
C  25.63000 -0.57900 39.88800
H  25.53200 -0.66700 38.42000
N  22.01100 -5.60700 44.64500
C  21.20900 -5.21400 43.63400
C  20.04600 -6.10500 43.57600
C  20.19900 -7.10800 44.58300
C  21.51500 -6.81800 45.21200
C  18.98200 -6.02000 42.53000
C  19.27900 -8.26600 44.75700
O  18.26100 -8.31600 44.03300
C  19.32900 -9.35800 45.83700
N  24.26800 -6.43200 46.52500
C  23.37200 -7.41900 46.81100
C  23.86000 -8.40700 47.91000
C  25.27600 -7.79100 48.34900
C  25.31200 -6.56300 47.37600
C  22.92800 -8.87700 49.08400
C  26.46400 -8.74600 48.12900
C  27.49600 -8.90500 49.22900
N  25.83300 -4.31300 45.44100
C  26.75900 -4.70300 46.39000
C  28.06600 -4.06100 46.10500
C  27.77000 -3.18800 45.02100
C  26.42000 -3.37600 44.66800
C  29.27500 -4.24900 46.91200
C  28.37900 -2.20100 44.15800
O  29.51500 -1.75400 44.26900
C  27.25600 -1.67500 43.18200
C  27.17200 -0.26000 43.39600
O  26.42300 0.41100 44.08300
O  28.16200 0.32100 42.64900
C  28.21500 1.82300 42.77400
H  20.80200 -3.90900 42.02400
H  21.52700 -8.30600 46.61500
H  27.23800 -5.98900 48.00500
H  24.25000 -0.43500 42.20400
H  22.21700 -2.08300 40.88200
H  20.84400 -1.33800 42.92200
H  21.32900 -0.10500 41.91700
H  22.18700 -0.33200 43.43000
H  24.33700 -2.08500 39.86000
H  25.81900 -2.47800 40.69000
H  26.70100 -0.53800 40.08800
H  25.13800 0.31800 40.26400
H  17.98200 -6.08700 42.95800
H  19.13800 -6.96600 42.01100
H  19.09500 -5.19100 41.83100
H  19.26000 -8.83300 46.79000
H  20.21400 -9.98700 45.74100
H  18.41400 -9.95100 45.81300
H  24.10600 -9.28500 47.31200
H  25.34000 -7.48000 49.39200
H  21.97100 -8.41200 49.32200
H  23.47800 -8.82700 50.02400
H  22.67500 -9.91700 48.87900
H  26.95700 -8.40600 47.21700
H  26.12800 -9.76000 47.91700
H  27.40600 -9.94300 49.54700
H  27.33500 -8.15400 50.00300
H  28.49000 -8.67900 48.84400
H  29.81900 -5.13400 46.58100
H  29.02200 -4.53500 47.93300
H  29.88200 -3.34500 46.86900
H  27.59500 -1.88400 42.16700
H  27.93400 2.20000 43.75800
H  27.54600 2.25900 42.03300
H  29.23700 2.19200 42.69300

