79

Mg 6.76200 52.82100 40.98700
C  6.05100 49.31900 41.03300
C  9.79900 52.24600 39.58600
C  7.14200 56.06200 40.53200
C  3.46900 53.32000 42.10000
N  7.70100 50.98500 40.31500
C  7.28500 49.66100 40.50400
C  8.41800 48.68900 39.91300
C  9.62200 49.60600 39.75800
C  9.03700 51.06100 39.91300
C  10.79700 49.46500 40.82000
C  7.99600 47.97300 38.63600
C  7.16200 48.73600 37.58400
H  7.83000 49.35600 36.32200
N  8.29500 53.97400 40.21300
C  9.48800 53.56600 39.72200
C  10.39800 54.67500 39.45600
C  9.70700 55.87200 39.73400
C  8.28100 55.38700 40.13500
C  11.85500 54.48600 39.01300
C  10.23700 57.24200 39.50500
O  11.40700 57.50600 39.06100
C  9.34200 58.46400 39.76700
N  5.45100 54.33600 40.97700
C  5.88400 55.65400 40.83400
C  4.85800 56.68100 41.24500
C  3.68500 55.77200 41.73000
C  4.20900 54.34300 41.50400
C  5.27300 57.75100 42.29300
C  2.39000 56.10900 40.99800
C  1.07600 55.69300 41.68600
N  5.03600 51.64600 41.45500
C  3.84700 52.01000 42.10000
C  3.12300 50.85900 42.63600
C  3.94700 49.77600 42.16200
C  5.04500 50.36500 41.43100
C  1.79400 50.85100 43.38600
C  4.08700 48.32600 42.15000
O  3.28800 47.48900 42.54600
C  5.42900 48.01700 41.47600
C  5.06400 47.18400 40.31000
O  4.59100 47.53700 39.19700
O  5.44500 45.91200 40.57100
C  5.32800 44.98000 39.41500
H  10.78100 51.92300 39.23300
H  7.27200 57.13700 40.39200
H  2.51200 53.42900 42.61500
H  8.58800 48.02700 40.76200
H  10.18600 49.54400 38.82800
H  10.92100 50.34800 41.44600
H  11.75100 49.22500 40.35100
H  10.60100 48.70700 41.57900
H  7.58900 46.99200 38.88200
H  8.98000 47.79000 38.20400
H  6.56800 49.54700 38.00600
H  6.55400 47.91700 37.20000
H  12.05700 55.06900 38.11400
H  12.21500 53.47400 38.82800
H  12.36600 54.86200 39.89900
H  9.84800 59.39000 39.49500
H  9.03900 58.38200 40.81100
H  8.51700 58.28600 39.07700
H  4.54400 57.33400 40.43000
H  3.55800 55.82500 42.81100
H  6.30200 57.61800 42.62700
H  4.66100 57.77800 43.19400
H  5.25700 58.70400 41.76400
H  2.27100 55.77200 39.96900
H  2.23600 57.16500 40.77900
H  1.13200 55.63900 42.77300
H  0.89900 54.69700 41.28000
H  0.28700 56.42100 41.49800
H  1.02200 50.63000 42.64900
H  1.69600 51.84600 43.81900
H  1.92500 50.19700 44.24800
H  6.10200 47.54300 42.19000
H  6.14800 45.03800 38.70000
H  4.43100 45.13400 38.81600
H  5.29300 43.97500 39.83400

