79

Mg 1.38000 -1.46600 42.76700
C  4.70300 -0.38000 41.73600
C  0.30400 1.55600 41.40000
C  -1.66800 -2.82500 42.36200
C  2.74400 -4.68300 43.26400
N  2.47100 0.41000 41.71900
C  3.78900 0.60800 41.42000
C  4.01600 2.01700 40.91000
C  2.59000 2.64100 40.86300
C  1.73200 1.48400 41.41400
C  2.54700 3.95600 41.73000
C  4.68400 2.08000 39.54400
C  3.94700 1.23000 38.46800
H  4.84900 0.42400 37.57800
N  -0.46700 -0.66200 42.30600
C  -0.63900 0.65600 41.86700
C  -2.07400 0.77700 41.66300
C  -2.70700 -0.48100 41.93200
C  -1.64700 -1.39600 42.23400
C  -2.62900 2.05100 41.20200
C  -4.21100 -0.79900 41.87900
O  -4.98000 -0.01900 41.34300
C  -4.76400 -2.05600 42.47700
N  0.68800 -3.53500 42.55400
C  -0.60700 -3.81000 42.50900
C  -0.82700 -5.36100 42.63400
C  0.51200 -5.82100 43.19300
C  1.38500 -4.58600 43.05000
C  -2.04600 -5.67900 43.53900
C  1.16700 -7.20100 42.61300
C  1.10200 -8.38900 43.67100
N  3.31500 -2.40100 42.66100
C  3.70000 -3.66300 42.92800
C  5.11900 -3.70700 42.95500
C  5.56100 -2.47000 42.50100
C  4.39900 -1.67200 42.29300
C  5.78600 -5.03800 43.38200
C  6.75000 -1.71700 42.21400
O  7.93800 -1.86300 42.47400
C  6.20200 -0.39100 41.56300
C  6.89300 0.78300 42.19900
O  7.60600 1.54300 41.55200
O  6.61900 0.87900 43.54200
C  7.39300 1.94100 44.21100
H  -0.10500 2.40000 40.84100
H  -2.57500 -3.39400 42.14700
H  3.19300 -5.61500 43.61600
H  4.73000 2.59700 41.49400
H  2.33800 2.87100 39.82800
H  3.38200 4.17200 42.39700
H  1.58100 3.83800 42.22100
H  2.51700 4.73900 40.97200
H  5.73000 1.78800 39.63300
H  4.61800 3.07100 39.09400
H  3.31900 1.91600 37.90100
H  3.11700 0.68400 38.91700
H  -2.25300 2.34700 40.22300
H  -2.40900 2.81000 41.95300
H  -3.71300 2.10600 41.09400
H  -5.82900 -1.84700 42.57400
H  -4.41100 -2.12700 43.50600
H  -4.51600 -2.88800 41.81700
H  -0.88000 -5.65000 41.58400
H  0.41800 -5.84000 44.27800
H  -2.31100 -4.91100 44.26500
H  -1.89600 -6.63200 44.04600
H  -2.87100 -5.85100 42.84800
H  2.24600 -7.12400 42.47800
H  0.72300 -7.58500 41.69400
H  0.24700 -9.05100 43.53200
H  1.03000 -7.90100 44.64300
H  2.02100 -8.97500 43.64800
H  6.10300 -5.68900 42.56600
H  5.17800 -5.61200 44.08100
H  6.67100 -4.67300 43.90200
H  6.42600 -0.61700 40.52000
H  6.69600 2.58300 44.74900
H  7.89400 2.66200 43.56300
H  7.99900 1.62600 45.06000

