79

Mg 17.22900 52.98400 26.57800
C  19.45000 51.50200 29.14300
C  14.97600 53.55300 29.07300
C  15.06500 53.91600 24.16800
C  19.45900 51.71600 24.22600
N  17.31000 52.64300 28.84900
C  18.25500 52.06600 29.65500
C  17.82700 52.28400 31.16400
C  16.32000 52.64700 31.11800
C  16.16800 52.99100 29.59300
C  15.37000 51.54100 31.53200
C  18.61900 53.45200 31.92300
C  18.99000 53.18100 33.35900
H  17.92300 52.36000 34.14500
N  15.38600 53.69100 26.61900
C  14.60800 53.83600 27.72600
C  13.32600 54.42700 27.36300
C  13.44000 54.67100 26.02100
C  14.61600 54.03600 25.53400
C  12.19100 54.79900 28.31800
C  12.52500 55.48300 25.12000
O  12.67000 55.64100 23.89900
C  11.29200 56.03600 25.68100
N  17.20400 52.75100 24.50400
C  16.22900 53.30900 23.68900
C  16.72500 53.53600 22.27100
C  18.09700 52.77900 22.20800
C  18.32600 52.38600 23.77100
C  15.61900 53.14800 21.20700
C  19.22800 53.77600 21.67800
C  20.10600 53.18700 20.55900
N  19.01400 51.82900 26.56200
C  19.79700 51.45800 25.51900
C  21.02100 50.76400 25.96100
C  20.93500 50.77700 27.38400
C  19.68100 51.39400 27.70600
C  22.11900 50.19700 25.05600
C  21.64000 50.44400 28.60900
O  22.71300 49.85200 28.74400
C  20.70800 50.95300 29.83700
C  20.43400 49.81100 30.76000
O  20.18400 48.69300 30.35800
O  20.52100 50.24800 31.99800
C  20.50600 49.21100 33.05700
H  14.30200 53.70000 29.92000
H  14.39700 54.29800 23.39300
H  20.15700 51.44300 23.43300
H  17.92400 51.31900 31.66100
H  16.07800 53.58800 31.61000
H  14.75300 52.01700 32.29500
H  15.75100 50.58400 31.88900
H  14.62900 51.19000 30.81400
H  18.30900 54.49500 31.85900
H  19.55400 53.60100 31.38300
H  18.98900 54.09700 33.94900
H  19.97000 52.73600 33.53400
H  11.21700 54.39900 28.03800
H  12.18300 55.87700 28.47800
H  12.36400 54.54200 29.36300
H  10.49500 55.39400 26.05600
H  10.83300 56.51800 24.81800
H  11.80200 56.65400 26.41900
H  16.93600 54.58700 22.07700
H  17.97900 51.85300 21.64500
H  14.93600 52.40100 21.61200
H  16.22300 52.80900 20.36500
H  15.16000 54.07800 20.87100
H  19.96600 54.16500 22.38000
H  18.89100 54.71100 21.23100
H  20.07500 52.09700 20.53800
H  21.11100 53.55400 20.76800
H  19.86100 53.52600 19.55200
H  21.89200 50.31600 23.99600
H  22.14200 49.13000 25.27500
H  23.08800 50.59000 25.36300
H  21.17800 51.78800 30.35600
H  19.47500 49.17200 33.40900
H  21.23200 49.50600 33.81400
H  20.70500 48.19000 32.73400

