79

Mg 6.19700 53.62600 40.97100
C  5.27200 50.26400 40.37500
C  9.36800 52.92100 39.87500
C  6.90800 56.88700 41.07400
C  2.83700 54.33700 41.84100
N  7.17400 51.70300 40.02100
C  6.67200 50.39000 40.02400
C  7.79700 49.43600 39.76600
C  9.11000 50.39400 39.99700
C  8.52200 51.76600 39.85300
C  9.79100 50.22600 41.33000
C  7.88300 48.68000 38.43600
C  8.00200 49.58200 37.18800
H  6.93700 49.32500 36.06800
N  7.93800 54.76000 40.66000
C  9.11900 54.26400 40.14000
C  10.08900 55.36000 40.16000
C  9.41600 56.59800 40.46800
C  8.00000 56.11700 40.76300
C  11.56800 55.25400 40.05700
C  9.99600 57.98300 40.52700
O  11.10400 58.19500 40.05400
C  9.27400 59.26400 40.97200
N  4.98300 55.40000 41.27800
C  5.56900 56.66100 41.27400
C  4.44500 57.75100 41.31100
C  3.20500 56.93600 41.94300
C  3.64600 55.44800 41.62200
C  4.75000 59.08500 42.00600
C  1.86900 57.38800 41.19100
C  1.49500 56.95700 39.82200
N  4.31500 52.57900 41.04300
C  3.13600 52.95800 41.57100
C  2.22700 51.74300 41.59900
C  3.06700 50.71500 41.13500
C  4.29500 51.24300 40.79500
C  0.75300 51.78000 41.78400
C  3.06200 49.32700 40.81900
O  2.21400 48.44400 40.94900
C  4.50000 48.97500 40.43900
C  4.32900 48.29000 39.10800
O  3.66800 48.68800 38.16800
O  4.90300 47.06800 39.19200
C  4.71100 46.24400 38.03400
H  10.36600 52.65700 39.51800
H  7.08300 57.95400 41.22800
H  1.85200 54.48600 42.28800
H  7.94000 48.79900 40.63900
H  9.84400 50.17400 39.22200
H  9.47000 49.31100 41.82900
H  9.72400 51.13000 41.93500
H  10.82400 50.17400 40.98700
H  7.05700 47.97200 38.36200
H  8.74700 48.01800 38.38800
H  8.99400 49.53200 36.74000
H  7.82200 50.60700 37.51300
H  12.13300 55.91700 40.71200
H  11.95500 55.23500 39.03800
H  11.80700 54.21000 40.26300
H  10.06800 59.97700 41.19100
H  8.75000 59.03000 41.89900
H  8.72900 59.45400 40.04800
H  4.22100 57.92000 40.25800
H  3.13000 57.09000 43.02000
H  5.05600 59.93800 41.40000
H  5.57900 58.96000 42.70200
H  3.86900 59.44100 42.54000
H  1.65700 58.44500 41.35300
H  1.00500 56.93900 41.68100
H  1.30900 57.85400 39.23000
H  0.67400 56.27300 39.60900
H  2.32400 56.37500 39.42000
H  0.39600 52.38900 40.95300
H  0.55700 52.28200 42.73100
H  0.39000 50.75700 41.69400
H  4.86900 48.39600 41.28500
H  5.23500 46.61500 37.15300
H  3.64200 46.14000 37.84500
H  5.04400 45.23300 38.26500

