79

Mg 47.80200 25.18800 28.33400
C  48.56200 27.39200 30.89300
C  46.59200 22.88400 30.88500
C  47.21300 22.91500 26.05700
C  49.34000 27.22900 25.97700
N  47.48400 25.16900 30.62400
C  47.82100 26.26500 31.38700
C  47.25200 26.11600 32.84700
C  46.78600 24.57600 32.90100
C  46.96900 24.12700 31.41800
C  47.51900 23.65100 33.93800
C  46.07600 27.08200 33.13500
C  46.20800 27.96100 34.41200
H  45.01300 27.80500 35.34400
N  46.77200 23.34100 28.41500
C  46.50300 22.52900 29.55400
C  46.10800 21.26900 29.02200
C  46.15500 21.27000 27.58500
C  46.73900 22.57100 27.30500
C  45.84100 20.09200 29.94000
C  45.71400 20.19000 26.56000
O  45.83200 20.31700 25.33000
C  45.03100 18.97500 27.07300
N  48.24100 25.06400 26.30300
C  47.88300 24.01500 25.55200
C  47.99000 24.29800 24.07300
C  48.70700 25.67900 24.04600
C  48.82500 25.99200 25.56900
C  48.78900 23.29300 23.22300
C  48.00200 26.70400 23.26200
C  48.78000 27.43000 22.16100
N  48.79900 26.96900 28.43600
C  49.38900 27.69800 27.37100
C  49.85500 28.91000 27.95900
C  49.50500 28.87200 29.31500
C  48.90500 27.65800 29.55900
C  50.45100 30.08500 27.18400
C  49.49300 29.58400 30.54800
O  49.90100 30.71700 30.79100
C  48.80200 28.70500 31.56000
C  49.58900 28.72000 32.86400
O  50.72600 28.29400 33.01900
O  48.88400 29.34000 33.82400
C  49.59500 29.74300 35.03400
H  46.17300 22.27100 31.68500
H  47.10300 22.26900 25.18300
H  49.84500 27.73400 25.15100
H  48.10000 26.30300 33.50600
H  45.73200 24.47600 33.16200
H  48.04900 24.30500 34.63100
H  48.34100 23.09300 33.48900
H  46.80200 23.04200 34.49000
H  45.13400 26.53500 33.17900
H  46.02800 27.87000 32.38400
H  46.13900 29.02800 34.20200
H  47.05800 27.69500 35.04100
H  46.43100 19.23300 29.61900
H  44.84300 19.67600 29.80000
H  46.12500 20.28300 30.97500
H  44.06500 19.23100 27.50800
H  45.60100 18.33900 27.74900
H  44.83100 18.27200 26.26400
H  46.98700 24.28000 23.64700
H  49.69900 25.47900 23.64200
H  48.04600 22.81600 22.58400
H  49.16100 22.50800 23.88100
H  49.66200 23.64300 22.67200
H  47.75100 27.52600 23.93300
H  47.09300 26.28100 22.83400
H  48.37900 28.44000 22.06900
H  48.45000 26.97000 21.23000
H  49.84500 27.34700 22.37700
H  49.78800 30.47800 26.41400
H  51.33200 29.70500 26.66700
H  50.70700 30.87100 27.89400
H  47.79900 29.09400 31.73200
H  49.67900 28.90300 35.72400
H  48.99700 30.48800 35.55800
H  50.58700 30.10200 34.76000

