79

Mg 35.54000 2.80800 29.90600
C  33.23200 3.81100 32.28100
C  37.92100 2.68500 32.40100
C  37.84200 2.16000 27.61600
C  33.08900 3.12300 27.50800
N  35.55800 3.29900 32.02400
C  34.54700 3.65100 32.82100
C  34.97300 3.75600 34.31900
C  36.48900 3.57500 34.24500
C  36.64900 3.13800 32.78500
C  37.16100 4.97800 34.49200
C  34.32500 2.49600 35.09500
C  34.19800 2.66700 36.62600
H  34.85300 3.89400 37.24700
N  37.67200 2.41700 29.96200
C  38.42000 2.25400 31.11600
C  39.75200 1.81400 30.78500
C  39.75000 1.71900 29.31400
C  38.40400 2.10400 28.92100
C  40.84900 1.51600 31.80100
C  40.89300 1.34700 28.38100
O  40.78500 1.51000 27.13100
C  42.11100 0.71000 28.87700
N  35.49300 2.90300 27.75900
C  36.56400 2.48100 27.01300
C  36.18700 2.50300 25.50900
C  34.60200 2.32300 25.61700
C  34.39300 2.85200 27.08100
C  36.65400 3.90600 24.88300
C  34.11600 0.79200 25.34600
C  33.67000 -0.12600 26.50500
N  33.54900 3.44500 29.81500
C  32.61200 3.43900 28.82000
C  31.34800 3.76800 29.35500
C  31.57600 3.98000 30.69100
C  32.88400 3.65700 30.90700
C  30.10300 3.92000 28.69400
C  30.92300 4.26200 31.96100
O  29.81600 4.58800 32.20000
C  31.96200 4.14800 33.09500
C  32.04900 5.50700 33.64200
O  32.24900 6.54900 32.97200
O  31.84700 5.51300 34.97200
C  32.06100 6.78400 35.64100
H  38.75900 2.71100 33.10000
H  38.52700 1.68100 26.91300
H  32.40800 3.10300 26.65500
H  34.64100 4.69800 34.75400
H  36.87900 2.88100 34.98900
H  36.57700 5.68100 35.08500
H  37.56400 5.42800 33.58500
H  37.99300 4.85700 35.18600
H  34.94700 1.63800 34.83700
H  33.30700 2.37400 34.72400
H  34.63400 1.79700 37.11700
H  33.12400 2.67900 36.80800
H  41.04800 0.45900 31.98100
H  40.52900 1.97800 32.73400
H  41.75400 2.04400 31.50100
H  42.76100 1.45400 29.33800
H  42.65600 0.35100 28.00300
H  41.93900 -0.15000 29.52400
H  36.74100 1.72400 24.98500
H  34.14500 3.03900 24.93300
H  37.34700 3.86500 24.04300
H  37.24200 4.35900 25.68000
H  35.76400 4.45600 24.57600
H  34.78600 0.29800 24.64200
H  33.20200 0.93600 24.77100
H  33.61700 0.47500 27.41200
H  34.41100 -0.92300 26.56000
H  32.60800 -0.35000 26.40000
H  29.36300 3.85500 29.49200
H  30.11000 3.11700 27.95700
H  29.98300 4.94400 28.33900
H  31.68600 3.33700 33.76900
H  32.86100 7.34800 35.16300
H  32.36500 6.52600 36.65600
H  31.11500 7.32600 35.63700

