79

Mg 17.54000 52.71000 26.73900
C  19.27000 51.29400 29.39700
C  15.01700 53.63800 28.94500
C  15.75800 53.74500 24.14200
C  19.89200 51.21300 24.46300
N  17.20400 52.57400 28.84600
C  18.13500 52.07500 29.76900
C  17.65400 52.37700 31.19500
C  16.13500 52.69500 30.94900
C  16.13900 53.01800 29.50200
C  15.10400 51.67300 31.43100
C  18.55700 53.54700 31.80300
C  18.53600 53.61900 33.40400
H  17.52100 52.66800 34.14600
N  15.68800 53.60100 26.61200
C  14.85400 54.03900 27.62500
C  13.77500 54.72100 27.14800
C  14.03400 54.83900 25.71200
C  15.22700 54.05200 25.39800
C  12.55200 55.09000 27.90900
C  13.16700 55.46300 24.60300
O  13.19100 55.09500 23.44600
C  12.02800 56.45400 25.05700
N  17.58800 52.15000 24.55600
C  16.83800 52.89800 23.72800
C  17.29600 52.76000 22.28700
C  18.58000 51.86100 22.40400
C  18.71900 51.74000 23.86500
C  16.23000 52.10100 21.35100
C  19.78300 52.38600 21.63300
C  20.42700 53.69400 22.19500
N  19.17300 51.37200 26.86300
C  20.05600 50.94100 25.84700
C  21.12100 50.26300 26.56400
C  20.87600 50.36600 27.97100
C  19.65500 51.06600 28.05500
C  22.23700 49.58400 25.95200
C  21.38300 50.11000 29.27400
O  22.47900 49.70100 29.66400
C  20.39300 50.70900 30.25700
C  19.86900 49.74600 31.14800
O  19.19300 48.79300 30.82700
O  20.33300 49.93800 32.41500
C  20.08900 48.81100 33.35100
H  14.27400 53.90000 29.70100
H  15.34900 54.32700 23.31400
H  20.60800 50.78200 23.76100
H  17.77800 51.40900 31.68200
H  15.81800 53.58200 31.49700
H  15.57700 50.84000 31.95100
H  14.65800 51.12200 30.60300
H  14.31800 52.07400 32.07100
H  18.21500 54.50200 31.40300
H  19.53900 53.28700 31.40800
H  18.40500 54.68400 33.59900
H  19.52700 53.23600 33.64700
H  12.55200 56.17700 27.98800
H  12.64400 54.85100 28.96800
H  11.59100 54.73900 27.53200
H  12.45900 56.99800 25.89700
H  11.09400 55.92500 25.24300
H  11.99900 57.16400 24.23100
H  17.57600 53.76400 21.96700
H  18.36800 50.87400 21.99300
H  16.54400 51.15000 20.92100
H  15.95900 52.64600 20.44600
H  15.32300 52.05500 21.95300
H  19.31500 52.75700 20.72100
H  20.50800 51.63400 21.32200
H  20.09500 53.79900 23.22800
H  20.14400 54.51400 21.53600
H  21.50300 53.51800 22.17800
H  23.01300 49.79500 26.68800
H  22.50700 50.10000 25.03000
H  22.19500 48.51300 25.75800
H  21.03600 51.50500 30.63500
H  20.49000 49.04300 34.33700
H  20.41300 47.81600 33.04600
H  19.00200 48.82700 33.43300

