79

Mg 1.64000 -2.18900 43.04100
C  5.00300 -2.47200 42.40500
C  1.62100 0.82900 41.25500
C  -1.67000 -2.48600 42.74800
C  1.72500 -5.68200 44.13200
N  3.14400 -1.03000 41.86800
C  4.45200 -1.35100 41.76100
C  5.23900 -0.27600 41.01600
C  4.17200 0.84200 40.75600
C  2.89600 0.23300 41.32000
C  4.62000 2.18700 41.39100
C  5.89800 -0.75000 39.73400
C  7.02900 0.19900 39.21800
H  6.72100 1.01000 37.94800
N  0.14800 -0.97100 42.23900
C  0.39100 0.33300 41.68500
C  -0.91800 0.97300 41.45400
C  -1.84300 -0.03100 41.62800
C  -1.18500 -1.16800 42.26100
C  -1.00800 2.32300 40.79600
C  -3.30400 0.03300 41.31000
O  -3.82900 1.02500 40.75000
C  -4.10800 -1.12900 41.45200
N  0.26200 -3.98300 43.29800
C  -1.05700 -3.67300 43.28500
C  -1.95700 -4.85000 43.73500
C  -0.85800 -5.94200 44.09700
C  0.49500 -5.14900 43.88600
C  -2.93900 -4.53500 44.89100
C  -0.93100 -7.29400 43.38700
C  -0.69300 -8.50700 44.29000
N  3.10600 -3.70300 43.41400
C  3.03100 -5.03400 43.89100
C  4.35200 -5.56600 43.95500
C  5.21400 -4.56400 43.54800
C  4.35200 -3.47100 43.09700
C  4.60200 -7.07300 44.28600
C  6.55300 -4.22300 43.31200
O  7.54700 -4.80100 43.56000
C  6.48800 -2.83300 42.54100
C  7.37700 -1.81800 43.22100
O  7.07100 -1.02200 44.10700
O  8.61100 -1.85300 42.64800
C  9.63400 -0.89600 43.08200
H  1.58600 1.81900 40.79700
H  -2.74600 -2.53800 42.92700
H  1.79800 -6.72900 44.43600
H  5.97500 0.11100 41.72100
H  3.98900 1.08500 39.71000
H  3.97200 2.29800 42.26000
H  4.61700 3.00800 40.67500
H  5.61700 2.22900 41.82900
H  5.19600 -0.85700 38.90800
H  6.28800 -1.75500 39.89600
H  7.95600 -0.36600 39.12900
H  7.13700 0.97700 39.97500
H  -0.71600 2.31000 39.74600
H  -0.48300 3.07400 41.38700
H  -2.04400 2.65700 40.73900
H  -5.00500 -0.87900 40.88600
H  -4.44400 -1.29300 42.47600
H  -3.57500 -1.96000 40.99100
H  -2.53600 -5.15900 42.86500
H  -0.78400 -6.12600 45.16900
H  -2.64500 -5.04500 45.80800
H  -3.97200 -4.81600 44.68800
H  -2.89400 -3.45800 45.05200
H  -0.24500 -7.34700 42.54100
H  -1.97200 -7.41200 43.08600
H  -1.41300 -9.29700 44.07700
H  -0.70500 -8.22200 45.34200
H  0.33500 -8.78400 44.05600
H  5.43800 -7.37600 43.65600
H  3.72700 -7.68800 44.07000
H  4.99200 -7.17400 45.29900
H  6.94800 -3.07600 41.58300
H  9.69900 -0.60300 44.13000
H  9.37100 0.00200 42.52300
H  10.60300 -1.26000 42.74200

