79

Mg 43.61300 4.14400 47.03700
C  41.06900 6.56500 46.99000
C  41.10300 1.79500 47.16800
C  45.91000 1.69300 47.01600
C  46.04700 6.56800 46.57300
N  41.39400 4.24200 47.11100
C  40.50900 5.29200 47.25000
C  39.02500 4.90400 47.16300
C  39.06700 3.31900 47.35300
C  40.63300 3.09400 47.28500
C  38.39100 2.91200 48.63100
C  38.38800 5.30500 45.83800
C  39.04700 4.92100 44.47900
H  39.29700 5.97700 43.41400
N  43.50900 2.05000 47.03100
C  42.40800 1.30700 47.05200
C  42.67400 -0.08300 46.90100
C  44.10200 -0.22800 46.88900
C  44.60500 1.20200 47.02800
C  41.65200 -1.20200 46.86400
C  44.89000 -1.48400 46.62400
O  44.28500 -2.58600 46.59700
C  46.36700 -1.56800 46.51200
N  45.65900 4.13900 46.62000
C  46.40200 3.02300 46.91900
C  47.91200 3.30400 46.83100
C  47.91800 4.87400 46.88100
C  46.47300 5.24900 46.68200
C  48.90000 2.60800 47.83000
C  48.97300 5.65000 46.05600
C  49.62800 6.82200 46.71400
N  43.64300 6.21000 46.78900
C  44.69800 7.02100 46.54000
C  44.13700 8.40500 46.50100
C  42.75300 8.26200 46.75700
C  42.47400 6.92900 46.85700
C  44.93500 9.67900 46.28100
C  41.55200 9.02100 46.88900
O  41.28400 10.20600 46.78100
C  40.34100 7.92900 47.06500
C  39.69300 8.09900 48.37200
O  40.17200 7.82000 49.49500
O  38.38700 8.30100 48.21100
C  37.64600 7.90400 49.47700
H  40.36400 0.99800 47.26900
H  46.71300 1.01600 47.31700
H  46.81300 7.34400 46.51900
H  38.54700 5.46900 47.96300
H  38.65900 2.74400 46.52100
H  38.01300 3.72600 49.24900
H  39.13000 2.58600 49.36300
H  37.76400 2.03300 48.48500
H  38.24400 6.38500 45.80800
H  37.42300 4.80200 45.88500
H  38.40100 4.13800 44.08000
H  40.05400 4.51500 44.56800
H  41.79100 -2.05800 47.52500
H  41.71900 -1.60900 45.85500
H  40.61700 -0.86300 46.91400
H  46.89600 -1.10700 47.34600
H  46.63100 -1.22600 45.51100
H  46.73300 -2.59100 46.61000
H  48.33300 2.97200 45.88200
H  48.17100 5.06100 47.92400
H  49.52600 1.82500 47.40300
H  48.30400 2.16600 48.62900
H  49.56400 3.32500 48.31300
H  48.43500 6.09400 45.21800
H  49.68600 5.01000 45.53700
H  50.70200 6.75700 46.54000
H  49.43800 6.96900 47.77800
H  49.27700 7.75200 46.26700
H  45.49000 9.77100 47.21400
H  44.31900 10.56100 46.10700
H  45.60500 9.44500 45.45400
H  39.65400 8.11200 46.23900
H  37.81400 8.78800 50.09300
H  38.04800 7.02600 49.98100
H  36.62200 7.62800 49.22800

