79

Mg 48.80300 35.64300 27.89100
C  46.70900 33.92100 30.10700
C  48.84100 38.29900 30.17700
C  50.17500 37.59200 25.53900
C  48.50100 33.05100 25.57700
N  47.92200 36.08300 29.90500
C  47.28100 35.12800 30.69300
C  47.25900 35.56000 32.14900
C  47.39700 37.07600 31.97600
C  48.14900 37.19400 30.59800
C  46.04500 37.87100 31.99600
C  48.47300 34.97700 33.01300
C  48.43000 34.92400 34.54300
H  47.53700 35.98000 35.28200
N  49.50500 37.63600 27.93800
C  49.44400 38.48700 28.99100
C  50.08800 39.74200 28.61700
C  50.52100 39.56000 27.26100
C  50.10700 38.20100 26.85000
C  50.18200 40.92700 29.63500
C  51.20300 40.55300 26.30000
O  51.58200 40.34400 25.17300
C  51.64200 41.87400 26.87200
N  49.22100 35.33000 25.81600
C  49.79500 36.31300 25.03700
C  50.09300 35.80200 23.57700
C  49.78700 34.29700 23.66100
C  49.17900 34.18800 25.10800
C  49.39400 36.49200 22.44200
C  51.05000 33.32100 23.41200
C  50.98800 32.48700 22.16900
N  47.79300 33.83900 27.77200
C  47.80000 32.78100 26.81000
C  46.98900 31.67700 27.26000
C  46.55800 32.07700 28.54800
C  46.98100 33.42500 28.82200
C  46.71700 30.34100 26.56300
C  45.84400 31.65800 29.73100
O  45.33900 30.56200 29.93300
C  45.85400 32.87700 30.75100
C  46.42500 32.26200 31.94800
O  47.52000 31.74100 32.05600
O  45.53500 32.23100 32.97300
C  45.92200 31.56800 34.20200
H  48.91100 39.12500 30.88700
H  50.75800 38.09600 24.76600
H  48.37900 32.20700 24.89600
H  46.28500 35.38000 32.60400
H  48.04200 37.44000 32.77600
H  45.96300 38.76200 31.37300
H  45.87600 38.17000 33.03100
H  45.31200 37.10700 31.73600
H  49.38200 35.52300 32.75900
H  48.67500 33.96000 32.67700
H  49.42800 35.02700 34.96900
H  48.01600 33.96500 34.85500
H  51.05900 41.51900 29.37200
H  50.31800 40.63300 30.67600
H  49.30700 41.56000 29.48500
H  50.73600 42.43100 27.10900
H  52.14500 42.32700 26.01800
H  52.32600 41.73100 27.71000
H  51.15400 36.00600 23.43200
H  48.98100 34.04900 22.97000
H  48.73400 35.78400 21.94000
H  50.15300 36.93700 21.79800
H  48.88100 37.29700 22.96800
H  51.26600 32.63600 24.23100
H  51.91100 33.97900 23.28900
H  51.51800 32.89400 21.30700
H  49.98100 32.19600 21.86700
H  51.53400 31.61200 22.52200
H  47.70100 29.91200 26.37500
H  46.34100 30.51900 25.55500
H  46.05100 29.72700 27.16800
H  44.88300 33.24900 31.07900
H  46.53100 30.67200 34.08000
H  45.03900 31.35200 34.80500
H  46.55200 32.26100 34.76000

