79

Mg 1.12000 42.36700 25.50200
C  2.64400 42.50600 28.73900
C  -1.71100 41.09400 27.01300
C  -0.02200 41.78800 22.53900
C  4.16800 43.77200 24.22200
N  0.53700 41.83000 27.72000
C  1.28100 42.11400 28.81000
C  0.47400 41.96400 30.10600
C  -0.88700 41.40500 29.50000
C  -0.70200 41.46200 27.97300
C  -1.21700 39.89900 29.98000
C  0.40600 43.10700 31.14300
C  0.68400 42.63100 32.62100
H  -0.45100 43.00500 33.67300
N  -0.59200 41.56400 24.89900
C  -1.64800 41.19900 25.63100
C  -2.71700 40.61500 24.72100
C  -2.26700 40.86800 23.38800
C  -0.92000 41.44600 23.57600
C  -3.95100 39.83700 25.17100
C  -2.91300 40.62100 22.07400
O  -2.37300 40.90700 21.00900
C  -4.21200 39.90900 21.89700
N  1.98300 42.71900 23.62300
C  1.33400 42.23100 22.49800
C  2.13400 42.55400 21.31300
C  3.22600 43.56300 21.77600
C  3.13100 43.40600 23.32700
C  2.51600 41.45800 20.31800
C  3.03900 44.95000 21.20100
C  3.31900 45.10400 19.75300
N  2.94900 43.03400 26.26100
C  4.11500 43.52000 25.59200
C  5.17200 43.73800 26.55700
C  4.63000 43.36900 27.76100
C  3.30800 42.86700 27.56400
C  6.62100 44.15700 26.23600
C  4.98800 43.09100 29.15200
O  6.02200 43.25200 29.74100
C  3.67100 42.69600 29.87500
C  3.79400 41.56300 30.81300
O  3.88900 40.37100 30.43900
O  3.67200 42.04400 32.08300
C  3.69300 41.12000 33.17700
H  -2.74100 40.95200 27.34700
H  -0.39000 41.77400 21.51100
H  5.05700 44.21200 23.76700
H  0.97000 41.07900 30.50400
H  -1.65100 42.09200 29.86300
H  -0.59000 39.51100 30.78200
H  -1.32600 39.22200 29.13200
H  -2.23000 39.84500 30.37700
H  -0.63800 43.41400 31.20700
H  0.92400 44.01100 30.82300
H  1.51500 43.19200 33.04700
H  0.79100 41.55400 32.74400
H  -3.85100 38.90500 24.61400
H  -4.93300 40.23000 24.90600
H  -3.99500 39.69900 26.25200
H  -3.85600 38.89100 22.05500
H  -4.54100 40.08400 20.87300
H  -5.05300 40.24700 22.50200
H  1.49300 43.23800 20.75600
H  4.21200 43.21600 21.46600
H  2.62200 40.48200 20.79300
H  3.44700 41.64500 19.78300
H  1.72800 41.42300 19.56600
H  3.71000 45.61600 21.74400
H  2.05400 45.21500 21.58600
H  3.90800 46.01900 19.68500
H  2.37800 45.24400 19.22000
H  3.79100 44.22300 19.31800
H  6.98300 44.01000 25.21900
H  7.17500 43.48700 26.89500
H  6.81700 45.17900 26.56100
H  3.55200 43.52900 30.56700
H  2.81300 41.40700 33.75200
H  4.63500 41.12300 33.72500
H  3.50900 40.10200 32.83300

