79

Mg 30.32100 58.21000 40.02100
C  27.54900 56.08900 39.28800
C  32.37300 55.62900 38.93500
C  32.68900 60.33500 40.15800
C  27.87000 60.74600 40.50000
N  30.02300 56.18400 39.03100
C  28.79400 55.52400 38.87200
C  29.05500 54.07500 38.47700
C  30.57100 53.88200 38.56600
C  31.01300 55.32000 38.89400
C  31.08000 52.83500 39.68000
C  28.44300 53.53100 37.08400
C  28.05200 54.55700 36.02200
H  28.30700 54.21100 34.56300
N  32.37700 57.96300 39.82200
C  33.03300 56.84500 39.37000
C  34.46600 57.07000 39.30000
C  34.67000 58.51600 39.55700
C  33.27100 59.00600 39.86100
C  35.43400 56.00200 38.66900
C  35.97700 59.27300 39.54900
O  37.02500 58.63300 39.35200
C  36.09700 60.68800 39.87300
N  30.27100 60.31000 40.18700
C  31.46100 60.96500 40.32500
C  31.30100 62.44500 40.69000
C  29.74400 62.52700 41.12900
C  29.25400 61.11600 40.55500
C  32.24300 63.00400 41.76300
C  29.10700 63.79400 40.59000
C  28.50300 64.70300 41.73700
N  28.12500 58.42100 40.03200
C  27.31800 59.46200 40.21500
C  25.88200 59.06100 40.15800
C  25.94200 57.74000 39.73500
C  27.31400 57.39800 39.66400
C  24.68500 60.00900 40.30300
C  25.17700 56.53200 39.45300
O  23.92900 56.38900 39.46700
C  26.17400 55.43800 39.08200
C  25.95900 54.33200 40.05000
O  26.17600 54.45700 41.25400
O  25.53400 53.19900 39.36400
C  25.09000 52.13900 40.26500
H  33.03900 54.80200 38.68100
H  33.45900 61.10300 40.25400
H  27.12700 61.52200 40.69400
H  28.47000 53.50700 39.20100
H  30.97300 53.59000 37.59500
H  30.23300 52.38800 40.20000
H  31.68900 53.22700 40.49400
H  31.74300 52.06500 39.28600
H  27.44800 53.14800 37.30900
H  28.94400 52.63900 36.70700
H  28.58400 55.48600 36.22500
H  26.99700 54.82900 36.00100
H  35.36400 56.25600 37.61100
H  34.96800 55.03000 38.83000
H  36.45400 56.07700 39.04800
H  37.07600 61.15400 39.75600
H  35.85700 60.72800 40.93600
H  35.39300 61.34600 39.36300
H  31.46000 63.09500 39.82900
H  29.67900 62.40200 42.21000
H  32.56100 62.18700 42.41000
H  31.80700 63.81400 42.34700
H  33.01900 63.41600 41.11800
H  28.27700 63.46900 39.96300
H  29.81400 64.42600 40.05200
H  28.98300 65.66600 41.56000
H  28.85900 64.34400 42.70200
H  27.42700 64.87500 41.68400
H  24.59600 60.45800 39.31300
H  24.99000 60.75500 41.03700
H  23.82300 59.40200 40.58000
H  26.12100 55.12100 38.04000
H  24.28400 52.40900 40.94700
H  25.91400 51.60600 40.74000
H  24.66400 51.45800 39.52900

