79

Mg 48.92100 46.68700 42.56900
C  45.78600 47.24600 41.34200
C  48.84200 43.62400 41.13100
C  52.31200 46.57800 43.25100
C  49.22200 50.32400 43.06900
N  47.50000 45.67100 41.14300
C  46.22900 45.98500 41.00600
C  45.50800 44.90900 40.16800
C  46.41800 43.62800 40.37100
C  47.69600 44.33000 40.89500
C  45.84500 42.53000 41.36900
C  45.36400 45.24400 38.61500
C  44.00300 45.21000 37.92500
H  43.89000 44.35100 36.68000
N  50.38600 45.23700 42.31500
C  50.14500 44.03000 41.68400
C  51.37200 43.18900 41.72200
C  52.28800 44.03200 42.42100
C  51.68600 45.36900 42.65700
C  51.46800 41.76400 41.16700
C  53.78000 43.53700 42.81000
O  54.05200 42.38600 42.53500
C  54.77100 44.38400 43.53000
N  50.54800 48.24000 43.02300
C  51.77900 47.87200 43.34600
C  52.61700 49.04600 43.89700
C  51.74000 50.31900 43.63000
C  50.42400 49.65900 43.11700
C  52.90500 48.83900 45.40000
C  52.35300 51.38400 42.65200
C  52.30700 52.86100 43.08800
N  47.74100 48.40600 42.41300
C  47.96200 49.82000 42.73800
C  46.63800 50.48300 42.67700
C  45.74900 49.51000 42.13500
C  46.50500 48.29100 41.92100
C  46.26500 51.88200 43.04300
C  44.44100 49.27700 41.61700
O  43.44900 49.99300 41.64800
C  44.41400 47.77600 41.03100
C  43.27600 47.01200 41.60600
O  42.41500 46.45900 40.97000
O  43.52200 46.86400 42.96300
C  42.62000 46.02900 43.70400
H  48.99900 42.59100 40.81300
H  53.36700 46.40800 43.47700
H  49.32500 51.38100 43.32400
H  44.55400 44.77000 40.67700
H  46.63500 43.06500 39.46300
H  45.68500 41.55200 40.91400
H  44.90300 42.92500 41.74800
H  46.51500 42.22800 42.17500
H  46.08900 44.66500 38.04400
H  45.67500 46.27900 38.46800
H  43.75100 46.23500 37.65200
H  43.24000 44.88300 38.63100
H  52.50900 41.48700 40.99500
H  51.01800 41.76800 40.17400
H  51.00000 41.09400 41.88800
H  55.71400 43.84500 43.44100
H  54.39200 44.61800 44.52500
H  54.94300 45.31000 42.98200
H  53.62800 49.19700 43.51700
H  51.48700 50.90600 44.51300
H  52.65500 47.81300 45.67000
H  52.30700 49.46500 46.06200
H  53.98500 48.84000 45.54100
H  51.94600 51.26300 41.64800
H  53.41200 51.18700 42.48200
H  52.67300 52.98600 44.10700
H  51.32200 53.30800 42.95800
H  52.99300 53.40300 42.43600
H  46.95800 52.53000 42.50700
H  46.36800 51.95600 44.12600
H  45.24600 52.19300 42.81500
H  44.35600 47.95800 39.95800
H  41.58500 46.31500 43.51700
H  42.90600 46.17900 44.74600
H  42.77700 45.00900 43.35600

