79

Mg 9.20400 48.44300 25.27500
C  7.07100 48.20800 28.00900
C  11.68300 49.27800 27.43000
C  11.23800 48.36200 22.68200
C  6.49300 47.96800 23.11900
N  9.29100 48.60300 27.57800
C  8.30000 48.56000 28.43900
C  8.75300 48.89000 29.85100
C  10.17700 49.63000 29.53800
C  10.44700 49.07100 28.09700
C  10.20600 51.14900 29.69100
C  8.76900 47.65200 30.77000
C  9.68400 47.61800 32.01800
H  9.08200 47.61800 33.47700
N  11.25100 48.75200 25.06700
C  12.11300 49.15200 26.06300
C  13.46600 49.27200 25.44500
C  13.31000 48.92700 24.04800
C  11.86900 48.72000 23.87100
C  14.67800 49.42300 26.29400
C  14.34300 48.66900 23.01400
O  14.23300 48.36600 21.83600
C  15.75400 48.63900 23.50900
N  8.84200 48.22900 23.12700
C  9.82100 48.12600 22.27400
C  9.52600 47.56800 20.85600
C  7.94700 47.52500 21.02600
C  7.71700 47.88800 22.51100
C  9.90700 48.41500 19.63500
C  7.25400 46.18800 20.66000
C  5.77200 46.17500 20.27200
N  7.25900 48.19700 25.44500
C  6.25000 48.02600 24.49000
C  5.01400 47.88800 25.19600
C  5.29800 47.88600 26.54300
C  6.67900 48.07400 26.65800
C  3.60600 47.71600 24.48500
C  4.63500 47.89700 27.85300
O  3.45600 47.79300 28.22400
C  5.80200 48.03900 28.87700
C  5.75000 46.76000 29.64600
O  6.35400 45.77000 29.24700
O  5.07000 46.89600 30.83200
C  5.25200 45.67900 31.71000
H  12.42800 49.77800 28.05200
H  11.93400 48.39700 21.84100
H  5.63300 47.76400 22.47700
H  8.02100 49.63400 30.16400
H  11.05200 49.17200 29.99900
H  9.22600 51.60800 29.82000
H  10.70600 51.58700 28.82800
H  10.75300 51.47900 30.57400
H  9.00600 46.77800 30.16400
H  7.76700 47.62800 31.20000
H  10.35300 48.47600 31.95500
H  10.21800 46.67200 31.92200
H  14.48500 49.40900 27.36600
H  15.17700 50.34300 25.99000
H  15.34700 48.58700 26.09300
H  16.02100 47.82600 24.18400
H  15.82400 49.62200 23.97500
H  16.44500 48.60000 22.66700
H  9.91900 46.56500 20.68900
H  7.52900 48.30100 20.38600
H  10.02300 49.42700 20.02200
H  9.12600 48.55600 18.88700
H  10.86200 48.05400 19.25300
H  7.26700 45.66100 21.61400
H  7.80900 45.78600 19.81200
H  5.13300 45.50000 20.84100
H  5.62700 46.06200 19.19800
H  5.29800 47.12900 20.50100
H  3.59400 47.03000 23.63800
H  3.56500 48.76800 24.20400
H  2.79200 47.36400 25.11800
H  5.61800 48.99400 29.36900
H  4.95900 45.94600 32.72500
H  6.28600 45.35600 31.83000
H  4.58800 44.85500 31.44700

