79

Mg 25.71000 0.23600 28.69500
C  27.45700 -0.50100 31.57700
C  22.88500 0.49400 30.54900
C  24.08800 0.75100 25.79100
C  28.71500 -0.61900 26.74400
N  25.23400 0.01800 30.83800
C  26.14300 -0.17300 31.85900
C  25.43600 -0.01800 33.27600
C  23.91600 -0.07300 32.89000
C  23.99100 0.14500 31.33300
C  23.01200 -1.22200 33.44300
C  25.86500 1.29600 33.95500
C  26.79200 1.18200 35.20100
H  26.55000 1.93900 36.44100
N  23.75100 0.72200 28.27100
C  22.71100 0.75800 29.13800
C  21.52000 1.13800 28.45200
C  21.85400 1.13600 27.06700
C  23.28700 0.85400 26.98800
C  20.22200 1.44600 29.23500
C  20.96900 1.36000 25.87600
O  21.37900 1.28000 24.70100
C  19.48300 1.62200 25.96200
N  26.27400 -0.09200 26.50200
C  25.41800 0.36600 25.55600
C  26.05200 0.41100 24.14900
C  27.54900 0.22100 24.53700
C  27.54000 -0.23000 26.01100
C  25.55800 -0.79100 23.27400
C  28.48900 1.44100 24.28800
C  28.47300 2.69100 25.31200
N  27.68800 -0.56700 29.01300
C  28.76600 -0.70800 28.14700
C  29.87900 -1.19900 28.98000
C  29.44700 -1.10200 30.34800
C  28.06600 -0.66300 30.27700
C  31.24100 -1.57700 28.52400
C  29.90300 -1.15200 31.69700
O  31.05600 -1.26400 32.19300
C  28.60100 -0.81600 32.53900
C  28.12300 -1.95600 33.41500
O  27.48300 -2.95100 33.06800
O  28.56300 -1.87400 34.69900
C  27.98700 -2.77600 35.71000
H  22.02100 0.56500 31.21300
H  23.49500 0.90400 24.88700
H  29.64700 -0.62700 26.17400
H  25.64800 -0.93600 33.82500
H  23.38900 0.79400 33.28900
H  22.17500 -0.67300 33.87300
H  23.52700 -1.64600 34.30400
H  22.71100 -1.92000 32.66100
H  24.92300 1.74800 34.26300
H  26.43900 1.85500 33.21600
H  27.82200 1.50900 35.05200
H  26.83900 0.11000 35.39400
H  20.35900 1.26400 30.30100
H  19.46600 0.69600 29.00200
H  19.69500 2.38100 29.04800
H  19.43000 2.70100 25.81400
H  19.15800 1.44800 26.98700
H  18.77400 1.21300 25.24200
H  26.03900 1.36500 23.62300
H  27.89100 -0.65900 23.99100
H  24.94800 -1.42500 23.91800
H  26.31700 -1.53500 23.03200
H  24.97800 -0.44100 22.42000
H  28.35500 1.74300 23.24900
H  29.47600 0.97900 24.30700
H  27.81900 2.59900 26.17900
H  28.07900 3.52600 24.73300
H  29.47900 3.02500 25.56600
H  31.89000 -1.03800 29.21400
H  31.52500 -1.30600 27.50700
H  31.33100 -2.66000 28.59900
H  28.80300 0.02300 33.20400
H  28.24700 -2.36800 36.68600
H  28.36300 -3.79800 35.76000
H  26.90200 -2.70000 35.78400

