79

Mg 1.66000 -1.28800 45.05200
C  4.81300 0.22400 44.65900
C  0.19600 1.46600 43.51300
C  -1.27400 -3.03200 45.06800
C  3.33900 -4.28800 45.82600
N  2.44800 0.57600 44.14700
C  3.72200 1.00200 44.10500
C  3.75500 2.48200 43.69800
C  2.26400 2.91400 43.44800
C  1.57800 1.58300 43.77400
C  1.69300 4.08300 44.39900
C  4.65200 2.86400 42.47200
C  4.46700 1.98000 41.23100
H  5.73200 1.34100 40.64100
N  -0.22400 -0.90400 44.33300
C  -0.62400 0.27800 43.76200
C  -2.08500 0.21300 43.52700
C  -2.59700 -0.99700 44.03500
C  -1.37800 -1.74100 44.58000
C  -2.89600 1.33100 42.82700
C  -4.05700 -1.37500 44.04300
O  -4.79600 -0.78200 43.27100
C  -4.53700 -2.46500 44.87600
N  1.05400 -3.27900 45.44600
C  -0.19500 -3.80400 45.49800
C  -0.21500 -5.29000 45.65000
C  1.27900 -5.71200 45.68700
C  1.95300 -4.37700 45.61200
C  -1.14000 -5.89200 46.77100
C  1.86600 -6.78800 44.72600
C  1.81500 -8.31600 45.17400
N  3.62000 -1.88600 45.41800
C  4.14900 -3.11700 45.77900
C  5.59600 -3.00400 45.92800
C  5.95300 -1.72600 45.47200
C  4.72700 -1.09400 45.16600
C  6.48700 -4.12000 46.45600
C  6.98200 -0.81900 45.18700
O  8.18000 -0.93700 45.24900
C  6.30800 0.54300 44.71700
C  6.58600 1.61000 45.70200
O  6.59700 1.43300 46.91100
O  6.92400 2.73500 45.02900
C  7.52800 3.75300 45.89200
H  -0.33500 2.33200 43.11200
H  -2.24900 -3.51700 44.99100
H  3.91500 -5.21500 45.87700
H  4.05700 3.12800 44.52200
H  2.01900 3.11700 42.40600
H  2.44000 4.57100 45.02500
H  0.96400 3.61000 45.05800
H  1.09100 4.74400 43.77500
H  5.70900 3.01300 42.68800
H  4.24300 3.83900 42.20800
H  3.95200 2.68100 40.57500
H  3.83400 1.12600 41.47200
H  -3.71200 1.53000 43.52300
H  -3.12200 1.06300 41.79500
H  -2.38000 2.28300 42.94900
H  -4.58000 -3.40400 44.32400
H  -5.57000 -2.25400 45.15300
H  -3.93000 -2.55800 45.77600
H  -0.58600 -5.65800 44.69400
H  1.51500 -6.10900 46.67500
H  -2.00400 -6.34100 46.28000
H  -1.37100 -5.16500 47.54900
H  -0.62000 -6.69100 47.29900
H  2.90300 -6.51500 44.52900
H  1.32200 -6.84400 43.78400
H  1.38000 -8.70000 44.25200
H  1.09200 -8.40000 45.98500
H  2.81300 -8.69600 45.39200
H  6.03600 -4.43000 47.39900
H  7.48800 -3.70500 46.57300
H  6.50500 -4.98300 45.79100
H  6.75800 0.94200 43.80800
H  7.91200 4.56400 45.27200
H  8.32500 3.42400 46.55900
H  6.74000 4.11300 46.55200

