79

Mg 46.18100 16.86400 27.66500
C  44.41900 16.56800 30.80300
C  48.37100 18.94400 29.27900
C  47.70800 17.48500 24.72100
C  43.69700 15.06700 26.04300
N  46.37800 17.57400 29.83100
C  45.60600 17.22400 30.90400
C  46.20600 17.90600 32.18500
C  47.34600 18.79800 31.60700
C  47.44700 18.37800 30.12400
C  47.23400 20.42100 31.75500
C  46.73800 16.79800 33.11700
C  47.16900 17.40100 34.52900
H  46.46300 18.57100 35.19700
N  47.81900 18.06600 27.07900
C  48.62100 18.78900 27.88400
C  49.70000 19.39800 27.15300
C  49.58200 18.98900 25.76800
C  48.32500 18.15400 25.77100
C  50.80200 20.19000 27.77200
C  50.47200 19.24100 24.62000
O  50.11500 18.92100 23.51300
C  51.73900 20.14100 24.81600
N  45.71300 16.36200 25.69400
C  46.50700 16.71700 24.63100
C  45.92000 16.18000 23.34600
C  44.88400 15.08700 23.88300
C  44.72100 15.51000 25.29000
C  45.15800 17.15300 22.41300
C  45.35900 13.61500 23.66300
C  44.76200 12.78900 22.55600
N  44.38900 16.02900 28.17600
C  43.44000 15.32300 27.40300
C  42.37300 14.94800 28.25000
C  42.63600 15.49300 29.53700
C  43.96400 16.00600 29.49700
C  41.12200 14.34600 27.78800
C  42.06800 15.63100 30.84900
O  41.01600 15.33400 31.32800
C  43.26600 16.28700 31.77400
C  42.70100 17.46600 32.61800
O  42.84400 18.64800 32.31900
O  42.07000 17.01800 33.80500
C  41.71600 18.01300 34.87100
H  49.03700 19.54600 29.89900
H  48.26600 17.58900 23.78800
H  42.94000 14.40000 25.62500
H  45.47900 18.61100 32.59000
H  48.29300 18.52700 32.07500
H  46.28700 20.51600 32.28700
H  47.29300 20.89400 30.77500
H  48.00600 20.75400 32.44800
H  47.55200 16.35500 32.54400
H  45.94600 16.05000 33.15800
H  48.22200 17.65100 34.40100
H  47.16800 16.59900 35.26800
H  50.63900 20.41300 28.82600
H  50.89400 21.16100 27.28700
H  51.68100 19.57200 27.95700
H  52.24000 20.29900 23.86100
H  52.51600 19.77400 25.48700
H  51.49400 21.15500 25.13100
H  46.67400 15.65900 22.75500
H  43.89900 15.23700 23.44200
H  45.80200 17.18700 21.53400
H  45.14100 18.13400 22.88900
H  44.19500 16.78300 22.06400
H  45.36400 12.92900 24.51000
H  46.40900 13.66700 23.37500
H  45.48700 12.56400 21.77300
H  43.83400 13.22200 22.18400
H  44.37000 11.83900 22.91800
H  41.19300 13.28000 28.00600
H  41.16600 14.58200 26.72500
H  40.22000 14.83900 28.15100
H  43.65900 15.59200 32.51700
H  42.36800 18.88700 34.84800
H  41.76300 17.37100 35.75100
H  40.69200 18.33600 34.68300

