79

Mg 41.13100 40.63900 26.78800
C  40.45300 43.33000 28.75400
C  41.89900 38.66700 29.41600
C  42.05200 38.32800 24.54500
C  40.92000 42.89200 23.89700
N  41.27500 40.99500 28.78900
C  40.83800 42.15500 29.41400
C  40.88200 42.00100 30.94000
C  41.24700 40.48900 31.16800
C  41.50600 40.02000 29.73100
C  42.49100 40.40900 32.10800
C  39.54900 42.41700 31.57900
C  39.01400 41.66600 32.88600
H  38.63900 42.53300 34.12100
N  41.86800 38.72300 26.94700
C  42.10200 38.05700 28.12500
C  42.55500 36.79100 27.84000
C  42.61700 36.57600 26.38800
C  42.18700 37.91400 25.90500
C  43.05800 35.83800 28.90400
C  43.15000 35.41800 25.55600
O  43.15400 35.56500 24.34900
C  43.61900 34.08000 26.09500
N  41.68700 40.67300 24.52700
C  41.92300 39.50500 23.83800
C  41.76200 39.72000 22.30500
C  41.03800 41.04300 22.24400
C  41.16700 41.56900 23.62200
C  43.10300 39.59200 21.59200
C  39.60100 40.87500 21.81000
C  38.56500 40.22900 22.79800
N  40.71200 42.70200 26.36800
C  40.72400 43.45100 25.19500
C  40.35700 44.80700 25.52600
C  40.24500 44.80400 26.91000
C  40.59500 43.54100 27.39800
C  39.98200 45.90600 24.57900
C  39.94400 45.69300 28.05400
O  39.52400 46.88900 28.17000
C  40.10400 44.71400 29.26500
C  41.15200 45.24100 30.08700
O  42.30600 44.95400 30.07000
O  40.58300 46.01100 31.06300
C  41.60900 46.34300 32.08700
H  42.05200 38.03200 30.29200
H  42.08700 37.57300 23.75700
H  40.68700 43.52900 23.04100
H  41.64500 42.67900 31.32300
H  40.40800 39.93400 31.58700
H  43.16300 41.26200 32.01200
H  43.07400 39.51500 31.88500
H  42.11400 40.42800 33.13000
H  38.82200 42.30100 30.77600
H  39.59800 43.50000 31.69500
H  39.88300 41.11100 33.23800
H  38.24500 40.93300 32.64300
H  43.19600 34.80300 28.58900
H  42.34000 35.87200 29.72300
H  44.02200 36.28000 29.15700
H  43.91400 33.42400 25.27600
H  42.82300 33.60800 26.67100
H  44.43100 34.21000 26.80900
H  41.08800 38.96800 21.89400
H  41.56600 41.72800 21.58200
H  43.84500 40.05800 22.24000
H  43.03200 40.18300 20.67900
H  43.25300 38.53200 21.38700
H  39.46700 40.40500 20.83600
H  39.26100 41.90200 21.67100
H  39.17300 39.76700 23.57600
H  37.82600 39.57400 22.33700
H  37.98100 40.94100 23.38200
H  39.32600 46.67700 24.98200
H  39.66000 45.70200 23.55800
H  40.92800 46.43200 24.45400
H  39.16900 44.69900 29.82500
H  42.02800 45.38400 32.39100
H  41.19700 46.84200 32.96500
H  42.41500 46.94300 31.66500

