79

Mg 35.73800 0.99800 29.93400
C  33.34600 1.92500 32.28500
C  38.12800 0.95400 32.40400
C  38.03800 0.34500 27.50400
C  33.32000 1.57800 27.36000
N  35.74300 1.51300 32.06900
C  34.62800 1.72300 32.77800
C  35.05300 1.78500 34.31700
C  36.60600 1.83600 34.27400
C  36.86000 1.43400 32.80000
C  37.23600 3.23000 34.67100
C  34.33300 0.59000 35.13700
C  34.43700 0.63000 36.66900
H  34.66900 2.03500 37.27800
N  37.73700 0.45900 29.98500
C  38.54400 0.48500 31.14500
C  39.81600 -0.03100 30.75800
C  39.89200 -0.09700 29.31600
C  38.47200 0.24200 28.80700
C  40.82900 -0.44700 31.84900
C  41.07700 -0.42600 28.45800
O  40.95800 -0.54000 27.26400
C  42.45000 -0.68900 29.03400
N  35.67800 1.15600 27.70100
C  36.75900 0.68600 27.01100
C  36.50100 0.83200 25.50400
C  34.93200 1.15600 25.39300
C  34.58500 1.31300 26.88600
C  37.42800 1.79600 24.65400
C  33.93800 0.07900 24.79300
C  33.10600 0.57700 23.51500
N  33.76700 1.55900 29.78900
C  32.93800 1.72500 28.71200
C  31.65000 2.02600 29.16800
C  31.71800 2.13500 30.53100
C  33.04600 1.88500 30.91000
C  30.38100 2.17000 28.38200
C  30.96200 2.46900 31.74400
O  29.79900 2.80500 32.01500
C  31.99700 2.24200 32.96400
C  32.02800 3.58400 33.60400
O  32.72000 4.56100 33.28000
O  31.30700 3.65100 34.77800
C  31.23300 4.86700 35.67000
H  38.83100 0.99300 33.23900
H  38.77300 0.16500 26.71700
H  32.50900 1.77200 26.65400
H  34.60600 2.68300 34.74300
H  36.96000 1.02200 34.90500
H  37.76600 3.05500 35.60700
H  36.49700 4.02200 34.79000
H  37.96100 3.47500 33.89400
H  34.88800 -0.33400 34.98000
H  33.31000 0.54100 34.76300
H  35.24800 0.06900 37.13400
H  33.49000 0.17600 36.96200
H  41.14700 -1.46500 31.62600
H  40.60300 -0.46500 32.91500
H  41.72400 0.17000 31.76700
H  43.08700 -1.02500 28.21600
H  42.31300 -1.49100 29.75900
H  42.75800 0.26100 29.47200
H  36.61300 -0.17700 25.10900
H  34.78400 2.12000 24.90500
H  37.80800 1.27000 23.77800
H  38.26900 2.07100 25.29200
H  37.02200 2.76100 24.35100
H  33.19100 -0.17400 25.54500
H  34.32300 -0.91700 24.57600
H  33.29400 1.63600 23.33700
H  32.06100 0.36100 23.73600
H  33.47600 -0.01200 22.67500
H  30.67100 2.35000 27.34700
H  29.94700 3.07800 28.80100
H  29.69000 1.33700 28.51100
H  31.59400 1.49300 33.64600
H  31.07400 5.70600 34.99200
H  32.21200 4.93000 36.14400
H  30.40900 4.70900 36.36600

