79

Mg -1.05400 33.96900 26.91500
C  -2.99500 32.48700 29.52900
C  0.39900 36.01300 29.22500
C  0.40900 35.76300 24.29300
C  -2.94400 32.24000 24.59000
N  -1.33900 34.33600 29.16700
C  -2.09100 33.57200 30.01000
C  -2.00700 34.03900 31.44200
C  -1.03000 35.25100 31.34600
C  -0.62200 35.25200 29.82400
C  -1.65700 36.65400 31.80600
C  -1.52500 32.91700 32.42900
C  -2.49000 32.51300 33.64800
H  -1.84400 32.25100 35.02500
N  0.34700 35.49100 26.80000
C  0.84400 36.14600 27.90600
C  1.88200 37.13400 27.42200
C  1.75900 37.13600 26.02800
C  0.84900 36.08700 25.60200
C  2.80200 37.86200 28.30400
C  2.43700 38.14400 24.99800
O  2.20900 38.16100 23.82300
C  3.52900 39.01000 25.52500
N  -1.23400 34.04800 24.85400
C  -0.57700 34.84800 23.96100
C  -0.97300 34.57200 22.43500
C  -1.73100 33.20700 22.56500
C  -1.99400 33.17100 24.08600
C  -1.61400 35.81000 21.76200
C  -0.95400 32.02700 22.02400
C  0.27400 31.61600 22.87000
N  -2.59300 32.59500 26.99300
C  -3.23600 31.97700 25.96000
C  -4.13900 30.96400 26.44100
C  -4.13500 31.22100 27.88000
C  -3.11400 32.12600 28.11400
C  -5.10900 30.14800 25.68700
C  -4.78000 30.78900 29.09500
O  -5.68100 29.97900 29.22700
C  -4.02600 31.58700 30.30000
C  -5.03900 32.41900 30.94000
O  -5.66700 33.34200 30.42100
O  -5.35100 31.95200 32.09500
C  -6.38100 32.65200 32.93800
H  0.90500 36.58500 30.00500
H  0.82300 36.37800 23.49100
H  -3.45300 31.68900 23.79700
H  -2.97700 34.37100 31.81100
H  -0.21700 35.02000 32.03400
H  -2.73800 36.55200 31.90800
H  -1.33900 37.46700 31.15400
H  -1.28700 36.93600 32.79200
H  -0.59300 33.14000 32.94800
H  -1.36900 32.04900 31.78800
H  -2.95500 31.56600 33.37300
H  -3.31500 33.22600 33.66500
H  2.56700 38.92500 28.35500
H  3.82500 37.65500 27.98800
H  2.76400 37.41900 29.29900
H  3.15300 39.70500 26.27600
H  4.06300 39.43900 24.67700
H  4.22000 38.35300 26.05500
H  -0.02400 34.42100 21.91900
H  -2.65900 33.30900 22.00200
H  -0.78200 36.09200 21.11800
H  -1.77200 36.65600 22.43100
H  -2.53200 35.51400 21.25400
H  -0.63200 32.10900 20.98600
H  -1.64100 31.18100 22.03300
H  0.29700 32.40100 23.62600
H  1.17000 31.69600 22.25500
H  0.13400 30.67800 23.40700
H  -5.17700 30.39400 24.62800
H  -6.09700 30.30500 26.12100
H  -4.87900 29.12700 25.99400
H  -3.63200 30.81000 30.95500
H  -7.22200 33.13700 32.44400
H  -5.81400 33.38100 33.51600
H  -6.67000 31.77200 33.51300

