79

Mg 0.53700 7.52900 26.03100
C  1.24700 9.40800 28.84800
C  0.30200 4.76600 28.09000
C  0.29200 5.57100 23.31400
C  1.29100 10.32500 24.04800
N  0.88800 7.17200 28.25400
C  1.10600 8.07000 29.21800
C  0.99200 7.50600 30.64700
C  0.89200 5.96900 30.31500
C  0.61700 5.99100 28.79200
C  2.08200 5.02400 30.61800
C  -0.28200 8.08300 31.35200
C  -0.30600 8.04400 32.89800
H  0.93700 7.62100 33.69400
N  0.17900 5.39700 25.75200
C  0.13600 4.47500 26.73500
C  -0.20000 3.23800 26.11000
C  -0.04600 3.40100 24.68500
C  0.14400 4.82900 24.52800
C  -0.54000 1.98600 26.94900
C  -0.12700 2.37100 23.55400
O  -0.07000 2.73600 22.34800
C  -0.65400 0.98200 23.91100
N  0.81300 7.82200 24.02800
C  0.52900 6.88300 23.07800
C  0.44900 7.50700 21.66100
C  0.52500 9.11500 21.93900
C  0.99500 9.06300 23.42100
C  1.40000 6.86300 20.60900
C  -0.86100 9.81800 21.82600
C  -0.88100 11.21700 21.08500
N  1.18800 9.52000 26.32200
C  1.46000 10.53400 25.43700
C  1.70200 11.81600 26.17800
C  1.62300 11.40500 27.49100
C  1.26900 10.01700 27.57600
C  1.83900 13.24100 25.64900
C  1.74700 11.77400 28.89400
O  1.98300 12.92500 29.29400
C  1.34900 10.59100 29.78800
C  2.42300 10.55800 30.77600
O  3.59200 10.21200 30.56900
O  1.99700 10.95600 31.95900
C  3.06800 11.26400 32.92600
H  0.15800 3.92400 28.77000
H  0.11100 4.97200 22.42000
H  1.38600 11.09900 23.28400
H  1.94400 7.83100 31.06700
H  -0.01700 5.67500 30.84000
H  2.56200 5.51500 31.46500
H  2.67800 4.87900 29.71700
H  1.62700 4.06000 30.84400
H  -1.12000 7.44400 31.07700
H  -0.47600 9.13500 31.14200
H  -0.99600 7.20300 32.97200
H  -0.66000 9.02900 33.20300
H  -0.11700 1.10000 26.47600
H  -1.62200 1.85400 26.95300
H  -0.10900 2.02600 27.95000
H  -0.94900 0.36400 23.06200
H  -1.57700 1.19900 24.44800
H  0.07100 0.38000 24.46000
H  -0.54900 7.36900 21.24600
H  1.35000 9.55000 21.37500
H  1.81500 5.93400 21.00000
H  2.24300 7.52700 20.42300
H  0.85400 6.61900 19.69700
H  -1.22000 10.01700 22.83600
H  -1.58600 9.20900 21.28600
H  -1.41300 11.05200 20.14800
H  0.15100 11.53000 20.93100
H  -1.38300 11.89300 21.77800
H  1.89400 13.37000 24.56800
H  2.67500 13.74500 26.13300
H  0.93100 13.70400 26.03700
H  0.40800 10.83700 30.27900
H  3.89900 11.79300 32.46000
H  3.35400 10.37500 33.48800
H  2.63300 11.87000 33.72100

