79

Mg 8.57600 4.49800 27.61600
C  9.91400 2.86000 30.40400
C  6.67000 6.45900 29.69400
C  7.27200 5.93400 24.93700
C  10.10000 2.14700 25.52500
N  8.34600 4.60800 29.81800
C  9.04500 3.91700 30.73300
C  8.74300 4.39000 32.18800
C  7.72300 5.57600 31.92500
C  7.50000 5.53700 30.33900
C  6.36300 5.48900 32.65800
C  9.95900 4.72000 33.12600
C  9.77500 5.89500 34.07600
H  10.11700 5.56300 35.50200
N  7.14900 5.98700 27.38400
C  6.49500 6.71200 28.32000
C  5.61700 7.74700 27.74900
C  5.83700 7.55900 26.33500
C  6.79000 6.39900 26.15300
C  4.77800 8.69900 28.52600
C  5.32400 8.38300 25.17300
O  5.44500 8.05700 24.01100
C  4.72100 9.69900 25.47200
N  8.65600 4.06000 25.50700
C  8.10700 4.82600 24.56400
C  8.41400 4.40600 23.11700
C  9.31800 3.21000 23.34900
C  9.45300 3.14600 24.85300
C  7.15900 4.12800 22.34100
C  10.70400 3.27200 22.67200
C  11.15100 1.92500 22.12500
N  9.73300 2.85200 27.87400
C  10.26900 1.99900 26.93400
C  11.04000 0.97200 27.62600
C  11.00500 1.34200 28.98900
C  10.13300 2.41100 29.07900
C  11.71400 -0.19200 27.02200
C  11.44800 0.97400 30.31200
O  12.24500 0.09500 30.54700
C  10.77700 1.99000 31.32200
C  9.94300 1.24900 32.43000
O  8.78600 0.83300 32.34100
O  10.76900 1.23000 33.51500
C  10.09500 0.78700 34.73200
H  6.13200 7.11300 30.38200
H  6.86500 6.42000 24.04700
H  10.64200 1.46300 24.86800
H  8.20000 3.65800 32.78600
H  8.20900 6.52500 32.15300
H  5.46100 5.49300 32.04600
H  6.37300 6.39200 33.26800
H  6.29700 4.64600 33.34500
H  10.85100 4.89100 32.52400
H  10.29600 3.80900 33.62100
H  8.80600 6.39400 34.10900
H  10.37900 6.68400 33.62700
H  5.18800 9.70800 28.51600
H  4.64900 8.30800 29.53500
H  3.78800 8.74900 28.07000
H  5.44200 10.23400 26.08900
H  3.82000 9.37400 25.99200
H  4.43200 10.20300 24.55000
H  8.96300 5.29700 22.81400
H  8.71700 2.32600 23.13700
H  6.32200 3.91500 23.00600
H  7.16000 3.25800 21.68400
H  7.01200 5.07100 21.81400
H  11.45100 3.66300 23.36300
H  10.71900 4.04600 21.90400
H  10.38700 1.15000 22.06700
H  11.96600 1.55900 22.74900
H  11.64500 2.00900 21.15600
H  11.01700 -0.49900 26.24200
H  11.79900 -1.00000 27.74800
H  12.64800 0.05100 26.51500
H  11.57300 2.58600 31.76800
H  9.60200 1.59400 35.27400
H  10.74600 0.36800 35.49900
H  9.33600 0.04500 34.48500

