79

Mg 16.33600 -1.95200 28.42400
C  15.39700 -0.17600 31.31500
C  18.59200 -3.70300 30.48600
C  17.55100 -3.42300 25.80700
C  14.55200 0.34700 26.42200
N  16.92000 -1.98000 30.68600
C  16.46500 -1.08200 31.59500
C  17.25200 -1.25800 32.90500
C  18.26000 -2.44600 32.60600
C  17.91100 -2.73300 31.22800
C  19.76100 -2.13000 32.88600
C  16.21400 -1.61300 34.05000
C  16.43800 -0.83100 35.30700
H  17.87100 -0.29200 35.73700
N  17.74100 -3.40300 28.20800
C  18.51700 -3.98400 29.13200
C  19.19400 -5.10500 28.52400
C  18.84800 -5.13900 27.14500
C  17.98800 -3.96300 26.99200
C  19.99000 -6.07200 29.46500
C  19.33200 -6.08800 26.04600
O  19.06500 -5.92000 24.87500
C  20.22000 -7.11800 26.41500
N  16.15300 -1.56700 26.40000
C  16.72400 -2.35600 25.49000
C  16.63900 -1.68200 24.13600
C  15.69600 -0.47900 24.29800
C  15.36200 -0.57300 25.79700
C  18.08400 -1.34700 23.63000
C  14.49400 -0.53300 23.37000
C  14.87500 -0.61000 21.87900
N  15.16900 -0.28500 28.73300
C  14.38600 0.43300 27.80300
C  13.49800 1.26200 28.55200
C  13.91300 1.13600 29.92000
C  14.89000 0.12500 29.96800
C  12.52500 2.19600 27.91400
C  13.69000 1.63100 31.30800
O  13.00400 2.51700 31.73100
C  14.75300 0.88200 32.17400
C  15.68900 1.90200 32.69900
O  16.62500 2.42100 32.13800
O  15.33000 2.22600 34.00100
C  15.89400 3.49900 34.59000
H  19.16500 -4.35100 31.15400
H  17.94000 -3.97100 24.94700
H  13.98700 1.01900 25.77200
H  17.69300 -0.30900 33.21100
H  18.02100 -3.36800 33.13500
H  20.31100 -2.90000 33.42600
H  19.73300 -1.24200 33.51800
H  20.31700 -1.99200 31.95900
H  16.32000 -2.65300 34.36100
H  15.19700 -1.39900 33.72400
H  16.00800 -1.47200 36.07600
H  15.85700 0.08000 35.16200
H  20.63000 -6.78200 28.94100
H  19.25000 -6.69200 29.97100
H  20.66400 -5.48700 30.09000
H  19.71800 -7.91100 26.97000
H  20.98800 -6.60400 26.99300
H  20.73300 -7.53000 25.54600
H  16.22400 -2.33300 23.36600
H  16.26100 0.43100 24.09900
H  18.70000 -1.16300 24.51000
H  18.13000 -0.51000 22.93300
H  18.52200 -2.16500 23.05700
H  13.94000 0.39700 23.49400
H  13.96300 -1.42700 23.69700
H  15.92000 -0.34700 21.71500
H  14.32400 0.04500 21.20400
H  14.82000 -1.61300 21.45500
H  12.27900 1.80400 26.92800
H  13.04700 3.15300 27.88500
H  11.59700 2.28800 28.48000
H  14.26900 0.43000 33.04000
H  15.75000 4.26000 33.82300
H  16.95800 3.51400 34.82600
H  15.41200 3.64900 35.55600

