79

Mg 1.14200 7.74900 26.76400
C  1.65200 9.81700 29.67700
C  1.40000 5.02900 28.85200
C  1.42500 5.77700 24.10100
C  1.16400 10.55600 24.78700
N  1.45400 7.50200 29.00100
C  1.49600 8.48200 30.03900
C  1.38400 7.83700 31.45300
C  1.57400 6.35200 31.08800
C  1.50300 6.27100 29.55800
C  2.81700 5.61500 31.67100
C  0.03600 8.23100 32.18800
C  0.14600 8.41700 33.69600
H  1.34600 7.80100 34.52700
N  1.18300 5.70700 26.50800
C  1.30400 4.76000 27.47100
C  1.43200 3.42300 26.85100
C  1.32100 3.62300 25.46300
C  1.25900 5.04400 25.25600
C  1.72200 2.09900 27.56900
C  1.20000 2.53500 24.36700
O  0.98900 2.88800 23.21800
C  1.14500 1.05000 24.59500
N  1.09800 8.12600 24.69600
C  1.26300 7.12800 23.81900
C  1.39600 7.72800 22.40300
C  0.84100 9.23600 22.51900
C  1.06300 9.37600 24.05700
C  2.72400 7.48900 21.64800
C  -0.69400 9.37100 22.30000
C  -1.14700 10.49200 21.31800
N  1.41700 9.78700 27.08800
C  1.40900 10.85000 26.14400
C  1.68300 12.09100 26.86200
C  1.74100 11.72000 28.20900
C  1.57000 10.31100 28.34600
C  1.86600 13.46700 26.26100
C  2.08900 12.25300 29.53500
O  2.55600 13.36600 29.83900
C  1.87000 11.03400 30.55300
C  3.00200 11.00700 31.47500
O  3.96300 10.22700 31.31400
O  2.83500 11.89300 32.48000
C  3.73900 11.62400 33.63200
H  1.51700 4.18200 29.53200
H  1.53000 5.21700 23.17000
H  1.15500 11.52000 24.27400
H  2.21300 8.32500 31.96500
H  0.72700 5.84000 31.54500
H  2.34700 4.82700 32.26000
H  3.35300 6.39700 32.20900
H  3.36600 5.13600 30.86100
H  -0.59400 7.34900 32.07100
H  -0.37600 9.15100 31.77600
H  -0.72700 8.16700 34.29900
H  0.25300 9.48800 33.86600
H  0.76200 1.72100 27.92100
H  2.18800 2.29800 28.53400
H  2.41100 1.47200 27.00500
H  2.15200 0.67800 24.78400
H  0.79600 0.46700 23.74300
H  0.54200 0.88900 25.48800
H  0.69600 7.23700 21.72800
H  1.43700 9.92200 21.91700
H  3.16700 8.30000 21.07100
H  2.60000 6.64100 20.97300
H  3.46000 7.04600 22.31900
H  -1.25500 9.58200 23.21000
H  -1.11500 8.45300 21.88900
H  -2.06100 10.22600 20.78600
H  -0.39300 10.74500 20.57300
H  -1.37600 11.40000 21.87500
H  1.63100 13.33800 25.20400
H  2.87300 13.86900 26.37600
H  1.15200 14.13200 26.74600
H  0.86800 11.14900 30.96800
H  3.35200 12.40000 34.29300
H  4.74300 11.86600 33.28200
H  3.73400 10.57400 33.92200

