79

Mg -4.71200 24.96800 25.85000
C  -3.22100 26.51700 28.64100
C  -5.92300 22.58600 27.94100
C  -5.71600 23.24400 23.14000
C  -2.81400 27.18000 23.88900
N  -4.68800 24.71000 27.98900
C  -4.15600 25.49400 28.91900
C  -4.64100 25.18400 30.43100
C  -5.52600 23.86600 30.13100
C  -5.37100 23.67800 28.59000
C  -5.28100 22.61600 31.08300
C  -5.40800 26.38500 30.96300
C  -4.85900 27.16500 32.25800
H  -4.45500 26.20200 33.42600
N  -5.73100 23.14900 25.54600
C  -6.03700 22.28500 26.55300
C  -6.60800 21.03600 25.90600
C  -6.71300 21.28300 24.48400
C  -6.08100 22.62100 24.31400
C  -7.18200 19.88300 26.73100
C  -7.23200 20.32700 23.44600
O  -7.00800 20.49800 22.29900
C  -7.97100 19.10800 23.77800
N  -4.45600 25.32100 23.79000
C  -5.03600 24.43900 22.90900
C  -4.67100 24.95600 21.51200
C  -3.84400 26.28300 21.71500
C  -3.74900 26.38900 23.24500
C  -4.00600 23.88500 20.61000
C  -4.55700 27.55700 21.19700
C  -3.91600 28.15000 19.92000
N  -3.37800 26.67500 26.09200
C  -2.63200 27.36300 25.21900
C  -1.79100 28.32700 25.99500
C  -2.01700 28.02900 27.36500
C  -2.88500 26.95600 27.33700
C  -0.91300 29.44600 25.46100
C  -1.56600 28.31100 28.69500
O  -0.80800 29.08900 29.20900
C  -2.34800 27.29900 29.59500
C  -1.43900 26.37800 30.34400
O  -0.95700 25.31200 29.91800
O  -1.25000 26.91500 31.56900
C  -0.27100 26.24800 32.48900
H  -6.31800 21.80100 28.58900
H  -6.09200 22.84900 22.19500
H  -2.09300 27.72900 23.27900
H  -3.81000 24.82300 31.03700
H  -6.61200 23.94000 30.19400
H  -6.19800 22.21500 31.51400
H  -4.51000 22.76600 31.83900
H  -4.89600 21.82300 30.44200
H  -6.41000 26.07200 31.25800
H  -5.35800 27.14300 30.18100
H  -5.68200 27.76400 32.64700
H  -4.08800 27.90100 32.02600
H  -8.26000 19.95300 26.87200
H  -6.74700 19.88200 27.73100
H  -6.79500 19.01000 26.20500
H  -8.33300 18.75100 22.81400
H  -8.79500 19.37600 24.43900
H  -7.29200 18.31100 24.08000
H  -5.63600 25.20900 21.07400
H  -2.84600 26.27300 21.27600
H  -3.81200 23.00900 21.23000
H  -3.04100 24.25400 20.26400
H  -4.66400 23.63200 19.77900
H  -4.64400 28.35400 21.93500
H  -5.55900 27.33900 20.82800
H  -3.44600 29.12200 20.07400
H  -4.70400 28.18200 19.16800
H  -3.14900 27.44500 19.59800
H  -1.03700 29.57500 24.38600
H  0.11300 29.17100 25.70800
H  -1.10800 30.43500 25.87600
H  -3.02700 27.92100 30.17700
H  0.73000 26.67200 32.40600
H  -0.22100 25.17800 32.28500
H  -0.69400 26.38100 33.48400

