79

Mg 24.81200 -8.98000 46.28700
C  27.10800 -6.77300 44.74400
C  22.25800 -7.78200 44.33900
C  22.95600 -11.65700 47.19500
C  27.68900 -10.75000 47.46100
N  24.72100 -7.54800 44.62500
C  25.74400 -6.64300 44.34300
C  25.21900 -5.66600 43.28800
C  23.70800 -6.00400 43.23600
C  23.52700 -7.15500 44.13400
C  22.89800 -4.79000 43.86300
C  25.99800 -5.91000 42.01900
C  26.33700 -4.62700 41.18700
H  25.69800 -4.58400 39.71600
N  22.82600 -9.56900 45.83300
C  21.92000 -8.94800 45.04900
C  20.68100 -9.61600 45.11900
C  20.91100 -10.84100 45.83700
C  22.28900 -10.70400 46.41300
C  19.45900 -9.10300 44.39000
C  19.95500 -12.04100 46.02700
O  18.84100 -11.99800 45.48700
C  20.24800 -13.26300 46.82700
N  25.25100 -10.88400 47.13400
C  24.31400 -11.80100 47.58900
C  24.92000 -13.08300 48.23700
C  26.42400 -12.79800 48.09700
C  26.50000 -11.40600 47.46300
C  24.49100 -13.36300 49.71900
C  27.25000 -13.81600 47.28600
C  28.72900 -13.99900 47.85000
N  26.88500 -8.75800 46.34800
C  27.89900 -9.52800 46.88300
C  29.20200 -8.84100 46.69000
C  28.87300 -7.71500 46.00300
C  27.50600 -7.76000 45.70100
C  30.49200 -9.44600 47.19600
C  29.50700 -6.49800 45.49700
O  30.65200 -6.07700 45.52700
C  28.30300 -5.79200 44.62200
C  27.99300 -4.54100 45.38200
O  28.43900 -3.41600 45.07000
O  27.19700 -4.76100 46.54200
C  26.81300 -3.56500 47.33700
H  21.49600 -7.27000 43.74800
H  22.44800 -12.41700 47.79200
H  28.59800 -11.27000 47.76800
H  25.38700 -4.69500 43.75500
H  23.25000 -6.33000 42.30200
H  22.04800 -4.51000 43.24100
H  23.50400 -3.88400 43.91000
H  22.44600 -5.06900 44.81400
H  25.38400 -6.48900 41.32900
H  26.95000 -6.42200 42.16000
H  27.38700 -4.33600 41.17800
H  25.91100 -3.78000 41.72500
H  19.39200 -9.57300 43.40900
H  19.44500 -8.02500 44.22700
H  18.59900 -9.34100 45.01500
H  20.42900 -12.87500 47.83000
H  21.10200 -13.74600 46.35200
H  19.41100 -13.96000 46.80600
H  24.55200 -13.89300 47.60600
H  26.86800 -12.59400 49.07100
H  24.09100 -14.37500 49.78900
H  23.69000 -12.66600 49.96400
H  25.19800 -13.19600 50.53100
H  27.26900 -13.51800 46.23800
H  26.70200 -14.75400 47.37500
H  29.44200 -13.39800 47.28600
H  28.97800 -15.05200 47.71100
H  28.92500 -13.64400 48.86200
H  30.63300 -10.36800 46.63300
H  30.53900 -9.59200 48.27500
H  31.22200 -8.68600 46.91400
H  28.57600 -5.54300 43.59700
H  27.69300 -3.05800 47.73200
H  26.26000 -3.94700 48.19600
H  26.21500 -2.91900 46.69500

