79

Mg 28.80700 56.30800 40.55400
C  26.40400 53.95000 39.67800
C  31.14000 54.03900 39.64400
C  31.19500 58.78500 40.18900
C  26.23100 58.71100 40.93100
N  28.69900 54.27500 39.70700
C  27.65100 53.45400 39.46600
C  28.09000 52.11100 38.88100
C  29.56100 52.08100 39.24100
C  29.78900 53.57200 39.50600
C  29.97500 51.22100 40.51900
C  27.68500 51.81600 37.40000
C  28.23600 52.82000 36.30000
H  27.36100 53.41300 35.21800
N  30.98000 56.45200 40.10800
C  31.74800 55.31900 39.78900
C  33.07300 55.74900 39.67300
C  33.12900 57.12500 39.77600
C  31.76900 57.53600 40.03300
C  34.18300 54.68300 39.45800
C  34.33600 57.95400 39.73200
O  35.41300 57.41400 39.55300
C  34.36800 59.38400 40.02900
N  28.70500 58.42600 40.57900
C  29.86400 59.15900 40.58400
C  29.50100 60.59100 40.69700
C  27.96900 60.60200 40.98600
C  27.58700 59.17700 40.85400
C  30.35400 61.44200 41.64700
C  27.12500 61.57200 40.10700
C  26.37000 62.70000 40.82400
N  26.77000 56.37900 40.44600
C  25.80900 57.36900 40.65000
C  24.52400 56.86700 40.54000
C  24.68000 55.51900 40.17200
C  26.07100 55.29400 40.07100
C  23.20100 57.51000 40.84200
C  23.95800 54.28400 39.93000
O  22.70000 54.10600 39.90600
C  25.04600 53.22700 39.49500
C  24.84100 51.90700 40.17500
O  24.62800 50.86700 39.60300
O  25.16900 51.91700 41.47400
C  24.99200 50.65800 42.20600
H  31.88200 53.23900 39.61400
H  31.79600 59.65600 39.92100
H  25.52500 59.53700 41.03700
H  27.71300 51.41600 39.63200
H  30.21000 51.80500 38.41000
H  29.71400 50.16500 40.46200
H  29.68300 51.76700 41.41600
H  31.04200 51.32400 40.71800
H  26.59500 51.79300 37.41200
H  27.97300 50.85800 36.96700
H  28.82500 52.25300 35.58000
H  28.90000 53.55200 36.76000
H  33.71000 53.76800 39.10200
H  34.69000 54.51200 40.40800
H  34.94600 54.92000 38.71600
H  33.78900 59.48600 40.94600
H  33.90700 59.93200 39.20600
H  35.38700 59.76200 40.11600
H  29.57700 60.93500 39.66600
H  27.68600 60.97100 41.97100
H  31.12800 60.82800 42.10700
H  29.76200 61.99800 42.37500
H  30.81400 62.22700 41.04700
H  26.39300 61.07000 39.47400
H  27.79100 61.99000 39.35200
H  25.38600 62.33100 41.11300
H  26.29900 63.46100 40.04600
H  26.90900 63.04900 41.70500
H  22.45600 56.73600 41.02500
H  22.93700 58.02600 39.91900
H  23.28500 58.11700 41.74300
H  24.87700 53.03600 38.43500
H  24.86700 50.85300 43.27100
H  25.81500 49.94800 42.11900
H  24.02600 50.20400 41.98900

