79

Mg 0.77100 44.39900 25.09400
C  2.97100 43.89800 27.66300
C  -1.81700 43.86300 27.24300
C  -1.28100 44.18300 22.35300
C  3.44900 44.95800 22.86100
N  0.61800 43.86900 27.21000
C  1.65500 43.72400 28.10500
C  1.07600 43.74600 29.56000
C  -0.39100 43.49900 29.32900
C  -0.56600 43.86400 27.83700
C  -0.83500 42.03900 29.72100
C  1.27700 45.08100 30.39300
C  1.03000 45.03900 31.89300
H  1.11300 43.66000 32.55200
N  -1.26100 44.09400 24.83400
C  -2.20400 43.99200 25.81300
C  -3.55700 43.93200 25.27700
C  -3.28700 43.89100 23.85200
C  -1.86600 44.09000 23.63600
C  -4.77900 43.69900 26.16600
C  -4.30200 43.52400 22.70300
O  -4.00900 43.40600 21.50400
C  -5.73600 43.19300 23.06900
N  1.10500 44.29800 22.87700
C  0.05200 44.27600 22.00700
C  0.50200 44.55000 20.61500
C  2.12200 44.81300 20.75400
C  2.26100 44.67000 22.26600
C  0.16500 43.57000 19.44600
C  2.64700 46.13700 20.18600
C  2.51300 47.42800 20.89700
N  2.83500 44.32500 25.13800
C  3.79400 44.71200 24.18700
C  5.08900 44.76700 24.87700
C  4.80100 44.43300 26.18700
C  3.45100 44.15800 26.30200
C  6.38400 45.13800 24.26600
C  5.41100 44.23600 27.45900
O  6.59900 44.21500 27.82500
C  4.26200 43.96600 28.49900
C  4.45200 42.60200 28.99400
O  4.47100 41.58200 28.31900
O  4.75400 42.62100 30.32700
C  4.69000 41.31000 30.93900
H  -2.58500 43.54800 27.95300
H  -1.99600 44.37300 21.55000
H  4.27600 45.27600 22.22300
H  1.54700 42.95700 30.14700
H  -1.04500 44.12900 29.93200
H  -1.13900 41.51600 28.81400
H  -1.56800 42.05400 30.52700
H  -0.09200 41.42000 30.22500
H  0.53000 45.83300 30.13600
H  2.23200 45.39300 29.97200
H  0.04800 45.47900 32.07100
H  1.80800 45.66400 32.33100
H  -4.76000 42.61700 26.29800
H  -5.68800 43.98100 25.63400
H  -4.75800 44.10300 27.17800
H  -6.27500 43.09700 22.12700
H  -6.15400 44.02100 23.64300
H  -5.55800 42.26800 23.61800
H  -0.10600 45.45400 20.57800
H  2.68300 43.96600 20.36000
H  -0.76100 43.02800 19.63500
H  1.04000 42.92400 19.36700
H  0.08300 44.06800 18.48000
H  2.22500 46.25400 19.18800
H  3.68400 46.00600 19.87700
H  1.84900 47.40200 21.76100
H  2.13500 48.12200 20.14700
H  3.49500 47.78600 21.20800
H  6.54300 46.21500 24.20100
H  6.30100 44.76800 23.24400
H  7.17800 44.53000 24.70100
H  4.34100 44.54600 29.41900
H  5.48100 41.14100 31.67000
H  4.60600 40.44000 30.28700
H  3.74700 41.24700 31.48300

