79

Mg 35.62500 49.11300 26.11400
C  35.91400 47.15900 29.00300
C  34.59500 51.70000 28.03700
C  34.93900 50.63800 23.35000
C  36.35400 46.17000 24.30500
N  34.95000 49.26800 28.19600
C  35.30500 48.42400 29.24100
C  35.29400 49.16400 30.55900
C  34.42600 50.41300 30.18900
C  34.69700 50.45500 28.72200
C  32.93600 50.32500 30.57700
C  36.71500 49.42300 31.20600
C  36.70300 49.48900 32.76200
H  35.40500 49.58100 33.55500
N  34.94800 50.99900 25.72800
C  34.62500 51.95000 26.66900
C  34.39200 53.22100 25.99500
C  34.47700 52.90300 24.54900
C  34.80200 51.48400 24.45500
C  34.35000 54.53800 26.80100
C  34.32600 53.85000 23.33000
O  34.39600 53.40000 22.19600
C  34.14500 55.30100 23.58300
N  35.76300 48.43400 24.05700
C  35.35600 49.31200 23.14300
C  35.39400 48.68100 21.76600
C  36.02300 47.29400 21.97700
C  36.11200 47.28500 23.52600
C  33.93900 48.57800 21.15900
C  37.40000 47.02300 21.19100
C  38.66500 47.46500 21.88300
N  36.12300 47.07100 26.51700
C  36.41700 46.05800 25.67500
C  36.94500 44.88800 26.40400
C  36.80400 45.29400 27.80500
C  36.26100 46.62300 27.78500
C  37.30600 43.55700 25.79300
C  36.99400 44.83700 29.20100
O  37.42500 43.83900 29.67600
C  36.50500 46.10500 29.97500
C  35.55700 45.63600 31.00500
O  34.40800 45.41200 30.73700
O  36.03400 45.58200 32.29900
C  35.04900 45.32400 33.37200
H  34.51800 52.58900 28.66700
H  34.87100 51.23300 22.43700
H  36.48800 45.23400 23.75800
H  34.74000 48.59600 31.30700
H  34.83100 51.34700 30.57800
H  32.59900 49.29600 30.45500
H  32.29700 51.00700 30.01700
H  32.91300 50.57900 31.63700
H  37.10500 50.29800 30.68600
H  37.34500 48.68000 30.71700
H  37.35600 50.25900 33.17400
H  37.10300 48.49500 32.96200
H  33.32700 54.68400 27.14800
H  34.69200 55.40300 26.23300
H  34.88800 54.41700 27.74100
H  33.99300 55.71900 22.58800
H  35.05600 55.66000 24.06000
H  33.23600 55.40000 24.17600
H  35.87300 49.34800 21.05000
H  35.39500 46.45400 21.68100
H  33.34300 49.33400 21.67000
H  33.41400 47.69800 21.53100
H  33.87400 48.79000 20.09200
H  37.47600 47.37800 20.16300
H  37.43000 45.93500 21.13800
H  39.52100 47.67600 21.24200
H  38.92800 46.64700 22.55400
H  38.50600 48.30600 22.55700
H  37.24500 43.43000 24.71200
H  36.69000 42.86500 26.36800
H  38.33800 43.44200 26.12200
H  37.38200 46.47500 30.50500
H  35.67800 45.13100 34.24200
H  34.29000 44.54800 33.27500
H  34.50700 46.26600 33.44300

