79

Mg 1.17900 -1.98000 43.43100
C  4.60400 -1.64500 42.87500
C  0.52000 0.63700 41.23000
C  -2.06600 -3.04700 43.03900
C  1.90800 -5.23600 44.66300
N  2.44300 -0.72400 42.25800
C  3.78900 -0.75400 42.13100
C  4.24400 0.16300 41.03400
C  2.95300 1.07200 40.84300
C  1.88500 0.33700 41.55500
C  3.17300 2.53600 41.34800
C  4.73200 -0.67400 39.87800
C  6.13400 -0.26500 39.37700
H  6.27700 0.45500 38.01800
N  -0.52000 -1.20600 42.45300
C  -0.60900 -0.05700 41.71500
C  -1.96100 0.16300 41.31600
C  -2.74900 -0.91600 41.77700
C  -1.79600 -1.77900 42.55100
C  -2.33400 1.27600 40.36400
C  -4.25000 -1.17900 41.43400
O  -4.77500 -0.39300 40.63800
C  -5.15100 -2.24800 42.10400
N  0.12400 -3.96300 43.74700
C  -1.26200 -4.03300 43.60400
C  -1.76000 -5.40200 43.95500
C  -0.51900 -6.06200 44.64600
C  0.59700 -5.08000 44.34500
C  -3.03500 -5.53600 44.76100
C  -0.14100 -7.54100 44.27100
C  -0.25500 -8.66200 45.26000
N  2.84200 -3.09300 44.00600
C  2.97600 -4.34000 44.45300
C  4.39100 -4.75500 44.54500
C  5.02700 -3.69500 43.93600
C  4.09700 -2.70200 43.64800
C  4.97800 -6.04200 45.05500
C  6.35800 -3.17600 43.59600
O  7.45000 -3.51500 43.96800
C  6.05200 -1.93200 42.67200
C  6.81100 -0.76800 43.30900
O  7.93000 -0.45500 43.03300
O  6.14300 -0.24200 44.42100
C  6.86500 0.86800 45.14000
H  0.25300 1.40200 40.49800
H  -3.00400 -3.53100 42.76100
H  2.22700 -6.18800 45.09500
H  5.02100 0.80000 41.45600
H  2.74400 1.02100 39.77400
H  3.10200 3.19500 40.48300
H  4.10000 2.72500 41.89100
H  2.38600 2.68000 42.08800
H  3.97500 -0.61500 39.09600
H  4.82800 -1.73900 40.08900
H  6.74900 -1.16400 39.39300
H  6.56300 0.39900 40.12700
H  -1.61800 2.07500 40.55800
H  -3.35100 1.65400 40.46800
H  -2.31000 0.76600 39.40100
H  -6.16600 -1.85400 42.16200
H  -4.86400 -2.41700 43.14200
H  -5.02500 -3.23500 41.66100
H  -1.82700 -5.82900 42.95400
H  -0.63500 -6.09600 45.72900
H  -3.65500 -4.64000 44.73500
H  -2.88300 -5.74400 45.82000
H  -3.59600 -6.42700 44.48100
H  0.87200 -7.55700 43.86800
H  -0.74300 -7.73900 43.38400
H  -0.56700 -8.30100 46.24000
H  0.67100 -9.20900 45.43600
H  -0.98800 -9.38200 44.89400
H  6.06300 -5.94000 45.07700
H  4.74500 -6.80900 44.31700
H  4.60300 -6.26600 46.05400
H  6.33400 -1.98700 41.62100
H  6.27600 1.49100 45.81300
H  7.50200 1.53700 44.56200
H  7.51800 0.33800 45.83400

