79

Mg 1.26900 43.16500 25.57400
C  2.83300 43.51300 28.72900
C  -1.54600 41.98900 27.13400
C  0.13300 42.22400 22.54600
C  4.25600 44.24900 24.12900
N  0.65700 42.84500 27.70100
C  1.44900 43.13700 28.82600
C  0.68700 42.84000 30.10900
C  -0.68500 42.30200 29.61900
C  -0.56400 42.38800 28.04300
C  -0.98400 40.84100 30.06000
C  0.49200 44.09000 30.97500
C  0.57100 43.92600 32.51900
H  0.28700 42.56500 33.12300
N  -0.44100 42.33600 24.93000
C  -1.49600 41.97700 25.70600
C  -2.52300 41.46400 24.89800
C  -2.16700 41.63100 23.51700
C  -0.76400 42.11100 23.57000
C  -3.85300 40.90200 25.45000
C  -2.98200 41.35200 22.32400
O  -2.46400 41.56600 21.25800
C  -4.40900 40.73300 22.31100
N  2.04200 43.29400 23.63100
C  1.42100 42.78000 22.51300
C  2.27500 43.01400 21.28400
C  3.39800 43.97400 21.76800
C  3.23800 43.88800 23.27200
C  2.81700 41.68600 20.67800
C  3.30600 45.44900 21.23900
C  1.96500 46.14300 21.35900
N  3.17200 43.76500 26.23500
C  4.29900 44.14400 25.50500
C  5.36300 44.42000 26.34900
C  4.79700 44.19500 27.68300
C  3.48600 43.82400 27.52800
C  6.77000 44.64700 25.97600
C  5.09800 44.00400 29.05200
O  6.13200 44.03500 29.69500
C  3.79300 43.77200 29.76700
C  4.13900 42.64400 30.71100
O  4.25800 41.43800 30.42000
O  4.28600 43.06000 31.98200
C  4.34300 42.09700 33.16000
H  -2.46200 41.75800 27.68200
H  -0.16300 41.80300 21.58400
H  5.18900 44.52300 23.63200
H  1.38300 42.31000 30.75900
H  -1.53500 42.95500 29.82100
H  -0.26900 40.55500 30.83100
H  -0.87500 40.07300 29.29400
H  -2.00700 40.86100 30.43600
H  -0.35900 44.68000 30.63600
H  1.37500 44.71400 30.83200
H  -0.09700 44.66800 32.95700
H  1.56000 44.20700 32.88000
H  -4.69600 41.30400 24.88700
H  -3.99800 41.22700 26.48000
H  -3.82200 39.81300 25.48200
H  -4.38500 39.86900 22.97500
H  -4.67400 40.52500 21.27400
H  -5.05100 41.52200 22.70200
H  1.76100 43.56400 20.49500
H  4.36000 43.48800 21.60400
H  2.84800 41.82600 19.59700
H  2.09900 40.88200 20.83800
H  3.81300 41.40100 21.01500
H  3.82900 45.39500 20.28400
H  4.03100 45.99300 21.84400
H  1.24100 45.42700 21.74900
H  1.58400 46.41500 20.37500
H  1.95500 47.07000 21.93200
H  6.80800 44.86600 24.90800
H  7.28900 43.73900 26.28000
H  7.11300 45.47600 26.59500
H  3.57400 44.66500 30.35200
H  3.85200 42.41600 34.08000
H  5.36400 41.88900 33.47900
H  4.02100 41.10700 32.83600

