79

Mg 17.06300 -1.15500 27.68400
C  16.32500 1.12000 30.34200
C  18.74400 -3.19600 29.87600
C  17.91700 -2.93500 24.99800
C  15.34700 1.18600 25.57900
N  17.43800 -1.03800 29.88400
C  17.11700 0.01300 30.69500
C  17.66800 -0.34600 32.10500
C  18.58800 -1.62200 31.91200
C  18.22000 -2.01400 30.47700
C  20.07100 -1.33400 32.29600
C  16.58500 -0.35000 33.21400
C  16.91600 0.26100 34.57000
H  18.42900 0.44700 34.98700
N  18.28400 -2.80400 27.49800
C  18.79700 -3.53300 28.50200
C  19.41200 -4.73400 27.91900
C  19.19400 -4.74200 26.47400
C  18.44400 -3.45400 26.25800
C  20.12100 -5.70000 28.79300
C  19.56400 -5.67600 25.36100
O  19.23300 -5.45200 24.16500
C  20.27800 -7.05300 25.68000
N  16.83800 -0.82200 25.57500
C  17.27600 -1.70400 24.62600
C  17.05500 -1.20200 23.19700
C  16.11900 0.10100 23.38400
C  15.98000 0.11200 24.92200
C  18.35600 -0.97900 22.45400
C  14.64700 0.00900 22.73000
C  14.41700 1.06800 21.55100
N  15.98000 0.74300 27.86500
C  15.28200 1.49700 26.99800
C  14.64400 2.60500 27.57700
C  15.09000 2.54500 28.91100
C  15.85900 1.37200 29.05000
C  13.72000 3.70000 26.97400
C  15.03600 3.22500 30.19900
O  14.60800 4.33000 30.45400
C  15.72800 2.24500 31.23100
C  16.66700 3.03600 32.05400
O  17.78400 3.39300 31.74500
O  16.07500 3.43200 33.20400
C  16.90500 4.28200 34.08100
H  19.21800 -3.88500 30.57800
H  18.10700 -3.41200 24.03400
H  14.83200 1.88800 24.92000
H  18.25000 0.56400 32.24600
H  18.32200 -2.38400 32.64500
H  20.32900 -0.29700 32.51100
H  20.67300 -1.51000 31.40400
H  20.30500 -2.07900 33.05600
H  16.38400 -1.38300 33.49900
H  15.62400 0.07600 32.92400
H  16.44300 -0.37200 35.32100
H  16.35100 1.19200 34.51400
H  20.48400 -6.51500 28.16700
H  19.56300 -6.10400 29.63700
H  21.01200 -5.18700 29.15500
H  20.06000 -7.61500 26.58800
H  21.33800 -6.80000 25.65000
H  19.99400 -7.74000 24.88400
H  16.46800 -2.04100 22.82400
H  16.66900 0.98900 23.07300
H  18.18000 -0.04400 21.92100
H  18.42500 -1.82600 21.77200
H  19.11800 -0.93800 23.23200
H  13.92600 0.11700 23.54000
H  14.42300 -0.97300 22.31400
H  14.21100 0.54400 20.61800
H  15.16500 1.85900 21.49500
H  13.53600 1.61500 21.88900
H  12.72500 3.44500 26.60800
H  14.31800 4.02400 26.12200
H  13.63800 4.52200 27.68500
H  14.88100 1.91900 31.83600
H  16.24600 4.56800 34.90100
H  17.20600 5.28000 33.76000
H  17.80300 3.83900 34.51100

