79

Mg 47.87500 25.30000 29.19800
C  48.34600 27.56000 31.77400
C  46.69800 22.98300 31.51200
C  47.63900 23.02500 26.68700
C  49.56200 27.50300 27.02900
N  47.46400 25.30400 31.35900
C  47.67500 26.39400 32.22800
C  47.25700 26.12300 33.68700
C  46.83700 24.59200 33.59700
C  47.01900 24.21100 32.08000
C  47.53900 23.68900 34.61200
C  46.11700 27.07600 34.21700
C  46.34200 27.85400 35.52200
H  46.77300 27.22800 36.89500
N  47.15400 23.27800 29.13500
C  46.71900 22.50100 30.19100
C  46.31500 21.15000 29.70200
C  46.59400 21.19700 28.29400
C  47.10700 22.59400 27.95100
C  45.65200 20.12800 30.53400
C  46.38600 20.05200 27.24500
O  46.81400 20.02500 26.08900
C  45.67400 18.80300 27.64000
N  48.60000 25.23400 27.13000
C  48.28700 24.19700 26.31300
C  48.82300 24.39300 24.90200
C  49.27700 25.98900 24.93000
C  49.14600 26.30200 26.43400
C  49.90200 23.39500 24.40900
C  48.41200 26.98000 24.17300
C  49.23300 27.97700 23.41500
N  48.84900 27.13600 29.31800
C  49.39100 27.91300 28.31700
C  49.90800 29.05100 28.89300
C  49.48000 29.04800 30.26800
C  48.78300 27.83300 30.42600
C  50.62300 30.04100 28.03900
C  49.47000 29.81200 31.57400
O  49.93100 30.92800 31.81100
C  48.71200 28.89100 32.52400
C  49.46100 28.80000 33.77600
O  50.43500 28.14700 34.01900
O  48.97600 29.68800 34.68800
C  49.76800 29.88700 35.88400
H  46.35300 22.25800 32.25200
H  47.32300 22.38400 25.86100
H  50.05900 28.16100 26.31400
H  48.14100 26.25900 34.31100
H  45.77700 24.48600 33.83100
H  48.11500 24.08800 35.44700
H  48.30900 23.18600 34.02700
H  46.83100 22.93900 34.96300
H  45.14600 26.58500 34.28800
H  46.06300 27.85300 33.45500
H  45.41200 28.27200 35.90700
H  46.93400 28.75100 35.33900
H  46.29000 19.24400 30.53900
H  44.80300 19.70100 30.00100
H  45.34900 20.45100 31.53000
H  44.63000 18.92100 27.93000
H  46.23600 18.20800 28.36000
H  45.64900 18.17600 26.74800
H  47.97600 24.28900 24.22400
H  50.34400 25.99400 24.70800
H  50.85600 23.92000 24.38600
H  49.67700 22.85000 23.49100
H  50.00500 22.58600 25.13200
H  47.79900 27.56600 24.85700
H  47.76500 26.58900 23.38800
H  49.21900 27.78700 22.34200
H  50.23300 27.91500 23.84400
H  48.89000 28.99400 23.60900
H  50.76500 30.90300 28.69100
H  49.93000 30.30400 27.24000
H  51.51600 29.54500 27.65800
H  47.76500 29.37100 32.77000
H  49.43500 30.82900 36.31900
H  50.85500 29.81000 35.93200
H  49.53200 29.09800 36.59800

