79

Mg 9.58600 48.11200 26.38500
C  7.68600 47.86800 29.24700
C  12.33800 49.08200 28.22100
C  11.25200 48.54500 23.45900
C  6.73400 47.28800 24.50100
N  9.89000 48.47900 28.52600
C  9.04300 48.24700 29.52900
C  9.67600 48.51400 30.86800
C  11.12200 49.10400 30.51900
C  11.13600 48.89600 28.98300
C  11.44000 50.60200 30.98800
C  9.77300 47.40400 32.02000
C  10.56400 47.70800 33.24000
H  9.95300 47.45000 34.61400
N  11.53300 48.63400 25.86500
C  12.51600 48.96700 26.80700
C  13.72500 49.08400 26.11500
C  13.45800 48.99200 24.69400
C  12.00600 48.69100 24.60500
C  15.07300 49.39500 26.82300
C  14.44400 49.11500 23.50600
O  14.07700 49.26100 22.34100
C  15.92400 49.06100 23.72900
N  9.02100 48.18100 24.23000
C  9.93700 48.40100 23.25400
C  9.33100 48.22500 21.89300
C  7.95900 47.59700 22.22000
C  7.89500 47.58800 23.75500
C  9.30600 49.57400 21.16500
C  7.70200 46.18200 21.53700
C  7.84500 44.88600 22.39300
N  7.52200 47.88000 26.71400
C  6.54000 47.48100 25.85400
C  5.27600 47.21000 26.56900
C  5.69200 47.31200 27.94600
C  7.09600 47.66600 27.97000
C  3.91300 46.76600 26.10700
C  5.18800 47.26300 29.30400
O  4.05500 47.14100 29.80900
C  6.54600 47.52300 30.19900
C  6.74500 46.25600 30.97200
O  7.49400 45.35600 30.55100
O  6.09700 46.38500 32.18600
C  6.24000 45.07400 32.99800
H  13.11200 49.43500 28.90600
H  11.77600 48.58300 22.50200
H  5.81200 47.06400 23.96100
H  8.96200 49.29100 31.14200
H  11.98400 48.49700 30.79500
H  12.26500 50.65400 31.69900
H  10.61100 51.18000 31.39500
H  11.80000 51.26800 30.20400
H  9.97700 46.39200 31.67100
H  8.76900 47.27200 32.42500
H  10.90000 48.74500 33.21400
H  11.37500 46.98600 33.14400
H  15.57700 48.43000 26.76700
H  15.00300 49.61100 27.88900
H  15.62300 50.19100 26.32200
H  16.29700 49.77400 24.46500
H  16.37500 49.12300 22.73900
H  16.20500 48.04900 24.02100
H  9.94200 47.52700 21.32200
H  7.08100 48.16800 21.91900
H  8.27700 49.77600 20.86700
H  9.97800 49.58500 20.30700
H  9.53700 50.47800 21.72900
H  8.31200 46.12700 20.63500
H  6.66300 46.12600 21.21000
H  8.63600 44.30600 21.91800
H  6.89300 44.35800 22.34000
H  8.08300 45.10700 23.43300
H  3.89600 46.79900 25.01800
H  3.27100 47.53100 26.54400
H  3.71400 45.79000 26.55000
H  6.35700 48.30000 30.94100
H  5.29100 44.54200 32.94900
H  6.35500 45.23000 34.07100
H  6.89800 44.29700 32.60800

