79

Mg 47.72500 16.09700 27.28500
C  45.90600 16.48400 30.22700
C  50.22800 17.85500 28.97200
C  49.23200 16.50800 24.42900
C  44.72400 15.00900 25.71500
N  47.98900 17.24100 29.38500
C  47.12600 17.04700 30.40800
C  47.69800 17.64900 31.73900
C  49.02200 18.31800 31.19800
C  49.08200 17.79900 29.76200
C  49.20100 19.78500 31.43100
C  48.01700 16.50300 32.78300
C  48.18500 16.99400 34.26400
H  47.83000 18.46800 34.62600
N  49.62600 16.88800 26.78500
C  50.51900 17.53400 27.58000
C  51.68400 17.88500 26.80800
C  51.40800 17.56200 25.46100
C  50.02900 16.96100 25.48800
C  52.86900 18.56200 27.38600
C  52.16300 17.73600 24.07000
O  51.75100 17.31100 22.97700
C  53.39300 18.55600 24.01100
N  47.02000 15.74800 25.31700
C  47.91800 15.96400 24.33600
C  47.29000 15.57700 22.96600
C  45.84200 14.99400 23.34200
C  45.84500 15.18500 24.86700
C  47.20700 16.76000 21.98800
C  45.55000 13.59100 22.80600
C  45.90300 12.34100 23.69400
N  45.80000 15.74300 27.78600
C  44.65300 15.27300 27.09500
C  43.56000 14.99800 27.98100
C  44.03200 15.44000 29.17500
C  45.37100 15.95200 29.02900
C  42.13700 14.48500 27.66000
C  43.63000 15.62800 30.56500
O  42.53500 15.42900 31.09300
C  44.89500 16.27900 31.38100
C  44.32300 17.36300 32.20300
O  44.26300 18.50200 31.83300
O  43.97700 16.95000 33.48700
C  43.47100 18.04200 34.29600
H  51.09100 18.25700 29.50700
H  49.74600 16.46700 23.46700
H  43.83800 14.54600 25.27700
H  47.00000 18.41200 32.08000
H  49.88700 17.91300 31.72400
H  48.20800 20.16400 31.67100
H  49.61700 20.39100 30.62600
H  49.80100 20.05900 32.29800
H  48.93600 15.98200 32.51700
H  47.22600 15.75300 32.79400
H  49.16600 16.80400 34.69900
H  47.59900 16.28300 34.84600
H  52.97000 19.60500 27.08600
H  53.77000 17.98700 27.17000
H  52.94700 18.70100 28.46500
H  53.95400 18.43300 23.08500
H  54.09500 18.43700 24.83600
H  53.03500 19.57900 23.89000
H  47.99000 14.85900 22.53800
H  45.12500 15.74700 23.01400
H  47.63900 17.63100 22.48000
H  46.22500 16.90100 21.53800
H  47.95300 16.47600 21.24500
H  46.06800 13.59900 21.84700
H  44.49500 13.50700 22.54500
H  46.37300 11.62300 23.02200
H  44.93500 11.94000 23.99500
H  46.52500 12.63900 24.53900
H  41.41000 15.21800 27.30800
H  41.76500 14.03300 28.58000
H  42.09400 13.64500 26.96700
H  45.01300 15.40900 32.02700
H  42.66100 18.65100 33.89500
H  44.19500 18.78300 34.63400
H  43.18600 17.55900 35.23100

