79

Mg 24.83000 -6.90300 47.85600
C  27.41900 -5.01900 46.41200
C  22.79400 -5.85800 45.26700
C  22.74300 -9.56200 48.50600
C  27.34100 -8.50500 49.92200
N  25.13900 -5.61500 46.00000
C  26.25200 -4.88200 45.71300
C  25.95500 -3.86800 44.60100
C  24.37800 -3.97900 44.40600
C  24.04500 -5.15200 45.30900
C  23.53400 -2.71800 44.74800
C  26.73700 -3.95200 43.23900
C  26.96200 -2.67500 42.42200
H  25.93800 -2.27300 41.39000
N  22.95600 -7.51300 47.16000
C  22.32100 -6.97800 45.98200
C  21.03500 -7.55300 45.83900
C  21.04700 -8.69500 46.78200
C  22.26200 -8.67300 47.54100
C  19.88700 -7.14200 44.90600
C  19.87300 -9.69800 46.89500
O  19.00700 -9.67300 46.01000
C  19.70300 -10.71300 47.88400
N  24.97400 -8.59200 49.22300
C  23.92700 -9.52100 49.31000
C  24.39200 -10.76600 50.10500
C  25.73100 -10.37000 50.66600
C  26.11600 -9.15300 49.82700
C  23.34700 -11.21000 51.11500
C  26.82100 -11.51800 50.56900
C  26.32200 -12.97900 50.63000
N  26.92200 -6.70000 48.27500
C  27.75200 -7.34700 49.19500
C  29.09400 -6.81400 49.05100
C  28.98000 -5.77200 48.02900
C  27.70400 -5.89000 47.49300
C  30.19800 -7.16000 49.92100
C  29.70700 -4.77100 47.29900
O  30.84000 -4.41800 47.47000
C  28.75900 -4.23200 46.23900
C  28.72200 -2.78500 46.23700
O  29.46100 -2.06100 45.55600
O  27.91400 -2.23700 47.16900
C  27.84400 -0.79000 47.12800
H  22.03400 -5.45900 44.59300
H  22.11100 -10.44000 48.65500
H  28.19300 -8.90700 50.47500
H  26.11700 -2.88300 45.03700
H  24.16900 -4.35800 43.40600
H  22.86700 -2.88400 45.59300
H  22.85300 -2.34000 43.98500
H  24.17100 -1.87900 45.03100
H  26.18800 -4.56300 42.52300
H  27.67800 -4.39000 43.57200
H  27.99100 -2.75400 42.07000
H  26.84200 -1.78400 43.03800
H  19.13600 -6.51400 45.38500
H  19.40300 -7.97600 44.39900
H  20.24800 -6.49300 44.10800
H  18.68100 -11.04100 48.07600
H  19.92400 -10.36800 48.89400
H  20.38000 -11.56000 47.77300
H  24.52700 -11.56500 49.37600
H  25.75800 -9.93500 51.66500
H  23.67100 -11.21000 52.15600
H  23.05100 -12.22400 50.84700
H  22.39400 -10.68300 51.15000
H  27.72200 -11.39100 51.16800
H  27.10100 -11.48100 49.51600
H  25.54600 -13.14700 51.37700
H  27.18900 -13.56600 50.93500
H  26.03600 -13.24000 49.61100
H  30.31400 -8.23100 50.08700
H  30.01200 -6.73600 50.90700
H  31.07100 -6.75100 49.41200
H  29.23900 -4.51700 45.30200
H  28.87300 -0.43000 47.14900
H  27.16000 -0.42000 47.89100
H  27.45500 -0.37500 46.19800

