79

Mg -9.78900 39.07800 41.69400
C  -9.05900 35.67800 41.28600
C  -6.76900 39.91200 40.88000
C  -10.89200 42.32900 41.57900
C  -13.15500 38.10800 42.10300
N  -8.22100 37.94200 40.85700
C  -8.05500 36.61400 40.83900
C  -6.70800 36.23200 40.20200
C  -5.90900 37.55900 40.49700
C  -7.02100 38.55100 40.82600
C  -4.79900 37.49800 41.59100
C  -6.74400 35.55900 38.81200
C  -5.35100 34.94200 38.43100
H  -4.54500 35.51500 37.25000
N  -8.93200 40.87200 41.28900
C  -7.71600 41.03100 40.97400
C  -7.33200 42.41500 40.95800
C  -8.51000 43.19000 41.22000
C  -9.54700 42.17000 41.38100
C  -6.00400 42.95500 40.61900
C  -8.64300 44.74100 41.16600
O  -7.70700 45.42500 40.84800
C  -9.90800 45.51400 41.49300
N  -11.73700 40.09400 41.66300
C  -11.84200 41.40700 41.89500
C  -13.27300 41.88100 42.20600
C  -14.03600 40.52500 42.25100
C  -12.92800 39.50700 41.90300
C  -13.58200 42.84400 43.43200
C  -15.27500 40.33100 41.35100
C  -16.60700 39.97800 42.09400
N  -10.92000 37.24300 41.87900
C  -12.24000 37.01100 42.13000
C  -12.42700 35.54700 42.34500
C  -11.19000 34.99100 42.11300
C  -10.30700 36.05400 41.71800
C  -13.73600 34.86000 42.73300
C  -10.40800 33.79800 42.07200
O  -10.67800 32.70200 42.47800
C  -9.02400 34.24200 41.47100
C  -7.87300 33.90500 42.31800
O  -7.47200 34.54500 43.27400
O  -7.14700 32.87500 41.69000
C  -5.73500 32.77500 42.07700
H  -5.80100 40.38000 40.68800
H  -11.22300 43.35600 41.41200
H  -14.17100 37.79300 42.35200
H  -6.34600 35.41000 40.82000
H  -5.50100 37.81800 39.52000
H  -4.93100 38.18100 42.43000
H  -3.85000 37.75500 41.11900
H  -4.70200 36.50800 42.03600
H  -7.01400 36.28200 38.04200
H  -7.48900 34.76400 38.80500
H  -5.65700 33.91200 38.24500
H  -4.66800 34.73800 39.25600
H  -5.29000 42.29400 40.12800
H  -5.54800 43.38000 41.51300
H  -6.16400 43.74100 39.88100
H  -10.32600 45.10900 42.41400
H  -10.52900 45.28900 40.62600
H  -9.84200 46.59200 41.63800
H  -13.59100 42.42400 41.31600
H  -14.28000 40.32000 43.29400
H  -14.21900 43.64600 43.05900
H  -12.63900 43.28400 43.75900
H  -14.02600 42.46100 44.35100
H  -15.11100 39.47900 40.69100
H  -15.35900 41.31700 40.89200
H  -17.10000 40.94500 42.19500
H  -16.46900 39.61900 43.11400
H  -17.22600 39.27700 41.53400
H  -14.38800 35.45300 43.37400
H  -13.55900 34.00400 43.38300
H  -14.32000 34.48700 41.89200
H  -8.88000 33.76600 40.50100
H  -5.06800 32.26900 41.37900
H  -5.70900 32.12500 42.95200
H  -5.31400 33.73500 42.37700

