79

Mg 47.63400 16.71700 29.07900
C  45.55800 16.22200 31.93700
C  49.95200 18.16300 31.04800
C  49.31700 17.39900 26.24000
C  44.78600 15.68200 27.13000
N  47.62200 17.12800 31.21600
C  46.73800 16.86500 32.23500
C  47.32500 17.20500 33.58900
C  48.46300 18.17800 33.16200
C  48.75700 17.78700 31.73100
C  48.21000 19.69300 33.35500
C  47.70900 15.85900 34.25100
C  47.49500 15.87100 35.71800
H  47.31000 17.26200 36.35400
N  49.33700 17.67300 28.73100
C  50.20300 18.21500 29.64800
C  51.32700 18.86100 29.00900
C  51.06600 18.65800 27.58600
C  49.83200 17.94700 27.45100
C  52.44200 19.38200 29.84600
C  51.88200 19.13200 26.40200
O  51.58400 19.09500 25.25700
C  53.22100 19.77500 26.68700
N  47.16900 16.54000 27.01800
C  48.06200 16.82300 26.06200
C  47.49400 16.54700 24.69600
C  46.04500 16.07100 24.95600
C  45.98200 16.06100 26.45600
C  47.57000 17.76000 23.75500
C  45.71200 14.73500 24.30600
C  44.53100 14.77200 23.28000
N  45.62300 15.90000 29.41000
C  44.63400 15.56100 28.59000
C  43.43600 15.13900 29.38400
C  43.81300 15.37000 30.68300
C  45.07600 15.91700 30.64000
C  42.15600 14.54300 28.93900
C  43.33900 15.21300 32.05200
O  42.37800 14.66500 32.46200
C  44.40200 15.89500 32.91700
C  43.69100 17.02600 33.62400
O  43.36300 18.08700 33.09000
O  43.66400 16.86200 35.01200
C  42.98300 17.96100 35.74600
H  50.75000 18.60800 31.64600
H  49.89600 17.45600 25.31600
H  43.90400 15.38700 26.55800
H  46.48000 17.62700 34.13300
H  49.42200 17.92000 33.61100
H  48.99900 20.09600 33.99100
H  47.25700 19.90800 33.83900
H  48.34700 20.25800 32.43300
H  48.73400 15.55000 34.04400
H  47.16800 14.97900 33.90300
H  48.33500 15.34800 36.17400
H  46.75900 15.16700 36.10500
H  52.08600 20.20800 30.46100
H  53.29100 19.71800 29.25200
H  52.70200 18.72100 30.67300
H  53.97700 19.08900 27.06600
H  53.22600 20.57000 27.43300
H  53.49600 20.20800 25.72500
H  48.09500 15.73900 24.28100
H  45.33900 16.81200 24.58200
H  48.38500 17.63400 23.04300
H  47.77100 18.66400 24.32900
H  46.65500 17.94400 23.19100
H  45.49500 14.02900 25.10700
H  46.60300 14.38800 23.78300
H  44.83200 15.11800 22.29100
H  43.82000 15.52000 23.63000
H  44.19600 13.74200 23.15200
H  42.26900 13.46100 28.87300
H  41.92100 14.79800 27.90600
H  41.33400 14.87100 29.57500
H  44.73000 15.24300 33.72600
H  41.91800 17.95600 35.51700
H  43.36400 18.97200 35.60700
H  43.12500 17.67300 36.78800

