79

Mg 46.70700 25.18300 27.45300
C  47.77900 27.36000 30.02600
C  45.73000 23.01300 29.83400
C  46.19000 22.82300 25.03700
C  48.16700 27.22100 25.09900
N  46.86300 25.21200 29.73800
C  47.12300 26.26000 30.57200
C  46.78500 26.01800 32.03500
C  46.35500 24.47400 31.86900
C  46.36100 24.17800 30.38800
C  47.08500 23.36500 32.77300
C  45.77500 27.05100 32.65800
C  44.99900 26.69000 33.89800
H  45.27000 27.59200 35.14400
N  45.98700 23.24700 27.47400
C  45.61700 22.55000 28.55900
C  45.14800 21.22500 28.12900
C  45.13300 21.15500 26.69400
C  45.77800 22.43000 26.34000
C  44.74500 20.14700 29.14700
C  44.64300 20.00200 25.76400
O  44.66300 20.02200 24.52700
C  44.14200 18.73900 26.37700
N  47.18100 25.02100 25.46500
C  46.77700 23.99100 24.58600
C  47.18400 24.21900 23.16700
C  47.97400 25.57500 23.24700
C  47.72900 26.00300 24.66000
C  47.82100 23.04200 22.45900
C  47.49300 26.61800 22.08900
C  48.55300 27.17900 21.18500
N  47.74100 26.91900 27.49300
C  48.18700 27.67300 26.44500
C  48.88700 28.80900 26.93300
C  48.70000 28.78400 28.34100
C  47.97700 27.60800 28.60400
C  49.71800 29.77500 26.13600
C  49.17900 29.39800 29.64900
O  49.91700 30.32400 29.87900
C  48.42100 28.59400 30.68000
C  49.37700 28.22900 31.81600
O  50.25600 27.34800 31.76800
O  48.97700 28.98700 32.87300
C  49.61000 28.72400 34.10900
H  45.32400 22.41700 30.65400
H  45.92000 22.08600 24.27800
H  48.55800 28.01700 24.46200
H  47.75200 25.98500 32.53600
H  45.29200 24.33100 32.05900
H  46.37100 22.72000 33.28500
H  47.66700 23.93000 33.50100
H  47.69100 22.72400 32.13300
H  45.01000 27.32000 31.92900
H  46.39700 27.90600 32.92400
H  45.43600 25.74500 34.22100
H  43.91600 26.61300 33.80400
H  43.67100 20.03500 29.00400
H  44.71900 20.49100 30.18100
H  45.40200 19.28200 29.05400
H  44.94300 18.34400 27.00100
H  43.92700 17.96400 25.64000
H  43.16700 18.81200 26.86000
H  46.26900 24.47600 22.63400
H  49.04200 25.36700 23.31000
H  48.25800 22.32100 23.15100
H  48.57800 23.37600 21.75000
H  47.02400 22.46500 21.99000
H  47.04000 27.52400 22.49000
H  46.69500 26.24200 21.44900
H  49.49300 27.29100 21.72600
H  48.22900 28.12400 20.74800
H  48.77300 26.58200 20.30000
H  49.98800 30.70200 26.64200
H  49.13600 30.08100 25.26700
H  50.65500 29.35600 25.76900
H  47.55000 29.10500 31.09100
H  49.35800 29.63700 34.64900
H  50.68700 28.64900 33.95700
H  49.24600 27.79900 34.55600

