79

Mg 47.00800 16.82600 28.16900
C  45.24100 16.05200 31.03500
C  49.37000 18.54100 30.28700
C  48.64800 17.88400 25.45800
C  44.35800 15.67000 26.21500
N  47.20000 17.35400 30.44400
C  46.38300 16.80200 31.40000
C  46.85600 17.14300 32.79200
C  48.05800 18.16600 32.44000
C  48.30900 17.94400 30.98900
C  47.77700 19.61000 32.82000
C  47.29400 15.95000 33.65900
C  47.97400 16.29100 35.06800
H  48.01600 17.77500 35.61400
N  48.77900 18.00100 27.85600
C  49.59500 18.49500 28.87800
C  50.78300 19.16900 28.21200
C  50.62300 18.92800 26.78400
C  49.31300 18.23900 26.65900
C  51.92100 19.86400 28.89500
C  51.48200 19.44700 25.59900
O  51.15500 19.31700 24.43000
C  52.87500 20.04900 25.84900
N  46.49400 17.02500 26.15200
C  47.38700 17.37200 25.20600
C  46.81700 17.14200 23.79100
C  45.63000 16.23400 24.08000
C  45.43800 16.31200 25.54600
C  46.71200 18.39300 22.89700
C  45.66800 14.69900 23.64800
C  46.31100 13.69200 24.59400
N  45.23500 16.04300 28.50700
C  44.21500 15.49500 27.63700
C  43.18500 14.91400 28.38200
C  43.58500 15.09200 29.68200
C  44.80300 15.83700 29.74300
C  41.82300 14.32500 27.93900
C  43.12700 14.89700 31.01100
O  42.16000 14.34700 31.46200
C  44.06800 15.62000 31.93400
C  43.29400 16.72300 32.55300
O  42.73200 17.56900 31.89300
O  43.27700 16.72100 33.98300
C  42.47600 17.78200 34.52900
H  50.11500 18.88400 31.00800
H  49.22600 18.08900 24.55400
H  43.61300 15.10600 25.65000
H  46.12300 17.64800 33.42200
H  48.97300 17.81000 32.91300
H  47.90200 20.29000 31.97700
H  48.60100 19.72700 33.52400
H  46.84700 19.73100 33.37500
H  48.02900 15.40000 33.07000
H  46.33500 15.43200 33.69100
H  48.97500 15.87200 34.96300
H  47.47500 15.66600 35.80800
H  52.79600 19.21300 28.91400
H  51.64500 20.14300 29.91200
H  52.16700 20.75300 28.31400
H  52.82000 21.04000 26.29900
H  53.41800 20.28800 24.93400
H  53.48600 19.37200 26.44700
H  47.54900 16.48100 23.32600
H  44.80700 16.61300 23.47400
H  47.36400 18.25800 22.03500
H  47.12700 19.15900 23.55300
H  45.69800 18.65800 22.59500
H  46.14600 14.62700 22.67100
H  44.64700 14.34000 23.52700
H  45.44000 13.22100 25.05100
H  46.92900 14.23800 25.30700
H  46.90300 12.86900 24.19200
H  41.32200 14.64300 27.02500
H  41.07000 14.50800 28.70500
H  41.85900 13.24200 27.81900
H  44.31900 14.91100 32.72300
H  43.10200 18.63400 34.79300
H  42.11600 17.32800 35.45200
H  41.55300 18.11500 34.05400

