79

Mg 49.52600 35.64600 27.25300
C  47.56700 34.20400 29.77500
C  50.14300 38.24400 29.32300
C  51.57800 36.84800 24.93300
C  48.45000 33.16700 25.01500
N  48.92100 36.19500 29.37500
C  48.23500 35.33100 30.25600
C  48.41900 35.80800 31.69000
C  48.96900 37.29600 31.48400
C  49.25500 37.29400 29.92400
C  48.04100 38.47000 31.88700
C  49.35900 34.79100 32.51300
C  49.22800 34.89500 34.03600
H  48.19500 35.84400 34.60000
N  50.65300 37.32500 27.14800
C  50.72500 38.37200 28.04100
C  51.70200 39.29800 27.65500
C  52.20600 38.87100 26.37900
C  51.45400 37.67500 26.06700
C  52.01300 40.51100 28.48700
C  53.24700 39.52200 25.50100
O  53.51500 39.09500 24.35200
C  54.00600 40.78700 25.86200
N  49.83200 35.13800 25.21900
C  50.84000 35.73100 24.48100
C  51.09600 34.97400 23.14500
C  50.13600 33.78100 23.26000
C  49.38600 34.08500 24.53000
C  50.90400 35.72800 21.80200
C  50.92300 32.38200 23.26600
C  50.82700 31.44700 22.02200
N  48.28400 34.08100 27.33100
C  47.97000 33.14500 26.32500
C  47.11700 32.10500 26.95200
C  46.94400 32.48000 28.29300
C  47.70100 33.70200 28.47800
C  46.63700 30.84000 26.33100
C  46.31100 32.07300 29.53100
O  45.55700 31.12200 29.76500
C  46.54700 33.25800 30.44300
C  46.77000 32.73000 31.81400
O  47.50900 31.80700 32.16600
O  45.73700 33.21100 32.66200
C  45.74900 32.59300 33.99600
H  50.25000 39.06400 30.03600
H  52.24600 37.24300 24.16400
H  48.18000 32.38100 24.30600
H  47.46400 35.70800 32.20700
H  49.89900 37.36800 32.04800
H  46.99300 38.18000 31.96800
H  48.03200 39.15000 31.03600
H  48.34700 38.84400 32.86400
H  50.36100 35.15800 32.29200
H  49.29200 33.74600 32.20900
H  50.18700 35.02800 34.53700
H  49.00800 33.84800 34.24700
H  52.36600 41.32300 27.85100
H  52.78500 40.27000 29.21700
H  51.14400 40.94400 28.98300
H  54.78800 40.91200 25.11300
H  54.49300 40.76300 26.83700
H  53.33400 41.63100 26.01900
H  52.16200 34.74400 23.17000
H  49.31000 33.81300 22.55000
H  51.16600 36.77500 21.95300
H  49.92500 35.59700 21.34100
H  51.71900 35.23800 21.26900
H  50.48900 31.80500 24.08300
H  51.96900 32.54200 23.52500
H  50.56200 30.45700 22.39300
H  51.79900 31.38700 21.53400
H  50.04700 31.66800 21.29300
H  47.42700 30.13400 26.58700
H  46.54300 31.12000 25.28200
H  45.63600 30.57100 26.66600
H  45.62800 33.84100 30.37800
H  45.53600 31.52400 34.01300
H  45.01700 33.12900 34.60000
H  46.69400 32.64500 34.53600

