79

Mg 9.56600 48.47200 25.95700
C  7.68000 48.40000 28.85100
C  12.14000 49.54300 27.88600
C  11.39300 48.49700 23.14700
C  6.59700 48.01100 24.06700
N  9.88800 48.87700 28.11900
C  8.98900 48.78200 29.10100
C  9.58200 49.33900 30.36100
C  10.91700 49.90100 29.98200
C  10.97700 49.52300 28.52800
C  11.00400 51.44700 30.13800
C  9.74600 48.25700 31.49100
C  9.05800 48.66200 32.82700
H  8.96500 47.54000 33.81800
N  11.53900 48.94200 25.56300
C  12.47100 49.24400 26.51000
C  13.82800 49.35200 25.87800
C  13.56100 48.99900 24.50500
C  12.13300 48.85300 24.35000
C  15.10200 49.61200 26.58400
C  14.54700 48.91800 23.33400
O  14.26200 48.82100 22.17000
C  15.97200 48.94500 23.66500
N  9.13500 48.21700 23.91400
C  10.05100 48.26600 22.95200
C  9.51400 47.75900 21.61000
C  7.98800 47.43200 21.99800
C  7.83500 47.93800 23.40700
C  9.73200 48.73100 20.38900
C  7.73100 45.89400 21.96600
C  8.29600 45.07100 23.11900
N  7.53900 48.22200 26.29100
C  6.46200 48.07000 25.44900
C  5.26100 47.80900 26.24700
C  5.70500 48.01100 27.54600
C  7.07600 48.19500 27.57300
C  3.94400 47.42500 25.69000
C  5.22100 48.02100 28.89200
O  4.06900 47.87400 29.25300
C  6.46400 48.18400 29.83200
C  6.64100 46.89300 30.69500
O  7.25000 45.91100 30.33300
O  6.04900 47.12300 31.83900
C  6.02700 45.99500 32.76500
H  13.05100 49.83800 28.41100
H  12.02000 48.50500 22.25400
H  5.70900 47.93600 23.43700
H  8.93300 50.11400 30.76900
H  11.75100 49.40800 30.48200
H  11.04900 51.87900 29.13900
H  11.96000 51.64100 30.62500
H  10.12400 51.78500 30.68500
H  10.78000 48.14600 31.81700
H  9.37300 47.29100 31.15100
H  8.07600 49.03400 32.53500
H  9.69800 49.39300 33.32100
H  15.41200 50.65500 26.51400
H  15.97600 48.98200 26.41700
H  14.79800 49.38700 27.60600
H  16.20500 48.12500 24.34500
H  16.14100 49.86400 24.22600
H  16.55000 48.87800 22.74300
H  10.07800 46.86100 21.36100
H  7.33600 47.86100 21.23600
H  10.34600 49.59200 20.65300
H  8.76000 49.16900 20.15900
H  10.21700 48.15800 19.59900
H  8.20600 45.45000 21.09100
H  6.65000 45.90400 21.83000
H  9.11900 45.49300 23.69600
H  8.56100 44.07400 22.76600
H  7.44300 44.83900 23.75800
H  4.02200 46.45800 25.19100
H  3.55000 48.22900 25.06900
H  3.24100 47.24000 26.50200
H  6.37800 49.05300 30.48400
H  6.01500 46.62300 33.65600
H  6.92900 45.39000 32.68400
H  5.11400 45.40400 32.83500

