79

Mg -4.93900 25.15000 25.82600
C  -3.17300 26.68700 28.53900
C  -6.15900 22.95200 28.17700
C  -6.58500 23.67400 23.34900
C  -3.43600 27.40600 23.68600
N  -4.85700 25.00900 28.14400
C  -4.04400 25.72000 28.98200
C  -4.40400 25.39400 30.41600
C  -5.13500 24.00600 30.30300
C  -5.31800 23.93600 28.74900
C  -4.44600 22.81700 31.00600
C  -5.12900 26.50100 31.15200
C  -4.74000 26.80900 32.68500
H  -4.47700 25.47400 33.39400
N  -6.15300 23.47000 25.74900
C  -6.51800 22.74800 26.83200
C  -7.47100 21.74900 26.36200
C  -7.68000 21.95200 24.93700
C  -6.81700 23.07100 24.61300
C  -8.08100 20.64300 27.24200
C  -8.48600 21.20500 23.93700
O  -8.38600 21.39400 22.72200
C  -9.24100 20.02600 24.33800
N  -4.75500 25.34200 23.78400
C  -5.63800 24.66000 22.98400
C  -5.70800 25.26200 21.52700
C  -4.71000 26.45100 21.61600
C  -4.27200 26.40200 23.11000
C  -5.37500 24.28000 20.37800
C  -5.25200 27.89200 21.37400
C  -6.20600 28.20500 20.12900
N  -3.52100 26.68400 26.02900
C  -3.04200 27.49500 25.00300
C  -2.08400 28.42400 25.63600
C  -2.14300 28.12400 26.95900
C  -3.01700 27.11100 27.22200
C  -1.28200 29.48800 24.94600
C  -1.63200 28.50700 28.30300
O  -0.88900 29.43200 28.59800
C  -2.30000 27.58300 29.34100
C  -1.27000 26.79900 30.10000
O  -0.35700 26.15600 29.60000
O  -1.37300 26.86200 31.45700
C  -0.44100 26.08700 32.27700
H  -6.64500 22.32300 28.92500
H  -7.23200 23.24400 22.58100
H  -2.93900 28.11300 23.01800
H  -3.44800 25.34300 30.93600
H  -6.10800 24.01800 30.79300
H  -5.13500 22.32600 31.69300
H  -3.48700 22.97500 31.50000
H  -4.23300 22.02200 30.29100
H  -6.19100 26.26600 31.08700
H  -4.94400 27.49200 30.73700
H  -5.61800 27.27900 33.12900
H  -3.89900 27.48500 32.83900
H  -9.17000 20.65500 27.20300
H  -7.91900 20.78900 28.31000
H  -7.69600 19.68300 26.89800
H  -8.47300 19.36500 24.73900
H  -9.61000 19.50000 23.45700
H  -9.96700 20.29700 25.10400
H  -6.72500 25.61200 21.34700
H  -3.86600 26.15700 20.99100
H  -4.62700 23.62200 20.82000
H  -4.99900 24.70100 19.44500
H  -6.16500 23.57800 20.11400
H  -4.38100 28.52200 21.19800
H  -5.81700 28.41500 22.14600
H  -6.39700 27.29000 19.56800
H  -5.67800 28.86900 19.44500
H  -7.14900 28.67200 20.41300
H  -1.89700 29.92700 24.16000
H  -0.45000 29.03800 24.40600
H  -0.89900 30.31800 25.54000
H  -2.82100 28.23900 30.03700
H  0.48300 26.66400 32.33100
H  -0.14700 25.15000 31.80500
H  -0.75000 25.90000 33.30500

