79

Mg -3.06400 17.16400 25.88600
C  -3.28000 14.78500 28.51600
C  -3.74300 19.56800 28.01800
C  -3.04600 19.20200 23.20100
C  -2.73000 14.33300 23.71300
N  -3.54700 17.08900 28.01900
C  -3.45500 16.10700 28.98600
C  -3.67200 16.68300 30.38300
C  -3.75900 18.26200 30.18200
C  -3.75600 18.33600 28.63500
C  -4.83900 18.95900 31.02700
C  -2.73000 16.10500 31.37100
C  -2.17200 16.92300 32.55800
H  -1.81800 16.16900 33.89400
N  -3.48000 19.15400 25.57000
C  -3.67300 19.96400 26.66300
C  -3.64100 21.34700 26.17000
C  -3.19200 21.31600 24.82400
C  -3.25200 19.83100 24.44200
C  -3.94900 22.53900 27.14500
C  -2.83300 22.49900 23.94300
O  -2.36000 22.35700 22.81500
C  -2.87300 23.95800 24.42000
N  -2.80700 16.83900 23.73200
C  -2.99900 17.88200 22.83400
C  -2.71200 17.33300 21.40900
C  -2.84900 15.80300 21.60400
C  -2.68700 15.63700 23.13200
C  -3.46700 17.96800 20.29600
C  -1.87500 14.97900 20.68700
C  -2.66600 14.05100 19.71500
N  -3.02600 15.03500 26.04900
C  -2.85500 14.05400 25.10200
C  -2.84600 12.70200 25.72100
C  -3.03400 12.98200 27.02300
C  -3.13000 14.36900 27.17700
C  -2.64400 11.43500 25.13100
C  -3.19200 12.36200 28.33200
O  -3.17900 11.18400 28.61900
C  -3.40700 13.50900 29.31900
C  -2.42100 13.34000 30.43700
O  -1.24000 13.57900 30.38100
O  -3.06900 12.67400 31.44700
C  -2.27500 12.18600 32.57800
H  -3.82900 20.42900 28.68400
H  -2.95400 19.84200 22.32100
H  -2.60000 13.47100 23.05500
H  -4.66600 16.27500 30.56900
H  -2.81900 18.60700 30.61200
H  -4.67000 19.98200 31.36100
H  -4.97900 18.44800 31.98000
H  -5.73000 18.75900 30.43200
H  -1.83200 15.92400 30.77900
H  -3.05700 15.15700 31.79800
H  -2.83600 17.75100 32.80400
H  -1.22100 17.37600 32.27600
H  -3.00700 22.94800 27.50900
H  -4.60300 22.36600 28.00000
H  -4.44600 23.25400 26.48900
H  -3.88000 24.35200 24.28500
H  -2.20000 24.50200 23.75800
H  -2.50300 24.13400 25.43000
H  -1.70000 17.66200 21.17500
H  -3.89200 15.55200 21.41100
H  -2.79900 18.37500 19.53600
H  -4.03700 18.84600 20.60100
H  -4.11800 17.22200 19.84000
H  -1.37400 14.26800 21.34400
H  -1.16400 15.65200 20.20800
H  -2.55000 12.98500 19.91100
H  -2.20900 14.41600 18.79500
H  -3.70700 14.36900 19.67900
H  -1.94900 11.44400 24.29100
H  -3.58200 11.06900 24.71400
H  -2.30600 10.64200 25.79900
H  -4.44900 13.33300 29.58500
H  -1.53700 12.86900 32.99800
H  -1.80000 11.31600 32.12500
H  -2.93200 11.98700 33.42500

