79

Mg 10.08400 47.36900 25.94800
C  8.21600 47.14200 28.76300
C  12.68900 48.86300 27.62100
C  11.85800 47.28600 23.10600
C  7.16600 46.56200 24.10300
N  10.35100 47.95100 27.99200
C  9.51700 47.66700 29.01800
C  10.12100 48.13000 30.34700
C  11.39500 48.96700 29.84900
C  11.48100 48.62200 28.36500
C  11.23300 50.49800 30.13300
C  10.50100 47.09100 31.42300
C  9.84100 47.14200 32.86600
H  9.93100 45.95100 33.75700
N  12.16100 47.97700 25.40500
C  13.03800 48.39700 26.32700
C  14.32800 48.56700 25.62900
C  14.12500 48.15000 24.26100
C  12.66200 47.78200 24.18700
C  15.55000 49.11100 26.37200
C  15.08900 47.95900 23.13800
O  14.70600 47.47100 22.07000
C  16.55400 48.24900 23.39800
N  9.58900 47.00900 23.82500
C  10.51900 46.93300 22.82400
C  9.90700 46.62700 21.43000
C  8.41300 46.50600 21.79200
C  8.34500 46.79900 23.32600
C  10.15800 47.62100 20.34200
C  7.75400 45.20200 21.34200
C  7.23200 45.19400 19.92200
N  8.09700 46.81800 26.30900
C  7.08200 46.53500 25.47400
C  5.89200 46.32900 26.20100
C  6.31000 46.47500 27.55200
C  7.65300 46.89900 27.52300
C  4.45000 46.26400 25.68300
C  5.85400 46.55000 28.92200
O  4.77200 46.34900 29.41800
C  7.11400 46.97700 29.83400
C  7.40700 45.77900 30.70400
O  8.08300 44.81200 30.39000
O  6.62700 45.79000 31.85100
C  6.69600 44.70500 32.77500
H  13.54100 49.17100 28.23100
H  12.37400 47.02800 22.17900
H  6.24200 46.42800 23.53800
H  9.52300 48.84500 30.91300
H  12.22500 48.46700 30.34900
H  10.67400 51.09300 29.41100
H  12.22700 50.91900 30.28100
H  10.78100 50.58400 31.12100
H  11.57300 47.12400 31.62100
H  10.33400 46.07100 31.07800
H  8.84900 47.59000 32.80300
H  10.51800 47.86300 33.32300
H  16.18900 48.23900 26.51300
H  15.29500 49.51300 27.35300
H  16.10400 49.88000 25.83500
H  16.75900 47.76900 24.35400
H  16.65900 49.28800 23.71100
H  17.23900 48.01100 22.58300
H  10.20100 45.69100 20.95600
H  8.00900 47.36700 21.25900
H  10.02900 48.64500 20.69400
H  9.42700 47.32000 19.59200
H  11.15900 47.34700 20.00900
H  6.95500 44.84600 21.99300
H  8.47300 44.38900 21.43300
H  7.96700 44.79900 19.22000
H  7.06300 46.20200 19.54200
H  6.30900 44.62000 19.99800
H  4.37200 45.55900 24.85500
H  4.17500 47.25900 25.33200
H  3.75800 45.99600 26.48200
H  6.99800 47.89700 30.40600
H  7.17400 45.19400 33.62400
H  7.26000 43.83500 32.44100
H  5.69200 44.47100 33.13100

