79

Mg 0.64200 7.18500 25.33000
C  1.29100 8.99900 28.25800
C  0.98800 4.30100 27.12500
C  0.37300 5.42900 22.38100
C  0.61000 10.17700 23.51700
N  1.15500 6.75500 27.43100
C  1.21500 7.60200 28.45500
C  1.13800 6.99900 29.75400
C  1.36800 5.47400 29.39400
C  1.12300 5.48600 27.86100
C  2.73800 4.92800 29.89900
C  -0.14700 7.24900 30.60100
C  0.01900 7.90200 31.98100
H  1.20100 7.39200 32.79100
N  0.82600 5.18800 24.85500
C  0.81500 4.12400 25.73200
C  0.82400 2.89100 25.06700
C  0.66100 3.15700 23.65900
C  0.57100 4.65600 23.55900
C  0.88400 1.57200 25.81700
C  0.42600 2.22400 22.49500
O  0.47400 2.59500 21.32800
C  0.33800 0.79000 22.75700
N  0.39400 7.71300 23.28300
C  0.26100 6.77200 22.25400
C  0.03500 7.50700 20.90600
C  -0.01500 9.03100 21.36000
C  0.31500 9.00800 22.83600
C  1.26200 7.31600 19.92500
C  -1.44800 9.62500 21.03900
C  -2.60200 9.11000 21.97100
N  0.72600 9.22600 25.75300
C  0.79700 10.32400 24.87800
C  1.17500 11.52800 25.66400
C  1.31300 11.00900 26.98500
C  1.11300 9.57900 27.00500
C  1.20100 12.94300 25.36200
C  1.52900 11.47800 28.36900
O  1.72100 12.59300 28.84100
C  1.53100 10.14900 29.19000
C  2.89200 9.96700 29.91500
O  3.79900 9.23400 29.57300
O  2.84700 10.75400 31.00300
C  3.82500 10.66000 32.15400
H  0.92600 3.39500 27.73200
H  0.45900 4.82600 21.47500
H  0.55300 11.08400 22.91100
H  1.94600 7.42300 30.35000
H  0.53600 4.96300 29.87800
H  3.05300 4.47100 28.96100
H  2.56400 4.11000 30.59900
H  3.48500 5.62400 30.28000
H  -0.82900 6.39900 30.60600
H  -0.73100 8.00200 30.07300
H  -0.86400 7.91200 32.62000
H  0.23100 8.95900 31.82500
H  0.47700 1.64200 26.82600
H  1.93300 1.27700 25.85200
H  0.32800 0.77700 25.31900
H  0.42000 0.29800 21.78800
H  -0.49200 0.29200 23.25900
H  1.20000 0.45800 23.33500
H  -0.89800 7.11300 20.50300
H  0.67500 9.73900 20.90000
H  2.05900 6.74300 20.39800
H  1.72100 8.24100 19.57700
H  0.93200 6.65200 19.12500
H  -1.55900 9.17800 20.05100
H  -1.37900 10.70900 20.94700
H  -3.36100 8.81700 21.24700
H  -2.97000 9.96600 22.53700
H  -2.30600 8.38800 22.73300
H  0.69600 13.16100 24.42000
H  2.23000 13.30000 25.34300
H  0.78600 13.50500 26.19800
H  0.70300 10.26200 29.88900
H  4.66800 11.35000 32.10100
H  4.21800 9.64500 32.10400
H  3.32300 10.59900 33.11900

