79

Mg 36.18900 48.83200 25.06600
C  36.22800 47.56200 28.20500
C  34.68300 51.72700 26.29200
C  35.83300 49.91400 21.89900
C  37.43800 45.74700 23.92500
N  35.68800 49.61700 27.06200
C  35.79300 48.87600 28.26800
C  35.42000 49.73200 29.46600
C  34.99700 51.04200 28.82100
C  35.14300 50.85200 27.30900
C  33.58700 51.64800 29.18200
C  36.64300 49.77900 30.45900
C  36.33300 49.62700 31.93900
H  34.89400 49.84700 32.43500
N  35.41300 50.61000 24.20000
C  34.75200 51.67000 24.87400
C  34.22800 52.59400 23.87000
C  34.49000 52.01600 22.56600
C  35.29500 50.77600 22.87300
C  33.61000 53.81000 24.27100
C  34.03900 52.48000 21.24700
O  34.22700 51.82500 20.26700
C  33.29300 53.74800 21.15000
N  36.52800 47.99800 23.11400
C  36.42200 48.66200 21.95700
C  37.00100 47.83000 20.69500
C  37.65500 46.70100 21.52300
C  37.07300 46.75800 22.95500
C  35.98500 47.34800 19.60400
C  39.19600 46.69100 21.40900
C  39.70600 45.67900 20.42800
N  36.63100 46.97800 25.84800
C  37.18200 45.84000 25.31600
C  37.36700 44.81300 26.34500
C  36.95800 45.43900 27.44600
C  36.61300 46.76700 27.10800
C  37.85300 43.40500 26.13700
C  36.89400 45.21100 28.81200
O  37.27000 44.21900 29.44100
C  36.39800 46.58600 29.39600
C  35.12400 46.36100 30.14500
O  34.04000 46.44000 29.70700
O  35.44500 45.95900 31.36900
C  34.38200 45.82200 32.43100
H  34.09500 52.55300 26.69500
H  35.92700 50.22400 20.85600
H  37.87500 44.78800 23.64000
H  34.60000 49.25700 30.00400
H  35.61900 51.85200 29.20000
H  33.58600 52.71800 29.39300
H  33.18200 51.12400 30.04800
H  33.05100 51.28900 28.30300
H  37.20700 50.66600 30.17200
H  37.35200 48.98700 30.21500
H  37.03900 50.23600 32.50400
H  36.66100 48.63900 32.26200
H  33.86900 54.63200 23.60500
H  33.99800 54.15500 25.22900
H  32.53400 53.69000 24.39500
H  33.92300 54.63400 21.23500
H  32.46500 53.67500 21.85400
H  32.75400 53.85900 20.20900
H  37.70900 48.40500 20.09700
H  37.27600 45.73700 21.18500
H  36.25900 46.35100 19.25900
H  36.01300 48.05800 18.77700
H  35.01700 47.38800 20.10300
H  39.56500 46.47000 22.41000
H  39.55000 47.64100 21.00700
H  38.90600 45.17000 19.89100
H  40.26100 44.90500 20.96000
H  40.29400 46.17900 19.65900
H  38.94200 43.42000 26.10700
H  37.48500 42.91800 25.23400
H  37.57600 42.81600 27.01200
H  37.16800 46.84900 30.12000
H  33.39100 46.21400 32.20300
H  34.77200 46.35400 33.29800
H  34.32900 44.76500 32.69100

