79

Mg 27.26700 50.57000 25.93800
C  25.40900 51.49800 28.56600
C  29.70200 49.40800 27.86100
C  28.94300 49.74300 23.06900
C  24.59700 51.66100 23.80600
N  27.59400 50.57000 28.02800
C  26.62300 50.80400 28.92200
C  27.04200 50.40300 30.35700
C  28.54800 49.98900 30.08200
C  28.69600 50.07800 28.60200
C  29.56400 50.98000 30.63400
C  26.02400 49.29500 30.83000
C  25.51800 49.34900 32.31400
H  26.46000 49.91300 33.39600
N  29.09300 49.65400 25.49600
C  29.88800 49.16700 26.50000
C  31.05400 48.44600 25.88300
C  30.88200 48.64300 24.40500
C  29.60300 49.40500 24.27600
C  32.14900 47.60600 26.64500
C  31.75000 48.15200 23.27800
O  31.44200 48.26000 22.11100
C  33.04400 47.64000 23.65500
N  26.79100 50.63700 23.74400
C  27.71000 50.31800 22.81100
C  27.18100 50.56300 21.32300
C  25.68300 50.82100 21.66400
C  25.67500 51.02000 23.13500
C  27.82700 51.69200 20.50500
C  24.58200 49.78400 21.27000
C  23.45900 50.11600 20.32200
N  25.45200 51.57100 26.15000
C  24.49200 51.90800 25.20600
C  23.36400 52.56600 25.86900
C  23.68500 52.42600 27.21200
C  24.95900 51.80500 27.31600
C  22.18600 53.02400 25.13500
C  23.25100 52.64000 28.58000
O  22.28100 53.19100 29.03800
C  24.32900 52.00000 29.49000
C  24.82500 53.06900 30.41500
O  25.59800 54.06100 30.12600
O  24.10100 52.90400 31.61900
C  24.51300 53.97400 32.53600
H  30.37200 48.89800 28.55700
H  29.44200 49.35500 22.17900
H  23.63500 51.90000 23.34600
H  27.00500 51.30300 30.97100
H  28.80500 49.00300 30.47000
H  29.11000 51.56300 31.43600
H  29.85100 51.63400 29.81100
H  30.37000 50.44800 31.14000
H  26.45800 48.30700 30.66900
H  25.25000 49.29000 30.06300
H  25.28000 48.32800 32.61400
H  24.64500 49.99400 32.41300
H  31.86400 47.55000 27.69500
H  33.03100 48.23100 26.50500
H  32.13500 46.66600 26.09300
H  32.96700 46.59800 23.96400
H  33.35500 48.42500 24.34500
H  33.67300 47.62300 22.76400
H  27.30800 49.69700 20.67500
H  25.38300 51.79100 21.26800
H  28.06000 51.34900 19.49700
H  28.71200 52.07700 21.01200
H  27.28300 52.63200 20.41600
H  24.05300 49.47100 22.17000
H  25.06600 48.86900 20.92900
H  23.64600 51.16000 20.07200
H  22.54200 49.95000 20.88700
H  23.52400 49.43100 19.47700
H  21.65300 52.36600 24.44900
H  22.50500 53.84600 24.49400
H  21.49600 53.25300 25.94700
H  23.87500 51.18800 30.05900
H  24.20200 54.97000 32.22300
H  25.58400 54.01400 32.73300
H  24.00800 53.73100 33.47100

