79

Mg 47.27600 15.81100 28.08300
C  45.20700 15.75800 31.04400
C  49.53500 17.73700 29.71800
C  48.78700 16.34700 25.14100
C  44.57300 14.38800 26.38500
N  47.29100 16.66800 30.15800
C  46.47600 16.43100 31.18600
C  47.11200 16.97100 32.55400
C  48.43300 17.65300 32.04400
C  48.46900 17.27000 30.55800
C  48.54100 19.18400 32.22200
C  47.28100 15.79900 33.54500
C  46.95900 16.06200 35.01100
H  47.17300 17.52200 35.47300
N  49.03700 16.76100 27.51800
C  49.79700 17.55100 28.33000
C  50.94500 18.03000 27.61800
C  50.78200 17.63000 26.23800
C  49.47600 16.88900 26.27900
C  52.06800 18.78200 28.27400
C  51.62700 17.88300 25.01800
O  51.32500 17.41300 23.99700
C  52.90800 18.65200 25.12500
N  46.64600 15.67100 26.04900
C  47.54200 15.75900 25.04000
C  46.97600 15.23400 23.74600
C  45.79400 14.27000 24.24400
C  45.65100 14.85100 25.65400
C  46.52100 16.30100 22.66200
C  46.16300 12.74500 24.21100
C  45.79600 11.99700 22.90300
N  45.28500 15.30700 28.56300
C  44.34600 14.65100 27.73600
C  43.10500 14.40200 28.56200
C  43.45700 14.78500 29.89700
C  44.70400 15.40200 29.81500
C  41.82200 13.83800 28.04600
C  42.90400 14.90800 31.25500
O  41.76800 14.64300 31.63800
C  44.10900 15.43700 32.10100
C  43.66700 16.70700 32.74100
O  43.70500 17.82200 32.23900
O  43.33600 16.44200 34.05400
C  42.87600 17.57700 34.85700
H  50.10200 18.44500 30.32600
H  49.26500 16.37000 24.15900
H  43.86800 13.74400 25.85600
H  46.36000 17.69500 32.86800
H  49.33500 17.22500 32.48300
H  47.63600 19.42500 32.78000
H  48.47200 19.59800 31.21600
H  49.45500 19.49100 32.73200
H  48.34600 15.57600 33.60200
H  46.68500 14.95400 33.19900
H  47.59200 15.36500 35.56000
H  45.91200 15.76100 34.99800
H  51.95800 18.93800 29.34700
H  52.19500 19.75200 27.79200
H  52.98500 18.22600 28.07900
H  52.80900 19.39700 25.91400
H  53.05200 19.17800 24.18100
H  53.67800 17.94900 25.44100
H  47.69400 14.59000 23.23800
H  44.85300 14.42400 23.71700
H  46.62800 17.30500 23.07200
H  45.51500 16.17500 22.26200
H  47.23400 16.11900 21.85800
H  45.68500 12.31700 25.09300
H  47.24600 12.62800 24.22300
H  45.22700 11.15100 23.28900
H  46.59200 11.65900 22.24000
H  45.16900 12.57300 22.22200
H  41.47400 13.00800 28.66100
H  41.85800 13.47600 27.01800
H  41.05900 14.61200 28.13200
H  44.37800 14.63400 32.78800
H  41.82200 17.83000 34.75100
H  43.40400 18.52200 34.73000
H  43.10700 17.40700 35.90900

