79

Mg 29.42100 57.92800 40.43100
C  26.48800 56.05400 39.41700
C  31.34900 55.42700 39.09300
C  31.94800 59.89500 41.00200
C  27.15400 60.59300 41.07000
N  28.87500 56.02700 39.22800
C  27.70500 55.39000 39.02800
C  27.88100 53.96300 38.62700
C  29.38900 53.81200 38.52500
C  29.95100 55.21900 39.02000
C  30.02200 52.57600 39.22500
C  27.15900 53.40700 37.21300
C  26.88400 54.41400 36.11600
H  27.77900 54.34900 34.83900
N  31.41700 57.71800 40.19500
C  32.03800 56.63700 39.51100
C  33.40500 56.88800 39.37200
C  33.64000 58.14000 39.89300
C  32.36700 58.67600 40.44800
C  34.43200 55.90700 38.73200
C  35.04100 58.80500 40.11300
O  36.03900 58.25500 39.63500
C  35.19900 60.12700 40.83400
N  29.51800 60.01600 41.03700
C  30.73900 60.59100 41.25700
C  30.62200 62.10300 41.64200
C  29.11400 62.18000 41.80000
C  28.55000 60.85600 41.22600
C  31.36200 62.59300 42.97600
C  28.48100 63.45300 41.22400
C  27.45600 64.19000 42.14400
N  27.28000 58.32700 40.27000
C  26.57400 59.40100 40.68200
C  25.14200 59.11600 40.76500
C  25.10100 57.73000 40.36500
C  26.41400 57.35700 39.98600
C  24.15300 60.03800 41.39700
C  24.21800 56.57700 40.17500
O  23.04800 56.45700 40.40300
C  25.10600 55.43300 39.54100
C  25.00300 54.29800 40.49200
O  25.45800 54.39800 41.66200
O  24.49000 53.16400 39.88500
C  24.70900 51.91700 40.66000
H  31.95600 54.57900 38.76800
H  32.72400 60.62600 41.24200
H  26.45300 61.39800 41.30000
H  27.48300 53.36200 39.44500
H  29.65800 53.66700 37.47800
H  30.71800 53.00100 39.94900
H  30.55900 51.89400 38.56600
H  29.21200 52.08200 39.76200
H  26.19400 52.93700 37.40300
H  27.89200 52.70700 36.81000
H  26.84800 55.45600 36.43400
H  25.92800 54.15000 35.66300
H  34.96400 56.37000 37.90100
H  33.85600 55.10600 38.26700
H  35.12000 55.48900 39.46700
H  34.80800 61.01900 40.34500
H  36.27500 60.28500 40.89300
H  34.94100 60.18100 41.89200
H  31.02600 62.59500 40.75700
H  28.88900 62.06600 42.86000
H  31.91500 61.77900 43.44300
H  30.67400 63.08300 43.66500
H  32.13100 63.26300 42.59100
H  27.88000 63.30800 40.32700
H  29.27200 64.15300 40.95300
H  26.48900 64.40800 41.69300
H  27.86200 65.13900 42.49500
H  27.23800 63.61800 43.04600
H  24.60100 60.74000 42.10000
H  23.44300 59.50900 42.03100
H  23.48700 60.56300 40.71200
H  24.78200 55.15200 38.53900
H  24.35100 52.02500 41.68300
H  25.78400 51.78400 40.78800
H  24.20400 51.15000 40.07300

