79

Mg 42.13100 41.25900 26.89400
C  41.58000 43.57800 29.58100
C  43.28300 39.11900 29.30900
C  42.91600 39.21200 24.53600
C  41.35100 43.73000 24.62100
N  42.42000 41.32600 29.28200
C  42.01200 42.33300 30.07300
C  42.04500 41.94600 31.58000
C  42.82600 40.49300 31.46200
C  42.84300 40.30600 29.93900
C  44.16600 40.19300 32.18200
C  40.56700 41.98000 32.16500
C  40.26700 42.83300 33.37900
H  39.58700 42.27900 34.66100
N  43.03900 39.39500 26.89200
C  43.27400 38.58700 27.98200
C  43.77000 37.34100 27.51200
C  43.70600 37.29100 26.10700
C  43.19000 38.68900 25.78600
C  44.27600 36.31200 28.44800
C  43.88300 36.13600 25.13400
O  43.61600 36.35300 23.96600
C  44.33300 34.74300 25.57300
N  42.23500 41.54200 24.99800
C  42.42900 40.43500 24.21300
C  42.15400 40.67700 22.76000
C  41.71900 42.17500 22.77600
C  41.70100 42.49000 24.22200
C  43.33800 40.32200 21.74400
C  40.36200 42.31300 22.10100
C  39.13200 41.82100 22.89100
N  41.48400 43.23400 27.01600
C  41.27700 44.16400 25.99300
C  40.85400 45.44500 26.57200
C  40.92200 45.15300 27.97000
C  41.35300 43.85600 28.20600
C  40.47700 46.70800 25.78800
C  40.73900 45.83800 29.26200
O  40.37700 46.97200 29.53100
C  41.15000 44.82300 30.30900
C  42.22000 45.31500 31.18100
O  43.35400 45.57400 30.79100
O  41.75700 45.47700 32.40200
C  42.61900 46.17700 33.35200
H  43.65300 38.47500 30.10900
H  42.94000 38.49100 23.71600
H  41.09500 44.42500 23.81800
H  42.73900 42.59600 32.11200
H  42.17600 39.73200 31.89500
H  44.44200 40.96500 32.90000
H  45.01200 39.98200 31.52800
H  43.97300 39.27300 32.73500
H  40.26000 40.97200 32.44300
H  39.98800 42.33400 31.31100
H  39.55800 43.53700 32.94400
H  41.20400 43.36100 33.55400
H  44.15300 36.58000 29.49800
H  45.35800 36.20500 28.38300
H  43.93400 35.34200 28.08700
H  43.61100 34.22200 26.20200
H  45.13900 34.83700 26.30000
H  44.70800 34.32500 24.63900
H  41.34500 40.04300 22.39500
H  42.47600 42.76800 22.26200
H  43.96900 39.49400 22.06700
H  44.02200 41.16900 21.68600
H  42.85600 40.04100 20.80700
H  40.39000 41.76700 21.15800
H  40.17800 43.35700 21.84900
H  38.59600 41.15700 22.21200
H  38.66500 42.57100 23.52800
H  39.48100 41.06600 23.59600
H  40.84100 46.81200 24.76600
H  40.91700 47.50300 26.39000
H  39.39100 46.80000 25.81400
H  40.21000 44.49300 30.75200
H  42.14600 47.11300 33.64800
H  43.60300 46.47900 32.99500
H  42.65800 45.75000 34.35500

