79

Mg 46.61400 34.47300 28.08400
C  44.82800 32.82500 30.64900
C  47.25500 36.97200 30.29400
C  47.71400 36.34500 25.49900
C  45.53200 32.05300 25.84100
N  46.03700 34.80500 30.22600
C  45.45900 33.96200 31.10200
C  45.76300 34.45500 32.54400
C  46.06900 35.96400 32.36800
C  46.45600 35.93500 30.81000
C  44.78000 36.78700 32.50900
C  47.00900 33.72100 33.20800
C  46.96900 33.58400 34.74000
H  46.14100 34.62200 35.49800
N  47.50000 36.29500 27.87800
C  47.69700 37.18700 28.95500
C  48.42200 38.36300 28.50200
C  48.46200 38.21300 27.11500
C  47.89700 36.91100 26.77300
C  48.85000 39.49900 29.46500
C  48.93900 39.28300 26.13000
O  48.94800 39.13400 24.94500
C  49.39100 40.57700 26.69100
N  46.45700 34.27700 25.91400
C  46.93800 35.22900 25.10600
C  46.89900 34.73100 23.62400
C  46.09200 33.37800 23.77000
C  46.06300 33.15700 25.23000
C  46.37900 35.72800 22.59300
C  46.50400 32.17400 22.93000
C  45.55500 31.61000 21.87600
N  45.59800 32.67900 28.21800
C  45.15200 31.83900 27.23000
C  44.52000 30.70600 27.79000
C  44.39800 31.07000 29.08600
C  45.01600 32.28400 29.33800
C  44.01800 29.43600 27.14500
C  43.76700 30.70600 30.34600
O  43.12600 29.70800 30.63100
C  43.82100 31.93000 31.32100
C  44.05000 31.52800 32.68700
O  45.05500 31.01300 33.11900
O  42.96600 32.15500 33.35700
C  42.93300 32.03200 34.75200
H  47.35600 37.83100 30.96000
H  48.14300 37.07900 24.81300
H  45.19700 31.32300 25.10200
H  44.86200 34.32900 33.14400
H  46.87000 36.34000 33.00400
H  43.94000 36.16500 32.81700
H  44.54700 37.33100 31.59300
H  44.97300 37.58400 33.22800
H  47.96600 34.14100 32.89700
H  46.88600 32.73700 32.75600
H  47.99500 33.56100 35.10900
H  46.45000 32.66000 34.99500
H  48.96400 39.24600 30.51900
H  48.06400 40.25200 29.41400
H  49.82500 39.88100 29.16100
H  48.81000 41.03500 27.49200
H  49.65500 41.17000 25.81600
H  50.36900 40.32600 27.10000
H  47.92500 34.50100 23.33600
H  45.04800 33.65000 23.61300
H  47.19300 35.96600 21.90800
H  46.15400 36.65100 23.12600
H  45.53000 35.31100 22.05000
H  46.71400 31.39200 23.66000
H  47.49300 32.25200 22.47900
H  44.62500 32.16500 21.75300
H  45.27500 30.58100 22.10300
H  45.97700 31.70200 20.87600
H  44.58200 29.42900 26.21300
H  42.93100 29.43600 27.05700
H  44.44100 28.51800 27.55500
H  42.93800 32.56100 31.22300
H  42.78400 30.97900 34.99000
H  42.06700 32.44500 35.26900
H  43.81800 32.45800 35.22500

