79

Mg 35.85300 1.62600 30.52000
C  33.58900 2.71500 33.15000
C  38.28200 1.57000 32.88500
C  38.01600 1.20400 28.08100
C  33.16600 2.04600 28.27300
N  35.91800 2.18900 32.82900
C  34.86300 2.42700 33.65400
C  35.27800 2.48300 35.17300
C  36.87300 2.50500 34.93000
C  37.10600 2.03700 33.51400
C  37.58500 3.86200 35.20100
C  34.64400 1.29900 35.96000
C  33.80100 1.51600 37.22500
H  34.11100 2.76800 38.01500
N  37.85400 1.47300 30.46600
C  38.62100 1.29400 31.62000
C  39.96700 0.80200 31.23800
C  39.92400 0.77500 29.77400
C  38.61300 1.25500 29.34800
C  41.10300 0.53300 32.16500
C  41.05000 0.41800 28.75700
O  40.90800 0.59500 27.57100
C  42.27600 -0.05500 29.35100
N  35.52500 1.67300 28.44300
C  36.66200 1.45100 27.67200
C  36.24700 1.44700 26.12300
C  34.68000 1.37700 26.27900
C  34.38800 1.68600 27.71300
C  36.75700 2.61700 25.29300
C  34.12700 -0.05600 25.91800
C  32.90900 0.01900 24.95200
N  33.76000 2.26800 30.61800
C  32.80600 2.24100 29.64400
C  31.52500 2.62600 30.15900
C  31.74500 2.74500 31.55400
C  33.19200 2.57500 31.77400
C  30.25500 2.60700 29.42600
C  31.16000 2.99800 32.82800
O  29.97500 3.12300 33.13300
C  32.29400 3.10500 33.84900
C  32.21000 4.53100 34.27700
O  32.71200 5.49500 33.64200
O  31.46700 4.68800 35.42500
C  31.46200 6.05000 36.05600
H  39.11500 1.56200 33.59100
H  38.66900 0.94200 27.24600
H  32.23200 2.03100 27.70700
H  34.96900 3.43300 35.60800
H  37.28400 1.74400 35.59300
H  36.93900 4.54200 35.75600
H  37.79100 4.20500 34.18700
H  38.48600 3.69900 35.79200
H  35.44800 0.64500 36.29900
H  34.05900 0.76200 35.21300
H  33.95800 0.63800 37.85200
H  32.75200 1.40300 36.94900
H  42.00500 1.06600 31.86100
H  41.33900 -0.53100 32.17600
H  40.81900 0.91300 33.14600
H  42.83400 0.78300 29.76900
H  42.82300 -0.49900 28.51900
H  42.25700 -0.85300 30.09400
H  36.67500 0.53800 25.70100
H  34.21800 2.20900 25.74600
H  37.09800 2.30700 24.30500
H  37.62500 2.99000 25.83700
H  35.99800 3.39800 25.25800
H  33.83000 -0.53100 26.85300
H  34.92500 -0.67700 25.51100
H  33.23100 -0.51800 24.06000
H  32.52400 1.00600 24.69400
H  32.11500 -0.58200 25.39600
H  29.43400 2.24900 30.04800
H  30.33500 1.81700 28.68000
H  29.99600 3.54400 28.93200
H  32.03000 2.57600 34.76400
H  31.70700 6.06300 37.11800
H  30.43400 6.38300 35.91300
H  32.11700 6.84700 35.70300

