79

Mg 9.11100 48.41800 25.61800
C  7.21200 48.39900 28.54700
C  11.83200 49.42500 27.39200
C  10.74300 48.68200 22.78500
C  6.28700 47.56300 23.94000
N  9.45100 48.80900 27.74600
C  8.50700 48.75400 28.78800
C  9.27000 49.12200 30.03600
C  10.55500 49.83600 29.52200
C  10.68300 49.21800 28.14600
C  10.43900 51.39100 29.44900
C  9.50300 47.99100 31.11700
C  8.99300 48.28700 32.57500
H  8.58300 47.14700 33.52800
N  11.12700 48.93400 25.14300
C  12.06500 49.26600 26.03200
C  13.33800 49.33600 25.35200
C  13.07300 49.10100 23.97900
C  11.60800 49.02000 23.88200
C  14.58300 49.59900 26.06600
C  14.08800 48.99700 22.81100
O  13.63300 48.92800 21.67600
C  15.56900 48.86700 23.01300
N  8.51300 48.44800 23.58000
C  9.44500 48.32800 22.57900
C  8.77000 48.07800 21.19600
C  7.37900 47.42800 21.68500
C  7.43800 47.82000 23.20200
C  8.43100 49.25200 20.19800
C  7.31100 45.88900 21.45400
C  6.19400 45.47100 20.39600
N  7.13600 47.99300 26.07400
C  6.10800 47.68700 25.28200
C  4.87700 47.44300 26.06500
C  5.27800 47.69600 27.35400
C  6.60700 48.06600 27.27000
C  3.49300 47.03000 25.55800
C  4.79400 47.72100 28.69500
O  3.77300 47.41500 29.24200
C  6.03500 48.28400 29.55000
C  6.17200 47.31700 30.69000
O  6.60800 46.21300 30.67100
O  5.50300 47.87400 31.76500
C  4.90000 46.92500 32.76700
H  12.67600 49.94700 27.84800
H  11.27100 48.65000 21.83000
H  5.41300 47.15300 23.43000
H  8.61900 49.89100 30.45100
H  11.42100 49.46400 30.06900
H  10.79200 51.75700 28.48500
H  11.01800 51.83600 30.25800
H  9.39700 51.70800 29.49600
H  10.57600 47.84900 31.24100
H  9.07100 47.03800 30.81000
H  8.16900 48.99300 32.46600
H  9.84000 48.81200 33.01700
H  14.56200 49.77000 27.14300
H  15.00900 50.46400 25.55800
H  15.19300 48.72200 25.84900
H  15.83400 47.81000 22.98000
H  16.01600 49.23900 23.93500
H  16.07300 49.31300 22.15500
H  9.42700 47.32800 20.75500
H  6.48000 47.94500 21.34800
H  8.83500 49.02900 19.21100
H  8.69300 50.21100 20.64500
H  7.37700 49.30900 19.92400
H  7.11100 45.37800 22.39500
H  8.21000 45.38100 21.10400
H  5.49600 46.30600 20.34200
H  5.83000 44.59700 20.93700
H  6.63100 45.27000 19.41800
H  3.58900 45.95000 25.43800
H  3.10600 47.60300 24.71500
H  2.79700 47.35100 26.33300
H  5.70900 49.22000 30.00400
H  5.77600 46.57700 33.31500
H  4.29700 46.21000 32.20800
H  4.27700 47.44800 33.49200

