79

Mg -3.35900 16.96400 26.79100
C  -3.38800 14.96800 29.59000
C  -3.72000 19.83400 28.62500
C  -3.30900 18.73500 23.91000
C  -3.57400 13.94900 24.86300
N  -3.46900 17.26800 28.84300
C  -3.51300 16.34300 29.90200
C  -3.48300 16.99100 31.29600
C  -3.63200 18.49600 30.87100
C  -3.66300 18.56500 29.34700
C  -4.59100 19.37000 31.69700
C  -2.28300 16.59000 32.22600
C  -1.67700 17.45100 33.32700
H  -1.41400 16.87600 34.72000
N  -3.35200 19.02000 26.35900
C  -3.48300 20.05900 27.29600
C  -3.35400 21.37000 26.63400
C  -3.12300 21.05200 25.22200
C  -3.26200 19.57300 25.12100
C  -3.52500 22.75600 27.32300
C  -2.93400 22.02800 24.06500
O  -3.07000 21.61600 22.89200
C  -2.68300 23.43100 24.35700
N  -3.54300 16.35500 24.65000
C  -3.41900 17.36600 23.72600
C  -3.43200 16.78000 22.30400
C  -3.33300 15.21800 22.59700
C  -3.50600 15.10400 24.09500
C  -4.76400 17.30600 21.73300
C  -1.90400 14.84100 21.99400
C  -0.77000 15.33000 22.93000
N  -3.53100 14.93800 27.05200
C  -3.54700 13.83000 26.20800
C  -3.46600 12.52700 26.95800
C  -3.47400 12.97700 28.29200
C  -3.46500 14.39600 28.29000
C  -3.49000 11.14500 26.43400
C  -3.38300 12.56100 29.69100
O  -3.32000 11.45600 30.14000
C  -3.30900 13.75600 30.48400
C  -2.02500 13.60300 31.21400
O  -0.89300 14.05700 30.87500
O  -2.30700 13.11400 32.45200
C  -1.15000 12.96900 33.34500
H  -3.79300 20.67600 29.31700
H  -3.30000 19.22900 22.93600
H  -3.53000 13.06400 24.22300
H  -4.41700 16.71400 31.78500
H  -2.66700 18.94300 31.11100
H  -5.36200 19.90900 31.14600
H  -4.06600 20.21700 32.13700
H  -5.05900 18.84900 32.53300
H  -1.49100 16.44300 31.49100
H  -2.64700 15.68800 32.71800
H  -2.09500 18.45700 33.37200
H  -0.68100 17.69300 32.95900
H  -2.63900 23.36800 27.15100
H  -3.56800 22.56900 28.39600
H  -4.36700 23.31900 26.91800
H  -3.58100 23.86900 24.79000
H  -2.43800 23.95200 23.43100
H  -1.84500 23.57800 25.03800
H  -2.65800 17.20200 21.66300
H  -4.15200 14.66300 22.14000
H  -5.41400 16.49000 21.41600
H  -4.42100 17.83700 20.84400
H  -5.19700 18.07500 22.37200
H  -1.73000 15.37700 21.06100
H  -1.86600 13.77700 21.76000
H  -0.06000 14.51900 23.09300
H  -1.01200 15.60000 23.95800
H  -0.25500 16.17100 22.46700
H  -3.56800 11.08200 25.34800
H  -4.29500 10.55300 26.86900
H  -2.56000 10.59500 26.57900
H  -4.09300 13.67600 31.23600
H  -0.99400 13.81600 34.01300
H  -0.22800 12.73700 32.81200
H  -1.54100 12.15800 33.96000

