79

Mg -5.10100 25.73000 26.98900
C  -4.00300 27.52800 29.64700
C  -6.80300 23.58100 28.94900
C  -5.90300 23.86400 24.18100
C  -3.24000 27.91800 24.87500
N  -5.28300 25.54200 29.04600
C  -4.73500 26.37900 29.99700
C  -5.21300 25.99400 31.36800
C  -5.82700 24.62100 31.15100
C  -6.07200 24.58200 29.60700
C  -4.99400 23.42100 31.64700
C  -6.29500 27.00200 31.87200
C  -6.59100 27.05000 33.33300
H  -6.10000 25.99000 34.33900
N  -6.12400 23.90800 26.61000
C  -6.91900 23.31800 27.53400
C  -7.74500 22.18600 26.92900
C  -7.39800 22.26000 25.54100
C  -6.45800 23.36000 25.38100
C  -8.77300 21.28000 27.66700
C  -7.83800 21.35800 24.47000
O  -7.44500 21.54700 23.31300
C  -8.78200 20.12900 24.76000
N  -4.43000 25.75900 24.89900
C  -4.96900 24.89900 23.92700
C  -4.45000 25.23600 22.53000
C  -3.78900 26.67300 22.73900
C  -3.77600 26.78100 24.27800
C  -3.42100 24.11300 22.05800
C  -4.59200 27.83000 22.02800
C  -3.71900 28.72700 21.13700
N  -3.87900 27.38600 27.24600
C  -3.22700 28.22100 26.26800
C  -2.60100 29.30600 26.94500
C  -2.87100 29.06900 28.29100
C  -3.67000 27.94000 28.39600
C  -1.78000 30.34200 26.29600
C  -2.71700 29.58700 29.60000
O  -2.08500 30.54600 30.03300
C  -3.43200 28.60800 30.58000
C  -2.47500 28.17600 31.65200
O  -1.41900 27.59300 31.44600
O  -3.03700 28.44300 32.85700
C  -2.12800 27.95700 33.90300
H  -7.40600 22.95600 29.61100
H  -6.11300 23.41200 23.20900
H  -2.56400 28.56000 24.30600
H  -4.38200 25.99000 32.07300
H  -6.74900 24.70400 31.72700
H  -3.99800 23.75600 31.93600
H  -4.92600 22.58200 30.95400
H  -5.53800 23.01600 32.50100
H  -7.21600 26.87400 31.30300
H  -5.94800 28.01000 31.64600
H  -7.67000 26.91800 33.24800
H  -6.34900 28.06200 33.65600
H  -9.69300 21.26400 27.08300
H  -8.93000 21.81200 28.60500
H  -8.47200 20.26000 27.90700
H  -8.53700 19.55200 25.65200
H  -8.68100 19.43300 23.92700
H  -9.79700 20.51900 24.68200
H  -5.25600 25.23000 21.79500
H  -2.76400 26.71000 22.37000
H  -3.73900 23.62800 21.13400
H  -3.23000 23.39900 22.85900
H  -2.40800 24.50800 21.98200
H  -5.12000 28.39200 22.79800
H  -5.38500 27.45900 21.37900
H  -2.68800 28.68200 21.48800
H  -4.13900 29.70900 20.91800
H  -3.70600 28.19700 20.18500
H  -2.23100 30.92600 25.49400
H  -0.90100 29.94700 25.78600
H  -1.52900 31.12200 27.01500
H  -4.23100 29.23300 30.97700
H  -2.28600 26.88100 33.97400
H  -2.38300 28.34700 34.88900
H  -1.08400 28.19900 33.70000

