79

Mg 30.11100 58.58200 40.01300
C  27.29700 56.41400 39.19200
C  32.29100 56.06200 39.16600
C  32.52500 60.83100 40.31600
C  27.77600 61.10600 40.32100
N  29.83600 56.51100 39.39900
C  28.63500 55.80900 39.23300
C  28.87300 54.36400 38.76400
C  30.44100 54.30600 38.68200
C  30.91600 55.69900 39.13000
C  30.94400 53.14700 39.40300
C  28.07600 53.79300 37.45100
C  28.15900 54.85800 36.29900
H  29.20000 54.67100 35.12700
N  32.21000 58.42700 39.77100
C  32.86200 57.30900 39.46000
C  34.25400 57.66100 39.49200
C  34.43700 58.95800 40.03500
C  33.01600 59.52200 40.07600
C  35.42500 56.73700 39.16400
C  35.60800 59.74900 40.46100
O  36.71200 59.30200 40.31800
C  35.51600 61.00100 41.21000
N  30.14600 60.74500 40.10900
C  31.24000 61.39200 40.37000
C  31.00700 62.88200 40.69700
C  29.46500 62.99100 40.77100
C  29.10200 61.50200 40.44500
C  31.69800 63.32100 42.05600
C  28.90700 63.91200 39.64500
C  28.43900 65.33600 40.10100
N  27.93300 58.83300 39.73600
C  27.16400 59.93200 39.91100
C  25.78800 59.55100 39.71200
C  25.87200 58.20300 39.33000
C  27.14500 57.78900 39.51000
C  24.62200 60.47600 39.76800
C  25.01500 57.11700 38.90500
O  23.77800 57.05400 38.72100
C  25.95300 55.91400 38.85300
C  25.53900 54.68600 39.54400
O  25.96000 54.28300 40.59100
O  24.62400 53.90600 38.74100
C  24.37700 52.55300 39.25300
H  33.00300 55.25000 39.00600
H  33.26600 61.61300 40.49500
H  27.04200 61.86400 40.60300
H  28.36500 53.90800 39.61300
H  30.68800 54.23100 37.62300
H  31.61500 53.38800 40.22600
H  31.54700 52.60700 38.67300
H  30.09100 52.63800 39.85100
H  27.10300 53.35900 37.68200
H  28.81800 53.01500 37.26800
H  28.38800 55.82400 36.74800
H  27.12800 54.95400 35.95700
H  36.22600 57.15300 38.55400
H  35.11300 55.91900 38.51500
H  35.86300 56.36400 40.09000
H  35.49200 61.76300 40.43000
H  36.48200 61.18500 41.68000
H  34.84100 61.03300 42.06600
H  31.36600 63.47400 39.85500
H  29.11200 63.34100 41.74200
H  30.94800 63.75700 42.71500
H  32.38300 64.13500 41.81800
H  32.11200 62.45300 42.56900
H  28.11700 63.37600 39.11900
H  29.65600 64.27400 38.94000
H  28.46800 65.39000 41.18900
H  27.41100 65.54800 39.80900
H  29.07000 66.12800 39.69700
H  23.74100 59.98100 40.17700
H  24.51300 60.80400 38.73400
H  24.75100 61.38900 40.35000
H  25.94400 55.74800 37.77600
H  24.17200 52.40000 40.31300
H  25.05000 51.76100 38.92400
H  23.49400 52.27800 38.67700

