79

Mg 26.68300 50.32900 26.65500
C  24.66600 51.27300 29.25300
C  28.92800 49.04600 28.85400
C  28.86000 49.96500 24.19400
C  24.39800 51.83700 24.47600
N  26.68300 50.11500 28.75500
C  25.74400 50.52300 29.68500
C  26.22700 50.38800 31.15700
C  27.63000 49.81700 30.88500
C  27.74200 49.62000 29.44000
C  28.84000 50.55400 31.37600
C  25.26200 49.61800 32.02800
C  24.92800 50.29700 33.43200
H  25.96400 50.94700 34.32600
N  28.60100 49.39900 26.51100
C  29.35500 48.99500 27.56300
C  30.71600 48.74200 27.12100
C  30.67600 49.10100 25.74600
C  29.36100 49.56500 25.41600
C  31.89800 48.39200 28.04200
C  31.85800 49.18100 24.74900
O  31.70600 49.67800 23.64200
C  33.30500 48.89900 25.26600
N  26.71400 51.00900 24.57600
C  27.68300 50.53700 23.72600
C  27.30500 50.94800 22.28400
C  25.80000 51.39000 22.40300
C  25.57000 51.37100 23.95300
C  28.28000 51.90900 21.67200
C  24.78800 50.44800 21.66400
C  23.94600 51.06600 20.47000
N  24.92600 51.35800 26.76700
C  24.07400 51.92000 25.82600
C  23.03700 52.65000 26.40500
C  23.23900 52.46000 27.77900
C  24.39300 51.65000 27.94900
C  22.04800 53.56600 25.82200
C  22.80300 52.82100 29.03500
O  21.98500 53.70000 29.30400
C  23.75300 52.09600 30.11600
C  24.62200 53.21500 30.80700
O  25.52800 53.80800 30.25400
O  24.33600 53.37300 32.14500
C  25.14400 54.42400 32.81800
H  29.68500 48.68200 29.55300
H  29.51600 49.81900 23.33400
H  23.71100 52.31100 23.77200
H  26.35400 51.36900 31.61400
H  27.72500 48.95700 31.54800
H  29.62900 49.84200 31.62100
H  28.70600 51.07500 32.32400
H  29.25400 51.26900 30.66400
H  25.79400 48.71500 32.32700
H  24.37100 49.39200 31.44300
H  24.52500 49.43700 33.96600
H  24.10400 50.97900 33.22200
H  32.17900 47.33900 28.02300
H  31.54500 48.40700 29.07300
H  32.86700 48.88000 27.93600
H  33.95300 49.19800 24.44200
H  33.41100 47.89200 25.67200
H  33.51200 49.65300 26.02500
H  27.22000 50.00300 21.74800
H  25.74200 52.43800 22.11100
H  29.06500 51.76000 22.41300
H  27.94900 52.91400 21.40700
H  28.52700 51.45300 20.71400
H  24.06800 50.06500 22.38600
H  25.27000 49.65600 21.09000
H  23.79900 52.09700 20.79200
H  23.03500 50.48400 20.33200
H  24.52100 50.92100 19.55600
H  22.34400 54.57700 26.10100
H  21.09600 53.37500 26.31800
H  21.97800 53.37600 24.75100
H  23.15900 51.50300 30.81100
H  26.22800 54.36400 32.71700
H  24.73400 54.29500 33.82000
H  24.83200 55.38900 32.42000

