79

Mg 35.84400 1.65900 29.13700
C  33.72500 2.79400 31.78700
C  38.37300 1.64400 31.34300
C  37.75200 0.92500 26.51300
C  33.11500 2.26000 26.92800
N  35.95600 1.98400 31.32900
C  34.97700 2.48000 32.18400
C  35.50500 2.56900 33.61700
C  37.04800 2.23400 33.43500
C  37.14300 1.86400 31.97800
C  37.92400 3.53000 33.71600
C  34.75500 1.49300 34.51500
C  34.42800 1.97200 35.93500
H  35.26900 3.01600 36.66800
N  37.82400 1.28800 28.93800
C  38.67300 1.31300 29.99800
C  39.94500 0.87200 29.52700
C  39.89600 0.82600 28.11200
C  38.46100 1.02500 27.73700
C  41.08300 0.68000 30.48100
C  40.96100 0.63100 27.16800
O  40.72400 0.55900 25.98600
C  42.37800 0.50100 27.55000
N  35.42200 1.56700 26.94500
C  36.39500 1.11200 26.07600
C  35.86200 1.27200 24.60900
C  34.34600 1.54400 24.81900
C  34.25400 1.79100 26.35100
C  36.61200 2.30500 23.82700
C  33.38400 0.50000 24.19300
C  32.97400 -0.78200 24.92200
N  33.90500 2.39100 29.29500
C  32.91200 2.56000 28.33200
C  31.68400 2.96500 28.92600
C  31.93900 3.11600 30.32000
C  33.26100 2.73000 30.44400
C  30.33800 3.15300 28.22100
C  31.37900 3.53800 31.63000
O  30.28400 4.04000 31.88600
C  32.55400 3.26100 32.62600
C  32.59400 4.52600 33.46800
O  33.15000 5.59000 33.18400
O  31.80200 4.41600 34.57900
C  31.55100 5.64200 35.33600
H  39.25000 1.73500 31.98700
H  38.31200 0.66400 25.61200
H  32.23300 2.43100 26.30800
H  35.26600 3.57900 33.94900
H  37.49100 1.49500 34.10300
H  38.46900 3.89200 32.84400
H  38.69800 3.20800 34.41300
H  37.44000 4.37600 34.20400
H  35.29000 0.54800 34.61400
H  33.81200 1.26900 34.01600
H  34.39600 1.15300 36.65400
H  33.45300 2.45900 35.92300
H  41.66600 -0.20700 30.23000
H  40.99700 0.70800 31.56700
H  41.68500 1.58600 30.42100
H  43.05500 0.29500 26.72100
H  42.42800 -0.32900 28.25500
H  42.66500 1.41800 28.06400
H  36.01500 0.30900 24.12200
H  34.09200 2.48000 24.32200
H  36.04400 3.20200 23.57600
H  36.97300 1.81500 22.92300
H  37.53800 2.59200 24.32400
H  33.70800 0.21900 23.19000
H  32.43900 1.00300 23.98900
H  33.58400 -0.99800 25.79900
H  33.21000 -1.65500 24.31300
H  31.97500 -0.72700 25.35200
H  30.10100 2.20700 27.73500
H  30.49300 3.81200 27.36600
H  29.62000 3.52400 28.95300
H  32.11300 2.50800 33.27800
H  30.47900 5.73000 35.51000
H  31.87500 6.58000 34.88400
H  32.01400 5.49600 36.31200

