79

Mg -12.79900 37.39900 41.74500
C  -10.19800 35.00900 40.89500
C  -11.27100 39.56000 39.53600
C  -15.62300 39.03700 41.76900
C  -14.23000 34.87000 43.68100
N  -11.02100 37.21900 40.25600
C  -10.06400 36.22100 40.22200
C  -8.82400 36.60100 39.34600
C  -9.05300 38.12700 39.39100
C  -10.61100 38.29900 39.59800
C  -8.20800 38.94100 40.41200
C  -8.84500 35.92800 37.95100
C  -7.53400 35.30700 37.47300
H  -6.63600 36.20300 36.56700
N  -13.34600 39.07200 40.81400
C  -12.54500 39.88800 40.00600
C  -13.21100 41.15700 39.77100
C  -14.57100 41.05200 40.38200
C  -14.57900 39.62500 41.00100
C  -12.63100 42.27300 39.02600
C  -15.60100 42.08500 40.43100
O  -15.35800 43.11500 39.82500
C  -16.89200 41.91200 41.13200
N  -14.79700 36.84500 42.28800
C  -15.69800 37.80400 42.34600
C  -16.88200 37.39300 43.28600
C  -16.44800 36.04100 43.92200
C  -15.07100 35.88400 43.27700
C  -17.30200 38.49600 44.29200
C  -17.39100 34.84500 43.86200
C  -18.07500 34.40100 45.16800
N  -12.24500 35.40500 42.31300
C  -12.96900 34.54100 43.14800
C  -12.19800 33.32800 43.24700
C  -11.07300 33.53500 42.40800
C  -11.21900 34.76300 41.80700
C  -12.63900 32.21800 44.12500
C  -9.87500 32.84100 41.96500
O  -9.44400 31.68300 42.25900
C  -9.19600 33.81900 40.96700
C  -7.86100 34.19000 41.69600
O  -6.78400 33.63100 41.49200
O  -8.00600 35.14200 42.68700
C  -6.88500 35.39200 43.63400
H  -10.72600 40.24300 38.88000
H  -16.50200 39.61300 42.06600
H  -14.57100 34.22200 44.49100
H  -7.92700 36.32900 39.90200
H  -8.86000 38.53600 38.39900
H  -8.90300 39.16000 41.22300
H  -7.80600 39.83900 39.94300
H  -7.46600 38.23000 40.77600
H  -9.00300 36.75000 37.25300
H  -9.70100 35.26000 37.85500
H  -7.65400 34.38100 36.91100
H  -6.95200 35.03300 38.35300
H  -12.92600 43.22100 39.47600
H  -12.85400 42.14800 37.96600
H  -11.55000 42.22800 39.15400
H  -17.35000 40.97100 40.82800
H  -17.51600 42.77000 40.88100
H  -16.67900 41.75800 42.19000
H  -17.70900 37.15600 42.61700
H  -16.29700 36.20900 44.98800
H  -16.54900 39.28300 44.32000
H  -17.43200 37.99800 45.25300
H  -18.29100 38.90900 44.09200
H  -16.80400 34.05000 43.40300
H  -18.13700 35.22000 43.16200
H  -19.14400 34.61200 45.18400
H  -17.65900 34.95200 46.01100
H  -17.96500 33.33800 45.38400
H  -13.50100 32.61100 44.66400
H  -11.91500 32.03100 44.91800
H  -12.80900 31.31700 43.53500
H  -9.00300 33.17100 40.11200
H  -6.50700 36.40300 43.48500
H  -6.07800 34.67500 43.48300
H  -7.25200 35.26700 44.65200

