79

Mg -13.09500 15.59300 43.14600
C  -10.44300 13.43400 42.32900
C  -11.65700 18.01800 41.39900
C  -16.16400 17.17100 42.95900
C  -14.78100 12.72800 44.50300
N  -11.31200 15.60800 41.82100
C  -10.35500 14.73600 41.72700
C  -9.09000 15.34800 41.08000
C  -9.37100 16.88500 41.11900
C  -10.90600 16.84800 41.49200
C  -8.49100 17.65100 42.20000
C  -8.70300 14.80500 39.75000
C  -7.22100 14.68800 39.38500
H  -6.63500 15.60000 38.21600
N  -13.76300 17.42800 42.43500
C  -13.00900 18.25000 41.68400
C  -13.66200 19.45900 41.39600
C  -15.00800 19.28800 41.88400
C  -15.04500 17.89400 42.46700
C  -13.11100 20.71300 40.72300
C  -16.10200 20.36700 41.84000
O  -15.89200 21.42900 41.16900
C  -17.48700 20.32000 42.48400
N  -15.21100 14.93000 43.59200
C  -16.18400 15.84000 43.54100
C  -17.51700 15.15200 44.07800
C  -17.01600 13.76100 44.73300
C  -15.59500 13.76400 44.19600
C  -18.42000 16.08400 44.97800
C  -17.81400 12.50300 44.51200
C  -18.13200 11.63000 45.75600
N  -12.69200 13.49900 43.53400
C  -13.43200 12.56800 44.16200
C  -12.62100 11.35700 44.28200
C  -11.41100 11.60600 43.64600
C  -11.53500 12.93900 43.13600
C  -13.02600 10.10600 44.96700
C  -10.09700 11.12600 43.27200
O  -9.47100 10.11200 43.53700
C  -9.47200 12.35600 42.37900
C  -8.23900 12.85100 43.06500
O  -8.16500 13.51800 44.08300
O  -7.16300 12.33200 42.38000
C  -5.79700 12.53600 42.76200
H  -11.08600 18.90200 41.10500
H  -17.17400 17.58400 42.91700
H  -15.35500 11.88800 44.89800
H  -8.33700 15.11800 41.83400
H  -9.25600 17.37000 40.15000
H  -9.06400 17.75400 43.12200
H  -8.11600 18.62300 41.87900
H  -7.64000 17.01200 42.43300
H  -9.23800 15.48000 39.08200
H  -9.06100 13.77600 39.76100
H  -7.21200 13.68900 38.94900
H  -6.64600 14.75500 40.30900
H  -12.06800 20.62200 40.42000
H  -13.27600 21.59100 41.34800
H  -13.64600 20.82100 39.77900
H  -17.53000 19.67600 43.36200
H  -18.06300 19.76800 41.74100
H  -17.91100 21.30200 42.69100
H  -18.15200 14.93200 43.22000
H  -16.91000 13.92800 45.80500
H  -17.71900 16.76100 45.46700
H  -18.96900 15.46400 45.68600
H  -19.19700 16.54900 44.37200
H  -17.38100 11.78000 43.82100
H  -18.82400 12.80800 44.23700
H  -19.13400 11.66700 46.18400
H  -17.70100 11.92900 46.71200
H  -17.81300 10.59700 45.61800
H  -12.18000 9.77200 45.56700
H  -13.19800 9.51200 44.07000
H  -13.86300 10.15100 45.66400
H  -9.25400 11.96800 41.38500
H  -5.55200 13.20200 43.59000
H  -5.39100 12.97500 41.85100
H  -5.22400 11.61100 42.83200

