79

Mg -6.12300 26.05300 26.66000
C  -4.30700 27.57300 29.22000
C  -7.71600 24.14300 28.83500
C  -7.59100 24.57800 24.03700
C  -3.90100 27.69900 24.36200
N  -5.96400 25.88900 28.74300
C  -5.22100 26.60900 29.68300
C  -5.77700 26.37100 31.10500
C  -6.44000 24.99100 30.96700
C  -6.78800 25.07600 29.44900
C  -5.53100 23.78200 31.37500
C  -6.65500 27.63000 31.51500
C  -6.97800 27.83600 33.02100
H  -6.51500 26.73800 33.98500
N  -7.50800 24.53800 26.45900
C  -8.09800 23.87400 27.49000
C  -9.15200 23.04700 26.98600
C  -9.12800 23.12700 25.56700
C  -8.02800 24.09500 25.26500
C  -10.06300 22.25600 27.96800
C  -9.83700 22.33200 24.55900
O  -9.73700 22.52600 23.38600
C  -10.73100 21.21800 25.00300
N  -5.75900 26.09900 24.49300
C  -6.54200 25.40500 23.67200
C  -6.05500 25.47700 22.16200
C  -4.95000 26.59600 22.27000
C  -4.82400 26.88000 23.74500
C  -5.61600 24.11300 21.54000
C  -5.35700 27.84700 21.45000
C  -4.27200 28.39200 20.34000
N  -4.47600 27.46700 26.73300
C  -3.72400 28.04200 25.73800
C  -2.78600 28.95700 26.30700
C  -2.98200 28.79100 27.72900
C  -4.00700 27.91400 27.88800
C  -2.09000 29.89000 25.46500
C  -2.58900 29.23000 29.06200
O  -1.83600 30.08800 29.41400
C  -3.49100 28.43600 30.07000
C  -2.69300 27.73900 31.08200
O  -2.01000 26.69700 30.88300
O  -2.83600 28.40800 32.25300
C  -1.98300 27.90100 33.35500
H  -8.34900 23.65900 29.58100
H  -8.09100 24.25500 23.12200
H  -3.27300 28.21700 23.63400
H  -4.90100 26.27300 31.74800
H  -7.39400 24.98800 31.49400
H  -5.33400 23.13100 30.52300
H  -6.00400 23.30900 32.23500
H  -4.60900 24.21200 31.76700
H  -7.57300 27.61700 30.92600
H  -6.06600 28.47000 31.14900
H  -8.05600 27.94300 33.14200
H  -6.51600 28.76200 33.36500
H  -11.06200 22.21800 27.53300
H  -10.10200 22.58300 29.00700
H  -9.66300 21.25100 28.10400
H  -10.10600 20.46000 25.47700
H  -11.14900 20.68900 24.14600
H  -11.56500 21.55300 25.61900
H  -6.90400 25.93300 21.65400
H  -3.98700 26.18200 21.97300
H  -6.55900 23.56800 21.57700
H  -4.88100 23.69900 22.23000
H  -5.30000 24.23700 20.50400
H  -5.36800 28.73800 22.07700
H  -6.38000 27.81400 21.07500
H  -3.51500 27.69100 19.98900
H  -3.69900 29.04500 20.99800
H  -4.70800 29.03600 19.57600
H  -1.68600 30.80000 25.90800
H  -2.75900 30.30500 24.71200
H  -1.32200 29.34900 24.91100
H  -4.16300 29.20500 30.45100
H  -2.22500 26.85300 33.53300
H  -2.08800 28.41400 34.31100
H  -0.92500 28.02500 33.12300

