79

Mg 8.59000 3.06900 27.59600
C  9.84100 1.57800 30.52600
C  6.64400 5.01700 29.66100
C  7.18400 4.34300 24.92200
C  10.15400 0.58000 25.79200
N  8.13900 3.04200 29.87400
C  8.90900 2.42700 30.86400
C  8.58600 2.90000 32.29900
C  7.33000 3.94600 31.98400
C  7.41000 4.03500 30.40300
C  5.92500 3.66300 32.57200
C  9.85700 3.55700 32.92200
C  9.62000 4.31600 34.24000
H  10.49100 4.07700 35.45300
N  7.21100 4.54100 27.35300
C  6.52100 5.25800 28.30600
C  5.70200 6.27200 27.68500
C  5.91100 6.15000 26.28100
C  6.79900 4.96800 26.10900
C  4.83400 7.20800 28.38200
C  5.27500 6.91900 25.21100
O  5.46400 6.68400 24.03800
C  4.21400 7.85200 25.44800
N  8.67800 2.55000 25.70900
C  8.02400 3.23000 24.71800
C  8.28300 2.54600 23.24400
C  9.27700 1.41500 23.62600
C  9.40100 1.54700 25.15300
C  6.99100 1.97900 22.58700
C  10.55200 1.49900 22.78300
C  10.94500 0.13500 22.18200
N  9.80200 1.38700 27.98800
C  10.36900 0.47100 27.14600
C  11.21300 -0.49100 27.84500
C  11.02500 -0.09600 29.21500
C  10.19500 1.06800 29.21100
C  12.10000 -1.64600 27.28000
C  11.30800 -0.47400 30.56600
O  12.07300 -1.34900 30.96900
C  10.54900 0.54700 31.44000
C  9.73500 -0.18100 32.37900
O  8.87000 -1.03600 32.07700
O  10.14200 0.20000 33.64400
C  9.44500 -0.60100 34.73400
H  6.06100 5.66800 30.31600
H  6.76300 4.72300 23.98900
H  10.74600 -0.01200 25.09100
H  8.25800 2.08600 32.94700
H  7.56100 4.92200 32.41100
H  5.74800 4.43800 33.31800
H  5.96400 2.73900 33.14900
H  5.15700 3.70100 31.80000
H  10.26900 4.31100 32.25200
H  10.61500 2.81000 33.15600
H  8.57700 4.34500 34.55600
H  9.79900 5.35600 33.96700
H  4.79000 7.03500 29.45800
H  3.78700 7.06700 28.11300
H  5.11500 8.18700 27.99400
H  4.58300 8.70500 26.01700
H  3.42300 7.32200 25.97800
H  3.66000 8.18500 24.57100
H  8.71500 3.29300 22.57800
H  8.72700 0.49700 23.41600
H  6.24800 1.88100 23.37800
H  7.06200 0.98300 22.14900
H  6.55100 2.65300 21.85300
H  11.39300 1.64700 23.46000
H  10.45100 2.29300 22.04300
H  11.69800 -0.32400 22.82200
H  11.43100 0.43300 21.25300
H  10.06600 -0.49200 22.03300
H  11.81900 -1.86000 26.24900
H  11.99100 -2.60000 27.79600
H  13.14000 -1.33300 27.36800
H  11.33600 0.98900 32.05200
H  9.99600 -1.53900 34.79800
H  8.40100 -0.82400 34.51400
H  9.38500 -0.08400 35.69200

