79

Mg 49.95500 44.76000 42.97000
C  46.66800 45.43800 41.94500
C  49.36200 41.38000 42.39500
C  53.38100 44.17400 42.56500
C  50.60300 48.15000 42.49900
N  48.18600 43.48900 42.53000
C  47.02100 44.07400 42.01000
C  46.04700 42.93700 41.63800
C  46.73800 41.65600 42.29400
C  48.17400 42.13300 42.47100
C  46.22000 41.24300 43.68200
C  45.90300 42.87300 40.12100
C  44.45900 43.00700 39.67500
H  44.11600 43.97200 38.54300
N  51.25100 43.04000 42.64700
C  50.77200 41.77200 42.38400
C  51.92800 40.93000 42.16200
C  53.12300 41.69700 42.23900
C  52.63300 43.03000 42.50400
C  51.79800 39.40000 41.82700
C  54.58100 41.25100 42.02000
O  54.71000 40.05900 41.79900
C  55.85700 41.99600 42.31400
N  51.74700 46.03500 42.61500
C  53.02300 45.55500 42.62100
C  54.08100 46.67100 42.67100
C  53.20600 47.96700 42.18800
C  51.76200 47.39000 42.49000
C  54.60500 46.62800 44.09300
C  53.17200 48.43300 40.64500
C  53.15400 49.96200 40.34200
N  48.84200 46.52000 42.66100
C  49.24200 47.82200 42.53000
C  48.09200 48.65700 42.24400
C  47.07100 47.75500 42.03000
C  47.56300 46.44700 42.29500
C  48.10200 50.05900 41.79700
C  45.69700 47.70200 41.60800
O  44.82400 48.55300 41.38700
C  45.35400 46.14900 41.54100
C  44.18800 45.79000 42.41000
O  44.32200 45.73400 43.64100
O  43.05500 45.45200 41.69400
C  41.78800 45.32100 42.39600
H  49.29500 40.29500 42.28700
H  54.45200 44.03800 42.39700
H  50.77200 49.22100 42.37100
H  45.07500 43.12600 42.09400
H  46.95100 40.81900 41.62800
H  47.00400 41.48700 44.39800
H  46.19100 40.15300 43.71100
H  45.41000 41.87500 44.04700
H  46.41200 42.01100 39.69100
H  46.34800 43.74500 39.64100
H  43.83400 43.25300 40.53400
H  44.20300 42.00100 39.34200
H  52.47000 39.09200 41.02600
H  50.81500 39.30500 41.36600
H  51.78400 38.88500 42.78800
H  56.12900 42.59300 41.44400
H  56.67100 41.27300 42.35600
H  55.89000 42.48400 43.28800
H  54.86600 46.39600 41.96600
H  53.60200 48.81100 42.75300
H  55.68600 46.49200 44.10600
H  54.10100 45.88100 44.70700
H  54.48300 47.52200 44.70400
H  52.22600 48.09100 40.22700
H  53.88000 47.86400 40.04100
H  52.86100 50.16800 39.31200
H  54.14800 50.39800 40.45000
H  52.42300 50.50700 40.93800
H  48.37900 50.66400 42.65900
H  47.19800 50.42800 41.31100
H  48.94700 50.14800 41.11400
H  45.14600 45.99900 40.48100
H  41.72800 46.01300 43.23700
H  41.84000 44.26400 42.65700
H  40.94800 45.36500 41.70300

