79

Mg 45.21700 5.12100 46.98400
C  42.98200 7.74100 46.71000
C  42.55300 2.89200 46.59600
C  47.41700 2.65400 46.33200
C  47.82400 7.43000 46.48400
N  43.03700 5.36200 46.45300
C  42.32100 6.49100 46.53100
C  40.78600 6.28500 46.46700
C  40.73300 4.76500 46.75000
C  42.20700 4.28000 46.65400
C  39.99600 4.39200 48.07800
C  40.20300 6.83800 45.13300
C  40.49100 6.13000 43.78100
H  41.00600 7.07500 42.69200
N  45.02600 3.02800 46.63500
C  43.84300 2.33300 46.53300
C  44.13100 0.90600 46.49000
C  45.59700 0.86100 46.39300
C  46.08200 2.19200 46.39600
C  43.11200 -0.23800 46.36000
C  46.45000 -0.40000 46.27800
O  45.85700 -1.47800 46.24800
C  47.99100 -0.50800 46.22700
N  47.27000 5.14300 46.19400
C  47.95300 3.90300 46.30100
C  49.52300 4.13600 46.31500
C  49.57400 5.67300 46.11200
C  48.12200 6.13400 46.27200
C  50.17500 3.60700 47.65300
C  50.18100 6.14000 44.77600
C  51.52500 5.75400 44.23200
N  45.49300 7.20500 46.86700
C  46.55100 8.03100 46.70200
C  46.10700 9.37400 46.88200
C  44.71000 9.34300 46.92700
C  44.41000 7.95200 46.77800
C  47.05300 10.56900 47.07100
C  43.51400 10.17500 47.04300
O  43.38100 11.36900 47.19100
C  42.32400 9.08400 47.01200
C  41.42000 9.18000 48.21300
O  41.70300 8.71400 49.28000
O  40.30800 9.90500 47.92100
C  39.46000 10.28500 49.01700
H  41.73000 2.18200 46.49300
H  48.25400 1.95900 46.23100
H  48.69500 8.08900 46.51200
H  40.33200 6.89800 47.24400
H  40.20900 4.30800 45.91000
H  39.04700 3.90500 47.85200
H  39.83300 5.28900 48.67500
H  40.71400 3.82600 48.67100
H  40.41000 7.90700 45.08700
H  39.14300 6.81500 45.38300
H  39.69600 5.58000 43.27800
H  41.30900 5.43200 43.96100
H  43.30500 -0.89700 45.51300
H  42.07500 0.09800 46.34600
H  43.19200 -0.82700 47.27400
H  48.47900 -0.05900 47.09200
H  48.23300 0.07000 45.33500
H  48.27300 -1.55900 46.15100
H  50.07800 3.57400 45.56400
H  50.31400 6.02600 46.83100
H  50.61800 4.36600 48.29800
H  51.00500 2.96300 47.36300
H  49.47100 3.12100 48.32900
H  50.10900 7.22500 44.85700
H  49.44400 5.87100 44.01900
H  51.28300 5.19600 43.32800
H  52.09000 5.14600 44.93900
H  52.16300 6.58300 43.92600
H  46.71600 11.36300 47.73800
H  47.39800 10.90000 46.09100
H  47.95300 10.22700 47.58300
H  41.78700 9.36300 46.10600
H  39.57400 9.63400 49.88400
H  38.40000 10.24400 48.76700
H  39.61800 11.33100 49.27900

