79

Mg 16.98000 51.57300 26.19800
C  18.83700 50.11100 28.90600
C  14.45800 52.15000 28.44200
C  15.20200 52.33500 23.65900
C  19.15700 49.74900 24.05600
N  16.65900 51.13300 28.36800
C  17.60200 50.67200 29.28700
C  17.14100 50.88300 30.69200
C  15.60700 51.19200 30.52100
C  15.55300 51.55100 29.05000
C  14.72100 50.01100 30.85500
C  18.01300 52.06800 31.27800
C  18.30300 51.91800 32.79000
H  17.30500 51.09500 33.65100
N  15.14200 52.33900 26.10400
C  14.28000 52.53500 27.10300
C  13.15900 53.23300 26.54000
C  13.32400 53.22800 25.07400
C  14.59600 52.66000 24.84800
C  12.00700 53.59600 27.39300
C  12.36100 53.75300 24.02800
O  12.65500 53.86300 22.85700
C  11.05300 54.11800 24.42700
N  17.01700 50.97700 24.16200
C  16.30500 51.58200 23.32000
C  16.58500 51.17000 21.83100
C  18.00000 50.63500 21.99600
C  18.11700 50.49000 23.51000
C  15.56100 50.17200 21.21700
C  19.12600 51.54000 21.39000
C  19.68800 51.13800 20.02600
N  18.76100 50.38600 26.32800
C  19.50000 49.65500 25.42800
C  20.62500 48.93700 26.06200
C  20.38600 49.12700 27.43400
C  19.24800 49.96700 27.55800
C  21.70100 48.18700 25.34200
C  20.90500 48.70600 28.74300
O  21.91800 48.09000 29.06400
C  19.88500 49.35800 29.70200
C  19.31000 48.33100 30.55100
O  18.30600 47.59200 30.35700
O  20.21100 48.21800 31.62200
C  20.10900 47.07900 32.55200
H  13.69400 52.35400 29.19600
H  14.80700 52.77800 22.74200
H  19.85800 49.35500 23.31700
H  17.25100 50.04200 31.37600
H  15.27000 52.08400 31.04900
H  13.92400 50.25700 31.55600
H  15.31600 49.17900 31.23200
H  14.31400 49.71900 29.88700
H  17.45100 52.97900 31.07200
H  18.93400 52.04600 30.69500
H  18.27900 52.95000 33.13800
H  19.28700 51.53300 33.05700
H  11.17000 52.94700 27.13600
H  11.78100 54.65500 27.27000
H  12.18100 53.48000 28.46200
H  10.96000 55.00500 25.05300
H  10.71300 53.27400 25.02700
H  10.39700 54.17100 23.55800
H  16.63000 52.13900 21.33500
H  17.98800 49.61200 21.62100
H  14.84700 49.88900 21.99000
H  16.10900 49.31000 20.83900
H  14.94300 50.73400 20.51600
H  19.95900 51.79800 22.04400
H  18.64000 52.48100 21.13300
H  19.45800 51.80300 19.19400
H  19.34900 50.13000 19.78800
H  20.77700 51.13700 20.07000
H  21.97900 48.95200 24.61600
H  21.26300 47.28200 24.92100
H  22.66700 47.91400 25.76600
H  20.45100 50.06800 30.30500
H  19.63300 46.26600 32.00300
H  19.46900 47.53800 33.30500
H  21.03200 46.69100 32.98200

