79

Mg -11.53300 16.40700 42.40500
C  -8.14400 16.57400 41.63200
C  -11.90200 19.68000 41.50700
C  -14.90900 15.88900 42.67400
C  -10.99100 12.84500 43.10800
N  -10.17000 17.91000 41.36700
C  -8.83600 17.78500 41.41200
C  -8.21300 19.26100 41.21300
C  -9.35700 20.19600 41.56300
C  -10.58200 19.18800 41.60600
C  -9.05800 21.20600 42.81000
C  -7.62100 19.50500 39.74700
C  -6.08500 19.84600 39.61300
H  -5.27400 19.00800 38.54100
N  -13.18500 17.59900 42.09000
C  -13.13500 18.90300 41.76900
C  -14.45900 19.42200 41.70700
C  -15.37900 18.33700 41.96200
C  -14.51900 17.21600 42.27200
C  -14.77600 20.88900 41.33900
C  -16.85200 18.42900 42.02000
O  -17.30800 19.50700 41.67100
C  -17.76600 17.33800 42.41600
N  -12.79500 14.63500 42.90800
C  -14.13900 14.72000 43.03300
C  -14.74300 13.40500 43.49300
C  -13.48900 12.46200 43.53600
C  -12.36800 13.35700 43.11900
C  -15.29300 13.52000 44.96700
C  -13.59600 11.17200 42.64000
C  -13.66600 11.37800 41.16400
N  -9.94800 14.93200 42.31400
C  -9.89600 13.62100 42.70400
C  -8.47800 13.22100 42.72500
C  -7.78300 14.32900 42.26300
C  -8.72900 15.35100 42.01900
C  -7.84200 11.83900 42.98200
C  -6.47300 14.82000 41.92900
O  -5.42300 14.22100 41.87900
C  -6.68100 16.27800 41.50300
C  -5.81300 17.08600 42.33600
O  -6.02000 17.40900 43.45100
O  -4.78200 17.53600 41.61600
C  -3.86400 18.48500 42.42400
H  -12.01600 20.76500 41.55400
H  -15.99100 15.74100 42.70000
H  -10.81100 11.78800 43.31300
H  -7.43000 19.37100 41.96300
H  -9.60500 20.90000 40.76800
H  -8.00800 21.09800 43.08100
H  -9.59400 20.74500 43.64000
H  -9.47100 22.19700 42.62500
H  -8.25700 20.16100 39.15200
H  -7.75800 18.59800 39.15900
H  -5.51300 19.76500 40.53800
H  -6.10000 20.92100 39.43200
H  -15.11500 21.39400 42.24400
H  -15.49100 20.71000 40.53600
H  -13.92700 21.38400 40.87000
H  -18.74800 17.76800 42.61600
H  -17.36300 17.02400 43.37900
H  -17.79100 16.57900 41.63400
H  -15.50500 13.13500 42.76100
H  -13.24300 12.10900 44.53700
H  -15.19800 12.57200 45.49600
H  -16.30400 13.90500 44.83800
H  -14.75300 14.33000 45.45800
H  -14.45700 10.57900 42.94800
H  -12.67900 10.65300 42.92100
H  -12.84200 10.96500 40.58300
H  -13.74900 12.43900 40.92700
H  -14.63200 10.98900 40.84500
H  -6.80000 11.96600 43.27400
H  -7.87900 11.39100 41.98900
H  -8.46300 11.29400 43.69200
H  -6.43000 16.33000 40.44400
H  -4.36000 19.23400 43.04100
H  -3.30500 19.04800 41.67800
H  -3.20100 17.98100 43.12800

