79

Mg 1.82300 8.80700 25.26000
C  1.93200 10.30800 28.35600
C  2.26900 5.73100 26.85700
C  1.57700 7.25400 22.23100
C  1.82000 11.81700 23.69700
N  2.18900 8.11200 27.38800
C  1.96900 8.88600 28.51700
C  1.98100 8.02900 29.80300
C  2.37600 6.54500 29.40000
C  2.26500 6.77000 27.82600
C  3.75500 6.09500 29.73900
C  0.68300 8.26300 30.66200
C  0.93200 8.51900 32.19700
H  2.31400 8.24400 32.82800
N  1.95000 6.80700 24.64700
C  2.14600 5.67800 25.41800
C  2.12800 4.42900 24.58500
C  1.77000 4.88300 23.25800
C  1.75800 6.34600 23.33500
C  2.28400 2.96800 25.11700
C  1.54000 4.09800 21.93900
O  1.18900 4.62000 20.93300
C  1.63800 2.54400 21.93700
N  1.51900 9.41100 23.27700
C  1.60400 8.63100 22.17900
C  1.78000 9.41000 20.90200
C  1.40500 10.83200 21.38700
C  1.55400 10.72100 22.87700
C  3.18600 9.27100 20.31800
C  0.00400 11.21200 20.92000
C  -0.04800 12.19000 19.74700
N  1.82900 10.76700 25.82100
C  1.94800 11.91700 25.07200
C  2.04300 13.06400 26.02300
C  2.01000 12.47700 27.31200
C  1.90000 11.08400 27.13500
C  1.88400 14.48200 25.60300
C  2.00900 12.70200 28.64800
O  2.11500 13.76500 29.24000
C  1.87900 11.38700 29.41700
C  3.13700 11.27800 30.24000
O  4.16900 10.82600 29.89800
O  2.91900 11.77100 31.51700
C  4.20400 12.35200 32.07100
H  2.26100 4.79500 27.42000
H  1.61600 6.99200 21.17200
H  1.92000 12.71200 23.08000
H  2.79500 8.49900 30.35400
H  1.59100 5.85700 29.71400
H  4.23000 6.89700 30.30500
H  4.40200 5.90000 28.88300
H  3.71200 5.17900 30.32700
H  0.02200 7.40400 30.54100
H  0.21100 9.19000 30.33700
H  0.21100 7.91900 32.75100
H  0.73400 9.54800 32.49500
H  2.76100 2.99800 26.09600
H  2.95500 2.51700 24.38600
H  1.31900 2.47400 25.22300
H  2.40000 2.02300 22.51600
H  1.87000 2.32100 20.89500
H  0.67200 2.16000 22.26500
H  1.20200 9.05300 20.05000
H  2.01500 11.56500 20.85900
H  3.76300 10.19400 20.37100
H  3.19300 9.00000 19.26300
H  3.66400 8.40600 20.77800
H  -0.51600 11.65700 21.76800
H  -0.56700 10.33800 20.60400
H  -0.47700 11.74900 18.84700
H  0.88800 12.62200 19.39400
H  -0.68600 13.02700 20.03400
H  1.44600 14.51800 24.60600
H  2.84700 14.99400 25.61200
H  1.27000 14.92500 26.38700
H  0.95800 11.41300 29.99900
H  5.08000 12.57300 31.46100
H  4.61400 11.60900 32.75400
H  4.00400 13.24500 32.66400

