79

Mg 0.27400 42.95500 26.36700
C  2.50600 42.60200 28.97600
C  -2.24600 41.73900 28.56800
C  -1.76100 42.34800 23.73700
C  2.98900 43.30100 24.16400
N  0.10300 42.29600 28.61900
C  1.17500 42.33800 29.48900
C  0.63800 42.27900 30.92400
C  -0.80200 41.75200 30.77100
C  -0.98700 41.83700 29.22500
C  -1.17800 40.34400 31.27500
C  0.68800 43.59900 31.66600
C  1.23700 43.57600 33.15100
H  0.91500 42.32300 34.08800
N  -1.68600 42.22900 26.14100
C  -2.58100 41.84000 27.13600
C  -3.89400 41.53300 26.56700
C  -3.71800 41.68400 25.17500
C  -2.39300 42.09000 24.93400
C  -5.16400 41.18200 27.43000
C  -4.80700 41.45200 24.13100
O  -4.65800 41.63000 22.92800
C  -6.17100 40.94900 24.51200
N  0.58800 42.63000 24.29200
C  -0.41900 42.54800 23.42900
C  0.09200 42.74500 21.97900
C  1.52200 43.25600 22.14500
C  1.73900 43.03000 23.63600
C  -0.07600 41.42300 21.13800
C  1.79700 44.79800 21.83200
C  1.38000 45.88300 22.78000
N  2.38200 43.03000 26.46500
C  3.34300 43.20800 25.50500
C  4.63300 43.36400 26.15800
C  4.32700 43.10000 27.48800
C  2.99000 42.87200 27.58000
C  5.97700 43.61300 25.58500
C  4.97100 42.92800 28.77800
O  6.18900 43.08100 29.04500
C  3.78400 42.72000 29.83600
C  4.07400 41.48900 30.54100
O  4.39000 40.38900 30.06600
O  3.98900 41.73900 31.94500
C  4.07700 40.50300 32.79200
H  -3.06000 41.44200 29.23300
H  -2.33800 42.28400 22.81200
H  3.74000 43.71300 23.48600
H  1.28100 41.51000 31.35200
H  -1.58300 42.43500 31.10400
H  -1.92700 39.94800 30.58900
H  -1.69600 40.50700 32.22000
H  -0.42600 39.56100 31.37300
H  -0.27700 44.10600 31.65100
H  1.41000 44.20000 31.11400
H  0.76200 44.44600 33.60400
H  2.32700 43.59500 33.15600
H  -5.44800 40.13600 27.31300
H  -5.97300 41.79900 27.03800
H  -5.10300 41.45200 28.48400
H  -6.66600 41.73200 25.08600
H  -6.03600 40.09900 25.18100
H  -6.71500 40.66800 23.61100
H  -0.53300 43.51800 21.53200
H  2.27900 42.59700 21.72000
H  -0.83400 40.81000 21.62600
H  0.88600 40.91200 21.12000
H  -0.39700 41.67400 20.12700
H  1.09400 45.06300 21.04300
H  2.84800 45.01000 21.63500
H  2.31200 46.09100 23.30500
H  0.62100 45.52800 23.47700
H  1.01200 46.77400 22.27000
H  6.01600 43.91400 24.53800
H  6.61900 42.73900 25.69300
H  6.48600 44.39000 26.15400
H  3.78300 43.51500 30.58200
H  3.44300 39.63300 32.62100
H  3.94600 40.91200 33.79400
H  5.07300 40.06600 32.71400

