79

Mg -4.74300 25.07700 25.67200
C  -3.57900 26.95100 28.40500
C  -5.90400 22.81800 28.12300
C  -5.88500 23.36300 23.21200
C  -3.19500 27.39000 23.59400
N  -4.79800 24.95600 28.02900
C  -4.35200 25.89800 28.85900
C  -4.87600 25.67100 30.32700
C  -5.35700 24.17100 30.24900
C  -5.27000 23.90600 28.74600
C  -4.57900 23.10100 31.08300
C  -5.85500 26.74900 30.71600
C  -5.76700 27.32800 32.18300
H  -5.31700 26.31500 33.22200
N  -5.81900 23.36200 25.61500
C  -6.12600 22.54200 26.73900
C  -6.98900 21.38700 26.15700
C  -7.10100 21.64600 24.77900
C  -6.14300 22.76100 24.45300
C  -7.67400 20.34300 26.98200
C  -7.92900 20.89300 23.68900
O  -7.98100 21.13000 22.50800
C  -8.78100 19.71100 24.11700
N  -4.57000 25.36700 23.73200
C  -5.19900 24.53000 22.85600
C  -4.93400 24.91900 21.37900
C  -4.26900 26.37200 21.53400
C  -3.93700 26.36100 23.07600
C  -4.14400 23.82700 20.58200
C  -5.07600 27.62300 21.20500
C  -5.79900 27.55100 19.83300
N  -3.47900 26.79800 25.86900
C  -2.91600 27.57600 24.96900
C  -2.16300 28.63500 25.64000
C  -2.35500 28.35100 26.99200
C  -3.16900 27.24600 27.07000
C  -1.47600 29.75800 24.93600
C  -2.15400 28.96000 28.26100
O  -1.56000 29.98400 28.54900
C  -2.88900 28.03800 29.29900
C  -1.88800 27.48100 30.25700
O  -1.09700 26.60600 29.93000
O  -2.10500 28.00400 31.50400
C  -1.36900 27.35900 32.52200
H  -6.35500 22.07900 28.78700
H  -6.24500 22.86900 22.30700
H  -2.72500 28.13300 22.94700
H  -4.00600 25.79500 30.97100
H  -6.41100 24.11200 30.52000
H  -5.24000 22.43400 31.63500
H  -3.80700 23.47200 31.75700
H  -4.07900 22.38800 30.42700
H  -6.81600 26.24200 30.62800
H  -5.88700 27.54500 29.97200
H  -6.78900 27.59900 32.45000
H  -5.20300 28.26000 32.20600
H  -7.67700 19.36800 26.49400
H  -8.75400 20.47900 27.03700
H  -7.25400 20.18200 27.97400
H  -8.13800 18.86900 24.37400
H  -9.42500 19.46300 23.27300
H  -9.42300 20.02600 24.94000
H  -5.90200 25.19000 20.95700
H  -3.34100 26.58000 21.00100
H  -3.89700 22.95500 21.18800
H  -3.32100 24.09800 19.92100
H  -4.86100 23.29400 19.95700
H  -4.32500 28.40000 21.34300
H  -5.75400 27.79700 22.04100
H  -5.48500 26.70200 19.22500
H  -5.59800 28.45000 19.25100
H  -6.87200 27.40500 19.95900
H  -1.40200 29.56900 23.86500
H  -0.52900 29.79200 25.47300
H  -2.07800 30.66600 24.95000
H  -3.70200 28.50700 29.85300
H  -0.30600 27.58400 32.43000
H  -1.36600 26.27100 32.44900
H  -1.78600 27.77500 33.43900

