79

Mg 6.39900 54.40300 40.99100
C  6.11200 50.95900 41.10200
C  9.54900 53.96500 39.87200
C  6.64600 57.73700 40.88800
C  3.15100 54.53200 42.23700
N  7.60800 52.58300 40.25300
C  7.32100 51.25700 40.50000
C  8.48500 50.42100 40.16600
C  9.69700 51.49500 40.17200
C  8.91200 52.78100 40.05500
C  10.56600 51.32700 41.53700
C  8.20000 49.70300 38.79700
C  8.24600 50.55300 37.51300
H  6.99600 50.81600 36.61500
N  7.87100 55.66300 40.58700
C  9.14800 55.27500 40.25600
C  9.92200 56.46600 40.05500
C  9.13400 57.62900 40.39000
C  7.82400 57.05900 40.61600
C  11.39200 56.46900 39.63900
C  9.63900 59.06100 40.37300
O  10.85300 59.27800 40.22000
C  8.67800 60.20800 40.62800
N  5.02100 55.88500 41.45700
C  5.40900 57.24500 41.23800
C  4.25300 58.13000 41.46600
C  3.01400 57.12400 41.65700
C  3.77000 55.76500 41.81200
C  4.46900 59.15600 42.62000
C  1.95400 57.25200 40.56000
C  0.47600 57.28500 40.97100
N  4.85300 53.07800 41.44200
C  3.70100 53.29600 42.17700
C  3.13000 52.08100 42.74600
C  4.05700 51.10600 42.32500
C  5.11300 51.79500 41.61500
C  1.85800 51.92600 43.45100
C  4.39600 49.70500 42.40100
O  3.98200 48.74900 43.05100
C  5.71400 49.54900 41.55100
C  5.21200 48.59400 40.50200
O  4.38500 48.87800 39.62900
O  5.87700 47.35600 40.57600
C  5.47800 46.48700 39.46900
H  10.60600 53.81000 39.64600
H  6.64100 58.82900 40.92300
H  2.14600 54.56800 42.66200
H  8.58900 49.62600 40.90500
H  10.42700 51.35100 39.37500
H  10.26400 50.34000 41.88600
H  10.19700 52.06700 42.24800
H  11.63000 51.41100 41.31200
H  7.27500 49.13000 38.85900
H  8.93400 48.93600 38.54900
H  8.95300 50.13700 36.79500
H  8.57200 51.56500 37.75100
H  12.00500 56.84600 40.45700
H  11.64800 57.11800 38.80200
H  11.87700 55.53900 39.34200
H  7.91900 60.26400 39.84700
H  9.26800 61.10500 40.81700
H  8.22900 59.99800 41.59800
H  4.07100 58.70100 40.55500
H  2.57500 57.17200 42.65400
H  4.05300 58.76100 43.54600
H  4.29800 60.20200 42.36400
H  5.53600 59.14600 42.84500
H  2.07100 56.41900 39.86700
H  2.14200 58.19500 40.04600
H  -0.01000 57.69300 40.08500
H  0.17900 57.80200 41.88400
H  0.02100 56.29500 41.01200
H  1.76200 52.58800 44.31200
H  1.71500 50.93000 43.87000
H  1.06100 52.25000 42.78100
H  6.44500 49.11300 42.23200
H  6.06400 46.69700 38.57500
H  4.41700 46.53700 39.22800
H  5.73700 45.47100 39.77000

