79

Mg 42.17800 41.89200 26.23600
C  41.88700 44.27600 28.80100
C  43.32500 39.68600 28.64400
C  42.71000 39.72000 23.84200
C  41.72700 44.48800 23.82000
N  42.58300 41.95500 28.53000
C  42.26900 43.00800 29.34600
C  42.36900 42.61000 30.80600
C  42.89900 41.06700 30.74400
C  42.99200 40.85900 29.21400
C  44.23100 40.79100 31.44300
C  41.02800 42.74100 31.56900
C  41.20800 43.52700 32.94200
H  39.96100 43.46900 33.85400
N  42.86300 39.86600 26.27800
C  43.28600 39.20400 27.36100
C  43.78300 37.95500 26.87900
C  43.53300 37.89500 25.46200
C  43.03300 39.17500 25.09100
C  44.37500 36.85400 27.78200
C  43.83300 36.70800 24.40200
O  43.65400 36.80000 23.18600
C  44.45900 35.41400 24.95200
N  42.26600 42.11500 24.15000
C  42.34200 41.01800 23.43400
C  42.34100 41.37100 21.91500
C  41.81400 42.89900 21.89900
C  41.91000 43.20700 23.37500
C  43.80400 41.17200 21.32000
C  40.35500 42.98700 21.45700
C  39.33900 42.25000 22.36600
N  41.99300 43.91900 26.24600
C  41.80900 44.82600 25.21500
C  41.42800 46.14500 25.78600
C  41.53000 45.93400 27.16500
C  41.84300 44.58100 27.38700
C  41.12900 47.44600 25.13500
C  41.23300 46.58700 28.44600
O  40.89500 47.74000 28.70300
C  41.50700 45.62600 29.55800
C  42.62200 46.21400 30.45500
O  43.82100 46.15700 30.12700
O  42.16900 46.68300 31.62600
C  43.15400 47.05500 32.65600
H  43.54100 38.82500 29.28000
H  42.80600 39.04300 22.99100
H  41.41100 45.18900 23.04400
H  43.08900 43.32100 31.21000
H  42.27300 40.25900 31.12300
H  44.96500 40.12700 30.98800
H  44.00400 40.27500 32.37600
H  44.71800 41.74500 31.64900
H  40.66400 41.74600 31.82500
H  40.32800 43.18200 30.86000
H  41.29600 44.58300 32.69000
H  42.17000 43.18800 33.32700
H  43.83600 35.91400 27.66200
H  44.45900 36.95700 28.86300
H  45.29700 36.44500 27.36900
H  44.62600 34.71400 24.13400
H  43.94900 34.88800 25.75900
H  45.39700 35.81400 25.33800
H  41.52200 40.75600 21.54300
H  42.39200 43.55800 21.25100
H  44.22800 40.37200 21.92700
H  44.25500 42.16300 21.36900
H  43.81200 40.94800 20.25400
H  40.23900 42.52000 20.47900
H  39.93700 43.98000 21.28800
H  39.79200 41.76800 23.23300
H  38.80700 41.49800 21.78300
H  38.57500 43.00700 22.54600
H  42.09300 47.95400 25.12700
H  40.40000 48.04100 25.68600
H  40.74200 47.41000 24.11700
H  40.62600 45.48000 30.18300
H  43.98100 47.67100 32.30400
H  43.53200 46.08400 32.97800
H  42.55100 47.52500 33.43300

