79

Mg -10.85000 37.59900 42.51500
C  -8.23700 35.17600 42.06200
C  -8.52600 39.98800 41.40500
C  -13.24800 39.66900 42.78000
C  -13.05700 34.86400 43.12700
N  -8.67000 37.56500 41.73900
C  -7.80700 36.47800 41.79600
C  -6.45700 36.81600 41.22900
C  -6.51300 38.39900 41.20800
C  -7.97700 38.67400 41.39200
C  -5.59200 39.05000 42.28700
C  -6.07200 36.10600 39.85800
C  -4.70800 35.33900 39.83800
H  -3.85600 35.74000 38.61100
N  -10.85900 39.63300 42.16200
C  -9.86100 40.46100 41.69800
C  -10.28800 41.82900 41.77500
C  -11.68300 41.71800 42.13600
C  -12.02900 40.30500 42.41700
C  -9.41100 43.05500 41.24100
C  -12.57400 42.91000 42.20900
O  -12.23800 44.05700 41.85600
C  -13.94500 42.83000 42.77700
N  -12.90000 37.34300 42.78900
C  -13.74000 38.39300 42.96500
C  -15.16900 38.06800 43.32300
C  -15.17000 36.49600 43.33300
C  -13.60400 36.19400 43.07500
C  -15.71100 38.76900 44.58000
C  -15.93100 35.76600 42.23900
C  -17.05300 34.79500 42.82500
N  -10.73400 35.46800 42.66500
C  -11.66200 34.52600 43.00500
C  -11.01800 33.22600 43.24000
C  -9.71700 33.48600 42.87000
C  -9.56200 34.84600 42.50200
C  -11.62200 31.93200 43.75800
C  -8.40900 32.81400 42.69500
O  -7.98500 31.66500 42.78100
C  -7.54600 33.82400 41.99700
C  -6.36500 33.77100 42.91100
O  -6.33800 34.04800 44.11100
O  -5.22500 33.36700 42.21300
C  -4.09700 33.01400 43.09400
H  -7.80500 40.80700 41.36600
H  -14.07500 40.38200 42.81400
H  -13.69700 34.03500 43.43600
H  -5.73600 36.41900 41.94300
H  -6.22000 38.71200 40.20700
H  -4.94100 39.79900 41.83500
H  -5.01100 38.37500 42.91500
H  -6.35600 39.55500 42.87800
H  -6.03800 36.85500 39.06800
H  -6.85000 35.40600 39.55300
H  -4.95600 34.27900 39.86900
H  -4.10500 35.61900 40.70200
H  -9.76400 43.33600 40.24900
H  -8.36900 42.78400 41.07100
H  -9.29400 43.82300 42.00500
H  -14.40400 43.81900 42.78900
H  -13.90200 42.44000 43.79300
H  -14.58100 42.34600 42.03500
H  -15.74700 38.35100 42.44400
H  -15.39600 36.01500 44.28500
H  -14.96300 39.39500 45.06600
H  -16.02000 37.98400 45.27100
H  -16.49500 39.47900 44.31700
H  -15.29600 35.09800 41.65600
H  -16.34100 36.42100 41.47000
H  -17.21400 34.89200 43.89900
H  -16.83600 33.75800 42.56600
H  -18.01500 35.11000 42.42100
H  -12.45300 31.72400 43.08500
H  -12.01100 32.33700 44.69200
H  -10.86400 31.15400 43.85100
H  -7.29300 33.54400 40.97400
H  -3.13400 32.92700 42.59100
H  -4.19900 32.02300 43.53600
H  -4.00800 33.73800 43.90400

