79

Mg 30.68900 57.06900 39.35300
C  28.01900 54.92400 38.29000
C  32.90000 54.78300 38.40700
C  33.01100 59.42400 39.50800
C  28.16700 59.51200 39.91800
N  30.44100 55.08300 38.15500
C  29.29200 54.32700 38.05500
C  29.68200 52.87200 37.78000
C  31.27200 52.80800 38.03400
C  31.56100 54.30100 38.27400
C  31.73600 51.85500 39.20700
C  29.19000 52.35500 36.34600
C  29.41100 53.17300 35.03800
H  28.40100 54.11800 34.40000
N  32.72700 57.01000 39.10100
C  33.50300 56.01300 38.68800
C  34.89600 56.41100 38.61100
C  34.92100 57.78000 38.99600
C  33.50900 58.08200 39.28100
C  35.93500 55.52500 38.09900
C  36.16200 58.62300 39.00400
O  37.19500 58.16000 38.60400
C  36.15800 60.09300 39.25800
N  30.65600 59.16500 39.68400
C  31.76000 59.94600 39.68900
C  31.36900 61.45500 39.86300
C  29.81100 61.37000 40.14900
C  29.49200 59.91500 39.87600
C  32.12900 62.29300 40.97100
C  29.00900 62.33100 39.17800
C  27.74900 63.06600 39.71000
N  28.53300 57.29000 39.19800
C  27.70400 58.32300 39.44600
C  26.29600 57.83000 39.21500
C  26.43100 56.47000 38.79500
C  27.79600 56.25900 38.75500
C  25.00800 58.42600 39.48800
C  25.63800 55.40500 38.30300
O  24.44000 55.27700 38.13000
C  26.65300 54.22800 38.00800
C  26.36800 53.15100 39.03100
O  26.80200 53.05300 40.17700
O  25.46000 52.27300 38.46100
C  24.76700 51.38300 39.39900
H  33.59100 53.94700 38.27700
H  33.63600 60.30900 39.36800
H  27.37000 60.21300 40.17500
H  29.18000 52.26300 38.53200
H  31.63600 52.52100 37.04700
H  32.14700 52.41500 40.04700
H  32.44200 51.10300 38.85400
H  30.85500 51.41200 39.67200
H  28.11100 52.21000 36.30400
H  29.71900 51.41500 36.18900
H  29.79900 52.44700 34.32300
H  30.25800 53.77600 35.36600
H  35.83400 55.43900 37.01700
H  35.68200 54.56800 38.55400
H  36.95100 55.69300 38.45800
H  37.12600 60.43700 39.62300
H  35.58300 60.17000 40.18100
H  35.75100 60.65200 38.41500
H  31.67300 61.87600 38.90500
H  29.65400 61.45600 41.22400
H  32.07800 63.37600 40.86100
H  33.18400 62.01800 40.94200
H  31.82900 61.94900 41.96100
H  28.64400 61.73900 38.33800
H  29.75200 63.05700 38.84900
H  27.62800 62.88700 40.77800
H  26.80000 62.71500 39.30400
H  27.84100 64.14800 39.62200
H  24.45600 57.89200 40.26100
H  24.40600 58.43100 38.57900
H  25.13400 59.48800 39.69700
H  26.44400 53.85400 37.00600
H  24.96300 51.64000 40.44000
H  24.99600 50.35200 39.12800
H  23.69300 51.49000 39.24800

