79

Mg 41.00500 8.56600 29.92000
C  42.92900 9.75500 32.53300
C  38.76000 7.36000 31.85500
C  39.40400 7.41200 26.99400
C  43.65600 9.74900 27.66900
N  41.00000 8.36000 32.02000
C  41.75700 9.04400 32.96800
C  41.07300 8.98600 34.30000
C  39.78100 8.11200 34.05900
C  39.82000 7.89100 32.57200
C  39.70300 6.77700 34.82300
C  40.66900 10.44900 34.75900
C  40.32400 10.62900 36.23200
H  41.12000 11.57800 37.07300
N  39.31600 7.47200 29.52500
C  38.49000 7.06800 30.55600
C  37.43000 6.27600 29.95700
C  37.64700 6.27500 28.49900
C  38.83900 7.03600 28.29500
C  36.40300 5.58200 30.80300
C  36.86200 5.54600 27.42300
O  36.93400 5.75200 26.18500
C  35.86000 4.50900 27.82300
N  41.49500 8.58100 27.71300
C  40.62700 8.13600 26.73000
C  41.03100 8.31900 25.31700
C  42.35700 9.08900 25.53900
C  42.50800 9.22900 27.09900
C  41.27800 6.99800 24.49700
C  42.44300 10.47800 24.81500
C  41.65500 11.65900 25.47700
N  43.03600 9.38200 30.04900
C  43.92300 9.90600 29.08700
C  45.03000 10.51500 29.81100
C  44.61900 10.49900 31.13600
C  43.43000 9.75100 31.27600
C  46.24000 11.02200 29.11500
C  44.96000 10.99500 32.48000
O  45.93800 11.57400 32.84200
C  43.78700 10.56900 33.45400
C  44.42400 9.69000 34.56200
O  45.16400 8.71800 34.43300
O  44.14600 10.24400 35.75400
C  44.37400 9.38800 36.88800
H  37.97400 6.94800 32.49100
H  38.91400 7.17900 26.04600
H  44.35800 10.21500 26.97500
H  41.71600 8.47700 35.01800
H  38.87700 8.67800 34.28300
H  38.92700 6.86000 35.58400
H  40.57200 6.57100 35.44800
H  39.70000 5.90600 34.16800
H  39.77700 10.78100 34.22800
H  41.52400 11.11200 34.62400
H  40.35500 9.66300 36.73600
H  39.30600 11.01600 36.28700
H  35.37800 5.78900 30.49500
H  36.53800 5.87300 31.84500
H  36.66000 4.52300 30.83000
H  34.97700 5.02900 28.19600
H  36.30000 3.92500 28.63100
H  35.62500 3.90800 26.94500
H  40.22100 8.82700 24.79400
H  43.18400 8.46900 25.19200
H  41.52100 6.18100 25.17600
H  41.99200 7.25000 23.71200
H  40.36500 6.78300 23.94200
H  42.09800 10.25700 23.80500
H  43.48900 10.77200 24.73000
H  42.28400 12.46000 25.86500
H  41.06800 11.30600 26.32500
H  41.04900 12.20100 24.75100
H  46.46900 10.46400 28.20700
H  47.00600 10.77800 29.85200
H  46.26300 12.05900 28.78100
H  43.34900 11.53500 33.70500
H  44.19300 8.32800 36.71100
H  43.76800 9.71000 37.73500
H  45.43300 9.53900 37.09700

