79

Mg 26.67000 50.45600 27.04300
C  24.52900 51.22600 29.73400
C  28.95600 49.57800 29.34300
C  28.73000 49.89200 24.53900
C  24.20000 51.68900 24.87800
N  26.67300 50.30700 29.35300
C  25.67200 50.62900 30.19400
C  26.05000 50.17800 31.62600
C  27.51100 49.76400 31.48500
C  27.77300 49.96900 29.99100
C  28.64200 50.48500 32.27900
C  25.03200 49.19500 32.34400
C  24.17200 49.74100 33.44400
H  24.36300 49.19300 34.85300
N  28.59900 49.94300 26.95200
C  29.35600 49.53000 28.00800
C  30.67800 49.06500 27.50700
C  30.67300 49.33800 26.10600
C  29.33200 49.79900 25.79400
C  31.66100 48.43700 28.39300
C  31.80700 48.97300 25.20200
O  31.69600 49.05300 23.94100
C  33.01300 48.40800 25.68500
N  26.39700 50.62400 25.05700
C  27.41600 50.22400 24.14800
C  26.84200 50.25900 22.69600
C  25.41000 50.81300 22.86000
C  25.30700 51.06700 24.32800
C  27.59000 50.95400 21.57100
C  24.26600 49.89900 22.26300
C  23.84100 50.47300 20.88000
N  24.79300 51.40600 27.25900
C  23.92000 51.90800 26.26400
C  22.68000 52.24900 26.85900
C  22.89500 52.06100 28.26000
C  24.18900 51.57500 28.41200
C  21.45500 52.61700 26.15800
C  22.24900 52.18500 29.51800
O  21.11700 52.60800 29.84100
C  23.32100 51.65500 30.55500
C  23.66900 52.79900 31.43400
O  24.30800 53.78200 31.07100
O  23.08500 52.68300 32.59900
C  23.26000 53.77300 33.60200
H  29.63500 49.34300 30.16500
H  29.33200 49.65600 23.65900
H  23.43900 52.03400 24.17600
H  26.10700 51.17800 32.05700
H  27.52900 48.68600 31.64700
H  29.25600 49.68400 32.69100
H  28.22000 51.12700 33.05100
H  29.23700 51.11500 31.61700
H  25.67100 48.40500 32.74000
H  24.39700 48.81700 31.54300
H  23.11100 49.57100 33.26100
H  24.40400 50.80600 33.46300
H  32.49900 49.11300 28.56300
H  32.03800 47.48000 28.03000
H  31.25600 48.04700 29.32700
H  33.74300 48.39600 24.87600
H  32.71900 47.43200 26.07000
H  33.31600 49.11700 26.45700
H  26.90400 49.17700 22.57800
H  25.36500 51.79700 22.39400
H  28.56000 51.40000 21.79300
H  26.95900 51.64800 21.01500
H  27.72600 50.05900 20.96400
H  23.47700 49.89200 23.01600
H  24.55500 48.86200 22.09400
H  24.23400 51.48300 20.76200
H  22.75300 50.53500 20.85000
H  24.18400 49.78200 20.11000
H  21.46500 52.20900 25.14700
H  21.36200 53.69700 26.05200
H  20.69900 52.17800 26.81000
H  22.83900 50.80600 31.03900
H  23.97300 54.55900 33.35300
H  23.72000 53.09500 34.32100
H  22.38300 54.34300 33.91000

