79

Mg 56.18300 24.74700 44.62400
C  53.88900 26.93600 43.23500
C  54.69400 22.15600 43.01000
C  59.09500 22.91900 45.07300
C  57.98400 27.72700 45.68300
N  54.58800 24.57600 43.07100
C  53.80900 25.64600 42.67800
C  52.70100 25.17200 41.72000
C  52.83100 23.58700 41.89600
C  54.09400 23.38900 42.69000
C  51.56000 22.76000 42.35100
C  53.09100 25.62200 40.19700
C  51.93500 26.06500 39.19100
H  51.72500 25.21800 37.94500
N  56.68400 22.76600 44.31500
C  55.86600 21.77100 43.76400
C  56.55100 20.55000 43.83300
C  57.79600 20.69100 44.46600
C  57.93600 22.20700 44.62500
C  55.88700 19.28800 43.35100
C  58.79900 19.58900 44.91700
O  58.64600 18.43800 44.60100
C  59.80800 19.86700 45.91000
N  58.16400 25.21400 45.41700
C  59.22000 24.25600 45.45700
C  60.41200 24.90900 46.15300
C  60.09600 26.45700 46.06400
C  58.65700 26.45000 45.78100
C  60.77700 24.41000 47.57800
C  60.88500 27.32700 44.98900
C  61.41100 28.69400 45.42800
N  55.93700 26.85700 44.72100
C  56.69100 27.90500 45.16600
C  55.95500 29.14000 45.10600
C  54.81500 28.78900 44.37500
C  54.90700 27.42500 44.11500
C  56.28500 30.50900 45.70700
C  53.51100 29.22100 43.91600
O  52.94000 30.28500 43.97700
C  52.83000 28.02400 43.09600
C  52.77800 28.69600 41.76800
O  53.74800 29.07600 41.17400
O  51.48700 28.85700 41.46000
C  51.11600 29.36500 40.14000
H  54.26100 21.29700 42.49200
H  60.03300 22.42300 45.33100
H  58.48600 28.61800 46.06600
H  51.69200 25.50800 41.95900
H  52.87000 23.14800 40.89900
H  51.58400 21.78400 41.86800
H  50.60600 23.28100 42.27200
H  51.71500 22.50300 43.39800
H  53.56800 24.82100 39.63300
H  53.90300 26.34800 40.15600
H  52.23700 27.04900 38.83300
H  51.00600 26.21100 39.74200
H  56.33000 18.77800 42.49500
H  54.87200 19.46400 42.99500
H  55.79600 18.58400 44.17800
H  60.72700 20.13600 45.38900
H  60.00600 18.99900 46.54000
H  59.45100 20.63100 46.60100
H  61.30300 24.85000 45.52800
H  60.28800 27.05100 46.95700
H  60.46200 25.08000 48.37800
H  61.84200 24.19300 47.50000
H  60.29100 23.44000 47.68600
H  60.25300 27.45700 44.11000
H  61.81100 26.85400 44.66000
H  62.49800 28.75400 45.37500
H  61.28100 28.86700 46.49700
H  60.99900 29.50900 44.83200
H  56.78400 31.12100 44.95600
H  56.95300 30.46400 46.56600
H  55.49300 31.19700 46.00500
H  51.90000 27.65400 43.52700
H  50.51000 30.23600 40.39000
H  50.53700 28.62400 39.58900
H  51.89600 29.71600 39.46400

