79

Mg 47.31500 24.47700 28.45000
C  48.10600 26.84800 31.01200
C  46.39800 22.34600 31.06500
C  47.11400 22.10000 26.23500
C  48.51300 26.74000 26.12100
N  47.29900 24.63600 30.75100
C  47.48100 25.68300 31.58700
C  47.12100 25.47800 33.11300
C  46.69600 23.99400 33.00900
C  46.77500 23.62500 31.48100
C  47.70500 23.09900 33.88300
C  46.10300 26.48900 33.64600
C  46.46900 27.18000 34.98100
H  45.34100 27.43800 36.05600
N  46.77300 22.49400 28.58600
C  46.40200 21.84300 29.74300
C  45.89600 20.57000 29.35400
C  46.14400 20.38500 27.99500
C  46.70200 21.66900 27.55200
C  45.23800 19.55300 30.32600
C  45.85100 19.16500 27.12700
O  46.11000 19.09400 25.93200
C  45.16700 17.98000 27.68800
N  47.76500 24.40300 26.42000
C  47.58500 23.28100 25.71100
C  47.72600 23.60800 24.21700
C  48.03600 25.13200 24.28300
C  48.14800 25.44300 25.68300
C  48.89200 22.77500 23.63700
C  47.00100 25.99300 23.55400
C  45.49500 25.70500 23.76700
N  48.09500 26.40800 28.48000
C  48.53300 27.20000 27.41600
C  48.92200 28.43700 27.92400
C  48.76700 28.41600 29.35900
C  48.29700 27.07600 29.62600
C  49.46100 29.52500 27.00800
C  48.94200 29.06900 30.59700
O  49.33200 30.22000 30.80800
C  48.52600 28.09100 31.72600
C  49.70300 27.86600 32.69300
O  50.64400 27.11800 32.39600
O  49.49900 28.45400 33.95600
C  50.68000 28.58700 34.82700
H  46.07200 21.60100 31.79400
H  47.05600 21.29400 25.50100
H  48.66700 27.46000 25.31500
H  48.04000 25.51500 33.69800
H  45.68000 23.86900 33.38400
H  47.93900 23.64500 34.79700
H  48.64300 22.99100 33.33900
H  47.24000 22.13700 34.09800
H  45.11900 26.02800 33.73200
H  45.97500 27.30600 32.93700
H  46.90600 28.13300 34.68000
H  47.28300 26.69700 35.52200
H  44.93700 20.05600 31.24500
H  45.87700 18.72200 30.62500
H  44.27600 19.11200 30.06300
H  45.61100 17.64700 28.62600
H  45.13700 17.17400 26.95500
H  44.10700 18.19500 27.81700
H  46.85100 23.23600 23.68400
H  48.98200 25.26000 23.75700
H  48.32100 22.03600 23.07400
H  49.63900 22.39600 24.33500
H  49.49100 23.35600 22.93700
H  47.33000 25.75900 22.54200
H  47.07000 27.06500 23.74000
H  44.97700 25.23900 22.92900
H  44.93100 26.62100 23.94600
H  45.51000 25.10700 24.67800
H  49.34200 30.48500 27.51200
H  48.90400 29.56000 26.07200
H  50.49500 29.28700 26.76000
H  47.82200 28.66700 32.32600
H  50.64700 27.71800 35.48500
H  50.88600 29.46200 35.44300
H  51.52900 28.39600 34.17100

