79

Mg 35.55600 48.90500 24.99100
C  36.08400 47.39000 28.11300
C  33.95900 51.45300 26.71300
C  34.67600 50.04000 22.06000
C  37.08200 46.12100 23.46900
N  34.88800 49.23400 27.16600
C  35.43500 48.58800 28.26800
C  35.04000 49.27300 29.61200
C  34.13100 50.37300 28.98700
C  34.30300 50.36800 27.50100
C  32.62400 50.24600 29.39400
C  36.27800 49.85100 30.41100
C  36.31700 49.16700 31.80600
H  35.02800 48.86900 32.56300
N  34.55100 50.57400 24.46700
C  34.13800 51.57800 25.26400
C  33.58300 52.67200 24.36900
C  33.60300 52.17900 23.09500
C  34.24300 50.83400 23.17100
C  33.10500 53.97900 24.88400
C  33.21900 52.85200 21.70300
O  33.24700 52.29500 20.57400
C  32.63100 54.19900 21.71000
N  35.86500 48.26400 23.02000
C  35.36800 48.89200 21.96800
C  35.80700 48.26500 20.59800
C  36.62100 47.03100 21.13000
C  36.53300 47.09400 22.63300
C  34.65300 47.92400 19.61300
C  38.13600 47.03900 20.67400
C  38.97700 48.16900 21.33800
N  36.34200 47.08300 25.60300
C  36.95300 46.03000 24.90800
C  37.34200 44.96400 25.78900
C  37.03000 45.44400 27.02500
C  36.47200 46.77000 26.84900
C  37.86900 43.63800 25.32100
C  37.06000 45.12100 28.45400
O  37.43400 44.10300 29.02800
C  36.56300 46.41100 29.20600
C  35.37200 45.91200 29.93600
O  34.24500 45.76500 29.49000
O  35.82400 45.28800 31.13600
C  34.91600 44.70100 32.10800
H  33.48200 52.25400 27.28200
H  34.38500 50.34400 21.05300
H  37.49400 45.21400 23.02200
H  34.40300 48.52300 30.08100
H  34.42900 51.35800 29.34600
H  32.56600 49.51200 30.19700
H  31.98400 49.86900 28.59700
H  32.15600 51.17400 29.72300
H  36.12600 50.93000 30.44400
H  37.16900 49.65600 29.81400
H  37.02400 49.83900 32.29100
H  36.91900 48.26600 31.68700
H  32.03500 53.87900 24.70200
H  33.54100 54.84800 24.39200
H  33.29300 54.10600 25.95000
H  32.00600 54.42100 22.57500
H  31.91000 54.24400 20.89400
H  33.44000 54.90700 21.53000
H  36.50300 48.99400 20.18400
H  36.26700 46.03100 20.88100
H  33.72900 48.45700 19.83500
H  34.40100 46.87000 19.73300
H  35.02600 47.99300 18.59100
H  38.05300 47.32100 19.62400
H  38.56200 46.05300 20.86000
H  39.56900 47.68300 22.11400
H  38.25300 48.90200 21.69400
H  39.54500 48.66200 20.54900
H  38.90800 43.52500 25.63300
H  37.89300 43.57700 24.23300
H  37.40200 42.82100 25.87100
H  37.39300 46.82600 29.77700
H  35.04200 43.61900 32.06000
H  33.89100 44.93000 31.81700
H  35.23700 45.08000 33.07800

