79

Mg 1.89300 -1.80500 44.05200
C  5.38600 -1.48000 43.73800
C  1.46200 1.01200 42.42800
C  -1.31700 -2.73700 43.50900
C  2.54900 -5.03300 45.31200
N  3.24900 -0.47800 43.13600
C  4.62300 -0.45000 43.15100
C  5.17600 0.77100 42.34400
C  3.92900 1.75400 42.29400
C  2.77500 0.71900 42.66300
C  4.06700 2.93300 43.30000
C  5.71800 0.33800 40.92300
C  7.14100 0.86400 40.54700
H  7.41200 0.86800 39.05900
N  0.18400 -0.93900 43.09200
C  0.26400 0.27600 42.58100
C  -1.05100 0.58800 42.07800
C  -1.81800 -0.65900 42.13600
C  -0.98000 -1.47300 42.95300
C  -1.39200 1.99800 41.53000
C  -3.19000 -0.91800 41.64300
O  -3.70100 -0.08700 40.84200
C  -3.97400 -2.16600 41.75600
N  0.82200 -3.66600 44.32000
C  -0.50400 -3.73200 44.14900
C  -1.15700 -4.93400 44.92600
C  0.11700 -5.66700 45.45500
C  1.30300 -4.74300 44.97600
C  -2.17800 -4.47700 45.98200
C  0.29100 -7.15400 44.94400
C  0.63800 -8.11300 46.01500
N  3.56000 -3.00900 44.56700
C  3.64800 -4.27600 45.12600
C  4.98000 -4.59900 45.48300
C  5.73000 -3.51900 44.94200
C  4.80200 -2.66700 44.36000
C  5.52800 -5.87700 45.96900
C  7.07400 -2.94100 44.70600
O  8.20600 -3.30900 45.02700
C  6.90400 -1.66300 43.89500
C  7.56200 -0.50400 44.56200
O  7.45200 -0.27200 45.76500
O  8.27600 0.23000 43.67800
C  8.64800 1.64000 44.08400
H  1.44100 2.04700 42.08100
H  -2.32900 -3.09600 43.31000
H  2.77600 -5.96900 45.82700
H  6.06500 1.08100 42.89500
H  3.79500 2.14900 41.28700
H  4.42800 3.83700 42.81000
H  4.71700 2.74600 44.15500
H  3.11200 3.09300 43.80100
H  4.95800 0.65400 40.20800
H  5.82900 -0.73400 40.75900
H  7.83200 0.16700 41.02100
H  7.18300 1.88600 40.92400
H  -0.73700 2.30200 40.71400
H  -1.07900 2.67900 42.32200
H  -2.42900 2.31900 41.43000
H  -4.94700 -2.01700 41.28700
H  -4.23300 -2.25700 42.81100
H  -3.51900 -3.11000 41.45700
H  -1.60100 -5.54500 44.14000
H  0.14200 -5.67700 46.54500
H  -3.17100 -4.63100 45.56000
H  -1.95200 -3.42100 46.12800
H  -2.06200 -5.00100 46.93100
H  1.09200 -7.15500 44.20500
H  -0.64500 -7.47000 44.48300
H  -0.21600 -8.22800 46.68300
H  1.50300 -7.76800 46.58100
H  1.04000 -9.07900 45.71100
H  6.51900 -5.71700 46.39600
H  5.74200 -6.66500 45.24600
H  5.06900 -6.27300 46.87500
H  7.40000 -1.84900 42.94300
H  9.46600 1.55600 44.80000
H  7.87800 2.21900 44.59400
H  9.01800 2.31000 43.30800

