79

Mg -5.16300 25.20200 26.71400
C  -3.51400 27.07200 29.22900
C  -6.18000 23.08700 29.33700
C  -6.46400 23.17700 24.49200
C  -3.57300 27.07100 24.28200
N  -4.85100 25.14900 29.01400
C  -4.23100 26.02000 29.84100
C  -4.50200 25.73800 31.31400
C  -5.02200 24.23700 31.22300
C  -5.45100 24.18300 29.81900
C  -4.03600 23.09200 31.59200
C  -5.55300 26.77900 31.89200
C  -5.16000 27.36300 33.27100
H  -6.20600 27.08300 34.37500
N  -6.13700 23.37700 26.90000
C  -6.55800 22.70900 27.97700
C  -7.33800 21.59000 27.65300
C  -7.43900 21.61600 26.25800
C  -6.66600 22.72600 25.80700
C  -7.88300 20.65000 28.64900
C  -8.13800 20.51100 25.36400
O  -8.08600 20.47700 24.14600
C  -9.06400 19.56800 26.08100
N  -5.08500 25.12400 24.70000
C  -5.81400 24.26200 23.96800
C  -5.81900 24.67400 22.41700
C  -4.94200 25.94500 22.52300
C  -4.39900 26.04300 23.89300
C  -5.37200 23.56200 21.44500
C  -5.62100 27.22500 22.03300
C  -5.11600 27.86300 20.69900
N  -3.96700 26.77800 26.69800
C  -3.32300 27.36900 25.66900
C  -2.44700 28.44100 26.14600
C  -2.58200 28.39700 27.53500
C  -3.43100 27.34700 27.83400
C  -1.46700 29.18500 25.26300
C  -2.07900 28.95000 28.76800
O  -1.30400 29.87100 29.04200
C  -2.76600 28.05500 29.95800
C  -1.75500 27.43000 30.76100
O  -0.88100 26.65700 30.33700
O  -1.83500 27.97400 32.01600
C  -1.18900 27.32000 33.13500
H  -6.73300 22.62900 30.16000
H  -6.95100 22.53900 23.75200
H  -3.03800 27.69400 23.56300
H  -3.54000 25.71600 31.82700
H  -5.86400 24.10600 31.90200
H  -4.39600 22.55900 32.47100
H  -3.09700 23.58200 31.85100
H  -3.86500 22.42700 30.74500
H  -6.52800 26.29400 31.95300
H  -5.67500 27.62200 31.21200
H  -4.88700 28.41600 33.19800
H  -4.33000 26.75900 33.63900
H  -7.67200 19.59300 28.48700
H  -8.94100 20.89500 28.74300
H  -7.46000 20.80400 29.64200
H  -9.61200 19.14000 25.24200
H  -9.79900 20.07500 26.70700
H  -8.60100 18.75800 26.64500
H  -6.83300 25.01200 22.20500
H  -4.03200 25.76400 21.95100
H  -6.24500 23.32400 20.83800
H  -4.86300 22.75100 21.96600
H  -4.64400 23.94900 20.73200
H  -5.47300 28.00800 22.77700
H  -6.70200 27.13700 21.92300
H  -4.49800 28.73800 20.90100
H  -5.97600 28.29700 20.18900
H  -4.65300 27.09600 20.07700
H  -0.68600 28.45900 25.03700
H  -0.91800 29.96400 25.79100
H  -1.97800 29.52700 24.36300
H  -3.55900 28.54000 30.52700
H  -0.90500 26.27400 33.02200
H  -1.97000 27.36400 33.89400
H  -0.38100 27.97400 33.46100

