79

Mg 27.26600 50.52500 26.25000
C  25.15400 51.64600 28.96000
C  29.48700 49.46300 28.46700
C  29.36400 50.03700 23.63600
C  25.02200 52.18200 24.04000
N  27.22600 50.53600 28.43800
C  26.31500 50.99400 29.37300
C  26.75100 50.56000 30.78600
C  28.22100 50.08100 30.56600
C  28.31700 50.04500 29.06100
C  29.33100 51.04800 31.10600
C  25.76100 49.57800 31.46200
C  24.99900 49.89400 32.75200
H  25.73500 50.44700 33.98000
N  29.10800 49.81400 26.05800
C  29.81400 49.31000 27.13300
C  31.07600 48.80200 26.59900
C  31.14800 49.08900 25.26200
C  29.92000 49.71900 24.90800
C  32.07500 48.03000 27.43400
C  32.24400 48.79200 24.20700
O  32.16800 49.14000 23.02600
C  33.49400 48.14000 24.63800
N  27.23600 51.17000 24.16600
C  28.20600 50.71300 23.30700
C  27.74200 50.90500 21.84300
C  26.37400 51.63000 21.94100
C  26.15200 51.60400 23.48300
C  28.76700 51.69700 20.93000
C  25.20900 50.88500 21.17800
C  24.70200 51.55800 19.87900
N  25.46700 51.67400 26.42100
C  24.67900 52.22100 25.39100
C  23.53200 52.96200 26.02200
C  23.72300 52.67900 27.38200
C  24.79500 51.98200 27.55200
C  22.47600 53.72600 25.26300
C  23.09000 52.90900 28.68000
O  22.05800 53.51400 29.00000
C  24.01700 52.29200 29.72700
C  24.49200 53.42400 30.58300
O  25.57000 54.02500 30.43000
O  23.75100 53.39200 31.75200
C  24.42700 53.94200 32.91800
H  30.15500 49.07200 29.23800
H  29.95900 49.94900 22.72400
H  24.34200 52.73500 23.38800
H  26.75300 51.42000 31.45600
H  28.32800 49.05800 30.92700
H  29.65400 50.55200 32.02200
H  28.99400 52.03200 31.43300
H  30.21000 51.20000 30.48000
H  26.47100 48.85900 31.87200
H  25.11500 49.16700 30.68500
H  24.59800 48.97000 33.16700
H  24.11100 50.49600 32.55600
H  31.84500 48.35200 28.44900
H  33.11500 48.33200 27.30400
H  31.96300 46.96200 27.24900
H  33.90800 48.90700 25.29300
H  34.05200 47.95300 23.72100
H  33.19900 47.20400 25.11300
H  27.64200 49.96000 21.31100
H  26.47500 52.66300 21.60700
H  29.66100 52.11200 21.39600
H  28.24000 52.53500 20.47500
H  29.09100 50.95100 20.20500
H  24.33000 50.54600 21.72700
H  25.55600 49.92800 20.78700
H  24.92200 50.99900 18.97000
H  25.22600 52.51200 19.83700
H  23.62600 51.69200 19.99900
H  22.91600 54.47400 24.60200
H  21.85800 54.25500 25.98700
H  21.86800 52.99500 24.73000
H  23.41700 51.55900 30.26700
H  24.40200 55.00700 32.69100
H  25.44700 53.57100 33.01700
H  23.84200 53.85800 33.83400

