79

Mg 9.16200 3.33100 27.97200
C  10.60700 1.71600 30.79200
C  7.70300 5.51700 30.05600
C  7.67100 4.50800 25.38200
C  10.41400 0.61500 25.91800
N  9.04800 3.43300 30.20100
C  9.87200 2.83400 31.13500
C  9.76000 3.59800 32.52200
C  8.73100 4.69200 32.24700
C  8.48700 4.54500 30.75100
C  7.35100 4.50800 32.97100
C  11.19100 4.09300 33.11100
C  11.59000 3.68400 34.58800
H  10.51500 3.88500 35.66700
N  7.88500 4.83300 27.76300
C  7.39400 5.63900 28.70000
C  6.61500 6.63400 28.09100
C  6.56500 6.41900 26.63200
C  7.42600 5.24200 26.49500
C  5.98300 7.75100 28.95400
C  6.00200 7.26100 25.57300
O  5.94400 6.93000 24.38200
C  5.41100 8.62700 25.93800
N  9.10300 2.65900 25.89600
C  8.37900 3.36700 25.07700
C  8.39500 2.71200 23.64500
C  9.36800 1.51700 23.82000
C  9.67100 1.57100 25.29000
C  6.98700 2.35000 23.09700
C  10.62000 1.78100 22.92600
C  11.08800 0.43000 22.31600
N  10.23000 1.52800 28.22200
C  10.70800 0.60500 27.30100
C  11.51700 -0.37800 28.04000
C  11.49100 0.08600 29.35400
C  10.68800 1.19600 29.46500
C  12.17200 -1.54300 27.47900
C  12.00500 -0.21800 30.67100
O  12.75300 -1.10800 30.94600
C  11.46500 0.88300 31.73500
C  10.58700 0.17300 32.73700
O  9.60600 -0.45100 32.41200
O  10.87700 0.55300 34.07700
C  10.05100 -0.14900 35.11400
H  7.22400 6.21400 30.74800
H  7.22000 4.94000 24.48600
H  10.89400 -0.16200 25.32000
H  9.41000 2.88900 33.27200
H  9.21100 5.66200 32.36900
H  7.40800 4.02100 33.94400
H  6.77800 3.85800 32.31000
H  6.87700 5.49000 32.99400
H  11.37600 5.16200 33.00700
H  11.91900 3.62000 32.45100
H  12.28300 4.47500 34.87700
H  11.97800 2.67500 34.73000
H  6.47000 8.68300 28.66600
H  6.16500 7.64700 30.02400
H  4.91300 7.91400 28.82500
H  6.31500 9.08800 26.33700
H  4.60700 8.44800 26.65100
H  4.97500 9.19100 25.11300
H  8.67800 3.45500 22.90000
H  8.82600 0.61500 23.53600
H  6.68200 1.30300 23.10000
H  6.97000 2.59100 22.03500
H  6.16000 2.92500 23.51500
H  11.51200 2.05700 23.48900
H  10.51200 2.50500 22.11900
H  10.80800 0.44000 21.26200
H  10.65100 -0.46900 22.75100
H  12.17200 0.35000 22.39200
H  13.03400 -1.85500 28.06700
H  12.53600 -1.24100 26.49700
H  11.36000 -2.26000 27.35300
H  12.30900 1.43600 32.14800
H  9.31600 0.52200 35.55900
H  10.80900 -0.43200 35.84400
H  9.62100 -1.05000 34.67600

