79

Mg 0.65600 43.30700 26.39500
C  2.96800 43.14900 29.09900
C  -1.86800 42.84900 28.54500
C  -1.25900 43.26800 23.74600
C  3.55000 43.61900 24.28500
N  0.62900 43.05300 28.57000
C  1.62400 43.07700 29.50900
C  1.11000 42.93400 30.93800
C  -0.36600 42.44700 30.66600
C  -0.58300 42.79400 29.14500
C  -0.69300 41.00100 31.08900
C  1.28100 44.26800 31.82300
C  1.88100 44.04700 33.23100
H  1.55300 42.69500 33.81500
N  -1.35000 43.23000 26.18800
C  -2.27500 43.13000 27.21300
C  -3.61600 43.20200 26.59900
C  -3.44700 43.29700 25.23000
C  -1.99500 43.23700 24.97600
C  -4.96400 43.28000 27.43000
C  -4.52100 43.48200 24.14200
O  -4.23000 43.63000 22.94300
C  -6.01700 43.54100 24.47200
N  1.11300 43.16500 24.30100
C  0.15500 43.23200 23.40300
C  0.61700 43.38700 21.91200
C  2.09700 43.72700 22.19400
C  2.22700 43.55500 23.70900
C  0.29800 42.12600 21.00900
C  2.63200 45.09000 21.59400
C  1.94100 46.33200 22.11300
N  2.84400 43.28700 26.59000
C  3.86400 43.41700 25.62800
C  5.17600 43.38200 26.20900
C  4.86400 43.29700 27.64500
C  3.46500 43.27700 27.77100
C  6.39600 43.66600 25.44800
C  5.50500 43.25800 28.96100
O  6.68700 43.24000 29.24900
C  4.19300 43.26300 29.95000
C  4.48200 42.17100 30.82700
O  4.25800 41.00900 30.61400
O  5.11800 42.69700 31.92700
C  5.42000 41.72800 32.99800
H  -2.78900 42.56600 29.05900
H  -1.83600 43.26100 22.81900
H  4.39200 43.91400 23.65400
H  1.74500 42.16800 31.38100
H  -1.06100 43.06400 31.23600
H  -0.90200 40.37300 30.22300
H  -1.49300 41.00600 31.82900
H  0.19800 40.58900 31.56500
H  0.33100 44.76500 32.02200
H  1.90600 45.01900 31.34100
H  1.58900 44.83000 33.93000
H  2.93400 44.19100 32.98800
H  -5.34800 42.26500 27.53000
H  -5.73900 43.95600 27.06800
H  -4.77200 43.65000 28.43700
H  -6.40500 42.86200 25.23100
H  -6.50200 43.32000 23.52100
H  -6.20500 44.54500 24.85200
H  -0.00600 44.22000 21.58600
H  2.74100 42.94000 21.80100
H  -0.52500 41.58700 21.47800
H  1.12100 41.41200 21.05000
H  0.06400 42.43700 19.99100
H  2.53000 45.17700 20.51300
H  3.69100 45.16800 21.84300
H  1.33900 46.72100 21.29200
H  2.72700 47.06600 22.29200
H  1.37100 46.27400 23.04100
H  6.36400 44.26600 24.53900
H  6.91400 42.71700 25.30500
H  7.06600 44.21900 26.10600
H  4.21600 44.20900 30.49100
H  6.37200 41.25400 32.76000
H  4.72700 40.92800 33.25900
H  5.46300 42.28000 33.93700

