79

Mg 47.10800 34.15100 26.81800
C  45.65000 32.53000 29.59200
C  47.36000 37.01100 28.72300
C  48.28800 35.75600 24.17900
C  46.58200 31.33500 24.95400
N  46.43100 34.73500 28.85700
C  45.89100 33.90700 29.79100
C  45.56300 34.74000 31.03900
C  46.14400 36.09400 30.79900
C  46.70700 35.98300 29.38500
C  45.01700 37.19200 31.04400
C  45.97200 34.05400 32.34500
C  46.26500 35.00700 33.55300
H  47.68000 35.48300 33.93300
N  47.77700 36.12200 26.49200
C  47.78700 37.12800 27.41600
C  48.54900 38.27700 26.82500
C  48.76200 37.95800 25.48000
C  48.20800 36.58400 25.30700
C  48.75700 39.53500 27.64400
C  49.31000 38.85900 24.34200
O  49.62100 38.37700 23.22900
C  49.63700 40.21900 24.65700
N  47.37400 33.60200 24.92800
C  47.90500 34.42400 23.96200
C  48.04500 33.75500 22.55300
C  47.67500 32.32300 22.95300
C  47.17100 32.41000 24.32200
C  47.23500 34.47800 21.41700
C  48.79800 31.34000 22.72300
C  48.44100 29.88100 22.26100
N  46.19800 32.31400 27.10500
C  46.02800 31.24800 26.21600
C  45.38600 30.18400 26.88400
C  45.28700 30.61900 28.25000
C  45.73900 31.95900 28.33100
C  45.09500 28.81700 26.33900
C  44.84400 30.15800 29.50000
O  44.48800 29.07800 29.85600
C  45.11100 31.39800 30.48900
C  46.05500 30.92000 31.53000
O  47.28700 30.81900 31.46300
O  45.40000 30.60800 32.67300
C  46.25100 30.09700 33.75900
H  47.38600 37.94500 29.28800
H  48.61300 36.30400 23.29200
H  46.44400 30.45500 24.32300
H  44.47600 34.71800 31.11800
H  46.92800 36.23500 31.54300
H  45.41400 37.85100 31.81600
H  44.00300 36.85700 31.26300
H  44.94600 37.79200 30.13700
H  46.93100 33.56100 32.18800
H  45.28400 33.26500 32.64700
H  45.70200 34.60500 34.39500
H  45.69500 35.92800 33.43100
H  47.89300 39.64900 28.29900
H  48.59900 40.46100 27.09000
H  49.67300 39.63700 28.22700
H  48.76600 40.78500 24.98900
H  49.86200 40.74700 23.73100
H  50.54500 40.37000 25.24200
H  49.10800 33.85300 22.33300
H  46.74600 32.01400 22.47400
H  46.41400 35.03300 21.87200
H  46.90400 33.72100 20.70700
H  47.81700 35.23800 20.89600
H  49.29900 31.13100 23.66800
H  49.59800 31.70800 22.08000
H  49.01800 29.71800 21.35000
H  47.39700 29.79400 21.95900
H  48.72600 29.13600 23.00400
H  45.89300 28.09300 26.50900
H  44.82200 28.85200 25.28500
H  44.18000 28.49400 26.83600
H  44.16100 31.64300 30.96500
H  45.66900 29.89800 34.65900
H  47.12100 30.68200 34.05600
H  46.69100 29.13500 33.49400

