79

Mg 54.63600 25.39400 45.19100
C  51.93400 27.41000 43.96100
C  52.90100 22.76000 43.81300
C  57.40400 23.44900 45.53400
C  56.22200 28.18500 46.25400
N  52.84400 25.22800 43.61800
C  51.93400 26.14800 43.40300
C  50.77700 25.56600 42.54400
C  50.97800 24.01300 42.76700
C  52.30400 23.93800 43.49600
C  49.88400 23.27400 43.57300
C  50.76000 25.89800 41.00900
C  52.05500 26.42600 40.25200
H  52.96300 25.43900 39.52800
N  55.08700 23.37100 44.77300
C  54.16200 22.48000 44.30400
C  54.76800 21.12500 44.32200
C  56.11100 21.34100 44.76600
C  56.25900 22.77700 45.00200
C  54.11400 19.81200 43.86900
C  57.19900 20.19200 44.80200
O  56.86900 19.02100 44.51200
C  58.58200 20.50600 45.07500
N  56.60200 25.84100 45.57800
C  57.57700 24.86200 45.77200
C  58.93300 25.52000 46.13900
C  58.48100 26.98400 46.41700
C  56.99600 27.05100 46.05900
C  59.67200 24.95400 47.30300
C  59.38200 28.03900 45.65900
C  58.87900 28.63300 44.24500
N  54.16900 27.39500 45.31600
C  54.89100 28.37400 45.87200
C  54.08100 29.59000 45.84900
C  52.85600 29.21800 45.11900
C  53.01000 27.88300 44.83000
C  54.37800 30.87400 46.49800
C  51.68900 29.76000 44.61200
O  51.28400 30.94800 44.61700
C  50.94700 28.60700 43.93600
C  50.61100 29.13000 42.55600
O  51.36700 29.63500 41.78500
O  49.25500 28.82700 42.21900
C  48.86400 29.09000 40.81300
H  52.36300 21.91400 43.37800
H  58.30600 22.85400 45.69300
H  56.74300 28.94200 46.84300
H  49.88000 25.96800 43.01400
H  51.17000 23.45200 41.85300
H  50.23000 22.82500 44.50400
H  49.48300 22.41300 43.03800
H  48.98400 23.85400 43.77400
H  50.01700 26.62200 40.67600
H  50.39800 25.12000 40.33700
H  52.60700 26.90000 41.06400
H  51.72000 27.22800 39.59300
H  54.29200 19.05100 44.62900
H  54.63000 19.49100 42.96400
H  53.04800 19.87800 43.64700
H  59.16100 19.60400 44.87200
H  58.69900 20.80000 46.11800
H  58.86600 21.33700 44.43000
H  59.56700 25.37800 45.26400
H  58.52400 27.28100 47.46500
H  60.53600 24.41600 46.91100
H  59.00400 24.33200 47.89900
H  60.08300 25.76400 47.90500
H  60.33400 27.55700 45.43600
H  59.62300 28.79900 46.40200
H  59.49300 28.10000 43.51900
H  59.23500 29.66300 44.26100
H  57.79700 28.59700 44.11900
H  53.56200 31.52000 46.17200
H  55.31000 31.32100 46.15200
H  54.27900 30.81400 47.58200
H  49.98500 28.42400 44.41400
H  49.70000 29.15200 40.11600
H  48.22400 29.97200 40.83300
H  48.30700 28.20600 40.50500

