79

Mg -10.73800 38.38800 40.59000
C  -8.84400 35.73900 39.53000
C  -8.18200 40.47300 39.24400
C  -12.80700 41.15800 40.59800
C  -13.15600 36.33900 41.76600
N  -8.72600 38.05700 39.45500
C  -8.24100 36.87700 39.05900
C  -6.76800 37.00900 38.54300
C  -6.56300 38.57300 38.63800
C  -7.91400 39.12000 39.15700
C  -5.33300 39.03600 39.41000
C  -6.70500 36.38800 37.07300
C  -5.36300 35.75200 36.68300
H  -4.87600 36.16200 35.26100
N  -10.43700 40.61600 40.10200
C  -9.31400 41.22700 39.69300
C  -9.55300 42.52200 39.48300
C  -10.94900 42.81100 39.77500
C  -11.49000 41.47600 40.14800
C  -8.47600 43.52900 39.08100
C  -11.66000 44.11700 39.61000
O  -11.08100 45.19000 39.50500
C  -13.17200 44.15500 39.71000
N  -12.58600 38.68700 40.94600
C  -13.24700 39.89100 40.93600
C  -14.76000 39.67200 41.26000
C  -14.85000 38.17200 41.53700
C  -13.40300 37.71200 41.49500
C  -15.37900 40.67500 42.23900
C  -15.76200 37.31600 40.59800
C  -17.17600 37.11200 41.08300
N  -10.92400 36.47300 40.81000
C  -11.93300 35.74300 41.36900
C  -11.51400 34.36000 41.53300
C  -10.30200 34.27900 40.72000
C  -9.98500 35.60700 40.28200
C  -12.21800 33.23300 42.29100
C  -9.25300 33.37300 40.26400
O  -9.03900 32.16600 40.37100
C  -8.31600 34.28600 39.40900
C  -6.93200 34.03500 40.05100
O  -6.07400 33.38700 39.48900
O  -6.74900 34.76100 41.18900
C  -5.32600 34.69900 41.70100
H  -7.43600 41.16400 38.84600
H  -13.42300 42.04600 40.75400
H  -13.95800 35.73600 42.19800
H  -6.16600 36.38700 39.20600
H  -6.29700 38.94200 37.64700
H  -4.76200 39.74600 38.81200
H  -4.65200 38.18600 39.46500
H  -5.73000 39.51800 40.30300
H  -6.88300 37.27800 36.47000
H  -7.51800 35.72100 36.78600
H  -5.44800 34.66500 36.67500
H  -4.60100 36.03600 37.40900
H  -8.28600 43.27300 38.03900
H  -7.60300 43.34600 39.70700
H  -8.69500 44.59300 39.17600
H  -13.34800 44.04500 40.78000
H  -13.58400 43.40100 39.04000
H  -13.58100 45.12600 39.43000
H  -15.30400 39.87600 40.33800
H  -15.22600 37.92600 42.53000
H  -15.75700 40.23500 43.16200
H  -16.17300 41.23100 41.74000
H  -14.63400 41.41200 42.54000
H  -15.28900 36.37000 40.33600
H  -15.98600 37.80400 39.64900
H  -17.52500 36.25500 40.50600
H  -17.76800 38.00600 40.88800
H  -17.23700 36.89300 42.14900
H  -11.89100 33.27300 43.33000
H  -11.79600 32.31100 41.89100
H  -13.28900 33.39300 42.16800
H  -8.36600 33.86000 38.40700
H  -4.90700 35.52100 42.28200
H  -4.63700 34.72600 40.85700
H  -5.19500 33.75300 42.22700

