79

Mg 40.48000 9.51700 29.00900
C  42.75800 10.56900 31.40700
C  38.42200 8.39900 31.37000
C  38.58800 8.13900 26.54300
C  42.94700 10.14700 26.60900
N  40.69300 9.35900 31.23500
C  41.59700 10.00700 32.01600
C  41.16200 9.95700 33.42600
C  39.78600 9.23100 33.34900
C  39.60000 8.96200 31.89600
C  39.66000 7.99600 34.26100
C  40.93600 11.42000 34.04000
C  40.36400 11.49200 35.49800
H  41.35700 11.48300 36.62100
N  38.59800 8.51900 28.93900
C  37.94400 8.16000 30.07900
C  36.69900 7.50700 29.67700
C  36.73700 7.42200 28.22200
C  37.99000 8.02900 27.82200
C  35.69400 6.91800 30.64500
C  35.65600 6.93000 27.24600
O  35.84000 6.88700 26.05600
C  34.28700 6.37100 27.74200
N  40.73400 9.28500 26.89000
C  39.80800 8.60600 26.12100
C  40.25400 8.61400 24.64700
C  41.66600 9.35400 24.71500
C  41.72600 9.64200 26.15600
C  40.40200 7.17500 24.03900
C  41.71500 10.58000 23.86700
C  41.41900 11.96900 24.52400
N  42.47800 10.19200 28.95300
C  43.34100 10.38600 27.94200
C  44.58500 10.90700 28.48300
C  44.35100 11.14300 29.84600
C  43.08500 10.56900 30.11700
C  45.77900 11.38000 27.61700
C  44.86200 11.66100 31.09800
O  45.93600 12.14000 31.33900
C  43.79400 11.40900 32.23900
C  44.45000 10.58400 33.28600
O  44.77400 9.40700 33.24200
O  44.84700 11.44600 34.28200
C  45.26500 10.81900 35.49900
H  37.62600 8.33100 32.11500
H  37.91200 7.79000 25.75900
H  43.71500 10.18800 25.83300
H  41.87200 9.36200 34.00000
H  38.94500 9.82600 33.70300
H  39.35300 7.11200 33.70300
H  38.94300 8.20100 35.05600
H  40.56400 7.73300 34.81000
H  40.35400 11.96000 33.29400
H  41.82200 12.04400 34.15700
H  39.76500 10.58700 35.59800
H  39.59700 12.26100 35.60100
H  34.86100 7.61700 30.57400
H  36.11800 6.87000 31.64800
H  35.25600 5.99000 30.27800
H  34.30600 5.66100 28.56900
H  33.78400 5.84500 26.93100
H  33.62800 7.17300 28.07400
H  39.46900 9.10100 24.06900
H  42.52700 8.72800 24.48000
H  40.27000 6.42200 24.81500
H  41.39100 7.08900 23.59000
H  39.57000 7.08800 23.34100
H  41.06800 10.52300 22.99100
H  42.69800 10.63000 23.39900
H  40.72000 12.54500 23.91900
H  42.30400 12.60400 24.54700
H  40.96400 11.97500 25.51500
H  45.88600 12.45200 27.77700
H  45.64300 11.11200 26.56900
H  46.63600 10.88700 28.07600
H  43.51900 12.38200 32.64700
H  45.15000 11.47800 36.35900
H  46.33700 10.68600 35.35900
H  44.73800 9.89300 35.73000

