79

Mg 6.61500 53.10800 40.88500
C  6.54700 49.59900 40.52100
C  9.89500 53.02300 40.28600
C  6.50700 56.46400 40.71500
C  2.97500 53.00300 41.00000
N  7.99500 51.48000 40.32000
C  7.82700 50.10000 40.27800
C  9.09500 49.36900 39.82900
C  10.19800 50.51000 40.01700
C  9.29700 51.77500 40.25200
C  11.20700 50.27600 41.18400
C  9.21000 48.80900 38.34900
C  8.89100 49.74900 37.19800
H  7.52100 49.52600 36.45300
N  8.13500 54.65700 40.63700
C  9.41100 54.39500 40.34000
C  10.12900 55.55600 40.10100
C  9.08900 56.66500 40.25500
C  7.83600 55.98000 40.59500
C  11.60000 55.56300 39.93000
C  9.35900 58.17400 40.11400
O  10.52600 58.46400 39.91900
C  8.31200 59.16800 40.25100
N  4.95100 54.49800 40.82600
C  5.25400 55.88000 40.82100
C  4.01900 56.67300 41.04800
C  2.94100 55.59900 40.98800
C  3.64700 54.29200 40.92100
C  4.10100 57.47800 42.40500
C  1.94900 55.67400 39.73900
C  1.46800 57.07300 39.28000
N  4.96500 51.63100 40.77400
C  3.60300 51.70800 40.95300
C  3.21000 50.40200 41.10000
C  4.28500 49.56800 40.97500
C  5.35300 50.29600 40.75100
C  1.71000 50.05700 41.45900
C  4.69700 48.20400 41.06800
O  4.05300 47.23500 41.29000
C  6.17500 48.18400 40.66200
C  6.14400 47.36000 39.43400
O  6.10300 47.79600 38.27600
O  6.05300 46.02600 39.80400
C  5.89100 45.14600 38.56900
H  10.98400 52.97500 40.22600
H  6.31000 57.53200 40.60200
H  1.88800 53.00900 41.10100
H  9.16900 48.52600 40.51700
H  10.78900 50.72900 39.12800
H  12.17300 50.38600 40.69200
H  11.07200 49.28900 41.62500
H  11.10100 51.14100 41.83900
H  8.68500 47.85800 38.26100
H  10.28400 48.70000 38.19400
H  9.60900 49.82400 36.38100
H  8.71200 50.78500 37.48800
H  12.08700 56.32500 40.53800
H  11.69700 55.91600 38.90300
H  12.13000 54.61500 39.83800
H  8.78800 60.12900 40.05800
H  7.74500 59.06900 41.17700
H  7.59400 59.12400 39.43200
H  3.82000 57.42500 40.28500
H  2.35900 55.58400 41.91000
H  3.45500 57.02900 43.16000
H  3.79300 58.50600 42.21500
H  5.12900 57.52600 42.76500
H  1.03800 55.09700 39.89800
H  2.60800 55.35100 38.93300
H  1.92400 57.25400 38.30700
H  1.55900 57.98700 39.86800
H  0.38000 57.01100 39.25400
H  1.23400 50.95700 41.84900
H  1.66200 49.21300 42.14700
H  1.21700 49.80400 40.52000
H  6.72800 47.69400 41.46300
H  6.53300 45.47900 37.75400
H  4.83100 45.12700 38.31600
H  6.28000 44.17500 38.87500

