79

Mg 27.02200 50.29500 25.93500
C  24.81900 51.13300 28.60100
C  29.04600 48.73200 28.29300
C  29.19000 49.74600 23.47100
C  24.81000 51.71800 23.73200
N  26.92100 49.99800 28.15000
C  25.94500 50.38100 29.02700
C  26.26100 49.97000 30.48300
C  27.71500 49.49900 30.31200
C  27.93700 49.38200 28.79300
C  28.96200 50.20800 31.09600
C  25.15500 49.02100 31.05800
C  24.52100 49.47600 32.39100
H  25.36900 50.06600 33.57900
N  28.86500 49.37500 25.86400
C  29.52000 48.72800 26.93500
C  30.79900 48.17500 26.37900
C  30.86000 48.57300 25.00500
C  29.61700 49.18900 24.71200
C  31.66800 47.29400 27.16000
C  32.02600 48.34800 23.94700
O  32.04600 48.51700 22.73600
C  33.32000 47.81400 24.59600
N  26.98200 50.66000 23.92000
C  28.02000 50.34700 23.11100
C  27.63400 50.63100 21.63100
C  26.22700 51.25100 21.74400
C  25.96400 51.16000 23.20900
C  28.62600 51.43600 20.75000
C  25.15000 50.62000 20.81000
C  24.07600 51.52600 20.22000
N  25.18900 51.29900 26.08600
C  24.43600 51.78100 25.11500
C  23.29000 52.49400 25.63900
C  23.40400 52.25400 27.01700
C  24.61100 51.55600 27.24900
C  22.33900 53.31800 24.81400
C  22.75000 52.52100 28.30700
O  21.79000 53.16500 28.66100
C  23.74000 51.84800 29.41400
C  24.25000 52.93400 30.23700
O  25.29300 53.52800 29.99900
O  23.48700 53.13100 31.33000
C  23.96900 54.06000 32.31400
H  29.79000 48.34900 28.99500
H  29.86400 49.59300 22.62600
H  24.06100 52.08100 23.02500
H  26.17800 50.93000 30.99100
H  27.74100 48.47300 30.67900
H  29.52800 50.83000 30.40200
H  29.57900 49.43300 31.55100
H  28.58300 50.87700 31.86900
H  25.57900 48.02000 31.13100
H  24.36400 48.90400 30.31800
H  24.03600 48.59400 32.81100
H  23.61200 50.07300 32.31700
H  31.76500 46.28500 26.75800
H  31.28500 47.25400 28.18000
H  32.64900 47.76400 27.23100
H  34.11000 48.05300 23.88400
H  33.20800 46.75900 24.84600
H  33.43300 48.51100 25.42600
H  27.62100 49.63000 21.19900
H  26.28700 52.32300 21.55400
H  29.17500 52.07000 21.44600
H  28.04800 52.10800 20.11500
H  29.34800 50.84800 20.18400
H  24.57100 49.86600 21.34200
H  25.42500 50.01000 19.94900
H  23.94000 51.14700 19.20600
H  24.53100 52.50700 20.08700
H  23.22700 51.49000 20.90200
H  22.91200 53.72900 23.98300
H  21.88900 54.02600 25.51100
H  21.61500 52.74900 24.23100
H  23.27000 51.11400 30.06800
H  24.35700 54.95100 31.82100
H  24.81000 53.52400 32.75100
H  23.27400 54.23400 33.13600

