79

Mg 8.32100 3.27700 28.50500
C  9.62700 1.75800 31.18400
C  6.24700 5.01800 30.65100
C  6.77400 4.50900 25.71400
C  10.18500 1.01800 26.42900
N  7.98000 3.36500 30.63800
C  8.78400 2.79300 31.56100
C  8.56200 3.28800 33.02900
C  7.25500 4.08200 32.81300
C  7.09700 4.12300 31.26700
C  5.94800 3.40300 33.35700
C  9.74200 4.15300 33.47200
C  10.43400 3.80400 34.83900
H  9.54900 3.12200 35.88400
N  6.80300 4.65000 28.18200
C  6.05300 5.21200 29.29300
C  5.07800 6.09300 28.71700
C  5.18300 6.00100 27.30200
C  6.24700 4.96100 26.96700
C  4.26500 7.11300 29.49000
C  4.29700 6.69900 26.22700
O  4.45700 6.51600 25.04500
C  3.25200 7.58200 26.72100
N  8.24300 2.55200 26.32900
C  7.67100 3.40900 25.41100
C  8.28300 3.19600 23.97500
C  9.37800 2.12000 24.20500
C  9.31500 1.92100 25.76300
C  7.19400 2.60200 23.01800
C  10.78200 2.60600 23.63800
C  11.51900 3.72100 24.44400
N  9.51600 1.65500 28.69500
C  10.24500 0.81300 27.80500
C  11.18600 -0.02000 28.53700
C  10.95400 0.36700 29.82900
C  9.95200 1.31800 29.88100
C  12.04800 -1.08500 28.04400
C  11.39900 0.10900 31.11600
O  12.36200 -0.62100 31.51200
C  10.55200 1.02600 32.07200
C  9.80700 0.17400 32.94700
O  8.80500 -0.42200 32.62300
O  10.35100 -0.07900 34.14700
C  9.63900 -0.80700 35.11800
H  5.65900 5.64400 31.32500
H  6.34400 4.97200 24.82300
H  11.06800 0.48700 26.06800
H  8.34400 2.46700 33.71100
H  7.33000 5.05500 33.29900
H  5.71800 2.69300 32.56300
H  5.12500 4.11600 33.30700
H  6.02100 2.96500 34.35300
H  9.54800 5.22300 33.40400
H  10.56200 3.98000 32.77500
H  10.76300 4.74600 35.27700
H  11.29200 3.18300 34.58100
H  4.53300 8.16600 29.39800
H  4.29200 6.95400 30.56800
H  3.23800 6.88700 29.20300
H  2.71000 7.96800 25.85700
H  3.75200 8.36200 27.29500
H  2.52500 7.06600 27.34900
H  8.59500 4.21000 23.72800
H  9.16300 1.10800 23.86200
H  6.29100 2.97800 23.49900
H  7.29500 1.52600 22.87400
H  7.29700 3.15400 22.08400
H  10.69500 2.96100 22.61200
H  11.39200 1.70800 23.53300
H  11.13400 3.92100 25.44400
H  11.32600 4.66900 23.94200
H  12.60800 3.67600 24.43100
H  13.03600 -0.79000 28.39700
H  12.09300 -1.13100 26.95600
H  11.73400 -1.99800 28.55100
H  11.16400 1.65200 32.72200
H  9.54500 -1.81900 34.72200
H  8.67200 -0.34400 35.31400
H  10.29200 -0.68300 35.98100

