79

Mg 16.58400 -1.61900 27.60900
C  15.55600 0.47500 30.25900
C  18.76900 -3.10800 29.74200
C  17.69800 -3.35300 25.03200
C  14.65300 0.40200 25.45100
N  16.98100 -1.46700 29.85000
C  16.54100 -0.42900 30.63400
C  17.15700 -0.63700 32.05600
C  18.34700 -1.64800 31.86300
C  18.07600 -2.04400 30.37900
C  19.77900 -1.14500 32.14700
C  16.08900 -1.19800 33.02800
C  16.14400 -0.75300 34.48800
H  17.48000 -0.19400 35.03200
N  17.94500 -3.07500 27.43700
C  18.81300 -3.52700 28.41300
C  19.59200 -4.61300 27.93600
C  19.28400 -4.73900 26.51900
C  18.25100 -3.72100 26.34100
C  20.40800 -5.55000 28.80100
C  19.82900 -5.79300 25.48500
O  19.36000 -5.84800 24.33600
C  20.95500 -6.72000 25.86300
N  16.26300 -1.41300 25.53700
C  16.91700 -2.21200 24.66600
C  16.65700 -1.81300 23.20100
C  15.43300 -0.83800 23.36100
C  15.37900 -0.68900 24.89900
C  17.84800 -1.16300 22.50500
C  14.10100 -1.13100 22.65000
C  13.75700 -0.30800 21.45700
N  15.46700 0.10100 27.73400
C  14.69700 0.81100 26.77100
C  13.99900 1.94900 27.45100
C  14.23400 1.77100 28.80400
C  15.18100 0.68200 28.94800
C  13.11100 2.87300 26.77400
C  13.91100 2.31900 30.13500
O  13.29000 3.28200 30.55700
C  14.73300 1.39600 31.16700
C  15.45800 2.25800 32.06800
O  16.46300 2.87600 31.81700
O  14.71500 2.56900 33.18000
C  15.25500 3.68700 34.03800
H  19.40500 -3.66000 30.43800
H  18.19200 -3.94000 24.25500
H  14.18300 1.03200 24.69300
H  17.57200 0.31300 32.39300
H  18.20700 -2.51100 32.51300
H  19.78700 -0.13000 32.54500
H  20.32300 -1.06700 31.20600
H  20.32800 -1.82500 32.79800
H  16.11700 -2.28700 33.06500
H  15.07100 -0.93400 32.74200
H  15.75300 -1.62200 35.01900
H  15.35100 -0.00500 34.48300
H  20.09300 -6.58500 28.67000
H  20.14100 -5.54100 29.85800
H  21.47700 -5.49000 28.60200
H  20.72800 -7.30700 26.75300
H  21.73600 -6.04700 26.21700
H  21.19800 -7.35100 25.00900
H  16.36400 -2.62300 22.53400
H  15.81200 0.13700 23.05300
H  18.77700 -1.19900 23.07400
H  17.70100 -0.17600 22.06600
H  18.10300 -1.86900 21.71500
H  13.38600 -0.94900 23.45300
H  14.06600 -2.15700 22.28300
H  13.72600 -0.86000 20.51800
H  14.46000 0.52000 21.36400
H  12.79500 0.17900 21.61300
H  13.58700 3.23000 25.86100
H  12.69500 3.69200 27.36100
H  12.28500 2.23100 26.47100
H  14.03000 0.77500 31.72200
H  14.66900 3.75600 34.95400
H  15.11400 4.63600 33.52100
H  16.30300 3.56600 34.31200

