79

Mg 47.30600 25.35100 28.06200
C  48.26200 27.55000 30.48600
C  46.46400 23.11400 30.66800
C  46.84000 22.90800 25.81400
C  48.58500 27.40500 25.61600
N  47.06800 25.44900 30.26100
C  47.70700 26.43000 31.07300
C  47.45000 26.27600 32.53200
C  46.93800 24.73400 32.56800
C  46.86600 24.36600 31.02800
C  47.77300 23.66100 33.29900
C  46.46100 27.31500 33.12400
C  45.57300 26.98500 34.34000
H  45.53400 27.95200 35.54300
N  46.53700 23.29200 28.17300
C  46.34800 22.56700 29.33300
C  46.07900 21.18800 28.99600
C  46.00800 21.16700 27.63600
C  46.42900 22.46800 27.12200
C  45.89900 20.06400 30.06100
C  45.49700 20.12300 26.66500
O  45.58400 20.07700 25.42900
C  44.85300 18.98200 27.29200
N  47.55000 25.20000 26.00400
C  47.29300 24.13300 25.30900
C  47.78400 24.28100 23.83800
C  48.06700 25.79300 23.66100
C  48.21300 26.13500 25.18100
C  48.95300 23.42700 23.27400
C  46.83200 26.53300 23.08400
C  47.17800 27.81800 22.45900
N  48.19500 27.09800 28.01400
C  48.64500 27.79200 26.95600
C  49.16400 29.10000 27.41600
C  49.04400 29.01400 28.79200
C  48.48500 27.75900 29.10600
C  49.77700 30.17500 26.59300
C  49.27000 29.74800 30.06200
O  49.72700 30.85100 30.32400
C  48.66800 28.81200 31.15300
C  49.64200 28.68300 32.25800
O  50.62200 27.94200 32.23100
O  49.34900 29.59000 33.28800
C  50.30200 29.51700 34.43800
H  46.36500 22.37300 31.46300
H  46.79400 22.13300 25.04600
H  48.95300 28.04700 24.81300
H  48.42600 26.34700 33.01200
H  45.93100 24.65700 32.97800
H  47.08400 22.94800 33.75100
H  48.33400 24.08100 34.13500
H  48.44300 23.19800 32.57600
H  45.91000 27.67600 32.25500
H  47.12900 28.08200 33.51700
H  46.00800 26.07500 34.75300
H  44.62100 26.73900 33.86800
H  46.46000 19.23300 29.63400
H  44.83200 19.87900 30.18700
H  46.29800 20.27700 31.05200
H  45.58900 18.28800 27.69800
H  44.18900 18.54900 26.54300
H  44.24200 19.39900 28.09200
H  46.90900 24.01600 23.24500
H  48.96500 25.95300 23.06300
H  49.88000 23.89000 23.61200
H  48.80800 23.26000 22.20700
H  48.92300 22.58800 23.96800
H  46.03900 26.61800 23.82700
H  46.44600 25.96200 22.23900
H  46.50600 28.60500 22.80000
H  47.10200 27.79200 21.37100
H  48.18000 28.22600 22.59000
H  50.73600 29.77000 26.27200
H  49.92000 31.03200 27.25200
H  49.30900 30.47200 25.65400
H  47.80500 29.27700 31.63100
H  50.20200 28.48900 34.78700
H  49.84200 30.19000 35.16100
H  51.35800 29.75600 34.31800

