79

Mg 41.94100 41.39900 26.03900
C  41.39200 43.78600 28.50500
C  43.18200 39.34100 28.60200
C  42.54600 39.01300 23.78400
C  40.78200 43.59500 23.68300
N  42.30300 41.62300 28.36400
C  41.85000 42.64100 29.12500
C  41.71400 42.21800 30.59300
C  42.54300 40.83300 30.62200
C  42.68900 40.51900 29.12100
C  43.90600 40.80200 31.41400
C  40.27400 42.07100 31.20200
C  39.89500 42.83900 32.49500
H  39.46000 42.00000 33.66600
N  42.79100 39.50600 26.18000
C  43.19100 38.82700 27.25000
C  43.69500 37.53700 26.92400
C  43.49800 37.34700 25.51500
C  42.93300 38.65500 25.09300
C  44.14000 36.51700 27.82700
C  43.65500 36.06800 24.65100
O  43.51600 36.06400 23.41600
C  44.17900 34.75400 25.25400
N  41.80700 41.31800 23.99200
C  41.96200 40.20100 23.29300
C  41.47900 40.35800 21.78200
C  41.07700 41.88800 21.84100
C  41.20800 42.29700 23.25400
C  42.46400 40.04000 20.66100
C  39.76800 42.23300 21.12800
C  39.88300 42.77500 19.71700
N  41.14400 43.32500 26.01300
C  40.67700 44.03500 24.98900
C  40.26700 45.31400 25.49300
C  40.47000 45.26500 26.85600
C  41.12500 44.02400 27.12000
C  39.54700 46.32800 24.72800
C  40.36800 46.02300 28.11600
O  39.90900 47.13300 28.29800
C  41.03700 45.08700 29.19700
C  42.13600 45.82900 29.85800
O  43.30700 45.77300 29.44600
O  41.62100 46.54200 30.94600
C  42.55000 47.43100 31.64500
H  43.51800 38.70600 29.42400
H  42.65400 38.26400 22.99700
H  40.44100 44.26800 22.89300
H  42.37900 42.85500 31.17700
H  41.92000 39.98700 30.91200
H  44.75600 40.68300 30.74200
H  43.95900 39.86900 31.97500
H  44.06700 41.63900 32.09300
H  40.10600 41.01900 31.43000
H  39.53000 42.45600 30.50500
H  39.17800 43.63000 32.27500
H  40.73000 43.44800 32.84100
H  45.12800 36.12600 27.58400
H  43.45900 35.67700 27.95900
H  44.44000 36.94600 28.78400
H  44.19400 34.06700 24.40800
H  43.55800 34.38500 26.06900
H  45.22700 34.86700 25.53100
H  40.56400 39.76600 21.80800
H  41.87100 42.46100 21.36300
H  42.68200 40.88900 20.01300
H  41.91500 39.34800 20.02300
H  43.45500 39.65000 20.89400
H  39.11100 42.83500 21.75600
H  39.22000 41.29000 21.13700
H  39.91000 41.92100 19.04000
H  40.73200 43.42400 19.50300
H  39.01000 43.41600 19.59500
H  39.46500 46.03400 23.68200
H  40.04800 47.29600 24.75600
H  38.60100 46.41200 25.26200
H  40.32000 44.87500 29.99100
H  43.20400 48.03100 31.01300
H  43.10000 46.89700 32.41800
H  41.96000 48.18200 32.17100

