79

Mg 0.28700 43.96800 26.47100
C  2.63600 43.60200 29.13700
C  -1.94800 42.34500 28.41200
C  -1.73200 43.81800 23.75000
C  2.99300 45.12500 24.41800
N  0.42300 43.09400 28.52300
C  1.30000 43.28300 29.48800
C  0.69900 43.08600 30.91400
C  -0.69700 42.47000 30.61600
C  -0.81100 42.67200 29.11000
C  -0.99400 41.05500 31.11900
C  0.62500 44.37700 31.77700
C  1.00100 44.23000 33.33900
H  0.68100 42.94900 34.08900
N  -1.55700 43.00300 26.09000
C  -2.31000 42.35100 27.01600
C  -3.52400 41.90900 26.41200
C  -3.58500 42.45000 25.06600
C  -2.23100 43.16200 24.89000
C  -4.56500 41.00900 27.19600
C  -4.62200 42.29000 24.02300
O  -4.51700 42.78900 22.90800
C  -5.75800 41.37600 24.25000
N  0.56500 44.39900 24.36600
C  -0.47900 44.43900 23.52000
C  -0.16400 45.32800 22.34500
C  1.30000 45.81400 22.60800
C  1.68000 45.10000 23.86500
C  -0.27100 44.70300 20.93500
C  1.28300 47.33800 22.96800
C  2.06500 48.32700 22.08600
N  2.37000 44.43300 26.66000
C  3.35200 44.75400 25.73200
C  4.67200 44.63200 26.35400
C  4.38000 44.24300 27.66600
C  3.00700 44.12700 27.84200
C  6.02500 44.86000 25.74900
C  4.99800 43.92300 28.98000
O  6.19400 43.86300 29.24900
C  3.79800 43.70100 29.94500
C  4.03500 42.45500 30.72100
O  4.33500 41.33100 30.29300
O  3.90300 42.78200 32.03900
C  4.35800 41.69000 32.97700
H  -2.78800 42.05200 29.04600
H  -2.45200 43.91000 22.93400
H  3.78500 45.68800 23.91900
H  1.26200 42.30200 31.42000
H  -1.45000 43.04600 31.15400
H  -1.12700 40.36100 30.29000
H  -1.85600 40.98200 31.78300
H  -0.23500 40.73100 31.83000
H  -0.40000 44.71900 31.92100
H  1.24200 45.17500 31.36400
H  0.39900 45.02200 33.78400
H  2.08300 44.30600 33.45100
H  -4.48000 39.97400 26.86300
H  -5.55100 41.35400 26.88700
H  -4.34000 41.08800 28.25900
H  -6.50700 41.85400 24.88100
H  -5.40600 40.42700 24.65600
H  -6.17700 41.13400 23.27300
H  -0.96600 46.06400 22.29300
H  1.95600 45.57500 21.77000
H  0.62200 44.94500 20.35800
H  -1.23800 44.96700 20.50800
H  -0.26000 43.61300 20.97500
H  1.46400 47.40900 24.04100
H  0.29600 47.75600 22.76600
H  1.42300 49.00900 21.52900
H  2.66300 47.70400 21.42000
H  2.81700 48.85600 22.67100
H  6.56000 43.94300 25.99700
H  6.44300 45.77600 26.16500
H  5.93100 44.99900 24.67200
H  3.65800 44.51000 30.66200
H  3.63800 40.87500 32.89800
H  4.25100 42.20900 33.93000
H  5.39400 41.44900 32.74000

