79

Mg 49.19800 35.04900 26.77000
C  46.99300 33.79000 29.41800
C  49.57300 37.87400 28.88300
C  50.73400 36.65600 24.27200
C  47.93900 32.57500 24.70200
N  48.42600 35.57800 28.89500
C  47.65000 34.94200 29.81700
C  47.73600 35.59300 31.18600
C  48.26300 37.02900 30.81500
C  48.78200 36.84500 29.42800
C  47.29000 38.23900 30.96600
C  48.65700 34.80900 32.16200
C  48.39500 34.86300 33.68600
H  47.28800 35.84800 34.12900
N  50.16600 36.93200 26.64400
C  50.26900 37.89600 27.63900
C  51.01800 39.01600 27.08300
C  51.32200 38.75200 25.75800
C  50.79400 37.36100 25.46700
C  51.41100 40.23200 27.98100
C  51.97600 39.68400 24.73600
O  52.05500 39.26400 23.57800
C  52.31900 41.16000 24.98900
N  49.34900 34.63100 24.81500
C  50.06900 35.45500 23.91900
C  50.01800 34.73800 22.47900
C  49.36000 33.34700 22.79700
C  48.77100 33.55100 24.16900
C  49.28500 35.56400 21.46000
C  50.24300 31.98200 22.49000
C  49.54300 30.94000 21.62200
N  47.85300 33.42100 27.05700
C  47.49700 32.58800 25.99800
C  46.58100 31.64600 26.62500
C  46.24400 32.14800 27.90200
C  47.16100 33.16600 28.16800
C  45.96400 30.55000 25.79300
C  45.48600 31.93700 29.06900
O  44.61500 31.11500 29.25700
C  45.97700 32.96000 30.17200
C  46.57300 32.11100 31.26900
O  47.71900 31.62700 31.26700
O  45.72800 31.91200 32.31700
C  46.27900 30.99800 33.37200
H  49.76400 38.78300 29.45800
H  51.11500 37.24100 23.43200
H  47.51300 31.85600 24.00000
H  46.71500 35.59800 31.56800
H  49.08500 37.34500 31.45600
H  46.99100 38.76600 30.06100
H  47.88200 38.93400 31.56200
H  46.44400 37.93400 31.58200
H  49.65800 35.21200 32.01400
H  48.73900 33.77100 31.83900
H  49.28900 35.18500 34.22000
H  48.22300 33.85400 34.06100
H  51.58600 39.90700 29.00600
H  50.62500 40.98700 27.97700
H  52.26500 40.79600 27.60600
H  53.33600 41.28100 25.36400
H  51.68000 41.52000 25.79500
H  52.18300 41.73300 24.07300
H  51.07500 34.71600 22.21400
H  48.42800 33.24100 22.24200
H  49.98700 36.24900 20.98500
H  48.45300 36.11800 21.89500
H  48.79400 34.96400 20.69500
H  50.52000 31.52200 23.43800
H  51.21400 32.20100 22.04500
H  49.94000 30.86300 20.61000
H  48.47500 31.10700 21.48300
H  49.64200 29.98600 22.14200
H  45.28100 30.06500 26.49000
H  46.72000 29.85200 25.43300
H  45.41300 30.82700 24.89400
H  45.21700 33.47800 30.75700
H  45.42600 30.67100 33.96700
H  46.85300 31.66700 34.01200
H  46.81800 30.10800 33.04800

