79

Mg -3.40400 35.22200 26.67700
C  -4.95300 33.90800 29.39400
C  -2.69100 38.07300 28.71300
C  -1.49500 36.47900 24.22100
C  -4.71800 32.87400 24.62000
N  -3.62100 35.76000 28.85200
C  -4.30300 35.05800 29.76900
C  -4.28700 35.69200 31.12900
C  -3.88800 37.13900 30.85600
C  -3.34200 37.01100 29.37400
C  -5.09700 38.13200 30.93400
C  -3.37600 34.90000 32.07600
C  -3.41800 35.29600 33.55800
H  -3.43400 34.11400 34.53100
N  -2.28000 37.04600 26.47600
C  -2.10200 38.09900 27.37500
C  -1.27400 39.15600 26.83100
C  -0.86400 38.66100 25.53500
C  -1.58900 37.35300 25.37000
C  -0.94500 40.31600 27.62700
C  0.06200 39.35500 24.52800
O  0.34000 38.90700 23.42800
C  0.77900 40.65900 24.96400
N  -3.24100 34.83400 24.60400
C  -2.24100 35.36500 23.86400
C  -2.09300 34.76400 22.53800
C  -3.11000 33.56700 22.65200
C  -3.72500 33.69700 24.04100
C  -2.36000 35.65500 21.24700
C  -2.43200 32.21300 22.37000
C  -3.33400 31.05900 21.91600
N  -4.62600 33.70700 26.86500
C  -5.18200 32.86400 25.95300
C  -6.14200 31.99400 26.57500
C  -6.07300 32.32600 27.92600
C  -5.10000 33.36200 28.05000
C  -7.01800 30.93300 25.98900
C  -6.48000 31.96000 29.29400
O  -7.18300 31.12100 29.78600
C  -5.81600 33.02100 30.25100
C  -6.93900 33.59000 31.03000
O  -7.75600 34.42300 30.57400
O  -6.96900 33.11500 32.28500
C  -7.99100 33.66700 33.19500
H  -2.71600 38.94300 29.37100
H  -0.71700 36.88300 23.57000
H  -5.18600 32.11900 23.98400
H  -5.28800 35.62100 31.55600
H  -3.10300 37.29800 31.59500
H  -5.19400 38.64800 31.88900
H  -6.01200 37.55200 30.81400
H  -4.98300 38.80000 30.08100
H  -2.34100 35.15800 31.85200
H  -3.34500 33.81900 31.94300
H  -4.34600 35.80700 33.81600
H  -2.68300 36.07800 33.74900
H  -1.48600 41.14600 27.17300
H  0.10300 40.61700 27.63500
H  -1.17800 40.21000 28.68600
H  0.11300 41.42500 25.36200
H  1.31900 41.04700 24.10000
H  1.54700 40.25600 25.62500
H  -1.05300 34.43900 22.49900
H  -4.00900 33.73600 22.06000
H  -3.01400 35.15400 20.53400
H  -1.46000 36.10900 20.83300
H  -3.02600 36.45500 21.57000
H  -2.00400 31.75900 23.26400
H  -1.66100 32.39000 21.62000
H  -3.30500 30.26500 22.66100
H  -3.00700 30.71900 20.93300
H  -4.39300 31.30800 21.84100
H  -7.81200 30.73900 26.71000
H  -6.40100 30.04300 25.86600
H  -7.47400 31.29000 25.06600
H  -5.25000 32.33700 30.88300
H  -8.95700 33.73500 32.69500
H  -7.66400 34.59900 33.65800
H  -8.16300 32.96200 34.00800

