79

Mg -12.41000 16.21400 42.45900
C  -9.75500 14.05100 42.08300
C  -10.61500 18.65500 40.79900
C  -15.29600 17.99700 42.30000
C  -14.22100 13.47400 43.90100
N  -10.52300 16.30000 41.37600
C  -9.58800 15.25200 41.36200
C  -8.18400 15.68500 40.75100
C  -8.47800 17.23600 40.42700
C  -9.88600 17.45800 41.00000
C  -7.39900 18.17800 41.00700
C  -7.89300 14.82200 39.48700
C  -6.35700 14.62100 39.28200
H  -5.61300 15.41900 38.28700
N  -12.86100 18.12500 41.74800
C  -11.92600 18.97100 41.16400
C  -12.64300 20.22700 40.89900
C  -14.00400 20.07100 41.30800
C  -14.07600 18.69500 41.86000
C  -11.98100 21.35600 40.23900
C  -15.09700 21.09100 41.09600
O  -14.87800 22.16100 40.51700
C  -16.49800 20.84300 41.49000
N  -14.52900 15.84700 43.04900
C  -15.49400 16.72400 42.90800
C  -16.84100 16.12100 43.33500
C  -16.49700 14.75400 43.94500
C  -14.95200 14.67900 43.65600
C  -17.75700 16.93000 44.30500
C  -17.22200 13.55200 43.29200
C  -18.01400 12.56700 44.11600
N  -12.09100 14.20900 42.97700
C  -12.85900 13.24300 43.61300
C  -12.09000 11.95500 43.76600
C  -10.82000 12.31900 43.29800
C  -10.93700 13.65600 42.74600
C  -12.51900 10.65200 44.46700
C  -9.49000 11.91400 43.18500
O  -8.94500 10.86900 43.55300
C  -8.71000 13.04400 42.42800
C  -7.64500 13.70800 43.28500
O  -7.87100 14.38400 44.28300
O  -6.43800 13.35100 42.75800
C  -5.27300 14.04900 43.30400
H  -10.05000 19.43300 40.28100
H  -16.28900 18.45000 42.32800
H  -14.84800 12.72100 44.38400
H  -7.38100 15.71600 41.48700
H  -8.62800 17.29600 39.34900
H  -7.50500 18.42800 42.06200
H  -7.15100 19.13200 40.54000
H  -6.47400 17.60300 40.96500
H  -8.27600 15.39500 38.64300
H  -8.37500 13.86400 39.68100
H  -6.11100 13.56100 39.22000
H  -5.86300 14.93800 40.20000
H  -11.00700 21.08400 39.83200
H  -11.83400 22.13800 40.98400
H  -12.67300 21.62300 39.44000
H  -17.08900 21.75600 41.42900
H  -16.47700 20.56700 42.54400
H  -16.98100 19.98800 41.01700
H  -17.29700 15.97400 42.35600
H  -16.55900 14.74800 45.03300
H  -17.25000 17.79100 44.74000
H  -18.07800 16.23500 45.08100
H  -18.63400 17.16700 43.70400
H  -16.49600 12.96000 42.73500
H  -17.89700 14.02100 42.57700
H  -17.51000 11.64100 44.39500
H  -18.83200 12.25000 43.46900
H  -18.30800 13.15700 44.98400
H  -13.15600 10.86000 45.32600
H  -11.63500 10.09100 44.76900
H  -13.09000 9.99500 43.81000
H  -8.29300 12.41400 41.64300
H  -5.60000 15.01100 43.69700
H  -4.61900 14.15900 42.43900
H  -4.83500 13.33300 43.99800

