79

Mg 48.34800 24.42900 27.98100
C  48.99100 26.81900 30.36300
C  47.40800 22.24800 30.57500
C  47.36800 22.29500 25.63900
C  49.16900 26.81900 25.46800
N  48.38200 24.53800 30.29700
C  48.51700 25.70000 31.02200
C  48.32900 25.43100 32.51000
C  47.75800 23.92600 32.53400
C  47.85800 23.54600 31.03600
C  48.46000 22.97700 33.45200
C  47.58700 26.51300 33.26300
C  47.94900 26.75700 34.76700
H  46.95700 26.71300 35.94700
N  47.54600 22.49200 28.05900
C  47.24000 21.77800 29.23100
C  46.73900 20.48000 28.70600
C  46.66200 20.51600 27.26200
C  47.20200 21.74700 26.93300
C  46.31500 19.45500 29.71200
C  46.38800 19.39000 26.34700
O  46.63900 19.47300 25.13100
C  45.42700 18.32500 26.75900
N  48.57500 24.44800 25.74400
C  48.00900 23.43300 25.06000
C  47.97800 23.72100 23.57900
C  48.27300 25.27700 23.59000
C  48.67700 25.56800 25.00200
C  49.00000 22.82800 22.79900
C  47.07400 26.14300 23.08500
C  45.69000 25.80300 23.68300
N  49.10500 26.26500 27.87100
C  49.38700 27.15600 26.80200
C  49.90400 28.43500 27.28500
C  49.76500 28.33200 28.67500
C  49.21700 27.02800 28.96000
C  50.42100 29.63200 26.57400
C  50.01800 29.04400 29.88500
O  50.51600 30.10400 30.09900
C  49.52400 28.07200 31.08400
C  50.59900 27.84500 32.08900
O  51.27800 26.84300 32.06600
O  50.58700 28.87000 32.98200
C  51.43900 28.63700 34.11400
H  47.04100 21.76400 31.48300
H  47.23300 21.51000 24.89200
H  49.27400 27.60500 24.71700
H  49.33500 25.47700 32.92600
H  46.73800 24.16900 32.83200
H  48.81200 23.51200 34.33500
H  49.23600 22.42500 32.92200
H  47.75700 22.25200 33.86200
H  46.55400 26.18600 33.37900
H  47.51400 27.45200 32.71500
H  48.47700 27.69900 34.91200
H  48.67100 25.96300 34.95400
H  45.24100 19.32400 29.84600
H  46.58400 19.68400 30.74400
H  46.81400 18.53500 29.40900
H  44.49000 18.58200 27.25300
H  45.85200 17.62700 27.48100
H  45.20700 17.77000 25.84700
H  47.00500 23.48700 23.14700
H  49.18600 25.55900 23.06600
H  48.62200 22.28900 21.93100
H  49.41700 22.07200 23.46400
H  49.73700 23.50100 22.36000
H  46.87200 25.85100 22.05400
H  47.26900 27.21200 23.17400
H  45.09000 25.41800 22.85900
H  45.15700 26.71600 23.94700
H  45.61300 25.06400 24.48000
H  51.47800 29.71400 26.82700
H  49.88400 30.50200 26.95200
H  50.39100 29.38600 25.51200
H  48.78000 28.71900 31.54900
H  50.73700 28.11700 34.76600
H  51.73800 29.60100 34.52700
H  52.33800 28.08600 33.83600

