79

Mg 36.54200 49.98100 24.20300
C  36.73900 48.24100 27.35200
C  34.87000 52.56100 26.06000
C  36.01700 51.47200 21.41000
C  37.55600 47.18000 22.67500
N  35.85600 50.31700 26.52900
C  36.18500 49.50100 27.55100
C  35.80600 50.19900 28.85800
C  35.18400 51.57200 28.41100
C  35.31600 51.50600 26.87700
C  33.64800 51.70800 28.76000
C  36.97600 50.26500 29.88400
C  36.68600 49.84700 31.34400
H  35.29500 49.51000 31.70700
N  35.55400 51.75800 23.78200
C  35.01100 52.66700 24.65800
C  34.62300 53.83300 23.83400
C  34.85600 53.46800 22.45400
C  35.45600 52.15700 22.49500
C  34.02400 55.06100 24.50700
C  34.37500 54.07600 21.11600
O  34.48700 53.58800 19.98200
C  33.59800 55.40600 21.18500
N  36.62000 49.33800 22.24500
C  36.56100 50.23200 21.23400
C  36.92000 49.55100 19.91700
C  37.44600 48.13500 20.31500
C  37.24500 48.21000 21.79300
C  35.77900 49.63100 18.86900
C  38.94100 47.93200 19.86300
C  39.99700 48.56900 20.77800
N  37.27400 48.24000 24.77200
C  37.62200 47.08000 24.06600
C  37.87200 45.93900 24.92200
C  37.63600 46.40400 26.20300
C  37.17500 47.76500 26.08100
C  38.28900 44.56400 24.50400
C  37.63800 45.94500 27.65300
O  37.98800 44.85300 28.07800
C  37.09100 47.22000 28.38500
C  35.94900 46.65100 29.11700
O  34.83100 46.50300 28.72700
O  36.43600 46.14800 30.32800
C  35.58100 45.14500 31.02100
H  34.59600 53.38100 26.72600
H  35.98700 51.99600 20.45200
H  38.01000 46.30200 22.20900
H  34.89900 49.70600 29.20700
H  35.80400 52.39800 28.76200
H  33.07500 51.66100 27.83400
H  33.49000 52.69800 29.18500
H  33.27900 50.99200 29.49400
H  37.56600 51.18100 29.84500
H  37.79200 49.62500 29.54600
H  37.01700 50.68500 31.95800
H  37.32200 49.00500 31.62100
H  33.06400 55.27200 24.03600
H  34.63800 55.87600 24.12200
H  34.08900 55.21300 25.58400
H  33.49100 55.81400 20.18000
H  34.15700 56.13300 21.77400
H  32.62400 55.16900 21.61300
H  37.66800 50.20700 19.47200
H  36.84300 47.36500 19.83500
H  34.89800 50.03500 19.36800
H  35.52300 48.60800 18.59200
H  36.09500 50.33400 18.09800
H  38.97500 48.41600 18.88700
H  39.14400 46.86800 19.73900
H  40.99700 48.63000 20.35000
H  39.96700 47.99000 21.70100
H  39.82800 49.62400 20.99500
H  37.88800 43.88200 25.25400
H  39.37600 44.49000 24.47700
H  37.96100 44.44900 23.47100
H  37.84200 47.57500 29.09100
H  35.26800 45.67500 31.92000
H  36.09200 44.21000 31.25500
H  34.72600 44.91500 30.38600

