79

Mg 1.00100 8.36100 26.40300
C  1.81500 10.22800 29.11700
C  1.19600 5.49900 28.46700
C  0.79400 6.49500 23.67400
C  1.37800 11.19600 24.35000
N  1.41900 7.93000 28.57000
C  1.51600 8.91100 29.44300
C  1.52600 8.36400 30.90400
C  1.56600 6.74800 30.68300
C  1.40500 6.71200 29.11200
C  2.82600 5.95800 31.21700
C  0.32800 8.95100 31.79500
C  -0.09700 8.28300 33.16800
H  1.07200 7.71300 33.97100
N  0.95500 6.25000 26.10700
C  1.09600 5.23600 27.06000
C  1.03400 3.99200 26.39100
C  0.79700 4.28400 24.95000
C  0.89200 5.75600 24.86600
C  0.96800 2.71900 27.13400
C  0.51600 3.33000 23.87100
O  -0.02600 3.69000 22.83200
C  0.72200 1.94300 24.04400
N  1.05200 8.85600 24.31900
C  0.77800 7.85500 23.44400
C  0.62300 8.39900 22.01100
C  0.46600 9.93200 22.31800
C  0.98900 10.06100 23.75900
C  1.76400 7.90500 21.09200
C  -0.95300 10.45900 22.15600
C  -1.33000 10.70600 20.69500
N  1.67000 10.29100 26.61100
C  1.82200 11.31300 25.69500
C  2.13300 12.51600 26.42500
C  2.21300 12.14100 27.74400
C  1.88800 10.77300 27.81400
C  2.46400 13.83400 25.81800
C  2.58800 12.54400 29.08900
O  2.89500 13.68200 29.49100
C  2.22500 11.33700 30.07000
C  3.45200 10.93600 30.79100
O  4.38400 10.23600 30.27500
O  3.51000 11.52200 32.02500
C  4.76600 11.49900 32.77000
H  1.17400 4.60300 29.09000
H  0.65400 5.85100 22.80400
H  1.37300 12.11300 23.75700
H  2.50600 8.63500 31.29700
H  0.64000 6.23800 30.94800
H  3.57500 6.53700 31.75700
H  3.28300 5.45300 30.36600
H  2.44200 5.24800 31.95000
H  -0.53000 8.93800 31.12200
H  0.59100 9.99100 31.99200
H  -0.86900 7.52600 33.03000
H  -0.56000 9.04700 33.79300
H  0.26300 2.01000 26.70000
H  0.74600 2.76800 28.20000
H  1.91500 2.18600 27.04300
H  1.66200 1.71700 24.54700
H  0.86500 1.56200 23.03300
H  -0.13100 1.40500 24.45900
H  -0.25100 8.00300 21.49500
H  1.13300 10.54300 21.71100
H  2.34300 7.09600 21.53800
H  2.51000 8.69700 21.16500
H  1.41400 7.76400 20.07000
H  -1.01700 11.30200 22.84500
H  -1.59200 9.70100 22.60800
H  -0.50300 10.44200 20.03500
H  -1.36500 11.79000 20.58400
H  -2.31300 10.38000 20.35500
H  1.48300 14.30700 25.84000
H  3.03100 13.81600 24.88700
H  3.06200 14.41400 26.52200
H  1.53800 11.76600 30.80000
H  5.05700 12.52700 32.98300
H  5.56500 10.83900 32.43200
H  4.51300 11.20900 33.79000

