79

Mg 43.96200 4.89400 46.96500
C  41.73200 7.75900 46.93500
C  41.09800 2.98700 46.49400
C  45.93000 2.30600 46.26000
C  46.70000 6.99000 46.92800
N  41.65500 5.37800 46.55900
C  41.01600 6.58500 46.79600
C  39.50600 6.37100 46.75100
C  39.30100 4.87500 46.66100
C  40.76400 4.33300 46.63900
C  38.50300 4.43500 47.84700
C  38.73500 7.26900 45.70300
C  39.52000 7.43600 44.40500
H  38.79400 7.41900 43.07000
N  43.58600 2.88500 46.54000
C  42.36800 2.32400 46.39300
C  42.51000 0.91400 46.02400
C  43.92600 0.69500 45.97700
C  44.57600 2.00700 46.29000
C  41.36300 -0.04200 45.62800
C  44.54300 -0.62700 45.55800
O  43.81000 -1.55100 45.31700
C  46.02600 -0.88900 45.34600
N  46.10500 4.66600 46.50500
C  46.63700 3.45000 46.50600
C  48.19700 3.52600 46.80200
C  48.45000 5.13000 46.86400
C  47.05400 5.66800 46.73400
C  48.65000 2.73600 48.06800
C  49.34400 5.73000 45.67600
C  50.66700 6.38800 46.28000
N  44.21800 6.98200 47.00800
C  45.40600 7.72200 47.01100
C  45.09200 9.10800 47.21700
C  43.62800 9.13500 47.19400
C  43.14300 7.86700 46.96100
C  46.10400 10.19100 47.43700
C  42.48800 10.03100 47.27300
O  42.44900 11.29400 47.30200
C  41.21300 9.16100 47.21900
C  40.49400 9.20600 48.50600
O  40.74900 8.45700 49.39500
O  39.48500 10.18100 48.51500
C  38.70500 10.31200 49.78900
H  40.24500 2.32400 46.33300
H  46.68300 1.53300 46.09200
H  47.49000 7.74300 46.97400
H  39.14800 6.76400 47.70300
H  38.70300 4.63600 45.78200
H  39.06500 4.80600 48.70400
H  38.46500 3.34800 47.91700
H  37.55700 4.97300 47.89600
H  38.63200 8.30000 46.04300
H  37.77400 6.85200 45.40100
H  40.26200 6.64700 44.28500
H  40.14500 8.31300 44.56800
H  41.28300 -0.89700 46.30000
H  41.57400 -0.31400 44.59400
H  40.35800 0.37900 45.66400
H  46.60900 -0.64100 46.23400
H  46.34900 -0.18700 44.57700
H  46.25500 -1.88500 44.96700
H  48.84400 3.13700 46.01600
H  48.90400 5.43000 47.80800
H  48.01000 2.95300 48.92300
H  49.70300 2.92800 48.27600
H  48.61000 1.68800 47.77100
H  48.78900 6.48600 45.12100
H  49.59600 4.86300 45.06400
H  51.05400 6.98500 45.45400
H  51.35900 5.66600 46.71300
H  50.31400 7.05300 47.06800
H  47.05900 9.88600 47.00900
H  46.36100 10.40300 48.47500
H  45.90400 11.08300 46.84300
H  40.55800 9.55400 46.44200
H  38.59900 11.33900 50.13800
H  39.03600 9.81200 50.69800
H  37.77400 9.78500 49.58200

