79

Mg -5.80400 24.98300 25.56800
C  -4.66500 26.64800 28.59300
C  -7.52700 22.91800 27.51100
C  -6.31100 23.15600 22.91100
C  -3.65800 27.06300 23.78700
N  -6.07800 24.79900 27.77800
C  -5.57800 25.64900 28.81000
C  -6.18000 25.12900 30.18700
C  -6.83500 23.73800 29.76400
C  -6.79000 23.79400 28.24200
C  -6.23800 22.46200 30.40700
C  -7.25000 26.21300 30.73300
C  -7.11800 26.66100 32.24200
H  -6.20600 25.77300 33.12400
N  -6.74100 23.27200 25.24200
C  -7.52400 22.63300 26.14200
C  -8.34800 21.63300 25.49500
C  -7.96600 21.63000 24.13100
C  -6.93000 22.67100 24.04000
C  -9.33700 20.78300 26.24200
C  -8.35300 20.64100 23.00100
O  -7.82600 20.68000 21.89300
C  -9.35200 19.55400 23.14300
N  -4.94500 25.01100 23.60800
C  -5.48200 24.28300 22.66800
C  -4.84600 24.50600 21.26900
C  -4.01500 25.83600 21.48300
C  -4.24400 26.04100 23.00300
C  -3.96600 23.32100 20.61600
C  -4.25000 27.07800 20.51200
C  -3.12100 27.29600 19.46700
N  -4.45500 26.57100 26.05700
C  -3.71000 27.35100 25.20100
C  -3.01700 28.37800 25.93900
C  -3.35000 28.16700 27.26400
C  -4.24700 27.07000 27.30600
C  -2.23900 29.50500 25.28000
C  -3.13700 28.58200 28.64800
O  -2.45800 29.54900 29.02100
C  -4.09400 27.73700 29.55300
C  -3.28700 27.23200 30.73800
O  -2.79700 26.13200 30.91500
O  -3.24900 28.29000 31.59200
C  -2.36400 28.13800 32.67500
H  -8.05800 22.19400 28.13300
H  -6.50200 22.63600 21.97000
H  -3.02900 27.78000 23.25500
H  -5.49000 24.81800 30.97100
H  -7.88400 23.71900 30.05800
H  -5.90700 21.77900 29.62500
H  -7.00400 22.03400 31.05400
H  -5.42200 22.65700 31.10400
H  -8.22700 25.77700 30.52300
H  -7.15200 27.13800 30.16400
H  -8.03900 26.86400 32.78800
H  -6.69300 27.65900 32.35000
H  -8.89000 19.78900 26.22500
H  -10.22800 20.74500 25.61600
H  -9.63100 21.06300 27.25400
H  -10.27700 20.12300 23.05500
H  -9.24300 19.07800 24.11800
H  -9.43000 18.79200 22.36700
H  -5.65600 24.85600 20.62900
H  -2.96800 25.57000 21.34100
H  -2.91600 23.56000 20.44800
H  -4.31500 23.08800 19.61000
H  -3.95300 22.42400 21.23500
H  -4.31800 27.90300 21.22000
H  -5.24500 26.93800 20.08800
H  -2.23400 27.40500 20.09100
H  -3.21200 28.25900 18.96500
H  -2.98500 26.52800 18.70600
H  -1.90600 30.17200 26.07600
H  -2.90300 30.10900 24.66200
H  -1.37300 29.12800 24.73600
H  -4.87900 28.35800 29.98300
H  -1.41700 27.91900 32.18200
H  -2.71100 27.51900 33.50300
H  -2.25700 29.14700 33.07200

