79

Mg 15.63100 51.84600 25.94100
C  17.60500 50.77000 28.63900
C  13.02500 52.42300 28.10700
C  13.71800 52.66100 23.32200
C  18.24400 50.91400 23.71400
N  15.43000 51.66000 28.11000
C  16.41700 51.42100 29.04000
C  15.93200 51.77400 30.49700
C  14.34500 51.85600 30.26400
C  14.20800 51.97400 28.73800
C  13.52200 50.66900 30.81900
C  16.49600 53.10600 31.00300
C  16.42700 53.35400 32.54400
H  15.44300 52.55400 33.41600
N  13.68100 52.55900 25.71800
C  12.76700 52.61500 26.73200
C  11.45000 53.00100 26.14300
C  11.64100 53.24200 24.75200
C  13.07100 52.82900 24.55700
C  10.12600 53.14500 26.92000
C  10.74200 53.79800 23.71400
O  11.18400 54.02300 22.61700
C  9.24200 54.03000 23.98700
N  15.95000 51.83700 23.79800
C  14.96700 52.20000 22.92300
C  15.45900 52.16800 21.48700
C  16.92500 51.67300 21.56800
C  17.06800 51.47200 23.11600
C  14.61300 51.25500 20.67800
C  18.11200 52.59300 21.22800
C  19.43900 51.97100 20.58600
N  17.54700 50.93100 26.05000
C  18.48200 50.54100 25.05400
C  19.65900 49.89300 25.71900
C  19.26400 49.91200 27.11400
C  18.04700 50.61000 27.26100
C  21.00200 49.52600 25.05400
C  19.75400 49.56700 28.41300
O  20.82100 49.00500 28.82000
C  18.76700 50.24000 29.47400
C  18.40600 49.22600 30.54700
O  17.58200 48.30700 30.38700
O  19.05700 49.50900 31.71400
C  18.71600 48.59400 32.77400
H  12.25800 52.70800 28.83000
H  13.11100 52.94000 22.45900
H  19.08400 50.70100 23.05000
H  16.32400 51.04600 31.20600
H  13.93400 52.79300 30.64100
H  13.00200 50.32600 29.92400
H  12.83000 50.93500 31.61800
H  14.16800 49.87000 31.18200
H  16.01800 53.90800 30.44000
H  17.56000 53.16000 30.77200
H  16.13600 54.39400 32.69200
H  17.41000 53.10900 32.94500
H  9.81100 54.18900 26.91500
H  10.30200 52.67800 27.88900
H  9.41700 52.45700 26.46100
H  9.22500 54.93200 24.59900
H  8.79600 53.15300 24.45700
H  8.81700 54.09300 22.98600
H  15.37300 53.22500 21.23200
H  17.15500 50.74800 21.03900
H  15.16200 50.51700 20.09200
H  14.20600 51.92300 19.91900
H  13.67800 50.95700 21.15300
H  18.55400 53.05900 22.10900
H  17.67300 53.44600 20.71000
H  20.16600 51.79200 21.37900
H  19.91000 52.60500 19.83400
H  19.00900 51.03700 20.22700
H  21.83900 49.76400 25.71200
H  21.16400 50.01600 24.09500
H  21.13400 48.45500 24.89500
H  19.31500 51.11200 29.83100
H  19.00900 47.62900 32.35900
H  17.67300 48.71700 33.06500
H  19.43600 48.61000 33.59200

