79

Mg 24.99100 1.41300 29.81600
C  27.49800 1.29900 32.61600
C  22.60300 1.43100 32.06100
C  23.11400 1.21000 27.28200
C  27.94500 0.99100 27.67500
N  25.19200 1.23700 32.07900
C  26.16500 1.41500 32.96400
C  25.61500 1.50400 34.42400
C  24.10800 1.25000 34.16800
C  23.92800 1.40800 32.67400
C  23.41100 -0.11800 34.73700
C  25.98500 2.87000 35.16600
C  26.72700 2.67800 36.53400
H  26.43900 3.66600 37.69300
N  23.07400 1.29800 29.70100
C  22.17000 1.28200 30.70900
C  20.80900 1.10600 30.13200
C  21.03900 1.00500 28.76600
C  22.47100 1.15100 28.47100
C  19.56000 1.06900 31.07600
C  19.95200 0.82500 27.66100
O  20.19500 0.79800 26.48900
C  18.56600 0.71400 28.03700
N  25.50900 0.96600 27.72800
C  24.43000 1.26500 26.84600
C  24.84100 1.54000 25.34800
C  26.41700 1.38800 25.57100
C  26.70400 1.11700 27.10400
C  24.27700 0.44800 24.26900
C  27.17800 2.56800 25.10000
C  26.87700 3.91300 25.88000
N  27.28400 1.06800 30.02100
C  28.25800 0.90700 29.05300
C  29.53100 0.79200 29.72400
C  29.29900 0.95200 31.07400
C  27.89700 1.12200 31.24400
C  30.78300 0.56100 29.08800
C  29.83800 0.87300 32.43700
O  30.95400 0.56400 32.80300
C  28.73900 1.26100 33.44200
C  28.76000 0.26500 34.54700
O  28.31400 -0.83400 34.45200
O  29.43100 0.80600 35.61100
C  29.53000 -0.17600 36.79800
H  21.78400 1.44800 32.78300
H  22.49300 1.31800 26.39000
H  28.78900 0.90400 26.98700
H  26.05000 0.67800 34.98700
H  23.53100 2.06600 34.60200
H  23.20900 -0.73100 33.85900
H  22.43700 -0.05000 35.22200
H  24.22900 -0.57800 35.29100
H  25.14800 3.54500 35.34300
H  26.67500 3.47200 34.57400
H  27.80800 2.81000 36.58200
H  26.72800 1.70100 37.01600
H  18.95200 1.95800 30.90600
H  19.74400 1.06900 32.15000
H  18.80900 0.31100 30.85100
H  18.26100 1.62600 28.55100
H  18.36300 -0.15900 28.65700
H  17.94300 0.70900 27.14300
H  24.68700 2.55500 24.98300
H  26.75800 0.51700 25.01100
H  25.06700 0.00800 23.66100
H  23.51000 0.86400 23.61700
H  23.80700 -0.18700 25.02100
H  27.07800 2.85100 24.05200
H  28.24400 2.34900 25.16400
H  26.15100 3.76800 26.68100
H  26.52600 4.76200 25.29400
H  27.82000 4.12200 26.38500
H  31.17600 -0.45400 29.14400
H  31.55700 1.20300 29.50800
H  30.75200 0.82300 28.03000
H  29.02600 2.17400 33.96300
H  29.75500 -1.18200 36.44200
H  28.58900 -0.03600 37.33000
H  30.39000 -0.01900 37.45000

