79

Mg 8.00500 2.98700 26.99100
C  8.94400 1.57800 29.94500
C  5.76400 5.05300 28.78100
C  6.49500 4.25900 24.10100
C  9.26000 0.29900 25.31100
N  7.37400 3.27900 29.17600
C  8.04900 2.64400 30.17500
C  7.56500 3.29300 31.57900
C  6.41200 4.31400 31.17000
C  6.43100 4.18700 29.61300
C  5.08100 4.10200 31.85800
C  8.85000 3.90500 32.24700
C  8.49000 4.79200 33.51600
H  9.28300 4.41800 34.77400
N  6.45400 4.50500 26.55500
C  5.72300 5.22500 27.42400
C  4.86000 6.19000 26.70800
C  5.10400 6.00700 25.32700
C  6.05000 4.91400 25.27100
C  3.98400 7.20500 27.35900
C  4.64200 6.84800 24.10700
O  4.62400 6.44900 22.97500
C  4.09300 8.17600 24.38100
N  8.02000 2.47800 24.97400
C  7.40700 3.18100 23.96700
C  7.59600 2.49900 22.66400
C  8.52000 1.24500 23.07400
C  8.58700 1.30600 24.57300
C  6.23200 2.14000 21.95800
C  9.94400 1.14800 22.30800
C  10.21700 -0.17700 21.62000
N  9.04100 1.35900 27.44100
C  9.70100 0.45700 26.67300
C  10.42600 -0.53800 27.46900
C  10.30800 0.01000 28.78900
C  9.38400 1.05800 28.68800
C  11.31100 -1.61500 26.95600
C  10.59500 -0.23000 30.14600
O  11.31100 -1.07900 30.75000
C  9.71000 0.76300 30.95100
C  8.74100 -0.04400 31.81400
O  7.64300 -0.56900 31.47600
O  9.31300 -0.17300 33.06100
C  8.62900 -1.01500 34.08900
H  5.08900 5.70700 29.33700
H  6.11400 4.76100 23.21000
H  9.56300 -0.54300 24.68600
H  7.22700 2.50100 32.24600
H  6.68100 5.35500 31.35100
H  4.80500 5.04500 32.33000
H  5.20700 3.41000 32.69000
H  4.27100 3.77900 31.20400
H  9.49300 4.36800 31.49800
H  9.40200 3.11100 32.75000
H  7.44000 4.68500 33.78500
H  8.61700 5.85700 33.32100
H  2.95300 7.03900 27.04600
H  4.36900 8.18600 27.08100
H  4.03600 7.27500 28.44500
H  3.15500 8.06200 24.92300
H  3.77600 8.69400 23.47600
H  4.91400 8.71900 24.85000
H  8.15200 3.15100 21.99100
H  7.90700 0.36700 22.87000
H  6.19400 2.76600 21.06600
H  5.47500 2.27300 22.73000
H  6.16200 1.07300 21.74400
H  10.77600 1.28100 23.00000
H  10.15100 2.04300 21.72000
H  11.13800 -0.48400 22.11600
H  10.50100 -0.02500 20.57900
H  9.42200 -0.90600 21.77700
H  11.91700 -1.16800 26.16800
H  10.64400 -2.41700 26.64000
H  11.94300 -1.70900 27.83900
H  10.44200 1.31400 31.54100
H  9.44700 -1.58000 34.53600
H  7.87300 -1.69100 33.69000
H  8.22700 -0.34300 34.84700

