79

Mg 44.36300 4.20200 47.56000
C  42.16000 6.77400 47.36700
C  41.75800 1.87600 47.29100
C  46.68200 1.65500 47.03400
C  46.99100 6.51500 47.10000
N  42.24800 4.30000 47.27600
C  41.56900 5.50000 47.31300
C  40.04600 5.12500 47.07200
C  40.00500 3.68400 47.69500
C  41.45700 3.27300 47.28100
C  39.54800 3.62900 49.19100
C  39.67100 5.24600 45.53700
C  38.92200 6.41300 44.90100
H  39.59700 7.33500 43.81000
N  44.23000 1.96800 47.36800
C  43.05700 1.25900 47.24000
C  43.44600 -0.16000 47.04400
C  44.89600 -0.24400 47.01400
C  45.30100 1.15000 47.15600
C  42.42500 -1.25400 46.90400
C  45.72100 -1.49400 46.86000
O  45.18700 -2.43000 46.34000
C  47.19100 -1.52900 47.19900
N  46.54500 4.06900 47.09800
C  47.23600 2.92400 47.03000
C  48.76200 3.05800 46.93600
C  48.84200 4.62900 46.84400
C  47.38600 5.12400 47.10800
C  49.47500 2.56800 48.25100
C  49.37600 5.17900 45.50000
C  50.87000 4.74700 45.21900
N  44.59300 6.22400 47.33800
C  45.69000 7.03500 47.15200
C  45.31200 8.41500 46.93500
C  43.95400 8.37200 47.12900
C  43.54500 6.99600 47.30600
C  46.16700 9.68200 46.77200
C  42.77700 9.15200 47.10400
O  42.62800 10.37000 47.02200
C  41.58800 8.13700 47.30400
C  40.88700 8.47000 48.54500
O  40.79700 7.82200 49.62800
O  40.22600 9.63400 48.25100
C  39.35200 10.14600 49.23100
H  40.86500 1.26400 47.14900
H  47.55000 1.04600 46.77400
H  47.76900 7.25000 46.88000
H  39.46700 5.84200 47.65400
H  39.31000 3.07500 47.11700
H  39.53000 4.58400 49.71600
H  40.32300 2.99700 49.62700
H  38.53100 3.24000 49.14600
H  39.16800 4.33700 45.20700
H  40.65600 5.19800 45.07200
H  38.60800 7.10800 45.67900
H  38.06600 6.04100 44.33800
H  42.79300 -2.11100 46.34100
H  41.41500 -0.86100 46.78900
H  42.32000 -1.75700 47.86600
H  47.39500 -2.60000 47.18700
H  47.21300 -1.13300 48.21400
H  47.78600 -0.94800 46.49300
H  49.24100 2.56800 46.08800
H  49.46000 5.08900 47.61500
H  49.83700 1.55800 48.05400
H  48.83400 2.48600 49.12900
H  50.20900 3.34200 48.47400
H  49.31400 6.25400 45.32800
H  48.82100 4.66800 44.71400
H  51.36100 4.21100 46.03100
H  51.44600 5.53000 44.72500
H  50.80500 4.00500 44.42300
H  47.14300 9.40400 47.16900
H  45.75000 10.41800 47.45900
H  46.19100 10.12900 45.77800
H  40.89300 8.24000 46.47000
H  39.98100 10.30800 50.10600
H  38.49500 9.53900 49.52100
H  38.96200 11.08900 48.84800

