79

Mg -2.55300 17.16100 27.25400
C  -3.07200 14.84600 29.84500
C  -2.95800 19.62000 29.55100
C  -2.71300 19.21400 24.68400
C  -2.65200 14.47000 24.92200
N  -3.10700 17.15500 29.39600
C  -3.07000 16.16500 30.24900
C  -3.21500 16.63700 31.72200
C  -3.26600 18.22100 31.56600
C  -3.12300 18.37800 30.03700
C  -4.58200 18.85100 32.10300
C  -2.12400 16.13100 32.67600
C  -1.79000 17.03400 33.92200
H  -1.40000 16.08900 35.11900
N  -2.62500 19.20000 27.13600
C  -2.71100 20.04200 28.24900
C  -2.53200 21.37800 27.74600
C  -2.38600 21.24500 26.29900
C  -2.55700 19.84100 25.97200
C  -2.45900 22.59500 28.65600
C  -1.96400 22.33500 25.22300
O  -1.79900 22.06100 24.05300
C  -1.82300 23.65600 25.60700
N  -2.75100 16.81600 25.03800
C  -2.78300 17.90600 24.25000
C  -2.91600 17.42300 22.77600
C  -2.56600 15.93100 22.78600
C  -2.66000 15.70000 24.34600
C  -4.29400 17.84000 22.15400
C  -1.23200 15.48700 22.07600
C  0.04600 16.10800 22.62500
N  -2.78300 15.09100 27.26400
C  -2.82000 14.15500 26.30500
C  -2.91200 12.88500 26.82500
C  -3.02200 13.05400 28.22200
C  -2.95100 14.48400 28.44500
C  -3.09900 11.61500 26.08100
C  -3.29300 12.39000 29.45700
O  -3.50400 11.22100 29.69200
C  -3.26500 13.50200 30.57400
C  -1.97900 13.19900 31.27300
O  -0.86600 13.61700 30.96700
O  -2.22500 12.53300 32.39700
C  -1.11700 12.36000 33.36000
H  -3.04700 20.36400 30.34600
H  -2.58900 19.82200 23.78600
H  -2.60200 13.55900 24.32200
H  -4.21500 16.32300 32.01800
H  -2.43100 18.69300 32.08300
H  -4.27100 19.69100 32.72300
H  -5.04000 18.07300 32.71300
H  -5.19900 19.20000 31.27500
H  -1.19200 15.83100 32.19700
H  -2.60200 15.24600 33.09600
H  -2.61500 17.61300 34.33800
H  -0.92100 17.64300 33.67300
H  -1.59700 23.19900 28.37400
H  -2.31000 22.24500 29.67800
H  -3.40400 23.13800 28.63400
H  -1.79500 24.43000 24.84000
H  -0.93900 23.68200 26.24500
H  -2.74200 23.94900 26.11300
H  -2.11500 17.77700 22.12800
H  -3.25800 15.38900 22.14200
H  -4.84600 18.45100 22.86800
H  -4.88100 16.96300 21.88100
H  -4.01300 18.51700 21.34600
H  -1.29700 15.78800 21.03000
H  -1.20400 14.39800 22.04300
H  0.59900 15.20000 22.86500
H  -0.05800 16.63700 23.57300
H  0.51800 16.73200 21.86600
H  -2.54000 10.86100 26.63600
H  -2.74100 11.63100 25.05100
H  -4.13600 11.28600 26.14800
H  -4.08300 13.43700 31.29200
H  -1.08900 11.28200 33.52000
H  -1.43400 12.86400 34.27300
H  -0.17100 12.61600 32.88300

