79

Mg 15.72200 -2.42400 28.43700
C  15.01200 -0.50000 31.40000
C  18.28400 -3.97900 30.38900
C  16.94500 -3.67000 25.64100
C  13.75100 -0.14200 26.62700
N  16.59300 -2.26400 30.71000
C  16.02800 -1.49400 31.61200
C  16.63600 -1.81700 33.05000
C  17.84200 -2.67600 32.64500
C  17.57400 -3.01400 31.16600
C  19.29900 -2.14200 32.87100
C  15.59700 -2.49200 34.06600
C  15.77800 -2.11400 35.54300
H  17.09300 -1.40100 35.97700
N  17.20000 -3.83500 28.12300
C  18.16200 -4.34200 29.04400
C  18.89800 -5.39100 28.36900
C  18.55400 -5.25200 26.89900
C  17.53500 -4.16700 26.81700
C  19.90300 -6.25400 28.98000
C  19.25600 -5.87900 25.62600
O  18.88600 -5.73400 24.46900
C  20.44200 -6.77600 25.80500
N  15.45100 -1.91700 26.50100
C  16.04400 -2.59700 25.49400
C  15.63300 -1.98500 24.11000
C  14.48400 -1.02600 24.42800
C  14.53800 -1.00300 25.95100
C  16.88200 -1.28600 23.36600
C  13.13200 -1.24400 23.69300
C  11.98300 -1.88900 24.46400
N  14.52900 -0.73300 28.91900
C  13.72900 0.05500 28.06200
C  12.99100 0.98900 28.86500
C  13.50900 0.82300 30.13200
C  14.44600 -0.21000 30.15100
C  12.15900 2.12000 28.48200
C  13.43900 1.37700 31.44600
O  12.83100 2.34000 31.87900
C  14.43900 0.48600 32.36100
C  15.38900 1.47100 33.08200
O  16.18300 2.28800 32.57500
O  15.03800 1.45600 34.41100
C  15.69100 2.44300 35.23900
H  19.13000 -4.43500 30.90800
H  17.16200 -4.14600 24.68200
H  13.03200 0.45700 26.06400
H  17.02500 -0.85200 33.37400
H  17.85300 -3.63400 33.16400
H  19.80000 -2.69000 33.67000
H  19.31900 -1.09500 33.17300
H  19.94300 -2.27000 32.00100
H  15.76300 -3.56900 34.03900
H  14.55200 -2.32700 33.80200
H  15.74300 -3.05300 36.09500
H  14.85500 -1.61200 35.83400
H  19.78600 -7.20300 28.45800
H  19.75700 -6.39600 30.05100
H  20.84000 -5.72800 28.79400
H  20.14800 -7.64400 26.39500
H  21.21100 -6.23600 26.35800
H  20.77200 -6.92300 24.77700
H  15.35600 -2.83200 23.48200
H  14.53200 0.05500 24.29300
H  16.59600 -0.61000 22.56000
H  17.48200 -2.03500 22.85000
H  17.58300 -0.72900 23.98800
H  13.25500 -1.74400 22.73200
H  12.63700 -0.32100 23.39100
H  12.38100 -2.45900 25.30400
H  11.36300 -2.62500 23.95200
H  11.40000 -1.06800 24.87900
H  11.36700 2.11800 29.23100
H  11.72000 1.98500 27.49300
H  12.66800 3.08300 28.52600
H  13.77300 -0.01000 33.06700
H  15.39500 2.26000 36.27200
H  15.23900 3.39700 34.97000
H  16.76100 2.50900 35.04200

