79

Mg 43.51100 42.05200 26.23100
C  42.62000 44.53300 28.63100
C  44.66400 40.09300 28.84200
C  44.68700 39.95500 23.88800
C  43.32500 44.60100 23.86900
N  43.54200 42.23000 28.43800
C  42.95600 43.25100 29.21900
C  43.03400 42.91900 30.69900
C  44.13900 41.81400 30.73800
C  44.11300 41.29300 29.28800
C  45.50500 42.32300 31.11700
C  41.70200 42.45700 31.38000
C  41.26100 43.33500 32.60700
H  41.95200 43.12000 33.91000
N  44.38700 40.20000 26.32900
C  44.68600 39.56100 27.50400
C  45.12200 38.19000 27.12200
C  45.05700 38.13300 25.68400
C  44.66200 39.45700 25.23300
C  45.53300 37.15500 28.13700
C  45.33700 36.94500 24.80800
O  45.17900 36.93300 23.60600
C  45.88700 35.66900 25.50100
N  44.06600 42.20100 24.17400
C  44.44800 41.17700 23.37200
C  44.43300 41.59600 21.90900
C  44.00000 43.08100 21.98400
C  43.86000 43.38600 23.46200
C  45.82500 41.40500 21.13900
C  42.73500 43.36100 21.12700
C  41.31000 43.26900 21.76000
N  42.93800 44.08200 26.13000
C  42.91400 44.98900 25.12400
C  42.39100 46.26900 25.62000
C  42.27800 46.16700 26.98700
C  42.64600 44.79400 27.23300
C  41.83300 47.36600 24.68300
C  41.89600 46.84000 28.23900
O  41.34800 47.91500 28.43300
C  42.12300 45.82100 29.40100
C  43.07700 46.36100 30.29300
O  44.29500 46.29900 30.19500
O  42.38000 46.90700 31.41100
C  43.41300 47.20000 32.46500
H  45.01200 39.39500 29.60700
H  44.90600 39.14400 23.19000
H  43.18000 45.41800 23.15900
H  43.40100 43.84500 31.14100
H  43.84500 40.97600 31.37100
H  45.99100 41.49300 31.63000
H  45.46600 43.17500 31.79600
H  46.15200 42.68000 30.31600
H  41.74800 41.41700 31.70500
H  40.86600 42.48900 30.68100
H  40.20000 43.18700 32.81000
H  41.34600 44.41600 32.49600
H  45.14400 36.14800 27.98500
H  45.15300 37.56100 29.07500
H  46.62000 37.16300 28.21500
H  46.33700 35.04000 24.73300
H  45.05300 35.10300 25.91500
H  46.63100 35.94600 26.24800
H  43.67500 41.00300 21.39700
H  44.86300 43.63700 21.61600
H  45.61500 41.47200 20.07200
H  46.27900 40.46400 21.45000
H  46.53100 42.18200 21.43100
H  42.73200 42.65000 20.30100
H  42.78600 44.37200 20.72100
H  41.24500 43.07800 22.83100
H  40.60900 42.54300 21.34800
H  40.76900 44.20800 21.64500
H  42.62900 48.03800 24.36400
H  41.08100 48.04900 25.07800
H  41.33100 46.91700 23.82600
H  41.19600 45.54800 29.90600
H  44.31800 47.73200 32.17300
H  43.66900 46.30000 33.02500
H  42.89100 47.84500 33.17200

