79

Mg 16.14000 51.77400 26.72700
C  18.09900 50.61400 29.26500
C  13.60300 52.53700 28.85300
C  14.33500 52.61000 23.95100
C  18.50200 50.50100 24.46500
N  16.00200 51.53000 28.84400
C  16.86600 51.12100 29.72500
C  16.37100 51.27400 31.20500
C  14.87700 51.54100 30.97400
C  14.80500 51.95800 29.46900
C  14.01400 50.24800 31.18100
C  17.20000 52.41400 31.84700
C  17.40300 52.51500 33.27000
H  16.30500 51.84300 34.15100
N  14.25600 52.57500 26.45300
C  13.33400 52.80400 27.44400
C  12.11500 53.35900 26.83700
C  12.37200 53.50600 25.45000
C  13.66300 52.89900 25.23900
C  10.91700 53.79900 27.66400
C  11.51600 54.07900 24.36200
O  11.81900 54.07200 23.16800
C  10.18400 54.73700 24.65800
N  16.45500 51.68500 24.54200
C  15.54600 51.98900 23.62700
C  16.01900 52.04200 22.21000
C  17.38200 51.30300 22.37600
C  17.48900 51.20000 23.89100
C  14.96100 51.60200 21.15800
C  18.60300 52.00100 21.57200
C  18.87900 51.45200 20.21300
N  17.96400 50.77700 26.83700
C  18.80600 50.32900 25.82000
C  19.90900 49.61400 26.39500
C  19.70500 49.77000 27.72200
C  18.53900 50.49600 27.96100
C  20.99700 48.91600 25.63500
C  20.24800 49.46500 29.00700
O  21.31600 48.88200 29.29500
C  19.23400 50.04000 30.06800
C  18.84900 48.93300 31.01900
O  18.59900 47.82200 30.69500
O  18.81800 49.39000 32.31800
C  18.66500 48.37600 33.38700
H  12.74800 52.72500 29.50500
H  13.81000 52.98600 23.07000
H  19.23300 50.23100 23.70000
H  16.53600 50.34900 31.75800
H  14.60500 52.34500 31.65800
H  13.22000 50.44200 31.90300
H  14.55600 49.31700 31.35200
H  13.49800 50.04900 30.24200
H  16.78400 53.37500 31.54600
H  18.23300 52.32600 31.51000
H  17.43100 53.55600 33.59400
H  18.35400 52.07900 33.57600
H  10.09800 53.15200 27.34800
H  10.64500 54.84000 27.49300
H  10.96700 53.62400 28.73900
H  10.30300 55.62300 25.28200
H  9.56000 54.02200 25.19400
H  9.72800 55.09200 23.73300
H  16.24400 53.08200 21.97300
H  17.32400 50.29000 21.97900
H  15.51800 50.94800 20.48600
H  14.75700 52.44800 20.50200
H  14.11100 51.10300 21.62200
H  19.41500 51.87600 22.28900
H  18.52900 53.08500 21.48200
H  18.20000 50.68900 19.83300
H  19.88200 51.03600 20.30600
H  18.82900 52.32900 19.56600
H  21.62200 49.64600 25.12000
H  20.52800 48.25400 24.90700
H  21.53400 48.16900 26.22000
H  19.70300 50.82600 30.66000
H  18.12200 48.83100 34.21500
H  19.64900 48.02400 33.69400
H  18.12700 47.56700 32.89300

