79

Mg 1.25500 8.12000 25.15100
C  1.79500 10.01800 28.03800
C  1.19700 5.29800 27.01200
C  1.07700 6.48300 22.25700
C  1.81800 11.23300 23.26900
N  1.83900 7.72500 27.27200
C  1.74000 8.65200 28.26300
C  1.72400 8.03100 29.67700
C  1.77600 6.50700 29.26900
C  1.53300 6.48100 27.72000
C  3.10100 5.73400 29.54700
C  0.44600 8.36100 30.51100
C  0.70300 8.34800 32.06900
H  1.97700 7.77000 32.61700
N  1.11300 6.14700 24.68100
C  1.09800 5.11400 25.60000
C  1.14800 3.86200 24.92800
C  0.93400 4.16000 23.49300
C  1.00700 5.62700 23.40000
C  1.19400 2.56500 25.72900
C  0.79600 3.24500 22.29000
O  0.99400 3.61700 21.12600
C  0.50100 1.75600 22.50100
N  1.48100 8.79900 23.04000
C  1.36600 7.87100 22.08500
C  1.23500 8.55500 20.73600
C  1.51100 10.09700 21.05200
C  1.68100 10.08800 22.54400
C  2.11100 7.91400 19.59300
C  0.39800 10.96200 20.50200
C  -0.97000 11.02300 21.22200
N  1.79400 10.22700 25.51900
C  1.80400 11.33600 24.68600
C  1.91000 12.51300 25.50700
C  1.92800 12.00400 26.84800
C  1.86200 10.64700 26.77500
C  1.91900 13.94200 25.11000
C  1.91900 12.44300 28.27900
O  1.85800 13.51500 28.83000
C  1.76300 11.13800 29.08900
C  2.98700 11.25200 29.91800
O  4.13100 11.09000 29.47400
O  2.59900 11.38100 31.22300
C  3.78000 11.72000 32.08600
H  1.11500 4.37600 27.59200
H  0.97200 5.88200 21.35100
H  1.69000 12.17200 22.72500
H  2.66800 8.39500 30.08300
H  1.08500 5.90500 29.85700
H  3.02700 4.98000 30.33000
H  3.87500 6.37700 29.96800
H  3.39700 5.13000 28.68900
H  -0.24800 7.55800 30.26300
H  -0.07500 9.26400 30.19200
H  -0.14100 7.75100 32.41600
H  0.55900 9.38400 32.37500
H  1.31400 1.59200 25.25300
H  0.19700 2.55600 26.16900
H  1.95400 2.54400 26.51000
H  1.22000 1.25600 23.14900
H  0.52200 1.17700 21.57800
H  -0.44200 1.45000 22.95200
H  0.20700 8.34800 20.43600
H  2.44100 10.40000 20.57100
H  2.96300 7.36600 19.99400
H  2.44000 8.73900 18.96000
H  1.50900 7.25400 18.96800
H  0.25600 10.49100 19.52900
H  0.78900 11.96500 20.33100
H  -1.72100 11.21800 20.45600
H  -0.90300 11.71300 22.06300
H  -1.24800 10.09100 21.71600
H  0.96500 14.31700 25.48000
H  2.00400 14.02700 24.02600
H  2.80400 14.45300 25.48800
H  0.84400 11.32400 29.64500
H  4.24500 10.80600 32.45500
H  3.57800 12.24800 33.01800
H  4.46800 12.34500 31.51700

