79

Mg 8.19200 2.88600 27.13700
C  9.63700 1.15800 30.03100
C  6.51600 4.81300 29.35300
C  6.95900 4.32200 24.44400
C  9.99000 0.55900 25.18000
N  8.14400 2.95600 29.52200
C  8.80700 2.20100 30.42800
C  8.52300 2.72600 31.87700
C  7.32300 3.73900 31.58800
C  7.19800 3.80300 30.05200
C  6.01900 3.35000 32.20600
C  9.79300 3.24300 32.55200
C  9.62500 4.22600 33.81200
H  10.61000 4.22700 34.90600
N  6.96900 4.46500 26.97500
C  6.33100 5.15000 27.98400
C  5.49400 6.23800 27.39300
C  5.73500 6.12800 25.94600
C  6.58600 4.89000 25.73400
C  4.60600 7.12700 28.18300
C  5.11600 6.98300 24.86500
O  5.08100 6.66700 23.69100
C  4.46100 8.24700 25.12000
N  8.40200 2.45800 25.15400
C  7.78600 3.19400 24.19200
C  7.97100 2.55600 22.80600
C  9.11400 1.58200 23.00700
C  9.24900 1.55100 24.56100
C  6.64600 1.95200 22.15000
C  10.34300 2.11000 22.31200
C  11.43500 1.07100 21.82100
N  9.40000 1.03100 27.43700
C  10.18900 0.33600 26.55000
C  11.04000 -0.63800 27.20200
C  10.83800 -0.33400 28.60300
C  9.81200 0.72800 28.67400
C  11.91400 -1.58900 26.60100
C  11.33800 -0.61800 29.88500
O  12.24300 -1.36600 30.22200
C  10.54400 0.28300 30.94100
C  9.60400 -0.46700 31.81400
O  8.82100 -1.31200 31.39700
O  9.89000 -0.22100 33.14800
C  9.38500 -1.22200 34.14100
H  5.90800 5.33400 30.09600
H  6.48000 4.71900 23.54600
H  10.51900 -0.13200 24.52100
H  8.10200 1.89600 32.44500
H  7.52800 4.70800 32.04200
H  5.34900 2.97000 31.43400
H  5.46900 4.21600 32.57300
H  6.12100 2.57800 32.96900
H  10.43100 3.83900 31.90000
H  10.28700 2.36200 32.96200
H  8.62000 4.12100 34.22200
H  9.62900 5.16600 33.26000
H  4.65700 6.92500 29.25300
H  3.54600 7.07100 27.93600
H  4.94800 8.14700 28.00800
H  5.11100 8.94900 25.64200
H  3.56700 8.11100 25.73000
H  4.18600 8.72500 24.18000
H  8.20900 3.32800 22.07500
H  8.95700 0.53600 22.74300
H  5.81400 2.18800 22.81500
H  6.59900 0.89800 21.87500
H  6.51500 2.53200 21.23700
H  10.82900 2.72400 23.07000
H  10.11200 2.69100 21.41900
H  10.93600 0.10300 21.78700
H  12.23800 0.98600 22.55400
H  11.90000 1.23800 20.84900
H  12.86800 -1.70400 27.11600
H  12.19800 -1.48600 25.55400
H  11.52800 -2.60400 26.50600
H  11.23700 0.76800 31.62800
H  8.98300 -0.58200 34.92600
H  10.26200 -1.75900 34.50300
H  8.60900 -1.83200 33.67900

