79

Mg 24.85900 1.69600 29.25700
C  26.95700 1.76800 32.18700
C  22.19100 1.65600 31.32000
C  22.95100 1.53600 26.51600
C  27.69000 1.15400 27.29700
N  24.63100 1.79200 31.53700
C  25.58600 1.86300 32.53700
C  24.92200 2.17700 33.97600
C  23.41500 1.99800 33.54900
C  23.36500 1.74800 32.02000
C  22.64500 0.87600 34.33700
C  25.30600 3.53500 34.46600
C  24.76200 4.06200 35.84700
H  25.65200 3.85100 37.15000
N  22.88900 1.57600 29.00700
C  21.93200 1.61100 29.94500
C  20.57900 1.40000 29.39200
C  20.77200 1.30100 27.94200
C  22.24300 1.49000 27.76300
C  19.25800 1.40100 30.18300
C  19.77900 1.12700 26.81000
O  20.12700 1.20700 25.63600
C  18.29300 0.89700 27.13800
N  25.22900 1.47600 27.19600
C  24.34200 1.48400 26.22100
C  24.97600 1.52000 24.87300
C  26.46400 1.54800 25.13000
C  26.49100 1.31500 26.64500
C  24.48300 0.28600 24.00800
C  27.29500 2.81400 24.74900
C  26.79300 4.12100 25.34000
N  26.94200 1.33500 29.64600
C  27.96000 1.16700 28.72500
C  29.15000 1.01700 29.42900
C  28.86500 1.30500 30.81700
C  27.44000 1.50800 30.88300
C  30.39700 0.58600 28.74900
C  29.36800 1.34700 32.17300
O  30.49100 1.11600 32.61600
C  28.25800 1.92600 33.02500
C  28.13200 1.17800 34.30000
O  27.65200 0.06800 34.39900
O  28.79900 1.87400 35.30300
C  29.16800 1.10300 36.52400
H  21.34000 1.71900 32.00200
H  22.34700 1.53400 25.60600
H  28.56500 1.18200 26.64500
H  25.17400 1.37500 34.67100
H  22.89100 2.92200 33.79500
H  22.54800 0.11200 33.56500
H  21.71300 1.29500 34.71400
H  23.19900 0.39400 35.14300
H  25.13200 4.22000 33.63600
H  26.38000 3.39900 34.59800
H  23.81100 3.56400 36.03700
H  24.48400 5.11000 35.73500
H  18.69400 2.19400 29.69100
H  19.26200 1.69100 31.23400
H  18.83200 0.39800 30.17400
H  18.26800 0.03100 27.80000
H  17.73800 0.79000 26.20500
H  17.87400 1.70700 27.73500
H  24.60200 2.43000 24.40300
H  27.01000 0.77900 24.58300
H  23.66500 -0.20700 24.53300
H  25.31800 -0.40200 23.87300
H  24.15800 0.77100 23.08700
H  27.28800 2.96700 23.67000
H  28.36000 2.61800 24.87300
H  26.35300 4.02000 26.33200
H  26.00300 4.44200 24.66000
H  27.60300 4.83400 25.49100
H  30.34500 0.35900 27.68500
H  30.70600 -0.30700 29.29200
H  31.18000 1.33900 28.84000
H  28.43800 2.99100 33.17100
H  29.26000 0.04300 36.28600
H  28.39400 1.16200 37.28900
H  30.11600 1.46700 36.92200

