79

Mg -12.22400 36.72000 42.31100
C  -9.61500 34.42700 42.00000
C  -10.21300 39.10700 40.76300
C  -14.84600 38.85500 42.13200
C  -14.27400 34.06600 43.05600
N  -10.12500 36.69700 41.39400
C  -9.28000 35.63400 41.35800
C  -7.98600 36.03500 40.71800
C  -8.00700 37.61000 40.78600
C  -9.54000 37.84900 41.00500
C  -7.11100 38.22000 41.84100
C  -7.91700 35.43800 39.31500
C  -6.52600 34.77000 39.01000
H  -5.60900 35.50000 38.05700
N  -12.48400 38.66600 41.65400
C  -11.48500 39.44800 41.13500
C  -12.02300 40.76000 40.94600
C  -13.36500 40.83700 41.37900
C  -13.63800 39.43000 41.71100
C  -11.13600 41.96200 40.38500
C  -14.34700 42.08800 41.50500
O  -13.86700 43.15100 41.11400
C  -15.71100 42.04600 41.94200
N  -14.23100 36.53100 42.63200
C  -15.19800 37.54800 42.48300
C  -16.63400 37.05100 42.83700
C  -16.35800 35.50900 43.07000
C  -14.86600 35.33900 42.90800
C  -17.32100 37.69500 44.09600
C  -17.33600 34.53500 42.15700
C  -17.90100 33.33200 42.92100
N  -11.99200 34.74500 42.60200
C  -12.92200 33.79400 42.91600
C  -12.24300 32.53500 43.20000
C  -10.96800 32.75300 42.83500
C  -10.84700 34.12000 42.42400
C  -12.71400 31.29100 43.76300
C  -9.73800 32.09000 42.69000
O  -9.37300 30.93100 42.83700
C  -8.79200 33.18700 42.12100
C  -7.66600 33.36400 43.03100
O  -6.51700 32.98700 42.92000
O  -8.05200 33.95600 44.20700
C  -7.09100 33.86600 45.34800
H  -9.44200 39.85200 40.55600
H  -15.74000 39.47900 42.06000
H  -15.02000 33.29900 43.27500
H  -7.21600 35.56600 41.33000
H  -7.60700 38.01800 39.85800
H  -6.24500 37.59200 42.05100
H  -7.65000 38.39600 42.77100
H  -6.78100 39.21400 41.53900
H  -7.95900 36.23200 38.56900
H  -8.72900 34.74300 39.09900
H  -6.68100 33.74000 38.68700
H  -5.96000 34.68100 39.93700
H  -10.74000 42.46000 41.27000
H  -11.68700 42.70800 39.81300
H  -10.30600 41.58600 39.78700
H  -15.97000 43.09900 42.05900
H  -15.68300 41.65800 42.96000
H  -16.36700 41.46400 41.29600
H  -17.13300 37.20600 41.88000
H  -16.60200 35.18800 44.08300
H  -17.78200 38.66900 43.93500
H  -16.61500 37.84300 44.91300
H  -18.07000 37.00800 44.49100
H  -16.67200 34.05600 41.43800
H  -18.11700 35.16800 41.73600
H  -18.97200 33.51200 42.82400
H  -17.62300 33.27800 43.97300
H  -17.54100 32.39400 42.49800
H  -12.04300 31.03100 44.58200
H  -12.67300 30.51400 42.99900
H  -13.72300 31.44100 44.14700
H  -8.39100 32.91500 41.14500
H  -6.66500 32.86500 45.41600
H  -7.51500 34.03100 46.33800
H  -6.35600 34.64400 45.14100

