79

Mg 40.91400 7.93000 28.80400
C  42.86500 9.29400 31.24900
C  38.84100 6.57000 31.22200
C  39.17900 6.41800 26.35200
C  43.22800 8.85800 26.48300
N  40.99500 7.90100 30.95800
C  41.77900 8.65500 31.78200
C  41.23100 8.54500 33.32300
C  40.01400 7.60000 33.18400
C  39.90200 7.33000 31.67400
C  40.09300 6.19000 33.99300
C  40.90700 10.00900 33.80600
C  39.84100 10.14400 34.90800
H  40.29400 10.97400 36.21200
N  39.20100 6.65300 28.80400
C  38.47500 6.22000 29.86900
C  37.39600 5.45900 29.41800
C  37.35300 5.59200 27.96900
C  38.64700 6.28700 27.59400
C  36.47000 4.67700 30.36400
C  36.22600 5.10400 26.94700
O  36.27200 5.30200 25.75000
C  34.96400 4.59100 27.46800
N  41.11600 7.70400 26.68200
C  40.30500 7.06300 25.84200
C  40.81200 7.06500 24.45600
C  42.05600 8.08100 24.44000
C  42.15900 8.24100 25.96500
C  41.13200 5.60500 24.05600
C  41.69200 9.46800 23.79000
C  40.59900 10.34600 24.48400
N  42.70700 8.81000 28.80600
C  43.61000 9.08900 27.82300
C  44.85700 9.60800 28.39100
C  44.57000 9.79100 29.76800
C  43.28700 9.28100 29.93000
C  46.15500 9.94900 27.57900
C  45.03100 10.33300 30.99600
O  46.05400 10.93200 31.31500
C  43.98600 9.98200 32.08300
C  44.55600 9.29300 33.32600
O  44.67500 8.09000 33.52900
O  44.56500 10.26400 34.32100
C  44.93000 9.83700 35.61500
H  38.06800 6.28500 31.93700
H  38.50700 6.07800 25.56200
H  43.91600 9.21500 25.71400
H  42.10400 8.18400 33.86700
H  39.07400 8.01100 33.55300
H  40.55600 5.48300 33.30600
H  39.09900 5.83900 34.27100
H  40.73100 6.28200 34.87200
H  40.55100 10.71000 33.05000
H  41.80200 10.41200 34.28000
H  39.55800 9.20700 35.38900
H  38.96200 10.67300 34.54100
H  36.71900 4.65600 31.42500
H  36.41700 3.63200 30.05800
H  35.52500 5.19800 30.20900
H  34.35400 4.40500 26.58400
H  34.62800 5.44100 28.06300
H  35.09000 3.70700 28.09300
H  40.03800 7.45900 23.79900
H  43.03300 7.73900 24.09800
H  40.90400 4.94900 24.89700
H  42.14000 5.26500 23.82000
H  40.58300 5.45400 23.12600
H  41.33100 9.28600 22.77700
H  42.62300 10.03400 23.76600
H  39.83000 10.49700 23.72600
H  41.08100 11.21500 24.93000
H  40.01600 9.87700 25.27600
H  45.84000 10.50700 26.69800
H  46.44300 8.93700 27.29500
H  46.93500 10.50300 28.10100
H  43.50600 10.93800 32.28800
H  44.11000 10.00200 36.31400
H  45.75600 10.45300 35.97100
H  45.15500 8.77400 35.70700

