79

Mg 43.29900 42.81900 26.00900
C  42.42800 45.41500 28.19600
C  44.63900 41.05600 28.48400
C  44.17000 40.59400 23.65100
C  42.57000 45.16700 23.42600
N  43.44300 43.16500 28.12500
C  42.90600 44.20300 28.88700
C  43.01500 43.95600 30.40800
C  44.01800 42.70100 30.39800
C  44.08100 42.25900 28.90100
C  45.38900 42.87300 31.20600
C  41.53100 43.80000 30.90500
C  41.19100 44.16400 32.31800
H  42.28200 43.93700 33.35300
N  44.35800 41.08400 26.03800
C  44.75600 40.43300 27.22600
C  45.40600 39.20000 26.89500
C  45.12600 38.94500 25.45600
C  44.52700 40.21400 24.94500
C  45.89200 38.39700 28.04800
C  45.47400 37.79800 24.54000
O  45.14400 37.81800 23.36000
C  46.23300 36.69200 25.13800
N  43.49400 42.94900 23.83100
C  43.86300 41.86600 23.12600
C  43.56100 41.97800 21.68600
C  42.77100 43.32300 21.66600
C  42.87700 43.88100 23.06600
C  44.92400 42.04900 20.90900
C  41.31600 43.19100 21.02600
C  40.40200 42.05500 21.52700
N  42.67200 44.86200 25.81300
C  42.46800 45.65400 24.72000
C  42.09800 47.01000 25.12900
C  42.06100 46.96500 26.52500
C  42.41400 45.64200 26.83400
C  41.79700 48.13000 24.18100
C  41.85100 47.72400 27.70700
O  41.54100 48.87900 27.86000
C  42.14100 46.74400 28.89900
C  43.20500 47.18700 29.84400
O  44.41000 47.19600 29.68000
O  42.57900 47.46400 31.00800
C  43.37000 48.01900 32.08500
H  45.14200 40.50700 29.28300
H  44.10400 39.80300 22.90100
H  42.20700 45.80600 22.61900
H  43.59900 44.73000 30.90600
H  43.43200 42.02400 31.01900
H  45.64300 43.87300 31.55700
H  46.10200 42.46800 30.48800
H  45.47100 42.20800 32.06600
H  41.02600 42.86900 30.64800
H  40.84800 44.43700 30.34300
H  40.37800 43.51900 32.65300
H  40.84500 45.19300 32.42100
H  46.52700 38.97100 28.72400
H  46.50500 37.55400 27.72800
H  45.03000 37.92300 28.51600
H  45.60600 36.27900 25.92800
H  47.11900 37.18600 25.53700
H  46.59500 35.89600 24.48700
H  42.93600 41.16500 21.31700
H  43.23800 44.07500 21.03000
H  45.76000 42.01700 21.60700
H  45.02200 42.88900 20.22100
H  45.10700 41.06300 20.48100
H  41.46000 43.29600 19.95100
H  40.85600 44.09200 21.43000
H  39.41900 42.46800 21.75100
H  40.77900 41.54600 22.41400
H  40.23400 41.21600 20.85200
H  42.73800 48.15000 23.63200
H  41.58000 49.01400 24.78200
H  40.95800 47.89000 23.52700
H  41.19300 46.57000 29.40800
H  44.15300 48.71200 31.77600
H  43.75000 47.41300 32.90800
H  42.68100 48.73000 32.54200

