79

Mg 9.61700 48.52300 24.75300
C  7.52500 48.60500 27.65200
C  12.12100 49.88800 26.51600
C  11.45100 48.44300 22.04700
C  6.69700 47.47700 22.95400
N  9.70900 49.16300 26.95500
C  8.86300 49.03500 27.94200
C  9.45700 49.50000 29.27300
C  10.74300 50.24500 28.65600
C  10.89000 49.67400 27.28800
C  10.54100 51.76600 28.64100
C  9.76200 48.28000 30.13800
C  9.29100 48.55100 31.55600
H  9.46200 47.54900 32.72100
N  11.54700 48.99400 24.42300
C  12.42700 49.46700 25.26000
C  13.73200 49.51800 24.62600
C  13.57200 49.20900 23.27200
C  12.16900 48.87800 23.20800
C  14.96500 49.83900 25.42900
C  14.58500 48.99600 22.23000
O  14.31100 48.81600 21.05100
C  16.07000 49.02800 22.54400
N  9.08500 48.06100 22.77700
C  10.04400 48.06100 21.84400
C  9.58100 47.64100 20.45100
C  8.10800 47.17500 20.73300
C  7.93800 47.59500 22.24300
C  9.73400 48.87500 19.51600
C  7.83400 45.66100 20.50800
C  8.40700 44.70500 21.64400
N  7.49200 48.32300 25.15500
C  6.49700 47.94700 24.30700
C  5.28900 47.80800 24.99500
C  5.59700 47.93200 26.37700
C  6.97400 48.33300 26.41100
C  3.95900 47.42300 24.47400
C  5.13800 47.84300 27.68400
O  4.07700 47.47200 28.13400
C  6.35600 48.20200 28.60500
C  6.53800 47.02500 29.38200
O  7.05900 45.95400 29.00400
O  6.01300 47.24000 30.59200
C  6.13400 46.05600 31.49500
H  12.94600 50.37700 27.03900
H  12.08300 48.33000 21.16400
H  5.83000 47.00000 22.49000
H  8.70400 50.18200 29.66800
H  11.54700 49.96900 29.33800
H  10.90000 52.12400 27.67600
H  11.05400 52.15400 29.52000
H  9.50100 52.07100 28.76100
H  10.83300 48.08300 30.09600
H  9.28900 47.35400 29.81200
H  8.21700 48.67800 31.42000
H  9.72300 49.45900 31.97600
H  14.80700 49.86100 26.50800
H  15.44400 50.80400 25.26600
H  15.73000 49.08300 25.24800
H  16.35200 48.20000 23.19500
H  16.01200 50.00200 23.02900
H  16.51800 49.10000 21.55300
H  10.16200 46.77800 20.12400
H  7.36900 47.75300 20.17900
H  10.38900 48.58400 18.69500
H  10.15300 49.76000 19.99600
H  8.76200 49.19900 19.14300
H  8.29500 45.52600 19.52900
H  6.77000 45.45800 20.38700
H  9.13300 45.20300 22.28800
H  8.92000 43.80500 21.30700
H  7.55300 44.33700 22.21200
H  3.33200 47.39900 25.36600
H  3.88000 46.36800 24.21200
H  3.69200 48.04000 23.61700
H  6.08300 49.05500 29.22700
H  7.20600 45.99200 31.68200
H  5.81900 45.08900 31.10000
H  5.69000 46.21900 32.47700

