79

Mg 25.82000 -6.70000 47.54500
C  26.85500 -3.53400 46.33700
C  22.75000 -6.08400 46.15100
C  25.09300 -9.75000 48.52000
C  29.24100 -7.43100 48.29000
N  24.95400 -5.04600 46.24300
C  25.50100 -3.84500 45.98800
C  24.53100 -2.91400 45.19100
C  23.13300 -3.66500 45.44200
C  23.62300 -5.05400 45.93700
C  22.31900 -3.07300 46.61300
C  24.89500 -2.76800 43.65100
C  24.83000 -1.31700 43.05400
H  25.93900 -0.92400 42.11300
N  24.13300 -7.79900 47.33500
C  23.00000 -7.34200 46.70700
C  22.07500 -8.47400 46.78100
C  22.69800 -9.52100 47.47400
C  24.02200 -9.11100 47.71700
C  20.75600 -8.45100 46.07700
C  22.06400 -10.94100 47.77800
O  20.91100 -11.10800 47.62800
C  22.77800 -12.13700 48.38400
N  27.00000 -8.35200 48.22100
C  26.40700 -9.39100 48.78800
C  27.36800 -10.20400 49.59000
C  28.75000 -9.78800 49.15500
C  28.34600 -8.45800 48.54500
C  27.05200 -10.25600 51.13100
C  29.47100 -10.80400 48.22200
C  30.95400 -11.22500 48.48800
N  27.72300 -5.74000 47.29600
C  28.96500 -6.17100 47.70600
C  29.90800 -5.13800 47.43300
C  29.16800 -4.01900 46.87300
C  27.83100 -4.46900 46.84300
C  31.36300 -5.15800 47.93900
C  29.15400 -2.69500 46.41800
O  30.06300 -1.89300 46.24100
C  27.66100 -2.38600 45.91800
C  27.32500 -1.11200 46.63200
O  27.23600 -0.99000 47.85800
O  26.95800 -0.09200 45.79100
C  26.61100 1.17000 46.47200
H  21.73500 -5.83300 45.83700
H  24.87900 -10.80700 48.69600
H  30.27000 -7.60800 48.61100
H  24.51800 -1.93000 45.65900
H  22.48800 -3.70900 44.56400
H  22.42200 -3.63500 47.54100
H  21.28800 -3.19000 46.27900
H  22.43600 -2.01100 46.82800
H  24.18300 -3.36500 43.08100
H  25.86200 -3.25700 43.52800
H  24.65300 -0.54400 43.80200
H  23.92400 -1.32600 42.44900
H  20.67100 -7.70100 45.29100
H  20.06600 -8.04800 46.81800
H  20.45500 -9.43300 45.71100
H  23.56600 -12.40500 47.68000
H  22.13900 -13.01300 48.49400
H  23.19700 -11.93200 49.36900
H  27.23100 -11.23300 49.25600
H  29.40400 -9.61100 50.00900
H  26.50200 -9.37800 51.46900
H  27.94500 -10.36200 51.74800
H  26.27600 -11.01700 51.20900
H  29.35700 -10.57500 47.16300
H  28.94900 -11.75100 48.35600
H  30.94800 -12.09400 49.14600
H  31.30800 -10.34200 49.02200
H  31.45700 -11.43800 47.54500
H  32.06100 -4.77400 47.19600
H  31.67300 -6.17800 48.16700
H  31.56900 -4.54500 48.81700
H  27.64700 -2.30400 44.83100
H  25.58300 1.12300 46.83100
H  26.55100 1.93200 45.69400
H  27.31900 1.37400 47.27500

