79

Mg 24.42700 1.47600 29.02700
C  26.60500 1.08900 31.83400
C  21.80000 1.38900 31.18400
C  22.49400 1.23100 26.28800
C  27.20100 1.01400 26.98800
N  24.23800 1.02000 31.28700
C  25.27000 1.28700 32.16300
C  24.77400 1.58600 33.59400
C  23.22000 1.64800 33.37000
C  23.04000 1.34500 31.83700
C  22.45800 0.63900 34.17200
C  25.48500 2.88400 34.10600
C  26.18300 2.75200 35.44900
H  26.16500 3.94300 36.45800
N  22.46200 1.33300 28.78400
C  21.49700 1.41200 29.75400
C  20.22200 1.38900 29.12700
C  20.37700 1.25100 27.71100
C  21.80200 1.18200 27.56100
C  19.05100 1.27500 30.00200
C  19.34000 1.22500 26.53200
O  19.64600 1.02100 25.34700
C  17.80500 1.27800 26.85700
N  24.79200 1.30100 26.89500
C  23.83900 1.31300 25.98100
C  24.41400 1.36100 24.56500
C  25.90700 1.18000 24.79900
C  26.00600 1.10900 26.30400
C  23.84500 0.36000 23.45200
C  26.79500 2.36900 24.21600
C  27.26800 3.51100 25.11100
N  26.47200 1.09500 29.29000
C  27.50600 0.94200 28.37100
C  28.73900 0.66800 29.03500
C  28.43900 0.70900 30.40400
C  27.07900 0.93900 30.54600
C  30.07300 0.41000 28.40100
C  29.02400 0.69800 31.69800
O  30.21300 0.55600 32.04500
C  27.79800 0.93300 32.73600
C  27.71300 -0.22400 33.64000
O  27.08600 -1.21100 33.41100
O  28.27100 0.06700 34.80000
C  27.86300 -0.84700 35.91100
H  21.03500 1.68400 31.90500
H  21.98600 1.04400 25.34000
H  28.03400 0.92100 26.28800
H  25.10600 0.76800 34.23300
H  22.83200 2.64300 33.58800
H  22.15600 -0.24400 33.61000
H  21.53400 1.16500 34.41200
H  23.04200 0.26700 35.01400
H  24.86600 3.78100 34.14800
H  26.27200 3.15200 33.40100
H  27.25300 2.64300 35.26800
H  25.72300 1.91500 35.97400
H  18.61300 2.25900 30.16700
H  19.18200 0.70000 30.91900
H  18.25800 0.76900 29.45100
H  17.59300 2.11300 27.52500
H  17.42500 0.35900 27.30300
H  17.33400 1.25200 25.87500
H  24.10400 2.33700 24.19000
H  26.28200 0.28600 24.30200
H  24.63300 -0.06400 22.83000
H  23.18200 0.82900 22.72500
H  23.42000 -0.51200 23.95100
H  26.26800 2.81400 23.37300
H  27.62600 1.82400 23.76800
H  26.54400 3.47600 25.92500
H  27.09400 4.46800 24.61900
H  28.29700 3.49400 25.47000
H  30.17100 -0.67500 28.35900
H  30.91400 0.81300 28.96500
H  30.06900 0.73400 27.36000
H  28.03300 1.79200 33.36500
H  27.49100 -1.84800 35.69400
H  27.04800 -0.33400 36.42000
H  28.68500 -0.91800 36.62300

