79

Mg -12.05000 38.90100 41.68200
C  -9.75900 36.50000 40.89900
C  -10.18000 41.20500 39.85200
C  -14.55900 41.19300 41.83700
C  -14.16500 36.46200 43.04300
N  -10.23300 38.83600 40.49100
C  -9.43400 37.76900 40.37000
C  -8.17900 38.04500 39.55000
C  -8.32200 39.55900 39.16100
C  -9.58100 39.91400 39.96300
C  -7.07400 40.50800 39.43600
C  -8.02300 37.15600 38.19700
C  -6.79300 36.23900 38.15300
H  -5.72400 36.49900 37.01900
N  -12.32300 40.96400 41.00500
C  -11.35900 41.69800 40.40400
C  -11.83700 43.03600 40.24500
C  -13.12900 43.10300 40.74100
C  -13.38900 41.76000 41.23700
C  -11.07000 44.07500 39.47500
C  -14.03000 44.36200 40.81600
O  -13.65200 45.35100 40.22300
C  -15.42600 44.37700 41.48500
N  -14.12200 38.74900 42.04500
C  -14.91200 39.83600 42.12300
C  -16.35000 39.48300 42.56100
C  -16.23300 37.95100 42.91100
C  -14.73400 37.69500 42.71200
C  -16.81200 40.31300 43.83100
C  -17.07900 36.93200 42.02800
C  -18.34400 37.52000 41.25100
N  -11.94500 36.86200 42.03100
C  -12.83500 36.03900 42.68200
C  -12.13600 34.76000 42.99600
C  -10.91000 34.89900 42.24200
C  -10.95500 36.17800 41.68500
C  -12.61800 33.58100 43.79700
C  -9.73000 34.23300 41.94600
O  -9.35900 33.10400 42.27400
C  -8.88600 35.24200 41.09300
C  -7.54100 35.39800 41.69400
O  -6.53800 34.67400 41.37500
O  -7.62300 36.46700 42.56500
C  -6.38100 36.92600 43.20200
H  -9.55400 41.79500 39.17900
H  -15.31100 41.95800 42.03800
H  -14.72500 35.71200 43.60600
H  -7.30800 37.96800 40.20100
H  -8.48600 39.68100 38.09100
H  -6.75000 41.04100 38.54200
H  -6.22500 39.93800 39.81500
H  -7.35600 41.29400 40.13600
H  -7.93100 37.76800 37.30100
H  -8.84400 36.45000 38.07000
H  -7.06600 35.18400 38.18100
H  -6.28600 36.35100 39.11100
H  -11.80000 44.67900 38.93500
H  -10.24600 43.78800 38.82200
H  -10.69900 44.77700 40.22200
H  -15.43700 43.87500 42.45300
H  -16.09100 43.92000 40.75200
H  -15.79300 45.38700 41.66600
H  -17.10800 39.71400 41.81300
H  -16.47700 37.64300 43.92800
H  -17.17000 39.61000 44.58400
H  -17.72700 40.80100 43.49500
H  -16.04400 40.92400 44.30300
H  -17.38700 36.15600 42.72900
H  -16.36700 36.44900 41.36000
H  -18.84300 38.35400 41.74400
H  -19.04000 36.69000 41.13000
H  -17.99200 37.76000 40.24800
H  -11.74600 33.13900 44.27800
H  -13.17000 32.92700 43.12200
H  -13.14600 34.08200 44.60800
H  -8.65000 34.75600 40.14600
H  -5.68000 36.11500 43.39800
H  -6.72500 37.47900 44.07600
H  -5.77900 37.55200 42.54200

