79

Mg 0.26800 43.57300 25.26400
C  2.37100 43.15400 28.20700
C  -2.44400 42.79900 27.29500
C  -1.52200 43.56100 22.51900
C  3.22300 43.96600 23.41700
N  0.04200 42.84100 27.55600
C  0.99400 42.96300 28.50000
C  0.37600 42.79700 29.89100
C  -1.13800 42.51500 29.52200
C  -1.18200 42.70900 28.01700
C  -1.74200 41.09600 29.73100
C  0.58500 43.98300 30.82400
C  0.83900 43.72000 32.29400
H  0.60100 42.34700 32.99200
N  -1.70800 43.22500 24.95200
C  -2.70700 43.00000 25.90400
C  -4.01700 43.06000 25.20000
C  -3.73100 43.27100 23.78200
C  -2.25800 43.36500 23.68900
C  -5.33500 43.01900 25.90100
C  -4.67400 43.32700 22.67700
O  -4.27500 43.27400 21.55700
C  -6.17600 43.27800 22.91100
N  0.75200 43.74700 23.29500
C  -0.15900 43.78700 22.31600
C  0.48700 43.88500 20.96800
C  1.89500 44.32700 21.28200
C  1.97500 43.93400 22.77800
C  0.36100 42.51000 20.14400
C  2.11300 45.79300 21.05100
C  3.36600 46.29000 20.21200
N  2.38600 43.46100 25.64300
C  3.40800 43.76800 24.81200
C  4.66200 43.92200 25.57800
C  4.27800 43.64100 26.88200
C  2.90100 43.38900 26.89400
C  5.97800 44.19100 24.99100
C  4.84300 43.54300 28.17200
O  5.95200 43.81800 28.65500
C  3.56100 43.31100 29.14400
C  3.81200 42.04900 29.94200
O  3.59600 40.91200 29.61300
O  4.35600 42.34700 31.12500
C  4.65300 41.20700 31.97500
H  -3.29100 42.83200 27.98400
H  -2.05100 43.66000 21.56900
H  4.08300 44.36600 22.87600
H  0.77300 41.89500 30.35600
H  -1.81100 43.22300 30.00400
H  -2.77800 41.17500 30.06200
H  -1.20100 40.52200 30.48300
H  -1.85100 40.58300 28.77600
H  -0.25000 44.68200 30.85500
H  1.36200 44.63300 30.42100
H  0.41200 44.46000 32.97100
H  1.89600 43.81000 32.54300
H  -5.27100 42.82800 26.97200
H  -5.95400 42.21200 25.50800
H  -5.90800 43.94600 25.88500
H  -6.56000 42.28400 23.14100
H  -6.53900 43.64200 21.95100
H  -6.48900 44.06200 23.60100
H  -0.08100 44.55000 20.31600
H  2.64100 43.73600 20.75200
H  -0.18700 41.85700 20.82300
H  1.27700 42.02400 19.80900
H  -0.33800 42.49000 19.30700
H  2.12500 46.32200 22.00400
H  1.27000 46.22500 20.51300
H  2.96600 46.95100 19.44300
H  3.90800 45.46400 19.75200
H  4.09300 46.80800 20.83800
H  6.58000 44.67100 25.76200
H  5.94300 44.67300 24.01400
H  6.50400 43.26700 24.74900
H  3.61600 44.21600 29.74900
H  5.48200 40.59000 31.63000
H  3.82100 40.53600 32.18900
H  5.04100 41.69600 32.86800

