79

Mg 0.34500 8.62200 26.55800
C  1.06100 10.68200 29.48400
C  0.82700 5.89000 28.55700
C  0.14500 6.74900 23.80200
C  0.86500 11.44800 24.64400
N  0.85700 8.33100 28.86100
C  0.99200 9.29300 29.81800
C  1.11000 8.56700 31.18600
C  1.25900 7.02800 30.88000
C  0.97900 7.05500 29.35000
C  2.62200 6.39500 31.27400
C  -0.17600 9.02900 31.94100
C  -0.09400 8.94400 33.49500
H  1.23100 8.41800 34.14800
N  0.34400 6.66700 26.26800
C  0.50300 5.68300 27.21500
C  0.19900 4.37700 26.60700
C  0.09300 4.56300 25.16800
C  0.13700 6.08200 25.03800
C  0.19600 3.08200 27.38200
C  0.09400 3.55000 24.01600
O  0.19000 3.87100 22.84700
C  0.07400 2.10900 24.20800
N  0.48100 9.01000 24.53100
C  0.37300 8.08200 23.57600
C  0.53400 8.67500 22.17700
C  0.33800 10.17100 22.50900
C  0.62100 10.21400 23.96900
C  1.94300 8.24700 21.56200
C  -1.16600 10.72300 22.26900
C  -1.44300 11.98700 21.62500
N  0.92000 10.61800 26.90600
C  1.08000 11.70100 26.02100
C  1.38100 12.87600 26.72900
C  1.38400 12.51200 28.09600
C  1.01400 11.15500 28.20600
C  1.63500 14.22700 26.15500
C  1.60400 13.05700 29.35500
O  2.02500 14.18500 29.60600
C  1.30900 11.88300 30.40600
C  2.43800 11.72100 31.31300
O  3.67200 11.64000 31.06100
O  1.92200 11.77500 32.55700
C  2.88900 12.31600 33.51400
H  0.95700 5.01300 29.19400
H  0.14000 6.13400 22.89900
H  1.05400 12.36200 24.07800
H  1.99600 9.01400 31.63500
H  0.53600 6.35600 31.34400
H  2.53500 5.55800 31.96700
H  3.20900 7.18800 31.73600
H  3.14400 6.01400 30.39600
H  -1.01500 8.37500 31.70400
H  -0.53900 9.99500 31.58900
H  -0.85500 8.23800 33.82700
H  -0.26500 9.95000 33.88000
H  -0.08400 3.38300 28.39200
H  1.17300 2.60500 27.30500
H  -0.49900 2.42800 26.85700
H  -0.76800 1.65700 24.73100
H  0.98800 1.82700 24.73200
H  0.08000 1.64000 23.22400
H  -0.25300 8.17700 21.61100
H  1.03900 10.77100 21.92900
H  1.82500 7.44100 20.83700
H  2.76200 8.09600 22.26500
H  2.37900 9.02000 20.93000
H  -1.58800 10.79400 23.27100
H  -1.71500 9.93000 21.76000
H  -0.99900 12.12500 20.64000
H  -1.17200 12.74700 22.35800
H  -2.46500 11.99100 21.24500
H  0.71700 14.80400 26.26800
H  1.82900 14.18800 25.08300
H  2.42500 14.81700 26.61900
H  0.41600 12.23800 30.92000
H  3.14200 11.46500 34.14700
H  2.42300 12.99000 34.23300
H  3.79600 12.73100 33.07700

