79

Mg -1.01400 34.93200 26.77000
C  -2.53900 32.88700 29.32900
C  -0.09500 37.01700 29.19300
C  -0.16700 37.01900 24.35700
C  -2.52300 32.89700 24.42900
N  -1.36000 34.91200 29.04700
C  -1.79700 33.92200 29.84600
C  -1.41400 34.14800 31.37100
C  -0.63700 35.59000 31.25000
C  -0.69200 35.89000 29.75300
C  -1.24900 36.76900 32.11100
C  -0.65800 33.00200 32.08000
C  -1.43200 32.30300 33.21600
H  -0.74800 31.84400 34.53800
N  -0.17700 36.67700 26.80500
C  0.16600 37.43400 27.89600
C  0.87100 38.63200 27.43800
C  0.82700 38.69900 26.06000
C  0.06400 37.45500 25.65500
C  1.28600 39.70400 28.43700
C  1.34400 39.76400 25.15300
O  1.21200 39.75500 23.93500
C  2.23500 40.83900 25.72200
N  -1.45500 35.00500 24.71200
C  -0.92500 35.97000 23.93800
C  -1.04400 35.60500 22.43600
C  -1.58400 34.14700 22.46900
C  -1.91900 34.02800 23.98000
C  -1.86300 36.61200 21.61700
C  -0.57800 33.05000 22.04400
C  0.86400 32.99900 22.61300
N  -2.22600 33.20300 26.76900
C  -2.77400 32.51500 25.75000
C  -3.60400 31.48100 26.26900
C  -3.57800 31.62800 27.67200
C  -2.66500 32.64200 27.93100
C  -4.34300 30.55600 25.43500
C  -4.14500 31.05700 28.83300
O  -4.97300 30.19000 29.07600
C  -3.47700 31.84300 30.01300
C  -4.45000 32.57600 30.83500
O  -4.79100 33.79300 30.71700
O  -4.74300 31.80900 32.01000
C  -5.44400 32.68200 32.98400
H  0.23600 37.80500 29.87300
H  0.31000 37.58200 23.55200
H  -2.81000 32.20300 23.63500
H  -2.42200 34.32300 31.74500
H  0.39700 35.45800 31.57000
H  -0.54100 37.57900 32.28800
H  -1.64300 36.41200 33.06300
H  -2.13800 37.13400 31.59800
H  0.29100 33.39500 32.44400
H  -0.38700 32.31800 31.27500
H  -1.74700 31.33500 32.82700
H  -2.32700 32.91200 33.34400
H  2.32900 39.44200 28.61700
H  0.64500 39.65600 29.31800
H  1.22700 40.71100 28.02600
H  2.93900 40.34700 26.39300
H  1.61100 41.53000 26.28900
H  2.84900 41.31800 24.96000
H  -0.03600 35.68100 22.02800
H  -2.50300 34.04200 21.89200
H  -2.57500 37.25400 22.13600
H  -2.52600 36.05900 20.95200
H  -1.29400 37.26000 20.95000
H  -0.62100 33.31700 20.98900
H  -1.00400 32.05200 22.14800
H  1.03500 32.02600 23.07400
H  1.10000 33.86800 23.22700
H  1.54200 33.13700 21.77000
H  -3.69800 29.77900 25.02600
H  -4.89700 31.11800 24.68300
H  -5.09600 30.13000 26.09800
H  -3.00000 31.08200 30.63100
H  -6.41400 33.09800 32.71000
H  -4.77600 33.38500 33.48200
H  -5.79200 31.96200 33.72400

