79

Mg 9.43600 46.79500 26.76600
C  7.18500 46.81700 29.50700
C  11.95600 47.45900 28.94200
C  11.43500 47.15800 24.06600
C  6.70500 46.44800 24.59300
N  9.49800 47.30800 28.98000
C  8.49600 47.12800 29.92200
C  9.11800 47.35900 31.38500
C  10.57800 47.60600 31.08300
C  10.71400 47.48400 29.58600
C  11.13500 48.90100 31.71500
C  8.83400 46.29300 32.49400
C  9.86400 46.17500 33.64100
H  9.28600 45.87800 35.07300
N  11.37100 47.34900 26.54500
C  12.28400 47.34800 27.56300
C  13.56700 47.55100 27.00600
C  13.51500 47.45400 25.60200
C  12.07700 47.24700 25.34500
C  14.75600 47.58200 27.93000
C  14.64800 47.53700 24.56700
O  14.55600 47.24900 23.38300
C  16.09000 47.73700 24.98600
N  9.09900 46.92300 24.57800
C  10.10400 46.97900 23.69100
C  9.51900 46.89000 22.30100
C  8.04100 46.60000 22.50700
C  7.92400 46.63000 23.97600
C  9.91000 48.05200 21.36100
C  7.48600 45.29400 21.85100
C  6.50100 45.57200 20.63300
N  7.38200 46.59000 26.91500
C  6.39500 46.46000 25.99300
C  5.15800 46.24500 26.61500
C  5.38000 46.46100 27.97900
C  6.80100 46.61900 28.12900
C  3.83300 46.02700 25.89500
C  4.71700 46.54500 29.24300
O  3.55000 46.49700 29.53000
C  5.90700 46.77300 30.32500
C  5.89200 45.56600 31.11700
O  6.40900 44.50600 30.82900
O  5.18300 45.79900 32.28200
C  5.38900 44.74500 33.30700
H  12.84600 47.70900 29.52300
H  12.19400 47.07000 23.28600
H  5.84100 46.21900 23.96500
H  8.67000 48.28200 31.75200
H  11.15000 46.78800 31.52100
H  11.48500 49.56300 30.92300
H  11.82500 48.61800 32.51000
H  10.33500 49.47700 32.18100
H  8.77000 45.30400 32.04000
H  7.87300 46.49900 32.96600
H  10.33600 47.14900 33.77200
H  10.57300 45.39600 33.36000
H  15.46600 46.88100 27.49000
H  14.71100 47.29500 28.98100
H  15.23400 48.55100 27.78800
H  16.61200 48.14100 24.11900
H  16.58000 46.80600 25.26800
H  16.08400 48.57800 25.68000
H  10.00300 46.04000 21.81900
H  7.39800 47.42000 22.18800
H  10.40300 47.76000 20.43400
H  10.64200 48.71500 21.82300
H  9.04900 48.69200 21.16700
H  6.87800 44.68100 22.51800
H  8.25500 44.62600 21.46300
H  6.62500 46.53200 20.13200
H  5.52400 45.43100 21.09300
H  6.66000 44.89200 19.79700
H  3.88400 46.12800 24.81100
H  3.11700 46.72600 26.32900
H  3.53100 44.99100 26.04900
H  5.89800 47.54900 31.09000
H  6.31200 44.16500 33.28900
H  4.52200 44.08400 33.30700
H  5.37700 45.27500 34.25900

