79

Mg 49.11500 46.86100 42.59700
C  45.90900 47.81600 41.54800
C  48.73700 44.15500 40.61400
C  52.38300 46.08600 43.14800
C  49.65900 50.05900 43.65700
N  47.52100 46.09400 41.11700
C  46.26600 46.63700 40.95800
C  45.43800 45.79200 39.94700
C  46.31100 44.46800 39.78300
C  47.60000 44.91900 40.53800
C  45.67300 43.14600 40.29000
C  45.16000 46.46900 38.58300
C  43.71600 46.65300 38.20200
H  43.29600 46.18000 36.76100
N  50.31400 45.19500 42.09200
C  49.91300 44.24000 41.24400
C  50.92600 43.25900 41.30700
C  52.06300 43.76500 41.99900
C  51.59100 45.09200 42.49900
C  50.84700 41.93000 40.49600
C  53.44400 43.07500 42.20600
O  53.57900 41.84400 41.92300
C  54.65100 43.78500 42.83400
N  50.77400 47.93400 43.25800
C  51.99500 47.38700 43.49400
C  53.06900 48.42300 43.90300
C  52.18200 49.64000 44.15500
C  50.80200 49.20200 43.57000
C  54.00800 48.06200 45.00600
C  52.74400 51.00400 43.65400
C  52.70600 52.12400 44.68200
N  47.99400 48.58800 42.78600
C  48.33500 49.77000 43.32800
C  47.24000 50.66000 43.24300
C  46.19300 49.83400 42.66700
C  46.78600 48.70300 42.29400
C  47.15900 52.01900 43.79100
C  44.78100 49.86000 42.26600
O  43.89300 50.72500 42.36200
C  44.56300 48.50500 41.36000
C  43.37500 47.88700 41.95200
O  42.24600 48.17600 41.68000
O  43.73000 46.93100 42.86800
C  42.67400 46.20600 43.60300
H  48.57300 43.28000 39.98100
H  53.40800 45.77100 43.35300
H  49.87900 51.04700 44.06700
H  44.45200 45.64400 40.38700
H  46.62400 44.30700 38.75100
H  45.64300 42.40400 39.49200
H  44.67000 43.48200 40.55300
H  46.12600 42.76100 41.20400
H  45.82100 45.95900 37.88200
H  45.67100 47.43200 38.61300
H  43.34700 47.67900 38.21500
H  43.00700 46.22500 38.91100
H  51.74000 41.54000 40.00800
H  50.17400 42.11400 39.65800
H  50.44600 41.13700 41.12800
H  55.53800 43.28200 42.44900
H  54.51200 43.81200 43.91400
H  54.69400 44.74800 42.32400
H  53.68100 48.59900 43.01800
H  51.93700 49.73300 45.21300
H  53.76400 47.17600 45.59100
H  53.99000 48.98000 45.59400
H  55.06600 48.01300 44.74800
H  52.16000 51.29300 42.78100
H  53.74600 50.85400 43.25300
H  53.69400 52.41200 45.04000
H  52.13100 51.87300 45.57300
H  52.13500 52.98300 44.32900
H  48.10400 52.54400 43.64800
H  46.90500 51.99300 44.85100
H  46.29200 52.45000 43.29200
H  44.47700 48.92200 40.35700
H  42.49800 46.59700 44.60500
H  43.03100 45.17800 43.67000
H  41.74300 46.16100 43.03800

