79

Mg 27.02100 51.27600 25.26000
C  25.08600 52.05200 28.09600
C  29.38700 49.99900 27.43400
C  28.92100 50.58900 22.52000
C  24.55800 52.48900 23.29600
N  27.25900 51.22900 27.57800
C  26.30300 51.48700 28.48600
C  26.77100 51.12400 29.90900
C  28.23200 50.64900 29.68300
C  28.37200 50.58700 28.15000
C  29.45100 51.46200 30.31500
C  25.93300 50.01400 30.56100
C  25.48600 50.24300 32.05800
H  26.54100 50.62300 33.12900
N  28.90000 50.59900 25.03900
C  29.67400 49.95500 26.01200
C  30.88200 49.43800 25.44900
C  30.81700 49.74600 24.04600
C  29.52300 50.42400 23.79400
C  31.93600 48.77200 26.22200
C  31.87100 49.47800 22.97900
O  31.83300 49.96900 21.88400
C  33.04800 48.64400 23.28700
N  26.83100 51.56900 23.16400
C  27.66900 51.06400 22.21800
C  27.18200 51.23500 20.81200
C  25.81000 51.95300 21.05800
C  25.63400 51.99200 22.60300
C  28.09300 51.99800 19.79400
C  24.54600 51.41000 20.29800
C  23.50800 50.50500 21.04400
N  25.21300 52.19900 25.57900
C  24.30500 52.57400 24.64500
C  23.16600 53.18300 25.32300
C  23.33600 52.92400 26.66500
C  24.68500 52.31000 26.78900
C  21.98900 53.80600 24.60100
C  22.83500 53.10500 28.01400
O  21.81500 53.63400 28.43800
C  23.87900 52.43600 29.01900
C  24.28800 53.40500 30.02100
O  25.20600 54.16500 29.86900
O  23.61100 53.13700 31.13600
C  24.07700 53.65000 32.41900
H  30.13200 49.57700 28.11100
H  29.50100 50.39800 21.61400
H  23.73700 52.88000 22.69200
H  26.77700 52.04000 30.49900
H  28.47700 49.62000 29.94400
H  30.12100 51.78400 29.51800
H  30.07400 50.75000 30.85700
H  29.01500 52.24300 30.93800
H  26.49200 49.08100 30.49900
H  25.07400 49.73200 29.95200
H  24.82400 49.41300 32.30400
H  24.81600 51.10100 32.00200
H  32.10900 47.72400 25.97600
H  31.74500 48.76500 27.29500
H  32.86100 49.30500 26.00200
H  33.77400 49.13500 23.93600
H  33.54500 48.28500 22.38600
H  32.69700 47.75500 23.81100
H  27.06800 50.22700 20.41300
H  25.82400 53.03100 20.89500
H  27.48000 52.71600 19.24900
H  28.44000 51.27200 19.05900
H  28.99600 52.44700 20.21000
H  24.90200 50.83300 19.44400
H  24.06400 52.29700 19.88500
H  23.90800 50.01500 21.93200
H  23.21100 49.76200 20.30400
H  22.59000 51.03300 21.30100
H  21.04800 53.77800 25.15100
H  21.83700 53.29300 23.65200
H  22.16500 54.86100 24.39200
H  23.47400 51.57000 29.54300
H  24.05500 52.88500 33.19400
H  23.42900 54.46200 32.75200
H  25.10000 54.02400 32.44100

