79

Mg 0.05100 6.89300 26.79700
C  1.22200 9.35500 29.14800
C  0.05000 4.58100 29.31200
C  -0.60800 4.65400 24.49400
C  0.44300 9.35400 24.25400
N  0.65000 6.97500 28.95000
C  0.89400 8.09000 29.68000
C  0.88800 7.73100 31.15200
C  0.84100 6.15800 31.19300
C  0.49300 5.86100 29.72200
C  2.08200 5.45200 31.67800
C  -0.42300 8.38600 31.78500
C  -0.42800 8.29800 33.34000
H  0.81300 7.91000 34.16400
N  -0.36600 4.83600 26.89700
C  -0.27100 4.12300 28.01100
C  -0.63800 2.78300 27.73200
C  -0.86800 2.71700 26.28500
C  -0.53700 4.11000 25.81900
C  -0.70500 1.73400 28.78400
C  -1.21800 1.58000 25.44500
O  -1.21300 1.63700 24.17200
C  -1.52600 0.20600 26.03300
N  -0.02900 7.02600 24.65600
C  -0.44300 5.95800 23.98400
C  -0.58900 6.30200 22.52800
C  -0.35900 7.80600 22.36100
C  0.04600 8.13500 23.82200
C  0.26100 5.36200 21.63100
C  -1.64400 8.66100 21.94600
C  -1.33400 10.00400 21.28100
N  0.79300 8.83500 26.64300
C  0.88400 9.73500 25.54100
C  1.33400 11.05000 26.02000
C  1.41900 10.93600 27.39700
C  1.11000 9.58700 27.74200
C  1.49900 12.37300 25.20600
C  1.80800 11.64000 28.62400
O  2.27400 12.76900 28.79400
C  1.69200 10.59200 29.76000
C  2.92400 10.65600 30.56100
O  3.94800 10.03600 30.32900
O  2.74300 11.35300 31.79000
C  3.80300 11.36800 32.79700
H  0.06600 3.93300 30.19000
H  -0.90800 3.99200 23.67900
H  0.47400 10.10400 23.46100
H  1.81200 8.10700 31.59300
H  0.01500 5.80600 31.81000
H  1.89000 5.07200 32.68100
H  2.95000 6.11100 31.68600
H  2.20700 4.52400 31.12000
H  -1.26100 7.78000 31.43900
H  -0.65100 9.43200 31.58100
H  -1.20400 7.59900 33.65200
H  -0.76900 9.28300 33.65700
H  -1.68200 1.85800 29.25100
H  -0.01600 2.00100 29.58600
H  -0.45000 0.84200 28.21300
H  -1.85800 -0.44800 25.22700
H  -2.28100 0.22000 26.82000
H  -0.56400 -0.17000 26.38200
H  -1.61500 6.16500 22.18600
H  0.43700 7.99000 21.63900
H  0.80300 4.61300 22.20800
H  0.90600 6.03000 21.06000
H  -0.43300 4.86900 20.95000
H  -2.17900 8.89700 22.86600
H  -2.18700 7.99800 21.27300
H  -1.50100 10.84700 21.95200
H  -1.85800 10.07700 20.32800
H  -0.26600 9.99400 21.06200
H  1.45900 12.25700 24.12300
H  2.46900 12.77700 25.49600
H  0.77000 13.14500 25.45200
H  0.82900 10.97300 30.30700
H  4.48500 12.13900 32.43800
H  4.41300 10.49100 33.01400
H  3.38300 11.71800 33.74000

