79

Mg 44.83900 4.24500 46.83600
C  43.34400 7.51100 46.55900
C  41.86700 3.01500 45.49000
C  46.42700 1.43000 46.36500
C  47.84300 5.92000 47.54300
N  42.90100 5.19700 45.97800
C  42.46400 6.46300 46.09000
C  40.99300 6.60100 45.85600
C  40.56300 5.19900 45.40200
C  41.85300 4.39900 45.65800
C  39.30800 4.55500 46.11000
C  40.53500 7.69500 44.84400
C  41.44400 7.96800 43.63900
H  40.96600 7.63400 42.20200
N  44.21600 2.44900 46.18500
C  42.93400 2.12000 45.63000
C  42.91300 0.75700 45.23800
C  44.25900 0.30400 45.28100
C  45.01900 1.37500 45.98700
C  41.65000 0.15700 44.66900
C  44.80300 -0.97800 44.74700
O  44.06700 -1.77600 44.19300
C  46.24500 -1.42000 44.79500
N  46.77600 3.72500 47.18600
C  47.20500 2.44000 46.96100
C  48.68300 2.22500 47.33900
C  49.19300 3.67300 47.42200
C  47.90000 4.52000 47.39600
C  48.87400 1.28400 48.64900
C  50.08600 4.09600 46.22000
C  51.62500 4.49000 46.39700
N  45.56400 6.29100 46.98100
C  46.78000 6.82900 47.40000
C  46.72300 8.27800 47.43700
C  45.38100 8.58100 47.20800
C  44.71200 7.38200 46.89800
C  47.82200 9.18900 47.76000
C  44.43000 9.66900 47.12100
O  44.58600 10.87900 47.29600
C  43.05800 9.03500 46.72800
C  42.12700 9.15000 47.87500
O  41.95600 8.43100 48.85100
O  41.25200 10.21300 47.54400
C  40.06900 10.35400 48.32700
H  40.91000 2.63400 45.12800
H  47.00700 0.52600 46.16900
H  48.80900 6.41300 47.67000
H  40.64900 6.91700 46.84100
H  40.37300 5.13900 44.33000
H  38.78800 5.26400 46.75400
H  39.69100 3.89100 46.88500
H  38.62700 4.12500 45.37600
H  40.50100 8.67500 45.32000
H  39.54100 7.45700 44.46500
H  42.31300 7.31500 43.71600
H  41.75600 9.01100 43.69600
H  41.15900 -0.33300 45.51000
H  41.74800 -0.54500 43.84100
H  40.99300 0.92900 44.26800
H  46.52500 -1.79400 45.78000
H  46.86600 -0.57400 44.50000
H  46.43400 -2.02100 43.90600
H  49.23800 1.72500 46.54600
H  49.74800 3.73000 48.35800
H  48.10000 0.51800 48.60700
H  48.74300 1.87700 49.55400
H  49.87900 0.86500 48.58900
H  49.61900 4.97600 45.77900
H  50.03500 3.33800 45.43900
H  52.30100 3.84100 45.83900
H  51.89800 4.58400 47.44800
H  51.74100 5.43300 45.86300
H  48.45400 9.45600 46.91200
H  48.55200 8.76900 48.45300
H  47.40500 10.07200 48.24400
H  42.67100 9.45700 45.80000
H  39.40200 11.10000 47.89500
H  40.38600 10.62500 49.33400
H  39.63600 9.36400 48.47100

