79

Mg 52.88300 23.49300 44.70000
C  50.25600 25.69100 43.81500
C  51.18400 21.05600 42.87300
C  55.69600 21.72700 44.74100
C  54.50100 26.22900 46.10200
N  50.95500 23.42200 43.53100
C  50.11100 24.48700 43.20100
C  49.10400 24.08700 42.14400
C  49.15300 22.44500 42.23700
C  50.55700 22.27400 42.85400
C  48.04700 21.74900 42.98000
C  49.24400 24.61600 40.63500
C  50.64100 24.92600 40.00700
H  50.70700 25.55800 38.66000
N  53.30800 21.49500 44.03900
C  52.46400 20.65900 43.30900
C  53.09100 19.43700 43.18300
C  54.35700 19.55200 43.80500
C  54.59100 20.97400 44.18400
C  52.47100 18.13400 42.57700
C  55.28500 18.35100 43.95100
O  55.01100 17.18600 43.60300
C  56.63200 18.54000 44.66200
N  54.83600 23.99200 45.15700
C  55.81500 22.99900 45.24500
C  57.13500 23.51900 45.86700
C  56.68400 24.97700 46.34000
C  55.28900 25.11000 45.77500
C  57.75600 22.60600 46.90300
C  57.60200 26.13100 45.96800
C  57.37000 26.92200 44.64600
N  52.47100 25.67600 44.98300
C  53.17500 26.60600 45.67300
C  52.48500 27.79600 45.78900
C  51.33900 27.55000 45.02000
C  51.32400 26.22400 44.57600
C  52.79200 29.01800 46.52100
C  50.12200 28.09600 44.43600
O  49.57900 29.22900 44.59600
C  49.33800 26.89300 43.67100
C  48.89400 27.42000 42.27800
O  49.67000 27.71000 41.36500
O  47.49000 27.49500 42.28900
C  46.85000 28.14400 41.15000
H  50.63800 20.33100 42.26500
H  56.61200 21.17000 44.53500
H  55.01400 27.04600 46.61400
H  48.19000 24.44800 42.61700
H  49.19600 21.97900 41.25300
H  47.65100 20.91600 42.39900
H  47.38800 22.61100 43.07900
H  48.32600 21.60900 44.02400
H  48.57200 25.47300 40.58700
H  48.89100 23.84400 39.95100
H  51.07900 23.92900 39.95900
H  51.18900 25.60900 40.65700
H  53.20800 17.59200 41.98300
H  51.57800 18.32400 41.98200
H  52.09700 17.35600 43.24200
H  56.44500 18.95200 45.65400
H  57.25700 19.17900 44.03900
H  57.13900 17.59400 44.84900
H  57.83900 23.61500 45.04000
H  56.54800 24.96500 47.42200
H  57.77100 23.09600 47.87600
H  58.78100 22.31100 46.68000
H  57.22000 21.67400 47.08600
H  58.48300 25.59000 45.62300
H  57.87600 26.72600 46.83900
H  58.14200 26.75500 43.89400
H  57.48200 27.96700 44.93400
H  56.41200 26.77900 44.14700
H  51.95200 29.39800 47.10200
H  53.32600 29.74700 45.91200
H  53.55000 28.67700 47.22600
H  48.42900 26.77300 44.26000
H  45.77600 27.96800 41.21200
H  47.16000 27.73400 40.18900
H  47.05000 29.21400 41.21600

