79

Mg 5.78500 53.54800 42.00400
C  5.11100 50.04000 41.52800
C  8.69300 53.06500 40.57700
C  6.05900 56.70900 42.29900
C  2.32400 53.60800 43.29000
N  6.69200 51.70800 40.95100
C  6.31400 50.36800 40.96600
C  7.38900 49.41800 40.45200
C  8.58000 50.45900 40.39700
C  7.97800 51.83400 40.62500
C  9.71300 50.13800 41.33200
C  6.98700 48.80100 39.06500
C  6.08500 49.54200 38.05300
H  6.46500 49.52800 36.56000
N  7.18600 54.73600 41.41800
C  8.37800 54.39600 40.87300
C  9.08300 55.60700 40.51300
C  8.33200 56.70200 41.06700
C  7.12900 56.08200 41.58400
C  10.40100 55.67600 39.78900
C  8.75600 58.15100 40.89800
O  9.80900 58.48000 40.38700
C  7.86500 59.22100 41.33100
N  4.36200 54.92700 42.73200
C  4.82000 56.22700 42.87000
C  3.69900 57.16300 43.30900
C  2.44700 56.11900 43.50400
C  3.05200 54.79400 43.08700
C  4.09700 58.02200 44.59600
C  1.17200 56.56400 42.65700
C  0.10000 57.41400 43.30800
N  4.07700 52.14900 42.41200
C  2.86400 52.32300 42.98100
C  2.28000 51.04300 43.40000
C  3.12500 50.09900 42.83100
C  4.16300 50.83300 42.19400
C  0.93200 50.82000 44.08400
C  3.33700 48.70000 42.59400
O  2.64800 47.70200 42.96500
C  4.64200 48.54700 41.77300
C  4.20400 47.80600 40.58100
O  3.41100 48.15700 39.71500
O  4.82000 46.56600 40.61400
C  4.50800 45.58400 39.53600
H  9.72900 52.87600 40.28800
H  6.02500 57.79100 42.44100
H  1.30700 53.70600 43.67600
H  7.51000 48.74400 41.30000
H  8.93500 50.49700 39.36700
H  9.70000 49.05200 41.42800
H  9.65000 50.70000 42.26300
H  10.58400 50.24900 40.68600
H  6.53000 47.81400 39.14700
H  7.94800 48.64500 38.57500
H  6.00100 50.61400 38.23300
H  5.08900 49.10600 38.11700
H  10.52900 54.70600 39.31000
H  11.14200 55.96300 40.53500
H  10.56300 56.44100 39.02900
H  8.25500 60.22600 41.16800
H  7.72100 59.18900 42.41100
H  6.92100 59.14500 40.79200
H  3.46200 57.75800 42.42600
H  2.22500 56.08900 44.57100
H  5.18000 58.00700 44.71800
H  3.66900 57.56600 45.48900
H  3.77500 59.05900 44.50400
H  0.73400 55.61700 42.34100
H  1.44800 56.95700 41.67900
H  -0.27300 58.16000 42.60700
H  0.42800 57.97700 44.18200
H  -0.71400 56.75200 43.60500
H  0.54200 49.85400 43.76200
H  0.30500 51.61500 43.68100
H  0.90700 51.00400 45.15800
H  5.35300 47.92500 42.31700
H  5.49400 45.35700 39.13000
H  4.00300 45.95700 38.64500
H  4.11800 44.63300 39.90100

