79

Mg -10.57400 17.37200 41.26700
C  -7.15500 17.39400 41.52700
C  -10.32100 20.62000 40.08700
C  -13.79400 17.38700 40.35200
C  -10.59600 13.85400 41.62800
N  -8.89700 18.67200 40.69100
C  -7.56700 18.49400 40.81100
C  -6.73400 19.66900 40.34400
C  -7.83000 20.78700 40.39700
C  -9.14800 20.01400 40.28300
C  -7.74500 21.65100 41.71200
C  -6.13100 19.46700 38.97900
C  -4.61100 19.18900 38.86300
H  -4.19200 17.99400 38.06900
N  -11.83300 18.82800 40.44500
C  -11.58700 20.07900 40.07900
C  -12.77600 20.78600 39.87800
C  -13.81600 19.90400 40.15800
C  -13.17600 18.61300 40.39100
C  -12.86300 22.24400 39.56100
C  -15.34100 20.25700 40.21100
O  -15.70500 21.37500 39.96500
C  -16.43200 19.28300 40.70700
N  -12.02000 15.81600 41.01900
C  -13.25600 16.07500 40.48200
C  -14.13800 14.81400 40.61400
C  -13.09100 13.63900 40.96600
C  -11.86000 14.44300 41.22500
C  -15.29900 15.10900 41.62000
C  -12.98200 12.61900 39.83800
C  -13.63200 11.23600 40.07500
N  -9.31600 15.92700 41.75500
C  -9.40900 14.55100 41.90100
C  -8.13700 13.94600 42.21700
C  -7.25000 15.04400 42.08300
C  -8.01900 16.22600 41.74800
C  -8.00500 12.49300 42.54100
C  -5.84900 15.45600 42.17900
O  -4.84000 14.80000 42.37400
C  -5.71900 16.96600 41.83300
C  -5.14000 17.68000 43.00800
O  -3.96300 17.48200 43.43000
O  -6.03700 18.56100 43.59600
C  -5.60100 19.01500 44.87100
H  -10.30000 21.70200 39.94000
H  -14.88100 17.38700 40.24000
H  -10.54200 12.76500 41.56700
H  -5.87500 19.88300 40.97900
H  -7.75900 21.47100 39.55200
H  -7.83000 22.67000 41.33500
H  -6.77800 21.70400 42.21200
H  -8.64100 21.46500 42.30400
H  -6.29200 20.44600 38.52700
H  -6.82100 18.79500 38.46900
H  -4.09100 19.04600 39.81100
H  -4.13100 20.05000 38.39800
H  -12.39700 22.58600 38.63700
H  -12.36600 22.74600 40.39100
H  -13.86100 22.65500 39.40800
H  -16.60700 18.55800 39.91200
H  -17.34600 19.85600 40.86600
H  -16.08100 18.80900 41.62300
H  -14.59100 14.70300 39.62900
H  -13.43400 13.09900 41.84900
H  -15.12800 16.02700 42.18200
H  -15.34700 14.31700 42.36800
H  -16.27400 15.05900 41.13600
H  -11.92300 12.49700 39.60900
H  -13.51000 13.06300 38.99400
H  -13.97500 10.97400 41.07500
H  -12.88900 10.49300 39.78300
H  -14.43900 11.14600 39.34800
H  -8.79500 12.25900 43.25500
H  -7.01400 12.19500 42.88400
H  -8.16700 11.89500 41.64400
H  -5.10500 17.02900 40.93500
H  -6.38100 19.67200 45.25500
H  -4.70500 19.63300 44.80700
H  -5.35000 18.18000 45.52500

