79

Mg 25.01700 1.27900 29.73500
C  27.11100 1.05500 32.54300
C  22.36800 1.31200 31.83600
C  23.07700 1.41300 27.01900
C  27.77700 0.81100 27.69000
N  24.80900 1.17100 31.92300
C  25.74300 1.17300 32.90500
C  25.19000 1.32700 34.30500
C  23.64400 1.24600 34.05900
C  23.56800 1.12500 32.51900
C  22.82000 0.29800 34.90100
C  25.71800 2.56600 35.02300
C  26.51900 2.41900 36.32000
H  26.24100 3.42400 37.47200
N  22.98300 1.25700 29.52100
C  22.04200 1.37800 30.47500
C  20.76500 1.62300 29.85300
C  20.96100 1.75100 28.43100
C  22.38400 1.44200 28.21100
C  19.43200 1.69800 30.55800
C  19.99200 2.15500 27.33900
O  20.39200 2.30300 26.14700
C  18.51200 2.39200 27.66800
N  25.36400 1.04600 27.67100
C  24.35500 1.14800 26.78300
C  24.85600 1.15100 25.29700
C  26.48800 1.10200 25.46600
C  26.56400 0.96700 26.98500
C  24.28400 -0.05300 24.48100
C  27.25800 2.27100 24.84400
C  27.06400 3.73500 25.42700
N  27.05400 0.92400 30.01400
C  28.03700 0.78900 29.07900
C  29.29700 0.59600 29.75500
C  29.06000 0.70600 31.14700
C  27.64500 0.93900 31.26500
C  30.64500 0.31800 29.14500
C  29.59200 0.60100 32.52500
O  30.72000 0.32000 32.92900
C  28.36300 1.01000 33.52200
C  28.24600 -0.11200 34.51500
O  27.75100 -1.21700 34.25400
O  28.76400 0.29700 35.69500
C  28.97400 -0.88300 36.57000
H  21.56400 1.45600 32.56100
H  22.47700 1.62000 26.13000
H  28.63300 0.80700 27.01300
H  25.37500 0.40600 34.85800
H  23.21100 2.22800 34.25100
H  23.43900 -0.27000 35.59500
H  22.36600 -0.42300 34.22200
H  22.02000 0.78700 35.45700
H  24.85700 3.21200 35.19400
H  26.33400 3.13800 34.32900
H  27.55000 2.59100 36.00900
H  26.60400 1.38300 36.64800
H  19.61700 1.15700 31.48600
H  18.63900 1.13500 30.06600
H  19.09600 2.72900 30.65900
H  18.36400 3.13700 28.45000
H  17.96600 1.46900 27.86100
H  18.15300 2.90200 26.77400
H  24.63200 2.14400 24.90700
H  26.87700 0.19700 24.99800
H  24.96900 -0.83500 24.15300
H  23.82800 0.33600 23.57000
H  23.51300 -0.47200 25.12700
H  26.79500 2.30400 23.85800
H  28.32700 2.06600 24.78000
H  26.53400 3.62100 26.37200
H  26.43800 4.22900 24.68400
H  27.93000 4.35500 25.65700
H  30.62900 0.85200 28.19500
H  30.61500 -0.72700 28.83800
H  31.52800 0.47400 29.76500
H  28.45200 1.98100 34.00900
H  28.03400 -1.14400 37.05700
H  29.64900 -0.68200 37.40200
H  29.49800 -1.70700 36.08500

