79

Mg 16.48000 -2.02700 27.11100
C  15.78200 -0.12600 29.85200
C  18.31800 -4.17700 29.26600
C  17.84600 -3.60600 24.43700
C  14.95700 0.31700 25.08300
N  17.14300 -2.03500 29.31800
C  16.65600 -1.17200 30.25700
C  17.13700 -1.50200 31.69800
C  18.12800 -2.71000 31.47800
C  17.79100 -3.02500 29.90100
C  19.61700 -2.26000 31.64200
C  15.91800 -1.95800 32.61000
C  16.25300 -2.43100 34.00700
H  17.63100 -2.09700 34.73600
N  17.78000 -3.72000 26.91800
C  18.35100 -4.47900 27.90000
C  19.10400 -5.55600 27.28200
C  19.09800 -5.32700 25.84900
C  18.24900 -4.21000 25.64300
C  19.80700 -6.62500 28.08400
C  19.81700 -6.19500 24.74900
O  19.62700 -6.01000 23.53100
C  20.84700 -7.17900 25.13500
N  16.38000 -1.70900 24.99600
C  16.96100 -2.50900 24.08300
C  16.82000 -1.97500 22.59700
C  15.80800 -0.75200 22.83500
C  15.65600 -0.71600 24.41400
C  18.15600 -1.65400 21.84300
C  14.37500 -1.01200 22.26300
C  13.81600 0.25400 21.64000
N  15.37200 -0.36100 27.31300
C  14.86200 0.53300 26.42400
C  14.18000 1.60500 27.13700
C  14.57800 1.33600 28.51700
C  15.31800 0.14800 28.57000
C  13.32400 2.65700 26.46200
C  14.41600 1.87600 29.86900
O  13.89200 2.95200 30.14600
C  15.15600 0.91900 30.81600
C  16.17000 1.74900 31.62400
O  17.16900 2.28300 31.14600
O  15.79400 1.84300 32.91800
C  16.63600 2.69400 33.82900
H  18.77000 -4.84400 30.00200
H  18.28300 -4.00800 23.52000
H  14.58000 1.05400 24.37100
H  17.60400 -0.61800 32.13300
H  18.12600 -3.64800 32.03200
H  19.59900 -1.24800 32.04600
H  20.16200 -2.33600 30.70100
H  20.19100 -2.90400 32.30800
H  15.34800 -2.68300 32.02900
H  15.25000 -1.10700 32.73900
H  15.99900 -3.48800 34.07900
H  15.54900 -1.97800 34.70500
H  20.88900 -6.68300 27.96800
H  19.49800 -7.56700 27.63300
H  19.59200 -6.61800 29.15300
H  21.64000 -6.63300 25.64600
H  21.12900 -7.68200 24.20900
H  20.59600 -8.03500 25.76100
H  16.36000 -2.84200 22.12200
H  16.24700 0.15600 22.42100
H  19.02200 -1.59700 22.50200
H  18.15400 -0.71100 21.29700
H  18.28200 -2.47500 21.13700
H  13.75000 -1.39600 23.07000
H  14.51400 -1.82300 21.54900
H  12.79200 0.44800 21.95800
H  13.74100 0.23400 20.55300
H  14.39100 1.11600 21.97900
H  13.76000 2.97000 25.51300
H  13.45500 3.61400 26.96600
H  12.25400 2.44700 26.48200
H  14.45900 0.45000 31.51000
H  16.65300 3.70300 33.41700
H  17.67400 2.36300 33.78700
H  16.32000 2.73700 34.87100

