79

Mg 1.24300 7.83900 26.14600
C  1.58200 9.52900 29.11100
C  1.22600 4.84400 28.00900
C  1.01600 6.09200 23.23900
C  1.78000 10.77200 24.42700
N  1.37800 7.22500 28.28000
C  1.29500 8.14200 29.27100
C  1.18200 7.51400 30.64800
C  1.28900 6.01400 30.35300
C  1.28200 6.00600 28.77200
C  2.47900 5.26400 31.00400
C  -0.11000 7.95200 31.37500
C  0.00900 8.30400 32.80400
H  1.19300 7.71000 33.60500
N  1.15100 5.67700 25.67900
C  1.11500 4.64500 26.58200
C  0.87700 3.38500 25.90100
C  0.88900 3.74200 24.48100
C  1.04700 5.21600 24.41000
C  0.83700 2.04200 26.54300
C  0.74000 2.94100 23.29500
O  0.69900 3.37500 22.18300
C  0.73400 1.39400 23.37500
N  1.60700 8.33900 24.07700
C  1.26100 7.47400 23.09500
C  1.16700 8.23700 21.79000
C  1.20200 9.68100 22.19400
C  1.56000 9.62100 23.67400
C  2.26000 7.89700 20.72000
C  -0.16500 10.45000 22.08700
C  -1.05700 10.16900 20.85900
N  1.75200 9.69200 26.63900
C  1.84700 10.84200 25.81700
C  1.88200 12.01100 26.58400
C  1.84100 11.53100 27.89200
C  1.74600 10.15200 27.86200
C  2.09400 13.45000 26.05600
C  1.75200 11.97700 29.21600
O  1.65700 13.09600 29.68100
C  1.71500 10.65800 30.11000
C  3.03200 10.62800 30.84800
O  4.01000 9.94400 30.61600
O  2.77400 11.21200 32.09400
C  3.76800 10.85600 33.19400
H  1.22900 3.96800 28.66100
H  0.78000 5.63500 22.27600
H  1.87400 11.74200 23.93500
H  2.01400 7.78200 31.30000
H  0.40900 5.51200 30.75500
H  3.11800 5.95000 31.56000
H  3.03500 4.70600 30.25100
H  2.00300 4.54800 31.67400
H  -0.88400 7.19300 31.26200
H  -0.61900 8.69600 30.76200
H  -0.85700 7.91900 33.34100
H  -0.00200 9.39400 32.80800
H  0.62800 2.11800 27.61000
H  1.79300 1.53200 26.42400
H  -0.03500 1.46100 26.24300
H  1.67800 1.11300 23.84200
H  0.75000 0.91700 22.39400
H  -0.04500 1.07300 24.06600
H  0.21800 8.00100 21.30800
H  1.92400 10.35900 21.73800
H  1.86100 7.57100 19.76000
H  2.85300 7.10100 21.17100
H  2.83100 8.79900 20.50300
H  0.19300 11.47600 22.01200
H  -0.65100 10.34200 23.05700
H  -0.54900 9.68900 20.02300
H  -1.39400 11.13300 20.47700
H  -1.88200 9.53000 21.17200
H  1.37200 13.76800 25.30400
H  3.11100 13.62600 25.70600
H  1.88500 14.03700 26.95000
H  0.86800 10.76800 30.78700
H  3.16700 10.67700 34.08600
H  4.41500 11.70900 33.39800
H  4.29900 9.92800 32.98200

