79

Mg 26.67100 49.48800 26.29800
C  24.85000 50.56800 29.11000
C  29.22500 48.56300 28.51800
C  28.59300 48.73400 23.62900
C  24.18200 50.90200 24.25300
N  26.94700 49.46200 28.60800
C  25.98300 49.80500 29.48400
C  26.36600 49.48900 30.88700
C  27.92000 49.13300 30.67700
C  28.08000 49.04100 29.18400
C  28.85700 50.13700 31.39500
C  25.39300 48.58100 31.64800
C  24.91600 48.82000 33.08500
H  25.84900 49.36500 34.13700
N  28.62000 48.75300 26.10600
C  29.44900 48.42100 27.11300
C  30.70600 48.06900 26.57900
C  30.58400 48.11800 25.16400
C  29.20100 48.52200 24.92400
C  31.85800 47.70200 27.35600
C  31.60300 47.87800 24.09700
O  31.33600 47.96000 22.91000
C  32.96100 47.68700 24.56400
N  26.53100 49.93400 24.26800
C  27.41200 49.37300 23.35400
C  26.84700 49.49200 21.91300
C  25.40800 50.07300 22.19000
C  25.37500 50.31500 23.59800
C  27.78000 50.40300 21.01300
C  24.32000 49.15400 21.64200
C  22.96500 49.84600 21.17600
N  24.86500 50.54400 26.54200
C  23.97800 51.08100 25.64600
C  22.88800 51.72000 26.32700
C  23.15500 51.47900 27.65200
C  24.43000 50.80400 27.74400
C  21.73500 52.41500 25.68700
C  22.69700 51.78300 28.99300
O  21.67400 52.36400 29.38100
C  23.75400 51.21300 30.04400
C  24.16100 52.38900 30.94300
O  24.96200 53.23200 30.63400
O  23.46300 52.26500 32.09500
C  23.98700 53.06200 33.21200
H  30.02300 48.32800 29.22500
H  29.17000 48.54500 22.72100
H  23.37200 51.17100 23.57200
H  26.22500 50.43100 31.41600
H  28.04700 48.16500 31.16100
H  29.78600 50.17600 30.82800
H  29.17000 49.79600 32.38200
H  28.38900 51.11400 31.51800
H  25.76100 47.56400 31.51100
H  24.45600 48.66100 31.09800
H  24.56500 47.85100 33.44000
H  24.04000 49.46200 32.98800
H  31.72200 47.66300 28.43700
H  32.70300 48.37900 27.23000
H  32.08700 46.71100 26.96700
H  33.74400 47.59800 23.81100
H  33.02400 46.71700 25.05600
H  33.29800 48.49400 25.21500
H  26.86500 48.53600 21.39000
H  25.35600 51.05700 21.72400
H  28.42000 49.82500 20.34600
H  28.50500 51.00200 21.56400
H  27.13600 51.06900 20.43800
H  24.29600 48.43100 22.45800
H  24.70000 48.64000 20.75900
H  23.08500 50.87900 20.85000
H  22.28000 49.80800 22.02300
H  22.47700 49.25100 20.40400
H  20.98700 52.43900 26.47900
H  21.38500 52.01200 24.73700
H  21.95100 53.47400 25.54300
H  23.18700 50.41800 30.52900
H  24.09900 54.11800 32.96900
H  24.94800 52.65600 33.52900
H  23.32700 52.98600 34.07600

