79

Mg 35.77100 2.07200 29.95000
C  33.46200 2.92100 32.39600
C  38.32500 2.33100 32.26800
C  37.96700 1.51400 27.57400
C  33.15600 2.27400 27.50200
N  35.81800 2.60100 31.98400
C  34.79800 2.78700 32.86200
C  35.28000 2.98300 34.36700
C  36.86200 3.19800 34.17200
C  36.98500 2.65300 32.71300
C  37.40600 4.60600 34.23500
C  34.91000 1.74100 35.23700
C  34.37800 2.12000 36.63400
H  34.93200 3.30900 37.51400
N  37.83100 1.87500 29.95600
C  38.68000 2.00800 30.98300
C  40.02900 1.54100 30.52700
C  39.93500 1.36500 29.09600
C  38.53800 1.62600 28.81300
C  41.17000 1.33700 31.54000
C  40.99400 1.03500 28.04900
O  40.73400 0.81600 26.88900
C  42.45400 1.03600 28.48400
N  35.56600 1.86800 27.90400
C  36.65900 1.68600 27.14600
C  36.33400 1.71600 25.63000
C  34.82000 1.74400 25.63600
C  34.42200 1.93400 27.14700
C  36.97900 2.86300 24.83000
C  34.11900 0.59800 24.89000
C  33.39200 -0.54000 25.76300
N  33.73400 2.46100 29.91700
C  32.82500 2.52000 28.84400
C  31.54900 2.93700 29.34800
C  31.74200 2.96300 30.75500
C  33.10600 2.79300 31.04400
C  30.28400 3.04800 28.61500
C  31.07000 3.31800 31.95300
O  29.86700 3.44900 32.23700
C  32.16600 3.30500 33.10200
C  32.11000 4.60800 33.76800
O  32.66400 5.64900 33.43700
O  31.40500 4.45300 34.90600
C  31.38400 5.56700 35.87300
H  39.04300 2.52800 33.06600
H  38.56200 1.47700 26.65900
H  32.35300 2.41200 26.77500
H  34.79400 3.90200 34.69600
H  37.40800 2.55600 34.86400
H  38.08000 4.83600 33.41000
H  38.05600 4.69900 35.10400
H  36.65900 5.39800 34.29400
H  35.76400 1.07100 35.33100
H  34.12400 1.28600 34.63300
H  34.50800 1.22600 37.24300
H  33.31000 2.33900 36.61400
H  41.92200 2.09300 31.31200
H  41.52000 0.33900 31.27900
H  40.99200 1.35100 32.61600
H  43.12800 0.98900 27.62800
H  42.51700 0.23700 29.22200
H  42.67900 1.97300 28.99300
H  36.77200 0.79300 25.25000
H  34.53200 2.71300 25.22800
H  36.92800 3.87300 25.23600
H  36.57600 3.05900 23.83600
H  38.06100 2.74000 24.86500
H  34.86500 -0.02400 24.39700
H  33.49600 1.00800 24.09500
H  32.42800 -0.87300 25.37800
H  33.14300 -0.26800 26.78800
H  34.01000 -1.42800 25.89600
H  30.23900 3.81100 27.83900
H  29.40100 3.22200 29.22900
H  29.94200 2.17400 28.06000
H  31.77800 2.56800 33.80500
H  30.81600 6.36400 35.39400
H  32.42600 5.81600 36.07500
H  30.84200 5.29900 36.78000

