79

Mg -1.76700 18.17000 27.13700
C  -2.13400 16.12200 30.01100
C  -2.56700 20.81100 28.99000
C  -1.26700 20.01400 24.52300
C  -1.64800 15.24500 25.22400
N  -2.09700 18.38100 29.24200
C  -2.17600 17.49300 30.28100
C  -2.31000 18.15000 31.58700
C  -2.90100 19.51900 31.20000
C  -2.48400 19.59500 29.71700
C  -4.47300 19.58100 31.41000
C  -0.99800 18.16900 32.42000
C  -1.00600 17.58700 33.78800
H  0.28700 17.35600 34.65600
N  -1.69600 20.18900 26.85500
C  -2.11100 21.19300 27.72200
C  -1.85600 22.47100 27.14700
C  -1.36100 22.23000 25.84700
C  -1.37200 20.79200 25.64700
C  -2.15100 23.76000 27.96400
C  -1.08500 23.26000 24.77200
O  -0.77500 23.02700 23.61100
C  -1.12900 24.73100 25.20700
N  -1.51700 17.72200 25.15400
C  -1.40700 18.65900 24.25400
C  -1.34700 18.03000 22.86700
C  -1.33100 16.55500 23.08200
C  -1.60800 16.45200 24.54500
C  -2.43500 18.68300 21.92600
C  -0.16700 15.70400 22.52800
C  -0.47300 14.82600 21.30700
N  -1.87200 16.09100 27.49800
C  -1.68800 15.03100 26.57900
C  -1.69900 13.80900 27.26300
C  -1.88100 14.15900 28.65700
C  -1.98300 15.58200 28.71200
C  -1.66700 12.39100 26.70500
C  -2.18800 13.67700 29.96700
O  -2.31600 12.50600 30.38100
C  -2.11600 14.88700 30.86800
C  -0.92200 14.76300 31.72900
O  0.21300 14.98400 31.47400
O  -1.25900 14.22200 32.92100
C  -0.30500 13.61500 33.82600
H  -3.02800 21.65600 29.50500
H  -1.04000 20.59300 23.62500
H  -1.65300 14.34200 24.61000
H  -3.03900 17.53400 32.11500
H  -2.47500 20.39700 31.68600
H  -4.82800 19.40800 30.39500
H  -4.73800 20.52500 31.88700
H  -5.02100 18.81200 31.95400
H  -0.54300 19.15500 32.51100
H  -0.22500 17.69000 31.81800
H  -1.53200 16.63600 33.70000
H  -1.63100 18.28200 34.34900
H  -2.62100 23.55500 28.92700
H  -2.95400 24.15600 27.34300
H  -1.37000 24.50100 27.79600
H  -2.15100 25.01000 25.46400
H  -0.99800 25.47900 24.42600
H  -0.42400 24.98100 26.00000
H  -0.35900 18.23800 22.45600
H  -2.21300 16.08600 22.64500
H  -3.00200 19.44700 22.45600
H  -3.18800 17.96100 21.60800
H  -2.03900 19.13600 21.01700
H  0.16900 15.03000 23.31500
H  0.72300 16.29600 22.31200
H  -0.44200 13.77000 21.57700
H  0.26900 15.13500 20.57000
H  -1.42400 15.01000 20.80800
H  -1.05200 12.28300 25.81100
H  -2.71700 12.10000 26.71800
H  -1.13900 11.80800 27.46000
H  -3.00700 14.94300 31.49400
H  -0.36200 12.52800 33.77800
H  -0.44100 13.89700 34.87000
H  0.69100 13.96000 33.54900

