79

Mg 47.33400 16.92400 28.81800
C  45.71900 16.50500 31.89100
C  49.85600 18.59100 30.47400
C  48.72400 17.42600 25.91300
C  44.51400 15.59200 27.19200
N  47.73400 17.42600 30.99600
C  47.01300 17.04900 32.07700
C  47.62500 17.48000 33.32600
C  48.87600 18.36900 32.93900
C  48.84200 18.13500 31.40700
C  48.81700 19.84900 33.35800
C  47.99200 16.31000 34.16500
C  48.36000 16.67500 35.63800
H  48.43300 18.10700 36.21500
N  49.05400 17.85000 28.26900
C  50.02700 18.42400 29.06100
C  51.06200 18.89700 28.25600
C  50.77500 18.48700 26.88200
C  49.43300 17.89600 26.99500
C  52.24900 19.66000 28.77400
C  51.64300 18.70500 25.63700
O  51.24200 18.36600 24.53500
C  52.91900 19.37600 25.65400
N  46.57400 16.70800 26.74700
C  47.43700 16.93700 25.76100
C  46.74500 16.57400 24.40000
C  45.45100 15.89900 24.85300
C  45.53400 15.95300 26.33500
C  46.47500 17.78800 23.44600
C  45.33000 14.37700 24.43500
C  44.37300 14.13800 23.15100
N  45.47800 16.10600 29.43000
C  44.48200 15.54300 28.61700
C  43.38600 15.10300 29.48000
C  43.82700 15.43100 30.81700
C  45.10100 16.03100 30.70100
C  42.07800 14.47900 29.01300
C  43.47100 15.34400 32.17300
O  42.41700 14.96200 32.69200
C  44.66900 16.01600 32.99500
C  44.01700 17.08800 33.72400
O  43.81100 18.23500 33.22400
O  43.92400 16.77200 35.11000
C  43.77400 17.85900 36.08300
H  50.71600 18.99900 31.00900
H  49.23600 17.68800 24.98400
H  43.68400 15.12100 26.66200
H  46.80200 18.05000 33.75800
H  49.74700 17.93200 33.42800
H  48.68300 20.47000 32.47300
H  49.71800 20.16700 33.88400
H  48.00600 20.15900 34.01700
H  48.76500 15.68900 33.71200
H  47.26000 15.50500 34.22400
H  49.30600 16.14200 35.72300
H  47.62200 16.18500 36.27200
H  53.15300 19.40700 28.21900
H  52.45100 19.38700 29.81000
H  52.08200 20.73300 28.68300
H  53.64000 18.72300 26.14600
H  52.86900 20.34900 26.14200
H  53.22700 19.52100 24.61900
H  47.42400 15.89600 23.88200
H  44.64500 16.60300 24.64400
H  46.80300 18.76200 23.81000
H  45.43700 17.86100 23.12200
H  47.11600 17.58600 22.58800
H  45.11300 13.66300 25.22900
H  46.26200 13.93300 24.08600
H  43.84500 15.02000 22.78800
H  43.62600 13.39300 23.42500
H  44.87900 13.65800 22.31300
H  41.27700 14.70500 29.71600
H  42.42400 13.44600 29.01900
H  41.86700 14.86200 28.01500
H  45.21200 15.32600 33.64200
H  43.76500 17.41700 37.07900
H  42.90200 18.51200 36.06800
H  44.68400 18.43600 35.92000

