79

Mg 26.98600 50.39300 26.20000
C  24.66800 51.31100 28.70100
C  29.13900 49.40200 28.74700
C  29.22000 49.89700 23.89900
C  24.81800 51.96300 23.75400
N  26.92300 50.41600 28.50900
C  25.78600 50.67700 29.27400
C  26.02100 50.51600 30.76100
C  27.47500 49.90200 30.73400
C  27.85500 49.78800 29.26100
C  28.55000 50.66100 31.60000
C  24.89200 49.50200 31.40000
C  24.23600 49.86000 32.72700
H  25.15300 50.57000 33.77800
N  28.93000 49.75400 26.25900
C  29.59900 49.39900 27.39100
C  30.99100 49.07100 26.98900
C  31.04000 49.18200 25.58500
C  29.72500 49.61400 25.16400
C  32.07000 48.63700 27.97300
C  32.21500 48.88600 24.64000
O  32.14100 49.07600 23.41500
C  33.43600 48.26400 25.07800
N  27.03700 51.02700 24.13800
C  28.08200 50.58200 23.39100
C  27.77500 50.65800 21.91100
C  26.24000 50.98300 21.86700
C  25.97500 51.31400 23.35800
C  28.66800 51.66300 21.13700
C  25.28800 49.84200 21.34900
C  23.98100 50.43300 20.85200
N  25.16100 51.50100 26.16200
C  24.42800 52.09200 25.10900
C  23.18100 52.55000 25.62300
C  23.28000 52.31800 27.08800
C  24.46400 51.61600 27.34600
C  22.09000 53.21200 24.88300
C  22.60000 52.60300 28.25800
O  21.59200 53.30900 28.44800
C  23.35600 51.83600 29.31000
C  23.49000 52.77200 30.57100
O  24.51400 53.42400 30.79900
O  22.33500 52.66200 31.28400
C  22.39700 53.32200 32.63100
H  29.80100 49.09600 29.56100
H  29.94900 49.48400 23.20000
H  24.04000 52.22300 23.03400
H  26.01300 51.51300 31.20300
H  27.41600 48.85800 31.03900
H  29.32300 51.18700 31.04000
H  28.98300 49.92700 32.28000
H  28.08600 51.38000 32.27600
H  25.40200 48.55100 31.55500
H  24.08700 49.39000 30.67300
H  23.90800 48.93100 33.19300
H  23.27900 50.34700 32.54100
H  32.51100 47.67200 27.72300
H  31.58700 48.68400 28.94900
H  32.87400 49.36900 27.90500
H  33.31600 47.31300 25.59600
H  33.84900 48.97700 25.79100
H  34.06300 48.21800 24.18700
H  27.82100 49.66800 21.45700
H  26.08100 51.87800 21.26600
H  29.62200 51.78000 21.65000
H  28.18500 52.61700 20.92900
H  28.83600 51.22200 20.15500
H  25.04300 49.11400 22.12300
H  25.68600 49.31600 20.48100
H  23.99100 51.51500 20.72400
H  23.20300 50.17100 21.57000
H  23.80200 50.07100 19.84000
H  22.63300 53.79700 24.14000
H  21.54900 54.00300 25.40300
H  21.36300 52.53400 24.43600
H  22.78200 50.98500 29.67800
H  22.89700 52.59700 33.27300
H  21.41300 53.53700 33.04800
H  22.95300 54.25800 32.59500

