79

Mg 26.24800 50.37700 26.30700
C  24.00800 51.38600 28.87000
C  28.49200 49.36100 28.79700
C  28.29800 49.60500 23.80900
C  23.95100 51.60000 23.99600
N  26.26600 50.60400 28.57400
C  25.16900 50.83200 29.38000
C  25.43500 50.48600 30.84900
C  26.89400 49.89900 30.82600
C  27.29300 49.93900 29.28100
C  27.97100 50.73200 31.63400
C  24.28500 49.54000 31.37500
C  23.41900 49.78700 32.60600
H  23.75300 48.96500 33.98100
N  28.07100 49.61800 26.36500
C  28.88000 49.26900 27.45200
C  30.21700 48.66400 26.93800
C  30.13700 48.88200 25.52700
C  28.81800 49.44400 25.18200
C  31.25200 47.92600 27.83000
C  31.23100 48.45300 24.49400
O  31.11300 48.61900 23.27000
C  32.57600 47.88000 24.91900
N  26.15800 50.62800 24.18600
C  27.17500 50.23900 23.35400
C  26.80200 50.41400 21.86100
C  25.30900 50.85100 21.94700
C  25.09500 51.06300 23.47700
C  27.65700 51.48700 21.11500
C  24.36900 49.89100 21.14600
C  23.87100 48.55000 21.71000
N  24.33800 51.34400 26.31800
C  23.56700 51.73900 25.32900
C  22.33000 52.32500 25.83600
C  22.48000 52.20000 27.21000
C  23.67600 51.56600 27.46600
C  21.24600 52.83300 25.02600
C  21.86900 52.56100 28.45600
O  20.85100 53.18400 28.64200
C  22.80800 52.04700 29.62500
C  23.25200 53.23600 30.43300
O  24.02800 54.17600 30.13400
O  22.52500 53.18100 31.61400
C  22.86400 54.19500 32.67200
H  29.13500 48.97900 29.59200
H  29.00400 49.39600 23.00300
H  23.23000 51.94600 23.25200
H  25.32900 51.42300 31.39600
H  26.90300 48.94300 31.34900
H  27.79100 51.78200 31.86500
H  28.81000 50.71100 30.93900
H  28.31400 50.08100 32.43800
H  24.73700 48.56100 31.53500
H  23.58100 49.39900 30.55500
H  22.37300 49.66000 32.32800
H  23.47700 50.84300 32.87000
H  32.12100 48.58300 27.85000
H  31.43800 46.98300 27.31700
H  31.00000 47.70400 28.86700
H  33.22700 47.71000 24.06200
H  32.37400 46.86500 25.26300
H  32.94600 48.53000 25.71200
H  26.98300 49.43700 21.41200
H  25.26300 51.86100 21.53900
H  27.07900 52.39300 20.93400
H  27.92000 51.12200 20.12200
H  28.53400 51.81200 21.67500
H  24.81600 49.79000 20.15700
H  23.43100 50.39400 20.91500
H  24.04300 47.75500 20.98400
H  22.79000 48.63600 21.81800
H  24.32400 48.31500 22.67300
H  21.65900 53.25800 24.11100
H  20.77800 53.60300 25.63900
H  20.38600 52.18800 24.84900
H  22.18900 51.34500 30.18300
H  22.93800 55.19300 32.24100
H  23.84200 54.06600 33.13500
H  22.05000 54.31400 33.38700

