79

Mg 30.20300 58.91800 40.68200
C  27.42000 57.10700 39.67200
C  32.31700 56.73700 39.23000
C  32.69100 61.34100 41.01200
C  27.81800 61.56000 41.67800
N  29.88300 57.18600 39.54500
C  28.71000 56.53600 39.34500
C  28.95100 55.33500 38.42800
C  30.48200 54.98200 38.62100
C  30.95400 56.35700 39.16400
C  30.79500 53.76400 39.48500
C  28.48700 55.65900 36.99000
C  27.55700 54.61500 36.28900
H  27.71800 54.50800 34.75600
N  32.29500 58.98800 40.13500
C  32.94100 57.94900 39.59300
C  34.30100 58.34900 39.35400
C  34.49200 59.67100 39.91400
C  33.08700 60.09700 40.40200
C  35.29000 57.56800 38.57400
C  35.82800 60.44900 39.86100
O  36.84200 59.86200 39.48000
C  35.87100 61.94300 39.98900
N  30.24600 61.15600 41.13800
C  31.41700 61.84900 41.25000
C  31.22700 63.24000 41.83500
C  29.67800 63.36500 42.13900
C  29.19100 61.95000 41.64800
C  32.08500 63.42800 43.25500
C  28.92300 64.57400 41.52700
C  28.25600 65.53000 42.55700
N  28.08200 59.23100 40.85600
C  27.32300 60.33200 41.17900
C  25.91200 59.96300 41.09800
C  25.95800 58.65700 40.59100
C  27.26000 58.33700 40.38900
C  24.82200 60.64800 41.66900
C  25.07800 57.55700 40.19100
O  23.87600 57.31800 40.30300
C  26.04200 56.54600 39.47800
C  25.72300 55.22800 40.00800
O  26.39000 54.68400 40.91100
O  24.63400 54.67300 39.39400
C  24.13300 53.37100 39.75500
H  32.81700 55.94100 38.67400
H  33.51000 62.01300 41.28000
H  27.02300 62.25600 41.95300
H  28.33100 54.49100 38.73100
H  30.97800 54.88700 37.65500
H  31.61400 53.18300 39.06200
H  29.96100 53.07500 39.62500
H  31.20400 54.16000 40.41400
H  29.34100 55.76800 36.32200
H  28.03000 56.64300 37.08900
H  26.56200 54.99200 36.52500
H  27.54100 53.61100 36.71300
H  36.18100 57.38900 39.17600
H  35.52800 58.01100 37.60600
H  34.75000 56.63500 38.41200
H  35.10700 62.40900 39.36700
H  36.85200 62.29800 39.67200
H  35.77500 62.27500 41.02300
H  31.45200 63.98300 41.07000
H  29.51700 63.34100 43.21600
H  32.05900 62.51800 43.85500
H  31.73300 64.30100 43.80400
H  33.11300 63.60500 42.93900
H  28.11900 64.19400 40.89600
H  29.55300 65.23100 40.92800
H  28.30800 66.55500 42.18900
H  28.81100 65.54700 43.49600
H  27.22700 65.24900 42.77800
H  25.19300 61.27000 42.48300
H  23.99000 60.03200 42.01100
H  24.45200 61.25900 40.84600
H  25.73900 56.51700 38.43100
H  24.76000 52.96200 40.54700
H  23.92300 52.70400 38.91800
H  23.14400 53.54800 40.17900

