79

Mg 1.44200 7.65400 25.72000
C  2.01600 9.71000 28.58700
C  2.00400 4.91800 27.98000
C  0.81100 5.68300 23.27100
C  1.39200 10.44200 23.74900
N  1.85600 7.38100 27.94800
C  1.86600 8.35700 28.93300
C  2.04600 7.76600 30.36800
C  2.55000 6.30700 30.01300
C  2.17500 6.14500 28.52600
C  4.02900 5.95900 30.22400
C  0.81100 7.88300 31.25800
C  0.55700 6.95400 32.44400
H  1.71400 6.48000 33.37100
N  1.42600 5.57500 25.68900
C  1.75600 4.60500 26.61200
C  1.59400 3.28300 25.99100
C  1.13700 3.45600 24.69900
C  1.06600 4.93200 24.53400
C  1.96600 2.03500 26.80000
C  0.80300 2.45600 23.65000
O  0.67800 2.77700 22.44800
C  0.73400 1.00700 24.01600
N  1.18900 7.97400 23.78900
C  0.79600 7.01500 22.94200
C  0.44000 7.66200 21.56100
C  0.67500 9.16400 21.67800
C  1.05700 9.20500 23.17700
C  1.24100 7.12000 20.37000
C  -0.58400 10.03700 21.30200
C  -0.33100 11.01500 20.13500
N  1.78000 9.58900 26.00400
C  1.71800 10.65500 25.12200
C  1.91200 11.88500 25.79200
C  2.03300 11.54500 27.14100
C  2.00100 10.20000 27.25300
C  1.89700 13.25000 25.13500
C  2.25200 12.21600 28.40900
O  2.39400 13.40100 28.74100
C  2.12100 11.07000 29.42300
C  3.20000 11.15600 30.36400
O  4.42200 11.23900 30.08200
O  2.70100 11.21500 31.62400
C  3.55400 11.60300 32.74800
H  2.19100 4.12000 28.70200
H  0.36100 5.09900 22.46600
H  1.35500 11.35300 23.14900
H  2.83600 8.30700 30.88800
H  1.93800 5.62200 30.59900
H  4.65500 6.78000 30.57400
H  4.47700 5.64700 29.28000
H  4.05400 5.16000 30.96500
H  -0.11500 7.86800 30.68300
H  0.86400 8.93100 31.55200
H  0.16200 6.08600 31.91600
H  -0.27200 7.36700 33.01900
H  1.06000 1.43600 26.70000
H  2.14000 2.20100 27.86200
H  2.77900 1.52400 26.28400
H  0.52800 0.43000 23.11400
H  -0.04900 0.73400 24.72300
H  1.70700 0.75200 24.43700
H  -0.57200 7.33400 21.32100
H  1.55600 9.60000 21.20800
H  1.21300 7.82400 19.53800
H  0.71200 6.24100 20.00200
H  2.23300 6.84500 20.73000
H  -0.82000 10.66200 22.16300
H  -1.40000 9.40400 20.95400
H  -1.11300 10.97300 19.37700
H  0.56700 10.60500 19.67100
H  -0.24900 12.02900 20.52600
H  1.86300 14.04300 25.88200
H  0.99300 13.34100 24.53400
H  2.82200 13.35500 24.56800
H  1.19700 11.20400 29.98600
H  4.44600 10.97800 32.79400
H  3.01500 11.42300 33.67900
H  3.93200 12.62200 32.66600

