79

Mg 1.78300 41.83700 24.51600
C  2.94400 42.06800 27.99600
C  -1.04100 40.66900 25.74500
C  1.13900 41.13200 21.39900
C  4.93600 42.95800 23.70700
N  1.08400 41.46100 26.64200
C  1.63900 41.65500 27.86300
C  0.69900 41.32200 28.98800
C  -0.51600 40.70700 28.31500
C  -0.15100 40.90800 26.76100
C  -0.82000 39.25600 28.72900
C  0.46700 42.50800 29.93000
C  0.30700 42.31000 31.44700
H  -0.28000 41.05200 31.90600
N  0.26700 41.04200 23.67000
C  -0.85900 40.64000 24.28000
C  -1.87900 40.32800 23.34100
C  -1.21900 40.23900 22.09700
C  0.11100 40.87700 22.32400
C  -3.24900 39.86600 23.63400
C  -1.82600 39.76200 20.82400
O  -1.19500 39.73500 19.71300
C  -3.21000 39.27700 20.80200
N  2.89900 41.85100 22.80700
C  2.44600 41.51600 21.63300
C  3.43200 41.69800 20.52400
C  4.59600 42.45800 21.27000
C  4.11500 42.42300 22.68600
C  3.75800 40.39700 19.80600
C  4.83200 43.90800 20.73300
C  3.72600 45.01100 20.90200
N  3.57400 42.41500 25.62200
C  4.75200 42.98100 25.08700
C  5.68000 43.22000 26.09200
C  5.06000 42.76800 27.26600
C  3.75700 42.42200 26.91300
C  7.03100 43.83800 25.99700
C  5.26500 42.55500 28.70900
O  6.20000 42.64200 29.47000
C  3.84200 42.17700 29.21500
C  4.00900 40.82900 29.89100
O  4.77200 39.89400 29.52000
O  3.30200 40.84500 31.07200
C  3.52600 39.68800 31.92100
H  -1.97100 40.28100 26.16700
H  0.80700 41.01300 20.36500
H  5.89100 43.20000 23.23700
H  1.19200 40.53800 29.56200
H  -1.48700 41.17500 28.47700
H  -0.15400 38.92200 29.52400
H  -0.53100 38.68500 27.84700
H  -1.86600 39.25000 29.03800
H  -0.47400 42.96400 29.62300
H  1.14700 43.35600 29.84800
H  -0.31900 43.12400 31.81300
H  1.26100 42.45800 31.95200
H  -3.57500 40.12800 24.64000
H  -3.29000 38.77900 23.55100
H  -4.00000 40.42400 23.07600
H  -3.48500 38.64900 19.95400
H  -3.94800 40.06500 20.65300
H  -3.25600 38.50700 21.57300
H  2.97600 42.32400 19.75700
H  5.50100 41.89700 21.03900
H  3.39300 39.50200 20.30900
H  4.76100 39.99100 19.68000
H  3.58000 40.50500 18.73600
H  5.10200 43.71400 19.69500
H  5.74200 44.26900 21.21400
H  2.73400 44.75200 21.27200
H  3.60200 45.37600 19.88200
H  4.26600 45.69400 21.55700
H  7.61800 43.00000 25.62200
H  7.34200 44.08500 27.01200
H  7.10300 44.66400 25.29000
H  3.58200 42.90200 29.98600
H  3.15600 39.82100 32.93800
H  4.59200 39.50200 32.05400
H  3.10100 38.76800 31.51900

