79

Mg 23.58200 -4.44700 45.58100
C  25.84700 -2.24000 44.11000
C  21.19000 -3.07200 43.54500
C  21.69000 -7.22700 46.11800
C  26.25100 -5.96100 47.28300
N  23.59200 -2.89200 43.88600
C  24.61200 -2.14800 43.50100
C  24.21300 -1.06900 42.56800
C  22.60500 -1.13300 42.49900
C  22.43300 -2.42200 43.43000
C  21.81400 0.16100 43.02500
C  24.88200 -1.34100 41.21100
C  25.33200 -0.00000 40.52000
H  25.16200 0.03000 38.98500
N  21.74000 -5.04700 44.92200
C  20.91200 -4.30600 44.11000
C  19.64400 -5.05700 43.99700
C  19.77700 -6.26400 44.71400
C  21.12100 -6.25200 45.29600
C  18.43400 -4.56600 43.14700
C  18.62500 -7.32000 44.94200
O  17.53100 -7.25300 44.43500
C  18.73000 -8.42100 45.97200
N  23.95600 -6.40800 46.53400
C  22.99700 -7.34000 46.62400
C  23.51000 -8.52500 47.47900
C  24.82100 -7.93200 48.15200
C  25.05000 -6.68900 47.21700
C  22.55800 -9.02700 48.61900
C  26.01700 -9.03600 48.15500
C  26.95900 -9.04300 49.39400
N  25.58800 -4.10700 45.78700
C  26.53600 -4.82600 46.59200
C  27.75500 -4.08200 46.52100
C  27.55100 -3.09800 45.52000
C  26.26900 -3.13900 45.11600
C  29.01500 -4.51100 47.27000
C  28.17800 -2.03100 44.83300
O  29.32200 -1.57100 44.93500
C  27.16900 -1.49200 43.78400
C  27.21200 -0.03600 44.01900
O  26.52000 0.60100 44.78000
O  28.35700 0.50700 43.40500
C  28.86800 1.80000 43.83900
H  20.46600 -2.50600 42.95500
H  21.17300 -8.15000 46.38900
H  26.96200 -6.51700 47.89800
H  24.59400 -0.17100 43.05400
H  22.25700 -1.39300 41.50000
H  22.48700 1.01800 42.99400
H  21.42100 0.04100 44.03500
H  20.96500 0.31000 42.35800
H  24.20200 -1.74300 40.46100
H  25.72600 -2.03000 41.26800
H  26.32200 0.19100 40.93300
H  24.69000 0.80400 40.87800
H  18.23900 -5.35500 42.42100
H  18.63300 -3.63100 42.62300
H  17.66900 -4.35600 43.89500
H  17.79600 -8.97200 46.08200
H  19.10300 -7.82100 46.80200
H  19.54100 -9.10700 45.72800
H  23.80600 -9.38000 46.87100
H  24.64400 -7.69000 49.20000
H  21.63700 -9.51900 48.30500
H  22.27600 -8.09900 49.11600
H  23.09400 -9.75700 49.22600
H  26.62200 -8.97500 47.25100
H  25.48500 -9.98700 48.18600
H  26.83800 -8.12800 49.97200
H  27.98200 -9.27500 49.09900
H  26.57000 -9.90000 49.94500
H  29.09800 -5.56700 47.01000
H  28.97200 -4.50800 48.35900
H  29.91100 -3.91800 47.08600
H  27.66000 -1.78900 42.85700
H  28.11400 2.48900 44.22100
H  29.45400 2.33000 43.08800
H  29.53200 1.56800 44.67100

