79

Mg 50.22200 46.62300 43.11800
C  46.89200 47.13300 42.47800
C  49.96000 43.48700 41.90600
C  53.61200 46.41100 43.17700
C  50.50100 50.11900 43.69600
N  48.61100 45.49300 42.17000
C  47.34500 45.86800 42.09300
C  46.45400 44.69400 41.67100
C  47.38500 43.43300 41.76200
C  48.76500 44.14100 41.92800
C  47.03800 42.48600 42.96400
C  45.82300 44.83500 40.28400
C  46.68100 45.58300 39.31300
H  46.91600 44.92900 37.96500
N  51.60200 45.14500 42.61400
C  51.24500 43.86100 42.17100
C  52.51200 43.08700 42.03700
C  53.59800 43.96800 42.36100
C  53.00500 45.29400 42.66400
C  52.40100 41.66700 41.62000
C  55.13600 43.52800 42.31600
O  55.38400 42.36900 42.14100
C  56.30800 44.53500 42.38000
N  51.83300 48.19300 43.17800
C  53.12000 47.70800 43.42100
C  54.02600 48.86500 43.85700
C  53.06900 50.10600 43.87000
C  51.73400 49.48500 43.48100
C  54.71500 48.60400 45.21200
C  53.49100 51.30700 42.95300
C  53.27600 52.69600 43.61900
N  49.01600 48.25800 43.15500
C  49.21000 49.58100 43.52900
C  47.99800 50.30300 43.60100
C  47.00900 49.34800 43.18400
C  47.65200 48.16600 42.96100
C  47.79100 51.78800 43.90500
C  45.63200 49.13300 42.89700
O  44.67300 49.93700 42.95100
C  45.53100 47.67800 42.30800
C  44.43500 46.96000 42.99500
O  44.35000 46.72300 44.19800
O  43.49600 46.58300 42.06000
C  42.39500 45.83000 42.64600
H  49.92400 42.42300 41.66200
H  54.69500 46.44500 43.31400
H  50.70600 51.12700 44.06300
H  45.67800 44.54500 42.42200
H  47.36700 42.89100 40.81700
H  47.66600 42.68700 43.83200
H  47.18000 41.43200 42.72400
H  45.99200 42.62800 43.23600
H  44.79200 45.18800 40.26900
H  45.71000 43.82600 39.88800
H  47.72400 45.72200 39.59900
H  46.26200 46.57400 39.14500
H  51.73900 41.56100 40.76000
H  51.86600 41.12800 42.40200
H  53.31800 41.09500 41.48100
H  56.42900 44.66200 43.45500
H  55.96700 45.39600 41.80500
H  57.18700 44.26800 41.79300
H  54.71200 48.95100 43.01400
H  53.00500 50.54100 44.86700
H  54.14400 48.01000 45.92600
H  54.75300 49.60900 45.63300
H  55.74400 48.26600 45.09300
H  52.85800 51.11900 42.08600
H  54.51500 51.32700 42.58200
H  54.26000 52.95600 44.00900
H  52.56800 52.68400 44.44800
H  53.07700 53.42800 42.83600
H  46.88900 51.98900 43.32600
H  48.60200 52.44800 43.59800
H  47.43900 51.96900 44.92000
H  45.30900 47.70400 41.24100
H  42.48900 44.78000 42.37000
H  41.44000 46.11800 42.20500
H  42.33300 45.90000 43.73200

