79

Mg 44.64300 4.94700 46.75400
C  42.65600 7.79800 46.95100
C  41.76400 2.92000 46.64600
C  46.52900 2.30400 45.77600
C  47.48200 7.06400 46.47600
N  42.47600 5.33200 46.75700
C  41.90200 6.56400 46.90400
C  40.36100 6.47100 46.97700
C  40.15400 4.82400 46.81800
C  41.53500 4.26200 46.74900
C  39.20000 4.20400 47.96100
C  39.48100 7.30300 46.02300
C  40.05300 7.36600 44.57700
H  39.26800 6.71700 43.42100
N  44.21500 2.91100 46.30500
C  42.97700 2.29800 46.32800
C  43.17600 0.86700 46.18900
C  44.55700 0.61400 45.99100
C  45.16600 1.97300 46.00100
C  42.03200 -0.11200 46.26300
C  45.22700 -0.73100 45.77200
O  44.46900 -1.69300 45.96600
C  46.58800 -0.94200 45.48300
N  46.67600 4.77700 46.10400
C  47.25000 3.53600 45.81500
C  48.78400 3.59700 45.69400
C  49.03800 5.17300 45.72500
C  47.65100 5.66600 46.23800
C  49.58000 2.85800 46.78300
C  49.44900 5.75500 44.32700
C  50.98200 5.84100 44.10300
N  45.09900 7.01300 46.78000
C  46.26100 7.72100 46.77600
C  45.91900 9.09900 46.90800
C  44.52900 9.16100 47.01700
C  44.07400 7.91400 46.83200
C  46.97500 10.13600 46.94000
C  43.40700 10.07700 47.10800
O  43.44700 11.34200 47.20500
C  42.13300 9.28600 47.04600
C  41.25800 9.41200 48.23000
O  41.25200 8.67100 49.20700
O  40.43700 10.48100 48.05500
C  39.51000 10.63800 49.15800
H  40.85100 2.33100 46.53600
H  47.21800 1.50100 45.50700
H  48.39500 7.65600 46.38400
H  40.17700 6.81700 47.99400
H  39.67100 4.58200 45.87100
H  39.72100 3.61200 48.71300
H  38.39200 3.68700 47.44300
H  38.86900 5.06100 48.54800
H  39.47300 8.31700 46.42400
H  38.43800 7.01500 45.88700
H  40.97100 6.77900 44.59000
H  40.22700 8.42800 44.40500
H  41.77400 -0.44900 45.25900
H  41.20600 0.38600 46.76900
H  42.20300 -0.98200 46.89800
H  46.76900 -1.98600 45.22900
H  47.16600 -0.74300 46.38500
H  46.93600 -0.41100 44.59700
H  49.03500 3.13500 44.73900
H  49.78200 5.38700 46.49100
H  50.42000 3.44500 47.15500
H  49.95900 1.87500 46.50100
H  48.86300 2.74500 47.59700
H  49.15300 6.80200 44.26400
H  48.96700 5.16800 43.54500
H  51.21500 5.40300 43.13300
H  51.51100 5.18600 44.79500
H  51.47800 6.80500 44.21600
H  47.65600 9.98200 47.77700
H  46.50800 11.09600 47.16300
H  47.51600 10.11800 45.99400
H  41.61300 9.53100 46.11900
H  38.60200 10.15600 48.79700
H  39.25500 11.69300 49.25600
H  39.88100 10.25100 50.10700

