79

Mg -2.30700 17.37200 27.31700
C  -2.85900 14.96900 29.95500
C  -2.62800 19.85800 29.49800
C  -1.97800 19.37000 24.62700
C  -2.63700 14.52300 25.07200
N  -2.96600 17.39800 29.51100
C  -3.02200 16.31600 30.39900
C  -3.18600 16.86900 31.80800
C  -3.15800 18.41800 31.60800
C  -2.84100 18.56700 30.11300
C  -4.38200 19.22400 32.19900
C  -2.16600 16.37800 32.94300
C  -1.59400 17.40900 33.95700
H  -1.26300 16.91300 35.36500
N  -2.11200 19.38800 27.12300
C  -2.42400 20.24400 28.14300
C  -2.22200 21.61700 27.60400
C  -1.80900 21.49400 26.22700
C  -1.99100 20.03500 25.91500
C  -2.23000 22.85200 28.43300
C  -1.28200 22.48900 25.27900
O  -1.02600 22.28800 24.08700
C  -1.26900 23.88500 25.78400
N  -2.58700 16.99600 25.18800
C  -2.34600 18.04200 24.32800
C  -2.54400 17.55300 22.90700
C  -2.47000 15.99000 23.07000
C  -2.55000 15.78800 24.54900
C  -3.76000 18.17000 22.11600
C  -1.22400 15.42100 22.42100
C  0.09900 15.75500 23.05500
N  -2.55500 15.28200 27.41200
C  -2.62900 14.27500 26.41400
C  -2.71700 12.97500 26.98900
C  -2.72500 13.23100 28.38200
C  -2.75400 14.63000 28.57100
C  -2.74700 11.64900 26.30800
C  -2.78300 12.59500 29.71600
O  -2.56700 11.45800 30.08300
C  -2.94100 13.71400 30.77100
C  -1.82800 13.38900 31.74400
O  -0.65700 13.60600 31.59600
O  -2.37600 12.78400 32.84100
C  -1.55600 12.61300 34.01400
H  -2.61400 20.62900 30.27200
H  -1.74200 20.03100 23.79100
H  -2.63700 13.72200 24.32900
H  -4.17400 16.53300 32.12400
H  -2.24500 18.85700 32.01000
H  -4.96200 18.50100 32.77100
H  -5.08600 19.61000 31.46200
H  -4.03500 20.07900 32.78000
H  -1.27400 15.88300 32.55800
H  -2.69700 15.63800 33.54100
H  -2.25600 18.26100 34.10900
H  -0.63200 17.70700 33.54000
H  -2.42900 22.63900 29.48300
H  -3.13200 23.37900 28.12200
H  -1.35200 23.49400 28.36300
H  -2.22600 24.11500 26.25300
H  -1.05500 24.51400 24.91900
H  -0.53100 24.10300 26.55500
H  -1.61800 17.85100 22.41400
H  -3.35600 15.47600 22.69500
H  -3.76800 19.23500 22.34900
H  -4.71700 17.69300 22.32800
H  -3.60700 17.99300 21.05100
H  -1.10400 15.73400 21.38400
H  -1.25400 14.33600 22.51700
H  0.61100 16.34700 22.29600
H  0.71700 14.86500 23.17400
H  0.05700 16.30600 23.99400
H  -3.29900 11.61000 25.36900
H  -3.15100 10.87800 26.96500
H  -1.70300 11.35300 26.20400
H  -3.92400 13.53600 31.20700
H  -2.26600 12.31800 34.78700
H  -1.04400 13.50700 34.37100
H  -0.91700 11.73500 33.91900

