79

Mg 16.96100 -2.81800 28.77100
C  16.06400 -0.79100 31.44600
C  18.48300 -4.96600 31.10400
C  18.01700 -4.70500 26.20100
C  15.75200 -0.38600 26.63300
N  17.19700 -2.92600 30.96700
C  16.72800 -1.99900 31.82200
C  16.97100 -2.38300 33.32000
C  18.02500 -3.51800 33.16500
C  17.92500 -3.88500 31.68500
C  19.50100 -3.23500 33.63200
C  15.64900 -2.61500 34.18900
C  15.63700 -2.10600 35.65900
H  16.98600 -2.11200 36.47900
N  18.01000 -4.59200 28.68100
C  18.48300 -5.30600 29.74900
C  19.23400 -6.49100 29.22800
C  18.98900 -6.52900 27.79400
C  18.26300 -5.29700 27.47300
C  19.84000 -7.54600 30.07900
C  19.43100 -7.51300 26.76100
O  19.07100 -7.49100 25.62600
C  20.22900 -8.74200 27.12100
N  17.01100 -2.45300 26.66900
C  17.50600 -3.43400 25.86900
C  17.44400 -2.90700 24.40700
C  16.71100 -1.50100 24.47300
C  16.33700 -1.48300 25.98500
C  18.80300 -2.71800 23.69400
C  15.59500 -1.43600 23.43200
C  14.15300 -1.88200 23.82600
N  15.99700 -0.96600 28.96600
C  15.50900 -0.14400 28.00200
C  14.86000 0.97900 28.60700
C  15.04400 0.76200 29.97100
C  15.77600 -0.43200 30.12900
C  14.15400 2.07100 28.04200
C  14.77500 1.28500 31.35300
O  14.17000 2.22500 31.73100
C  15.39100 0.30500 32.34800
C  16.41300 1.03400 33.07300
O  17.41600 1.57400 32.69600
O  15.91000 1.25900 34.34900
C  16.79600 1.97000 35.33100
H  19.07100 -5.56000 31.80700
H  18.43200 -5.26300 25.36000
H  15.16700 0.29100 26.00700
H  17.54600 -1.58800 33.79600
H  17.71200 -4.34300 33.80500
H  19.81200 -3.96500 34.38100
H  19.60300 -2.24800 34.08200
H  20.14700 -3.29500 32.75600
H  15.56700 -3.69300 34.33000
H  14.78200 -2.31300 33.60200
H  14.93800 -2.72200 36.22500
H  15.29200 -1.07600 35.56300
H  19.50300 -8.54000 29.78700
H  19.54100 -7.27600 31.09100
H  20.92600 -7.53800 29.98400
H  21.07200 -8.54300 27.78200
H  20.60400 -9.19600 26.20300
H  19.58100 -9.50000 27.56200
H  16.99700 -3.62400 23.71900
H  17.34400 -0.62600 24.32700
H  19.54700 -2.74700 24.48900
H  18.81000 -1.75400 23.18600
H  19.10900 -3.47800 22.97500
H  15.78300 -2.13700 22.61900
H  15.54100 -0.42200 23.03500
H  13.56400 -1.15100 24.38000
H  14.23100 -2.70100 24.54100
H  13.73600 -2.39700 22.96100
H  13.88100 2.79000 28.81500
H  13.25000 1.79400 27.50100
H  14.75300 2.55300 27.27000
H  14.57300 -0.02900 32.98700
H  17.86200 1.85600 35.13500
H  16.56300 1.80700 36.38400
H  16.67700 3.03900 35.15500

