79

Mg -1.09700 18.05600 27.02300
C  -1.99100 16.04900 29.72000
C  -1.99800 20.80800 29.00400
C  -0.92100 20.05500 24.27200
C  -1.18400 15.28000 24.89900
N  -1.90100 18.29400 29.08000
C  -2.13200 17.39600 30.01400
C  -2.34900 17.92500 31.44100
C  -2.57500 19.44200 31.08600
C  -2.06200 19.53500 29.64100
C  -4.04100 19.99800 31.12800
C  -1.20900 17.67000 32.47800
C  -1.71800 16.98300 33.74900
H  -0.67300 16.86700 34.92200
N  -1.38100 20.18400 26.69700
C  -1.71300 21.10300 27.64300
C  -1.65800 22.43600 27.03700
C  -1.33700 22.26800 25.61200
C  -1.18300 20.80200 25.44100
C  -2.05300 23.76200 27.86100
C  -1.24700 23.36400 24.52600
O  -0.88200 23.09400 23.37600
C  -1.42000 24.83900 24.82800
N  -1.26300 17.72400 24.89000
C  -0.90700 18.66300 23.96300
C  -0.62300 18.14300 22.59400
C  -0.56000 16.57900 22.83100
C  -1.09400 16.49300 24.26900
C  -1.57100 18.68600 21.50800
C  0.81600 16.03400 22.65500
C  1.95300 16.46300 23.61700
N  -1.36700 16.02300 27.17700
C  -1.35300 15.03500 26.27500
C  -1.57100 13.74700 27.05600
C  -1.80100 14.15000 28.32000
C  -1.65100 15.47200 28.40800
C  -1.87900 12.44700 26.46900
C  -2.14900 13.58100 29.67200
O  -2.42600 12.44900 29.98300
C  -2.19700 14.81800 30.65400
C  -1.07900 14.54600 31.52400
O  0.06400 14.94000 31.28200
O  -1.44600 13.67200 32.54700
C  -0.41500 13.38100 33.55000
H  -2.15000 21.67400 29.65000
H  -0.67100 20.68300 23.41500
H  -0.92100 14.38600 24.33100
H  -3.26700 17.50800 31.85600
H  -1.98000 20.02800 31.78700
H  -4.06700 20.62000 32.02300
H  -4.67200 19.12600 31.30200
H  -4.33900 20.54600 30.23500
H  -0.77100 18.59700 32.84900
H  -0.41200 17.04800 32.07100
H  -2.13800 16.00500 33.51200
H  -2.57700 17.56500 34.08300
H  -1.33100 24.26300 28.50600
H  -2.93500 23.53100 28.45800
H  -2.31900 24.63200 27.26000
H  -2.50100 24.98000 24.83900
H  -0.96700 25.45500 24.05200
H  -0.82800 25.08400 25.71000
H  0.36500 18.53000 22.34300
H  -1.27000 15.99000 22.25100
H  -1.07200 19.22900 20.70600
H  -2.28800 19.38100 21.94500
H  -2.07500 17.81100 21.09800
H  1.01600 16.25200 21.60600
H  0.71600 14.95200 22.75000
H  2.42300 15.57900 24.04900
H  1.47000 17.07900 24.37600
H  2.78100 17.03200 23.19400
H  -1.87000 12.42100 25.37900
H  -2.92800 12.24700 26.68600
H  -1.32600 11.68200 27.01400
H  -3.13800 14.77000 31.20300
H  -0.65200 12.34100 33.77700
H  -0.63500 14.05400 34.37800
H  0.62500 13.46100 33.23500

