79

Mg 48.19100 34.18600 26.33100
C  46.30500 32.80500 28.99500
C  48.74000 36.95900 28.11000
C  49.38300 35.57300 23.52000
C  47.13400 31.39300 24.48700
N  47.45800 34.79600 28.30500
C  46.87400 34.07600 29.30500
C  47.11500 34.66700 30.64200
C  47.66400 36.10000 30.24900
C  48.06500 35.97600 28.83100
C  46.62300 37.26700 30.44200
C  48.19700 33.83100 31.39600
C  48.10400 33.78700 32.95400
H  47.02500 34.64700 33.72000
N  48.99000 36.05100 25.88800
C  49.08300 37.08000 26.75800
C  49.82500 38.14700 26.16700
C  50.06400 37.74000 24.82000
C  49.46200 36.37100 24.68100
C  50.21000 39.37300 26.95400
C  50.83700 38.40400 23.76200
O  51.14400 37.88100 22.67400
C  51.19800 39.86600 24.05300
N  48.11600 33.69600 24.33900
C  48.71200 34.35900 23.35600
C  48.88300 33.59600 22.04700
C  48.31200 32.18600 22.45900
C  47.79200 32.40100 23.86800
C  48.30000 34.36700 20.75200
C  49.46200 31.10900 22.42800
C  49.56600 30.29400 21.16700
N  46.97000 32.40100 26.60400
C  46.66600 31.36300 25.80100
C  45.88100 30.31400 26.47700
C  45.66400 30.87700 27.69100
C  46.33100 32.11700 27.73900
C  45.47300 29.00400 25.95000
C  45.05500 30.78000 29.00800
O  44.30200 29.88300 29.41900
C  45.31500 32.03400 29.87500
C  45.75700 31.52100 31.23900
O  46.81900 30.85800 31.48200
O  44.75800 31.74700 32.20100
C  44.84600 31.10100 33.47100
H  49.07400 37.76200 28.77000
H  49.80500 35.83500 22.54700
H  46.98700 30.48800 23.89400
H  46.18100 34.77800 31.19300
H  48.58300 36.28800 30.80400
H  45.95600 37.28300 29.58000
H  47.20400 38.18000 30.57000
H  45.94600 37.12600 31.28400
H  49.19200 34.27200 31.32700
H  48.33000 32.84000 30.96200
H  49.01400 34.12100 33.45300
H  47.95700 32.75900 33.28600
H  49.97800 40.32700 26.48200
H  51.27600 39.25100 27.14700
H  49.75900 39.43500 27.94400
H  51.69900 40.26800 23.17200
H  51.95900 39.92200 24.83200
H  50.38200 40.55200 24.27700
H  49.95600 33.51000 21.87600
H  47.45100 31.98200 21.82200
H  47.57000 35.05900 21.17400
H  47.81800 33.73600 20.00500
H  49.15200 34.83200 20.25700
H  49.41700 30.48200 23.31800
H  50.47600 31.42200 22.67800
H  48.81000 30.59900 20.44300
H  49.18700 29.29700 21.38900
H  50.57400 30.29700 20.75400
H  44.76200 29.08000 25.12800
H  45.12600 28.43000 26.81000
H  46.29800 28.48700 25.46000
H  44.46000 32.70000 29.99000
H  44.17500 30.24300 33.49800
H  44.50500 31.85600 34.17900
H  45.79500 30.60800 33.68600

