79

Mg 1.41700 8.07500 26.31500
C  1.95200 10.20500 29.00700
C  1.72100 5.45700 28.55300
C  0.83800 6.02600 23.82000
C  1.56300 10.80600 24.09000
N  1.83300 7.89000 28.59100
C  1.78700 8.95000 29.50300
C  1.84900 8.45900 30.98300
C  2.02900 6.86100 30.76900
C  1.80400 6.72300 29.23500
C  3.29900 6.14900 31.38000
C  0.64500 8.95900 31.79900
C  1.15200 9.64500 33.09500
H  2.10100 8.87300 34.02300
N  1.39600 6.05600 26.15800
C  1.55400 5.14900 27.18300
C  1.42600 3.78200 26.66500
C  1.13600 3.96700 25.27000
C  1.10700 5.41800 25.01700
C  1.36400 2.54500 27.61600
C  0.70000 2.84400 24.29700
O  0.28200 3.06300 23.13900
C  0.72300 1.31100 24.67900
N  1.33100 8.38400 24.18600
C  0.95100 7.38200 23.41700
C  0.74200 7.84000 21.98300
C  0.79800 9.38400 22.14800
C  1.33000 9.54200 23.51000
C  1.72600 7.17600 20.97300
C  -0.61500 10.02800 21.91000
C  -1.28300 9.98400 20.53500
N  1.64200 10.08500 26.45700
C  1.73000 11.06600 25.46200
C  2.05100 12.30500 26.14900
C  2.08000 12.00900 27.52200
C  1.88000 10.61500 27.64500
C  2.05600 13.71600 25.51500
C  2.35000 12.59200 28.83800
O  2.59500 13.74900 29.17300
C  2.17600 11.43300 29.78800
C  3.36000 11.43100 30.66500
O  4.43800 10.92800 30.31200
O  3.15000 12.06400 31.82000
C  4.24700 12.05500 32.80100
H  1.78300 4.62700 29.26000
H  0.72600 5.36900 22.95500
H  1.59600 11.62300 23.36600
H  2.73100 8.95800 31.38300
H  1.23000 6.37200 31.32700
H  3.96700 6.92400 31.75600
H  3.82600 5.49500 30.68600
H  2.94700 5.46300 32.15000
H  0.00000 8.17300 32.19300
H  0.05200 9.74400 31.33100
H  0.25500 9.85900 33.67700
H  1.51400 10.65600 32.91100
H  1.76400 1.67200 27.10000
H  0.31800 2.31900 27.82500
H  1.85400 2.71400 28.57500
H  0.08700 1.12700 25.54500
H  1.79300 1.11900 24.75900
H  0.26100 0.88500 23.78900
H  -0.21600 7.43300 21.65900
H  1.46700 9.86700 21.43700
H  1.16700 6.58300 20.25000
H  2.36000 6.49600 21.54200
H  2.32500 7.99400 20.57400
H  -0.57100 11.07500 22.21000
H  -1.26700 9.52600 22.62500
H  -0.64400 9.44200 19.83900
H  -1.44400 10.95800 20.07200
H  -2.20100 9.40700 20.64500
H  2.12000 14.48900 26.28100
H  1.11300 13.66900 24.97100
H  2.92100 13.91800 24.88200
H  1.24400 11.56300 30.33800
H  5.11800 12.59600 32.43200
H  4.52500 11.05500 33.13300
H  3.88000 12.67300 33.62100

