79

Mg 1.15500 41.44000 26.61600
C  2.93400 41.93800 29.52700
C  -1.53300 40.42300 28.37600
C  -0.41600 40.66000 23.71400
C  4.03600 42.25700 24.80600
N  0.64200 41.31900 28.84200
C  1.52000 41.58900 29.80200
C  0.77600 41.66700 31.16000
C  -0.58000 40.97200 30.80200
C  -0.54200 40.86600 29.30800
C  -1.05800 39.66800 31.54400
C  0.66300 43.15000 31.63000
C  0.78200 43.39000 33.14100
H  0.54500 42.24300 34.10100
N  -0.67400 40.66600 26.14100
C  -1.58700 40.17800 27.00800
C  -2.63800 39.47400 26.33100
C  -2.42100 39.73900 24.96100
C  -1.13000 40.35500 24.89100
C  -3.81500 38.75700 27.02500
C  -3.34300 39.34800 23.77200
O  -2.98600 39.45000 22.64500
C  -4.63600 38.81500 24.06300
N  1.68000 41.54100 24.59100
C  0.88800 41.13500 23.54600
C  1.45000 41.45100 22.08900
C  2.90300 41.89900 22.53900
C  2.86500 41.98000 24.09900
C  1.41200 40.24800 21.10500
C  3.46700 43.20500 21.91700
C  2.99000 44.48200 22.58100
N  3.01400 42.09400 27.00600
C  4.07200 42.40200 26.21600
C  5.20900 42.65700 26.96600
C  4.80000 42.37700 28.24000
C  3.47400 42.11300 28.19600
C  6.52900 43.14400 26.50400
C  5.32500 42.34600 29.62000
O  6.45700 42.52200 30.05900
C  4.02900 42.21000 30.51900
C  4.29100 41.15400 31.62900
O  4.06200 39.95900 31.52200
O  4.91400 41.67700 32.70600
C  5.50800 40.79600 33.74400
H  -2.47500 40.10200 28.82500
H  -0.82300 40.34800 22.75000
H  4.96400 42.43900 24.26000
H  1.44900 41.07000 31.77500
H  -1.39500 41.67500 30.97600
H  -0.53200 39.45200 32.47400
H  -0.96700 38.79000 30.90300
H  -2.12300 39.69200 31.77500
H  -0.29700 43.57500 31.33400
H  1.41800 43.78400 31.16500
H  0.07900 44.21100 33.27800
H  1.83600 43.65900 33.22000
H  -3.92900 37.75300 26.61500
H  -4.61500 39.47300 26.83500
H  -3.88200 38.61100 28.10300
H  -4.60100 37.75700 24.32100
H  -5.26900 38.96700 23.18900
H  -5.01400 39.43000 24.88100
H  0.96600 42.30400 21.61300
H  3.57000 41.05300 22.37400
H  2.44200 40.12000 20.77200
H  0.81200 40.37300 20.20300
H  0.97500 39.38800 21.61200
H  3.15000 43.13100 20.87700
H  4.55300 43.17500 22.00200
H  3.82300 44.92000 23.13200
H  2.12600 44.31100 23.22300
H  2.66700 45.28900 21.92300
H  7.04300 43.63000 27.33300
H  6.49700 43.78300 25.62200
H  7.11500 42.26500 26.23300
H  3.84100 43.21700 30.89200
H  6.20500 40.01800 33.43300
H  4.71800 40.24700 34.25600
H  5.91600 41.44200 34.52100

