79

Mg 30.77700 58.75800 40.91700
C  27.92400 56.91500 39.92900
C  32.73300 56.26400 39.53000
C  33.51900 60.74500 41.34700
C  28.68600 61.43100 41.70300
N  30.34300 56.91000 39.72700
C  29.13600 56.32400 39.57600
C  29.22700 54.80100 39.05200
C  30.79800 54.65500 39.10400
C  31.30800 56.03500 39.45200
C  31.39300 53.37800 39.96600
C  28.60100 54.68900 37.67500
C  28.40700 55.90800 36.80800
H  28.09600 55.68400 35.36400
N  32.80700 58.51700 40.61000
C  33.38400 57.37300 40.03400
C  34.78700 57.60700 40.05400
C  35.07200 58.79700 40.71700
C  33.80000 59.40700 41.02700
C  35.76000 56.60100 39.34900
C  36.49700 59.39000 40.93600
O  37.51100 58.84200 40.49400
C  36.70300 60.55100 41.88300
N  31.05700 60.84500 41.37300
C  32.27200 61.39300 41.44300
C  32.12900 62.92100 41.60300
C  30.60500 63.10200 41.92300
C  30.05200 61.69300 41.68500
C  33.12900 63.62000 42.57600
C  30.05200 64.21400 41.02000
C  28.87600 65.06400 41.52500
N  28.70000 59.20300 40.85100
C  27.99400 60.27300 41.24400
C  26.58000 59.98900 41.12100
C  26.53200 58.66900 40.59000
C  27.82600 58.23200 40.49500
C  25.54900 61.01900 41.42200
C  25.60900 57.54400 40.24800
O  24.37900 57.46000 40.24100
C  26.52100 56.35500 39.80000
C  26.34300 55.20800 40.71800
O  26.86900 55.10700 41.79900
O  25.41400 54.44800 40.07300
C  24.88500 53.31900 40.88500
H  33.30400 55.41300 39.15300
H  34.36900 61.40400 41.15900
H  28.17700 62.38300 41.86600
H  28.72300 54.08800 39.70500
H  31.22300 54.45900 38.12000
H  30.61700 52.66400 40.24100
H  31.96300 53.53300 40.88100
H  32.19700 52.95100 39.36700
H  27.55400 54.39400 37.75300
H  29.12000 53.94200 37.07500
H  29.34100 56.46800 36.76100
H  27.54500 56.51300 37.09000
H  36.18000 57.22500 38.56000
H  35.27500 55.69400 38.98800
H  36.52200 56.20700 40.02100
H  36.87100 61.53200 41.43800
H  37.57000 60.38900 42.52200
H  35.91000 60.73900 42.60600
H  32.53900 63.31900 40.67500
H  30.46600 63.30100 42.98500
H  33.61800 64.44600 42.06000
H  33.89300 62.92300 42.92300
H  32.65300 63.95000 43.49900
H  29.71400 63.90700 40.03000
H  30.89900 64.89000 40.91000
H  28.11700 65.15000 40.74700
H  29.34100 66.04400 41.63500
H  28.49300 64.76800 42.50100
H  25.88100 62.05600 41.37400
H  25.10000 60.69800 42.36200
H  24.79200 60.89200 40.64800
H  26.45900 55.95700 38.78700
H  24.27300 53.55200 41.75700
H  25.68800 52.60400 41.06600
H  24.21700 52.76400 40.22800

