79

Mg 30.58200 58.27100 40.10800
C  28.01500 56.39500 38.70900
C  32.69100 55.74200 39.32400
C  33.16400 60.45300 40.38300
C  28.42400 60.86500 40.63900
N  30.32400 56.35100 39.05700
C  29.24100 55.68700 38.68000
C  29.53300 54.27900 38.04800
C  30.85700 53.96500 38.81000
C  31.35100 55.42700 39.22300
C  30.74200 53.02700 40.00900
C  29.71700 54.25800 36.48200
C  28.56700 53.73700 35.61100
H  27.85600 54.75100 34.65900
N  32.64800 58.13600 39.86900
C  33.35200 56.98800 39.53300
C  34.75100 57.20300 39.61200
C  34.86000 58.56700 40.06500
C  33.50400 59.13000 40.12700
C  35.76100 56.06600 39.43200
C  36.18000 59.23600 40.50300
O  37.27400 58.62900 40.39500
C  36.25600 60.61800 41.04800
N  30.76600 60.32900 40.61900
C  31.94000 61.03400 40.66900
C  31.77700 62.54700 40.84300
C  30.23500 62.58300 41.26100
C  29.76500 61.15200 40.74500
C  32.71000 63.06200 41.93100
C  29.42800 63.76100 40.62700
C  28.37600 64.50700 41.51500
N  28.58800 58.60700 39.82800
C  27.82500 59.68100 40.10000
C  26.51900 59.47800 39.63600
C  26.52300 58.16100 39.08100
C  27.86400 57.69900 39.17400
C  25.34600 60.36400 39.83800
C  25.66200 57.15600 38.52000
O  24.47500 57.21000 38.17900
C  26.64500 55.98000 38.25800
C  26.07100 54.79800 38.98900
O  26.56400 54.36300 40.05300
O  24.89200 54.38700 38.47900
C  24.18700 53.49500 39.38500
H  33.25900 54.81100 39.27200
H  33.90500 61.25500 40.42200
H  27.70800 61.68400 40.74400
H  28.71200 53.64600 38.38500
H  31.62400 53.48600 38.20200
H  30.78900 53.56200 40.95800
H  31.38700 52.15300 40.10800
H  29.73600 52.60900 40.02700
H  30.55300 53.58800 36.28200
H  30.06300 55.24500 36.17500
H  27.81100 53.37200 36.30500
H  28.92200 52.92500 34.97600
H  35.58000 55.21800 40.09300
H  36.75400 56.42600 39.70300
H  35.64100 55.87600 38.36500
H  37.25500 60.83700 41.42600
H  35.54900 60.76900 41.86400
H  35.98200 61.18800 40.16100
H  31.92700 63.07800 39.90300
H  30.11300 62.71400 42.33600
H  32.79400 64.09600 41.59500
H  33.60500 62.45500 42.06500
H  32.18000 63.09600 42.88300
H  29.01500 63.36800 39.69800
H  30.15000 64.53100 40.35700
H  28.18800 65.53900 41.22100
H  28.71700 64.42700 42.54700
H  27.39800 64.03800 41.40400
H  25.65400 61.40500 39.73800
H  24.84400 60.21400 40.79400
H  24.66700 60.29600 38.98800
H  26.72800 55.66500 37.21800
H  23.23700 53.39300 38.85900
H  24.03600 53.99000 40.34400
H  24.70000 52.53400 39.42300

