79

Mg 47.92600 15.47500 27.89000
C  45.84900 15.00800 30.73100
C  49.83600 17.57600 29.89600
C  49.93000 15.88300 25.35900
C  45.65500 13.54400 26.00800
N  47.88600 16.08800 30.14200
C  46.93000 15.79400 31.04400
C  47.33200 16.37800 32.39200
C  48.48000 17.47200 32.03000
C  48.79800 16.96700 30.62700
C  47.98900 18.94100 31.92500
C  47.68400 15.30000 33.44400
C  47.42100 15.63200 34.95800
H  48.64900 15.50100 35.84100
N  49.61700 16.62200 27.63700
C  50.24100 17.37800 28.55500
C  51.29900 18.13700 27.89200
C  51.51300 17.49100 26.59200
C  50.40600 16.59200 26.48900
C  52.09400 19.26600 28.58100
C  52.62800 17.70100 25.46100
O  52.50300 17.37400 24.26400
C  53.79500 18.52400 25.88800
N  47.69900 14.92400 25.86700
C  48.70300 15.17800 25.04900
C  48.52100 14.31000 23.76100
C  47.10600 13.71300 23.91500
C  46.73800 14.07400 25.36700
C  48.74600 15.22900 22.50900
C  46.87000 12.27700 23.34100
C  47.08100 10.98800 24.25600
N  46.13800 14.34800 28.28500
C  45.24200 13.68100 27.36400
C  44.08300 13.17700 28.10000
C  44.35200 13.58000 29.43600
C  45.48800 14.41800 29.46000
C  42.96000 12.25300 27.63800
C  43.88300 13.54100 30.81200
O  42.87900 13.00700 31.24000
C  44.75000 14.54600 31.60900
C  43.80400 15.66200 31.99400
O  43.12000 16.37400 31.22400
O  43.66800 15.83000 33.34100
C  42.72900 16.81900 33.83400
H  50.28400 18.41800 30.42800
H  50.61500 15.98400 24.51500
H  45.04900 12.92600 25.34200
H  46.51700 16.95800 32.82400
H  49.39500 17.35000 32.61100
H  47.06500 19.11100 32.47800
H  47.76800 19.21400 30.89300
H  48.78900 19.61400 32.23300
H  48.76700 15.35400 33.33300
H  47.38200 14.30100 33.13000
H  46.67200 15.07700 35.52300
H  47.03000 16.63900 35.10800
H  51.61000 19.50500 29.52800
H  52.03300 20.05500 27.83200
H  53.13400 18.95300 28.67300
H  54.63700 18.59400 25.20000
H  54.24600 18.12200 26.79500
H  53.41000 19.54000 25.98500
H  49.36600 13.62700 23.85600
H  46.44300 14.35300 23.33200
H  48.05600 14.73500 21.82500
H  49.66600 14.92300 22.01000
H  48.42000 16.25800 22.65700
H  47.59300 12.18300 22.53100
H  45.91500 12.37600 22.82500
H  47.61400 10.15300 23.80000
H  46.15900 10.46500 24.51000
H  47.48400 11.29600 25.22000
H  41.98000 12.58200 27.98200
H  43.09300 11.26100 28.07000
H  42.93300 12.21200 26.54900
H  45.08900 14.13100 32.55800
H  42.11200 17.29800 33.07400
H  43.28600 17.63700 34.29200
H  42.05000 16.31200 34.52000

