79

Mg -0.31000 7.72500 26.73600
C  0.68600 9.48900 29.74500
C  -0.31600 4.91100 28.76400
C  -0.89100 6.07600 24.05700
C  0.33400 10.57000 24.99300
N  0.14300 7.24700 29.04700
C  0.35300 8.18000 30.04500
C  0.23400 7.51500 31.42600
C  0.17300 5.99200 31.07000
C  -0.02200 6.03600 29.55200
C  1.45900 5.21400 31.43600
C  -1.02000 8.02500 32.25600
C  -0.61700 8.47700 33.63900
H  -0.69900 7.41600 34.75900
N  -0.65900 5.82500 26.47200
C  -0.61200 4.76400 27.37900
C  -0.92100 3.47200 26.71000
C  -1.11600 3.78500 25.34100
C  -0.96200 5.26000 25.22500
C  -0.96700 2.11100 27.59500
C  -1.44700 2.92300 24.17200
O  -1.58300 3.28300 23.01000
C  -1.70300 1.48700 24.52700
N  -0.36300 8.27200 24.84400
C  -0.66600 7.42000 23.86600
C  -0.93600 8.09900 22.49200
C  -0.51100 9.60700 22.84200
C  -0.22200 9.51600 24.29600
C  -0.06200 7.41100 21.30300
C  -1.61200 10.62000 22.48000
C  -1.62200 11.20800 21.01100
N  0.41900 9.65000 27.20500
C  0.62300 10.67500 26.34000
C  1.18500 11.81400 27.01500
C  1.11100 11.46700 28.37000
C  0.73200 10.12000 28.45600
C  1.40500 13.11700 26.47300
C  1.41500 11.82800 29.70100
O  1.83300 12.86100 30.13300
C  1.00500 10.64100 30.67700
C  2.14200 10.43600 31.61300
O  3.08900 9.67700 31.42500
O  2.00500 11.26800 32.72000
C  3.07500 11.42100 33.73700
H  -0.38500 4.00300 29.36700
H  -1.17300 5.52800 23.15600
H  0.46000 11.47200 24.39000
H  1.15100 7.72100 31.97900
H  -0.65700 5.47000 31.54600
H  2.18600 5.90300 31.86600
H  1.87300 4.79400 30.51900
H  1.23400 4.41100 32.13800
H  -1.55000 7.08600 32.41700
H  -1.51700 8.83700 31.72400
H  -1.31900 9.30200 33.75500
H  0.36100 8.95900 33.61000
H  -1.30700 1.18900 27.12300
H  -1.81600 2.16100 28.27600
H  -0.11200 1.91900 28.24400
H  -0.82200 0.93800 24.85900
H  -2.15800 1.01200 23.65800
H  -2.45900 1.41900 25.31000
H  -1.99400 7.90000 22.31900
H  0.46600 9.76400 22.38600
H  0.35000 8.17200 20.64000
H  -0.68900 6.66300 20.81800
H  0.75600 6.92000 21.83100
H  -1.57300 11.35200 23.28700
H  -2.62800 10.23800 22.57500
H  -0.76500 10.85700 20.43500
H  -1.46700 12.25600 21.26900
H  -2.58900 10.91700 20.60300
H  0.71300 13.26800 25.64400
H  2.43300 13.22300 26.12700
H  1.12400 13.77700 27.29400
H  0.16200 11.02100 31.25300
H  3.80600 10.61400 33.68500
H  2.76700 11.37900 34.78200
H  3.67400 12.31000 33.53900

