79

Mg 44.40700 4.48300 46.78800
C  42.27700 7.21800 46.28800
C  41.83300 2.39500 46.21400
C  46.68300 1.97600 46.79000
C  47.11500 6.81000 46.39800
N  42.33900 4.79500 46.26200
C  41.66600 5.98200 46.13400
C  40.13900 5.71400 46.01900
C  40.01800 4.15000 46.14800
C  41.50300 3.77100 46.27100
C  39.22500 3.63800 47.39600
C  39.37900 6.26200 44.80900
C  40.04400 6.13700 43.44200
H  40.68200 7.31900 42.67500
N  44.31700 2.39700 46.69600
C  43.11000 1.70000 46.41200
C  43.38400 0.31900 46.40600
C  44.77100 0.16200 46.53500
C  45.34200 1.55000 46.70500
C  42.27000 -0.66300 46.13900
C  45.57000 -1.15200 46.57000
O  44.98500 -2.26700 46.31000
C  46.99900 -1.23200 46.97800
N  46.62200 4.39900 46.78100
C  47.26100 3.25000 46.78300
C  48.75600 3.42400 46.55500
C  48.79000 4.96000 46.18100
C  47.41800 5.43000 46.37700
C  49.69800 3.00900 47.67100
C  49.40400 5.20900 44.76600
C  50.91600 5.48500 44.80300
N  44.68600 6.58700 46.49300
C  45.81100 7.34100 46.38500
C  45.47700 8.72400 46.14600
C  44.09400 8.74800 46.25200
C  43.63200 7.38300 46.46100
C  46.32300 9.84800 46.01200
C  42.92400 9.64700 46.42300
O  42.83400 10.89700 46.51700
C  41.71300 8.60300 46.31200
C  40.87600 8.92200 47.41600
O  41.00800 8.38200 48.50600
O  39.95200 9.77000 47.07800
C  39.06100 10.12000 48.19800
H  40.91900 1.80800 46.10500
H  47.53200 1.29200 46.85100
H  47.95300 7.47700 46.18500
H  39.74600 6.17500 46.92500
H  39.64300 3.65700 45.25100
H  38.40100 4.34000 47.52800
H  39.92400 3.55400 48.22800
H  38.82000 2.64900 47.18000
H  39.25300 7.32400 45.02100
H  38.42900 5.74500 44.68000
H  39.28900 5.80200 42.73100
H  40.76900 5.32600 43.50200
H  41.98400 -0.68800 45.08700
H  41.30800 -0.30200 46.50300
H  42.50400 -1.65900 46.51700
H  47.13500 -2.19400 47.47200
H  47.14300 -0.51200 47.78300
H  47.65900 -0.91400 46.17100
H  49.08800 2.88600 45.66700
H  49.36900 5.55500 46.88800
H  50.25400 2.11800 47.38100
H  49.09700 2.67700 48.51700
H  50.43400 3.73600 48.01500
H  48.89400 6.04600 44.28800
H  49.20400 4.39100 44.07400
H  51.43400 5.00700 45.63400
H  50.98400 6.56200 44.95800
H  51.44300 5.28300 43.87000
H  47.30100 9.40400 45.82700
H  46.30800 10.48600 46.89600
H  45.97300 10.59100 45.29500
H  41.26400 8.84200 45.34800
H  38.46900 9.25900 48.50900
H  38.29900 10.81400 47.84400
H  39.51200 10.60900 49.06100

