79

Mg -5.23700 24.99100 25.79600
C  -3.53600 26.41800 28.49100
C  -6.49700 22.61900 27.93900
C  -6.28900 23.19200 23.10300
C  -3.12300 26.89000 23.57400
N  -4.83500 24.41000 28.02400
C  -4.25600 25.21700 28.89900
C  -4.61700 24.87500 30.34500
C  -5.39400 23.50900 30.12100
C  -5.62900 23.49600 28.59200
C  -4.54900 22.31000 30.53500
C  -5.54800 25.97200 31.02500
C  -5.47100 26.08300 32.55700
H  -4.88800 24.91700 33.41200
N  -6.35300 23.29500 25.53300
C  -6.80100 22.46900 26.57100
C  -7.71500 21.55600 26.01100
C  -7.66900 21.65900 24.59900
C  -6.72400 22.78000 24.37900
C  -8.57500 20.59700 26.84400
C  -8.33500 20.80300 23.44000
O  -8.27700 21.24300 22.33500
C  -9.27700 19.52600 23.69700
N  -4.70900 25.00200 23.61500
C  -5.38600 24.18700 22.70900
C  -4.93400 24.47400 21.25300
C  -3.98200 25.71900 21.42400
C  -3.92000 25.91500 22.94600
C  -4.29500 23.15800 20.70600
C  -4.57900 27.04800 20.78200
C  -3.60700 28.20500 20.37700
N  -3.81400 26.49600 25.93400
C  -3.02400 27.14400 25.00300
C  -2.22800 28.17100 25.69800
C  -2.44800 27.95400 27.07700
C  -3.30900 26.89100 27.16600
C  -1.41400 29.28100 25.09700
C  -1.97200 28.34800 28.41500
O  -1.15300 29.15500 28.86600
C  -2.78700 27.41300 29.45300
C  -1.76500 26.69500 30.29900
O  -0.89300 25.90400 29.95100
O  -2.04600 27.09600 31.55900
C  -0.98600 26.64000 32.51200
H  -7.08300 22.09800 28.69900
H  -6.65800 22.76900 22.16600
H  -2.59700 27.66100 23.00600
H  -3.66600 24.82600 30.87400
H  -6.37500 23.48400 30.59400
H  -5.11300 21.66400 31.20700
H  -3.60900 22.61300 30.99700
H  -4.26100 21.64200 29.72300
H  -6.58600 25.76700 30.76600
H  -5.32300 26.95600 30.61400
H  -6.39700 26.43800 33.00900
H  -4.83300 26.94800 32.73600
H  -9.58300 21.00000 26.74500
H  -8.41000 20.52000 27.91900
H  -8.61000 19.59500 26.41700
H  -9.46600 19.17500 22.68300
H  -10.25500 19.86400 24.03900
H  -8.73800 18.84400 24.35600
H  -5.83700 24.71900 20.69200
H  -3.01800 25.48600 20.97000
H  -4.26300 22.41900 21.50600
H  -3.29400 23.38800 20.34200
H  -4.89100 22.68200 19.92700
H  -5.27200 27.58000 21.43400
H  -5.18300 26.68700 19.95000
H  -4.03200 28.49100 19.41500
H  -2.59400 27.80600 20.31900
H  -3.70300 29.02500 21.08900
H  -1.57800 30.20200 25.65700
H  -1.67200 29.53300 24.06900
H  -0.34000 29.09400 25.08300
H  -3.40600 28.15500 29.95600
H  -0.36300 27.46700 32.85200
H  -0.33800 25.80800 32.23500
H  -1.51500 26.21900 33.36700

