79

Mg 42.21300 40.99100 27.06000
C  41.61600 43.41400 29.51200
C  43.03100 38.87100 29.56200
C  43.21100 38.73800 24.69200
C  41.71000 43.38300 24.63000
N  42.51900 41.17000 29.22900
C  41.92700 42.19400 30.00300
C  41.79300 41.66000 31.44400
C  42.60100 40.40100 31.54300
C  42.72500 40.10300 30.03300
C  43.99000 40.61400 32.31800
C  40.32200 41.59000 31.94800
C  39.98200 42.17600 33.39000
H  39.42600 41.23300 34.45000
N  42.95100 38.98300 27.11200
C  43.21400 38.27400 28.27200
C  43.77000 36.96300 27.96200
C  43.75400 36.86000 26.51800
C  43.25700 38.18700 26.05200
C  44.23400 35.87300 28.92800
C  44.21400 35.71300 25.64800
O  44.17800 35.72700 24.43700
C  44.59400 34.39200 26.23800
N  42.33900 40.95400 24.95800
C  42.83100 40.00800 24.24600
C  42.67100 40.30100 22.74900
C  42.14500 41.74300 22.71600
C  42.01400 42.06300 24.22000
C  44.03600 40.13100 21.99400
C  40.71300 41.97700 22.09800
C  40.43500 43.27300 21.39400
N  41.72700 42.98000 27.03400
C  41.56000 43.83900 25.98300
C  41.24800 45.16100 26.40600
C  41.12500 45.02100 27.80800
C  41.49500 43.66600 28.17800
C  40.91500 46.35800 25.47200
C  40.85200 45.72800 29.04000
O  40.58800 46.88700 29.30400
C  41.07900 44.70400 30.20000
C  42.19300 45.30000 30.96300
O  43.36900 45.15900 30.74100
O  41.69000 45.80100 32.09000
C  42.57800 46.23500 33.21700
H  43.31000 38.19000 30.36900
H  43.59000 37.98300 24.00000
H  41.60400 44.13100 23.84200
H  42.22900 42.43300 32.07600
H  42.12100 39.59500 32.09800
H  44.90500 40.27400 31.83200
H  43.76400 40.05300 33.22500
H  44.21200 41.64300 32.60300
H  39.93100 40.57300 31.90100
H  39.66600 42.17100 31.30100
H  39.25600 42.95800 33.16700
H  40.88800 42.64200 33.77800
H  45.27200 35.58500 28.76500
H  43.49300 35.07400 28.92000
H  44.16800 36.20700 29.96300
H  43.77300 33.93600 26.79100
H  45.41300 34.53200 26.94300
H  44.96100 33.79000 25.40600
H  42.05300 39.52800 22.29200
H  42.93700 42.38800 22.33500
H  44.14900 39.16200 21.50600
H  44.82500 40.00000 22.73400
H  44.28200 40.95000 21.31900
H  39.91400 41.99200 22.84000
H  40.63300 41.13400 21.41100
H  39.55100 43.71100 21.85800
H  40.38500 43.14000 20.31300
H  41.29300 43.94300 21.35300
H  40.81200 47.15500 26.20800
H  39.92000 46.11500 25.10000
H  41.61800 46.65300 24.69300
H  40.16500 44.68600 30.79500
H  42.87900 45.34100 33.76200
H  42.09400 46.80200 34.01300
H  43.48300 46.76100 32.91300

