79

Mg 47.21500 45.34300 42.83300
C  43.87400 44.12100 42.55100
C  48.38400 42.20500 42.38200
C  50.42800 46.61200 42.77400
C  45.98600 48.47300 43.07300
N  46.19600 43.41100 42.31600
C  44.85100 43.10400 42.28900
C  44.58900 41.69900 42.02600
C  46.01700 41.05500 42.21500
C  46.96700 42.29600 42.32700
C  46.12100 40.20300 43.49400
C  43.91200 41.47400 40.61800
C  44.10700 42.46800 39.42400
H  43.99400 41.80100 37.96800
N  49.23100 44.47600 42.63600
C  49.43800 43.12700 42.52500
C  50.91300 42.90600 42.49300
C  51.56100 44.17700 42.56400
C  50.41800 45.17100 42.62600
C  51.56200 41.49300 42.48400
C  53.09200 44.47000 42.71000
O  53.92600 43.57000 42.67900
C  53.58600 45.84900 42.91400
N  48.17800 47.32200 42.61300
C  49.46800 47.56300 42.90700
C  49.69800 49.08300 43.04700
C  48.21100 49.58200 43.44100
C  47.40600 48.39600 42.95400
C  50.74300 49.43800 44.20000
C  47.95800 50.90000 42.64000
C  48.03200 52.16100 43.47700
N  45.35500 46.15700 42.63600
C  45.05400 47.47900 42.88200
C  43.64400 47.65200 43.01000
C  43.14600 46.33800 42.91700
C  44.20800 45.45000 42.69700
C  42.97000 48.87000 43.24600
C  41.94300 45.50400 42.95800
O  40.80200 45.69400 43.23900
C  42.38800 44.00500 42.63100
C  41.97400 43.11400 43.83300
O  42.32200 43.30600 44.99300
O  41.05600 42.16300 43.38300
C  40.70100 41.23000 44.48500
H  48.66900 41.15100 42.34500
H  51.39900 47.08700 42.92900
H  45.62800 49.39900 43.52800
H  43.84000 41.40700 42.76200
H  46.38600 40.58900 41.30100
H  45.79900 39.21300 43.17200
H  45.49000 40.43400 44.35300
H  47.12700 40.22300 43.91100
H  42.84200 41.29100 40.70800
H  44.28300 40.54000 40.19500
H  45.10200 42.86200 39.63000
H  43.44300 43.33200 39.43500
H  52.23800 41.37100 41.63700
H  50.79100 40.72900 42.39400
H  52.11200 41.35500 43.41500
H  53.20000 46.60900 42.23400
H  54.63100 45.82900 42.60500
H  53.47300 46.09000 43.97100
H  50.09900 49.53100 42.13800
H  48.10300 49.76900 44.50900
H  51.26000 48.59400 44.65700
H  50.34500 50.03100 45.02300
H  51.56800 49.96400 43.72000
H  46.91800 50.87900 42.31400
H  48.68200 51.10100 41.85000
H  47.21000 52.83200 43.22700
H  48.86900 52.78100 43.15900
H  48.02800 51.98800 44.55400
H  42.53800 48.82700 44.24600
H  42.21600 48.86900 42.45800
H  43.64600 49.71200 43.09500
H  42.01000 43.67100 41.66500
H  41.50300 40.49200 44.50600
H  39.74500 40.79000 44.20000
H  40.66100 41.65700 45.48700

