79

Mg -1.05200 18.16500 27.45100
C  -1.67500 15.99800 30.18100
C  -1.69600 20.85000 29.57600
C  -0.73900 20.10400 24.87800
C  -1.23400 15.25000 25.40100
N  -1.50000 18.36300 29.74900
C  -1.70900 17.30900 30.65600
C  -1.98000 17.88400 32.05400
C  -2.42300 19.33600 31.68100
C  -1.79100 19.56500 30.25000
C  -3.95600 19.49400 31.82800
C  -0.82900 17.78100 33.09100
C  -1.30000 17.27900 34.46100
H  -0.56100 17.64700 35.67800
N  -1.25500 20.11200 27.26200
C  -1.52300 21.10800 28.20900
C  -1.42900 22.41500 27.62600
C  -1.23200 22.19800 26.24800
C  -1.06500 20.75700 26.06500
C  -1.63400 23.69600 28.36500
C  -1.19700 23.21300 25.12300
O  -1.06100 22.89000 23.95300
C  -1.34200 24.70600 25.37500
N  -1.04900 17.72700 25.39400
C  -0.71100 18.74200 24.51300
C  -0.47000 18.25600 23.10500
C  -0.61300 16.71200 23.22800
C  -0.97400 16.49100 24.76100
C  -1.48300 18.85500 22.05600
C  0.60600 15.82900 22.80700
C  1.75800 15.57900 23.73300
N  -1.29500 16.05500 27.69900
C  -1.27300 15.01000 26.78700
C  -1.46700 13.75200 27.43600
C  -1.63600 14.03800 28.76200
C  -1.53200 15.45700 28.88800
C  -1.42000 12.44500 26.78300
C  -1.86200 13.49200 30.03300
O  -2.12900 12.33800 30.34400
C  -1.91400 14.71000 30.97200
C  -0.92000 14.49000 32.16100
O  0.28000 14.79000 32.10100
O  -1.55400 13.89600 33.28600
C  -0.80100 13.55800 34.44300
H  -1.88000 21.66100 30.28300
H  -0.59900 20.67800 23.95900
H  -1.12100 14.32700 24.82700
H  -2.80700 17.28100 32.43100
H  -1.91300 20.00400 32.37500
H  -4.37400 18.58400 32.26000
H  -4.38000 19.62900 30.83200
H  -4.13500 20.39000 32.42200
H  -0.23000 18.68700 33.18700
H  -0.14400 16.99600 32.77200
H  -1.24700 16.19700 34.58000
H  -2.36300 17.50900 34.52400
H  -0.76300 24.33300 28.21200
H  -1.75900 23.56500 29.43900
H  -2.45500 24.25300 27.91100
H  -2.32400 24.83900 25.83000
H  -1.20400 25.44300 24.58400
H  -0.62500 25.00700 26.14000
H  0.52100 18.56800 22.77600
H  -1.52300 16.45400 22.68600
H  -1.90000 19.84000 22.26600
H  -2.21800 18.12600 21.71300
H  -0.91600 19.08900 21.15500
H  1.00000 16.24100 21.87800
H  0.22100 14.89200 22.40500
H  1.66000 16.24300 24.59100
H  2.71600 15.91600 23.33700
H  1.93900 14.55400 24.05700
H  -0.63700 12.28200 26.04300
H  -2.41000 12.39600 26.33000
H  -1.48500 11.73200 27.60500
H  -2.95500 14.51700 31.22900
H  -0.57800 12.49200 34.48200
H  -1.42800 13.86300 35.28100
H  0.17400 14.03900 34.51000

