79

Mg 17.01700 52.24100 25.23100
C  18.87600 51.03300 28.08200
C  14.66600 53.26000 27.40900
C  15.29100 53.06600 22.58800
C  19.57300 50.90200 23.20700
N  16.94500 52.29900 27.47300
C  17.81500 51.85600 28.42300
C  17.33600 52.11400 29.84400
C  15.87600 52.71700 29.65000
C  15.81100 52.69800 28.12300
C  14.83800 51.88600 30.38400
C  18.34800 53.06900 30.64300
C  18.79700 52.62100 32.12200
H  17.85500 51.78100 32.95100
N  15.25100 53.06300 25.00500
C  14.40900 53.38100 26.03400
C  13.19600 53.96900 25.46800
C  13.27600 53.79700 24.06400
C  14.67300 53.29600 23.81500
C  12.06200 54.57400 26.27400
C  12.20100 54.08800 23.03000
O  12.38000 53.77700 21.81400
C  10.80800 54.58300 23.43600
N  17.29500 51.78500 23.21500
C  16.47100 52.33700 22.26900
C  16.87400 52.03100 20.79900
C  18.25500 51.44200 21.07700
C  18.38700 51.42400 22.58900
C  15.95500 50.99600 20.17100
C  19.31500 52.27500 20.42200
C  20.60200 51.65800 20.06500
N  18.74600 51.09100 25.49300
C  19.68300 50.59000 24.56700
C  20.72500 49.92800 25.27400
C  20.47300 50.07500 26.64900
C  19.23000 50.72500 26.73000
C  21.95500 49.45100 24.55600
C  21.00900 49.71200 27.97400
O  22.05900 49.11300 28.32400
C  19.91600 50.29400 28.96200
C  19.31400 49.12200 29.60200
O  19.01900 48.11400 29.06400
O  19.22800 49.25400 30.97800
C  18.77900 48.13400 31.77200
H  13.83500 53.54500 28.05800
H  14.71300 53.20400 21.67100
H  20.33400 50.40000 22.60700
H  17.26900 51.16500 30.37700
H  15.73600 53.70600 30.08500
H  14.07300 52.51900 30.83500
H  15.16600 51.27000 31.22100
H  14.20100 51.27300 29.74600
H  17.82000 54.02100 30.70400
H  19.28100 53.02700 30.08200
H  19.01000 53.46900 32.77400
H  19.59600 51.89600 31.96800
H  12.12400 55.62700 25.99900
H  12.16400 54.45000 27.35200
H  11.13800 54.04600 26.03700
H  10.93700 55.45200 24.08300
H  10.31800 53.79800 24.01300
H  10.28800 54.76700 22.49600
H  16.79900 52.87900 20.11700
H  18.28700 50.40000 20.75800
H  15.38900 50.46200 20.93400
H  16.44200 50.26900 19.52200
H  15.18600 51.47700 19.56700
H  19.46000 53.04800 21.17600
H  18.87700 52.75900 19.54900
H  20.62800 51.48500 18.99000
H  20.60500 50.63200 20.43500
H  21.43600 52.24800 20.44600
H  22.79300 49.25600 25.22500
H  22.36600 50.13200 23.81100
H  21.83700 48.48800 24.05900
H  20.26000 50.87100 29.82100
H  17.81600 47.69500 31.51400
H  18.79200 48.40700 32.82700
H  19.45100 47.27500 31.79900

