79

Mg -5.52900 25.12500 25.59000
C  -4.02900 26.23200 28.46400
C  -7.34300 22.82700 27.56100
C  -6.30600 23.28900 22.79500
C  -3.15800 26.86600 23.69800
N  -5.64300 24.56600 27.78800
C  -5.12300 25.42200 28.74800
C  -5.52300 24.92700 30.15800
C  -6.45500 23.58500 29.85100
C  -6.54900 23.70000 28.25000
C  -5.76400 22.19000 30.29900
C  -6.30200 26.05400 30.91600
C  -5.79600 26.51800 32.31800
H  -5.09200 25.45000 33.21000
N  -6.81000 23.45500 25.23400
C  -7.48600 22.72700 26.11500
C  -8.25700 21.70500 25.46200
C  -8.04800 21.80800 24.12300
C  -6.99300 22.87200 23.99100
C  -9.29700 20.78500 26.13100
C  -8.67600 21.09700 22.88200
O  -8.33700 21.42400 21.77900
C  -9.89500 20.25200 22.94300
N  -4.88500 25.26400 23.57400
C  -5.36300 24.39400 22.63400
C  -4.80700 24.74500 21.24400
C  -3.85700 25.96900 21.48700
C  -4.03000 26.10700 22.98200
C  -4.13000 23.63400 20.43600
C  -4.26600 27.30100 20.78800
C  -3.09600 28.02000 20.02700
N  -3.94500 26.42400 25.96700
C  -3.04800 27.03200 25.10900
C  -2.24700 27.91100 25.96400
C  -2.57700 27.51200 27.27700
C  -3.61400 26.67400 27.21500
C  -1.24000 28.96800 25.56400
C  -2.22700 27.73700 28.68900
O  -1.42100 28.46600 29.22000
C  -3.13900 26.89900 29.44100
C  -2.30700 26.03400 30.30200
O  -1.69000 25.05800 29.86700
O  -2.22000 26.52300 31.58800
C  -1.28700 25.79900 32.48100
H  -7.99200 22.14100 28.10900
H  -6.50900 22.87600 21.80500
H  -2.35900 27.37200 23.15100
H  -4.58000 24.60200 30.59800
H  -7.31200 23.83900 30.47400
H  -6.47800 21.75100 30.99500
H  -4.82400 22.30200 30.83800
H  -5.54700 21.46600 29.51400
H  -7.38200 25.90700 30.93700
H  -6.12200 26.88300 30.23200
H  -6.66200 26.75400 32.93600
H  -5.09300 27.35100 32.30100
H  -9.37900 19.83900 25.59500
H  -10.19500 21.37800 25.95700
H  -9.15000 20.58900 27.19300
H  -9.95100 19.69900 22.00500
H  -10.70400 20.92800 23.22000
H  -9.85000 19.50200 23.73300
H  -5.69400 25.01800 20.67200
H  -2.81000 25.69600 21.36000
H  -3.04600 23.74300 20.43400
H  -4.51900 23.69500 19.41900
H  -4.38100 22.66000 20.85600
H  -4.67900 27.94600 21.56500
H  -5.05200 27.01200 20.09000
H  -2.10600 27.95000 20.47900
H  -3.32800 29.08400 19.98700
H  -3.03100 27.57000 19.03700
H  -0.51300 28.69800 24.79800
H  -0.69300 29.22300 26.47100
H  -1.78800 29.84200 25.21200
H  -3.64800 27.50000 30.19500
H  -0.26900 25.90900 32.10700
H  -1.48800 24.73000 32.55300
H  -1.29400 26.15100 33.51200

