79

Mg 0.39500 44.07100 25.86300
C  1.94600 44.27600 28.89600
C  -2.52300 43.13100 27.47300
C  -1.02900 43.33600 22.80000
C  3.41200 44.67800 24.24100
N  -0.16600 43.67600 27.87300
C  0.62500 43.86600 28.97200
C  -0.21900 43.82000 30.28700
C  -1.58400 43.15000 29.81700
C  -1.42800 43.34500 28.27600
C  -1.83500 41.67200 30.30500
C  -0.38200 45.22700 31.06500
C  -0.01100 45.30700 32.55900
H  0.02800 44.04000 33.41800
N  -1.57300 43.52200 25.25000
C  -2.57500 43.23100 26.04500
C  -3.71700 43.03900 25.20300
C  -3.29900 43.14800 23.83400
C  -1.91400 43.28400 23.93300
C  -5.05800 42.60700 25.73800
C  -4.06400 42.98500 22.50900
O  -3.55100 42.95900 21.39500
C  -5.57300 42.82200 22.56600
N  1.04500 44.08100 23.87300
C  0.28600 43.71300 22.80300
C  1.17500 43.62400 21.56100
C  2.45200 44.43500 21.89900
C  2.31700 44.35800 23.43300
C  1.34300 42.10600 21.08900
C  2.58300 45.82200 21.17800
C  3.81000 46.10100 20.20300
N  2.30500 44.36000 26.41200
C  3.40100 44.65400 25.69800
C  4.49800 44.85300 26.56700
C  4.02200 44.63100 27.87800
C  2.69500 44.44500 27.73400
C  5.96700 45.13900 26.11500
C  4.34400 44.62600 29.31400
O  5.38400 44.78800 29.93400
C  2.97500 44.37000 30.04400
C  3.20700 43.11000 30.82800
O  3.09700 42.01800 30.29300
O  3.71400 43.41300 32.06800
C  4.19600 42.24800 32.85600
H  -3.44700 42.77900 27.93700
H  -1.34100 43.10100 21.78000
H  4.42000 44.73200 23.82500
H  0.25200 43.10400 30.96000
H  -2.45200 43.72400 30.13900
H  -1.00600 41.45500 30.97900
H  -1.83100 41.01200 29.43800
H  -2.82500 41.69900 30.75900
H  -1.36100 45.66800 30.87800
H  0.27900 45.93700 30.56700
H  -0.76100 45.86700 33.11800
H  0.89500 45.90900 32.63200
H  -4.96100 42.19500 26.74200
H  -5.65000 41.94300 25.10700
H  -5.63000 43.48400 26.04200
H  -6.10300 43.28400 23.39900
H  -5.64100 41.75000 22.74800
H  -6.06600 42.99500 21.60900
H  0.65200 44.12400 20.74600
H  3.33300 43.82700 21.69300
H  2.39600 41.92500 20.87400
H  0.69900 41.79400 20.26700
H  1.15800 41.43300 21.92700
H  2.71300 46.52300 22.00400
H  1.72000 45.92000 20.52000
H  4.59000 46.60000 20.77800
H  3.58000 46.63300 19.28000
H  4.10600 45.12900 19.80900
H  5.93200 45.90500 25.34100
H  6.21600 44.15700 25.71300
H  6.63300 45.34700 26.95300
H  2.86000 45.28100 30.63100
H  5.24800 41.96900 32.79400
H  3.70600 41.31100 32.59100
H  3.91900 42.36900 33.90300

