79

Mg 39.74500 9.67900 29.47200
C  41.71200 10.81700 32.24500
C  37.68700 8.06400 31.64600
C  38.23900 8.43800 26.90300
C  42.40400 10.79300 27.39200
N  39.70900 9.49000 31.70200
C  40.58300 10.06000 32.60400
C  40.16400 9.72600 34.04300
C  38.96400 8.76000 33.82800
C  38.71400 8.74800 32.28900
C  39.12800 7.32500 34.32100
C  39.61500 10.97700 34.75000
C  39.85000 10.96400 36.29700
H  40.40900 12.22500 37.06900
N  38.08200 8.56500 29.28600
C  37.36500 8.00800 30.26200
C  36.16600 7.32300 29.69200
C  36.34200 7.52100 28.29700
C  37.63600 8.21400 28.10500
C  34.98800 6.75200 30.53600
C  35.36700 7.08600 27.19300
O  35.65600 7.19700 26.00000
C  33.97200 6.59200 27.53100
N  40.11000 9.76300 27.40600
C  39.35900 9.16500 26.53000
C  39.91600 9.31000 25.05300
C  41.13600 10.21400 25.27500
C  41.19100 10.34000 26.81600
C  40.16200 7.90700 24.39700
C  41.22300 11.48200 24.49900
C  39.99500 12.43500 24.46100
N  41.74000 10.63500 29.67600
C  42.70000 10.98800 28.72800
C  43.74500 11.72900 29.35200
C  43.28100 11.73600 30.69900
C  42.11000 11.01100 30.87100
C  45.01500 12.22700 28.75800
C  43.69300 12.31600 32.06600
O  44.63500 12.97600 32.42300
C  42.71300 11.57900 33.07100
C  43.45400 10.76600 34.00500
O  43.51300 9.51800 33.97600
O  43.68100 11.58500 35.11000
C  44.15900 10.84700 36.34700
H  36.94200 7.60700 32.30200
H  37.66300 8.09300 26.04200
H  43.23300 11.12700 26.76500
H  41.00900 9.26500 34.55400
H  38.04700 9.11100 34.30200
H  39.05900 6.65600 33.46400
H  38.41300 7.09300 35.11000
H  40.15300 7.26700 34.68700
H  38.57700 11.06400 34.42800
H  40.05700 11.91000 34.39900
H  40.48500 10.11500 36.54800
H  38.88400 10.85900 36.79100
H  35.10200 6.99100 31.59400
H  34.80200 5.67800 30.50900
H  34.10700 7.28500 30.17800
H  33.86400 5.57900 27.91900
H  33.45100 6.54700 26.57500
H  33.36600 7.25700 28.14500
H  39.02400 9.77800 24.63600
H  42.01300 9.65700 24.94500
H  40.03100 7.07600 25.09000
H  41.12000 7.78200 23.89400
H  39.43000 7.87500 23.58900
H  41.54200 11.29400 23.47400
H  41.98300 12.05200 25.03500
H  40.15900 13.45900 24.79500
H  39.26400 11.96000 25.11600
H  39.43000 12.29300 23.54000
H  45.10800 11.63000 27.85100
H  45.92300 11.90400 29.26600
H  44.95400 13.31500 28.71500
H  42.10300 12.18400 33.74100
H  44.98400 11.36600 36.83700
H  44.58400 9.87600 36.09500
H  43.34800 10.62900 37.04100

