79

Mg 36.42900 50.04400 25.42900
C  36.80000 48.08400 28.32200
C  35.23200 52.59000 27.44100
C  35.99200 51.80500 22.68100
C  37.44700 47.31900 23.57600
N  36.15100 50.31500 27.57500
C  36.37700 49.39200 28.58600
C  36.14500 50.04200 29.95200
C  35.50100 51.32500 29.58800
C  35.64900 51.45600 28.11500
C  34.03000 51.56000 30.07500
C  37.50100 50.09400 30.80600
C  37.46900 49.92300 32.33000
H  36.04600 49.89900 32.94800
N  35.68100 51.94100 25.07900
C  35.31200 52.87600 26.03600
C  34.87000 54.10600 25.28700
C  35.09800 53.90200 23.95100
C  35.64100 52.49600 23.85800
C  34.28200 55.29100 25.99300
C  34.87000 54.86800 22.75200
O  35.18400 54.65300 21.58900
C  34.41000 56.29400 23.05400
N  36.57700 49.59600 23.43700
C  36.41400 50.49800 22.47700
C  36.74700 49.97700 21.02600
C  37.06700 48.50700 21.31000
C  37.13700 48.48500 22.89000
C  35.67200 50.20500 19.96900
C  38.39400 48.01700 20.65400
C  39.68500 48.55600 21.41400
N  37.01700 48.09700 25.84400
C  37.38500 47.11700 24.98700
C  37.70900 45.89500 25.71300
C  37.49900 46.18600 27.09500
C  37.03000 47.59900 27.03100
C  38.13200 44.57500 25.12300
C  37.44200 45.67200 28.47500
O  37.73300 44.53800 28.86700
C  37.09300 46.91300 29.34600
C  35.83900 46.60800 30.05500
O  34.74000 47.00200 29.67300
O  36.04600 45.95400 31.23100
C  34.85200 45.74500 32.04600
H  34.84500 53.35800 28.11400
H  35.84700 52.28800 21.71200
H  37.63500 46.43100 22.96800
H  35.46800 49.40800 30.52400
H  35.99100 52.17100 30.07100
H  33.55800 50.79400 30.69000
H  33.41500 51.60900 29.17600
H  34.06900 52.52900 30.57300
H  37.93800 51.08400 30.67800
H  38.15200 49.35800 30.33300
H  38.00200 50.80800 32.67800
H  38.05500 49.04500 32.59900
H  34.98600 56.10900 25.83600
H  34.27700 55.01200 27.04600
H  33.31200 55.61600 25.61600
H  35.14900 56.93400 23.53600
H  33.48100 56.26400 23.62400
H  34.15900 56.86000 22.15700
H  37.64600 50.54700 20.79200
H  36.20600 47.85700 21.15300
H  35.51200 49.36200 19.29700
H  35.93700 51.06300 19.35100
H  34.72900 50.37600 20.48900
H  38.30000 48.34700 19.62000
H  38.41600 46.92700 20.65100
H  39.41500 49.25500 22.20500
H  40.28900 48.93300 20.58900
H  40.17300 47.70100 21.88300
H  39.00300 44.85700 24.53200
H  37.32000 44.08500 24.58700
H  38.41400 43.90400 25.93500
H  37.95000 46.98800 30.01700
H  34.40700 46.64900 32.46100
H  35.19600 45.05700 32.81800
H  34.10500 45.11500 31.56200

