79

Mg -2.19800 17.40200 27.10000
C  -2.75700 15.24400 29.78600
C  -3.18500 20.04400 28.94500
C  -2.02500 19.38700 24.31100
C  -2.24600 14.54700 25.03600
N  -2.78900 17.52600 29.07200
C  -2.89700 16.58800 30.12600
C  -3.11100 17.23200 31.55200
C  -3.41700 18.71800 31.10500
C  -3.10700 18.79000 29.65100
C  -4.89500 19.14800 31.51500
C  -1.83700 17.14200 32.46000
C  -2.00100 17.78500 33.84700
H  -1.38100 17.07400 35.05700
N  -2.32700 19.45400 26.75100
C  -2.79500 20.37600 27.63400
C  -2.69700 21.70100 27.10300
C  -2.25700 21.54900 25.71100
C  -2.21400 20.09500 25.55100
C  -3.04600 22.95900 27.87100
C  -1.90600 22.62400 24.69700
O  -1.65800 22.37900 23.50500
C  -1.81300 23.98600 25.14500
N  -2.08100 17.02000 24.89800
C  -1.96200 17.97900 24.00800
C  -1.87100 17.39000 22.59800
C  -1.71200 15.83700 22.94400
C  -2.08700 15.75600 24.37000
C  -3.08200 17.67800 21.77300
C  -0.25500 15.32000 22.52900
C  0.93600 15.85300 23.35500
N  -2.28600 15.36400 27.32700
C  -2.27600 14.37000 26.39500
C  -2.50500 13.14000 27.04000
C  -2.70100 13.41100 28.41300
C  -2.55200 14.74300 28.49300
C  -2.70300 11.72400 26.35800
C  -2.93900 12.84300 29.71000
O  -3.11900 11.69000 30.01500
C  -3.02400 14.06200 30.71100
C  -2.05100 13.72000 31.75300
O  -0.82600 13.59900 31.60400
O  -2.81200 13.52200 32.91900
C  -2.08400 12.81700 33.92900
H  -3.42000 20.80100 29.69600
H  -1.86900 20.02700 23.44000
H  -2.36500 13.71000 24.34400
H  -3.98700 16.74900 31.98600
H  -2.75800 19.42900 31.60400
H  -5.34700 18.23000 31.89100
H  -5.44700 19.56300 30.67200
H  -4.85600 19.92500 32.27800
H  -1.08900 17.65900 31.86000
H  -1.57000 16.09400 32.59700
H  -3.07100 17.69800 34.03500
H  -1.69500 18.83100 33.84300
H  -3.52600 22.82500 28.84100
H  -3.73000 23.48300 27.20400
H  -2.16900 23.57000 28.08400
H  -0.95200 24.00000 25.81300
H  -2.71500 24.33500 25.64800
H  -1.62500 24.58900 24.25700
H  -0.94400 17.72800 22.13400
H  -2.43300 15.17700 22.46200
H  -3.98800 17.86700 22.34900
H  -3.38300 17.00700 20.96800
H  -2.70400 18.55700 21.25100
H  -0.18200 15.63900 21.48900
H  -0.21200 14.23200 22.59200
H  0.57600 16.31200 24.27600
H  1.47700 16.61900 22.79900
H  1.61800 15.01900 23.52200
H  -2.45500 10.89500 27.02200
H  -1.88200 11.81400 25.64600
H  -3.72800 11.58500 26.01600
H  -4.07000 14.01100 31.01200
H  -1.55600 11.96000 33.51100
H  -2.82200 12.46000 34.64800
H  -1.36900 13.49500 34.39500

