79

Mg 1.29900 8.31200 25.52700
C  2.18200 10.17300 28.28100
C  1.04800 5.45700 27.59600
C  0.53700 6.39500 22.85200
C  1.71000 11.09000 23.58500
N  1.74300 7.88400 27.68200
C  1.84600 8.89500 28.67600
C  1.75700 8.25000 30.07500
C  1.78800 6.71100 29.76500
C  1.46900 6.64000 28.25400
C  3.15900 6.05500 30.22200
C  0.49400 8.71300 30.72100
C  0.46900 8.65800 32.28900
H  1.53500 7.97400 33.04900
N  0.76800 6.22400 25.26800
C  0.73500 5.22800 26.28200
C  0.19200 4.00300 25.71300
C  0.05000 4.23200 24.30000
C  0.40800 5.68400 24.07600
C  0.12200 2.71900 26.63100
C  -0.25800 3.22100 23.16900
O  -0.35500 3.53800 21.98900
C  -0.67200 1.86900 23.54000
N  1.14900 8.65100 23.57600
C  0.83200 7.73500 22.65600
C  0.69400 8.32500 21.27800
C  0.70800 9.86000 21.55600
C  1.18400 9.90700 23.00100
C  1.79200 7.81900 20.20800
C  -0.65700 10.66800 21.48900
C  -0.64700 11.94300 20.62000
N  1.81000 10.30100 25.77100
C  2.00600 11.33300 24.89200
C  2.52800 12.49500 25.50200
C  2.47200 12.19200 26.90300
C  2.17800 10.75300 26.91900
C  2.94500 13.79000 24.90600
C  2.82300 12.62200 28.24400
O  3.24600 13.64500 28.70000
C  2.47500 11.40200 29.17800
C  3.61400 11.26000 30.13100
O  4.74100 10.82200 29.89100
O  3.26900 11.90100 31.35600
C  4.30700 11.93200 32.43500
H  0.89500 4.64400 28.30800
H  0.19500 5.97700 21.90300
H  1.70100 11.99900 22.98100
H  2.62500 8.66500 30.58700
H  1.02200 6.18800 30.33700
H  3.65200 6.56000 31.05300
H  3.77400 5.99200 29.32400
H  2.91200 5.06600 30.60600
H  -0.31400 8.11600 30.29900
H  0.23300 9.72200 30.40100
H  -0.42100 8.08400 32.54900
H  0.26300 9.70000 32.53700
H  0.99100 2.52700 27.26000
H  -0.05300 1.85400 25.99100
H  -0.74300 2.91700 27.26400
H  -0.93400 1.37200 22.60600
H  -1.54700 1.94200 24.18600
H  0.18300 1.40800 24.03500
H  -0.25300 8.01300 20.83900
H  1.43100 10.28100 20.85800
H  2.18500 6.81500 20.36600
H  2.63500 8.48600 20.02700
H  1.33000 7.69300 19.22900
H  -1.00100 11.00200 22.46800
H  -1.36000 9.88200 21.21500
H  -1.62200 12.05600 20.14500
H  0.18400 12.08300 19.92800
H  -0.67700 12.72400 21.37900
H  3.72700 14.23600 25.52000
H  2.18500 14.56800 24.83100
H  3.25300 13.55800 23.88700
H  1.60000 11.65600 29.77500
H  3.90100 11.45600 33.32800
H  4.49400 12.96000 32.74500
H  5.31400 11.53600 32.30400

