79

Mg 35.46100 48.21100 26.39300
C  36.07500 46.19600 29.08600
C  34.35000 50.75000 28.44500
C  34.99200 50.16500 23.75300
C  36.51200 45.70600 24.19900
N  35.18200 48.41600 28.50600
C  35.53900 47.43100 29.44700
C  35.29400 47.99900 30.89900
C  34.45700 49.37300 30.57000
C  34.70800 49.54300 29.04700
C  32.93800 49.34000 30.84900
C  36.66300 48.29100 31.61100
C  36.78600 48.02000 33.10800
H  36.22800 49.20700 33.88900
N  34.82400 50.24200 26.14300
C  34.37700 51.11200 27.08000
C  34.02700 52.33700 26.50800
C  34.33100 52.25100 25.14300
C  34.81100 50.86200 24.94900
C  33.53700 53.55400 27.20200
C  34.30000 53.34600 24.08600
O  34.71100 53.05900 22.94400
C  33.80200 54.72300 24.36500
N  35.62100 47.93000 24.24900
C  35.31400 48.89100 23.39100
C  35.32100 48.45800 21.94000
C  35.96700 47.02300 22.07600
C  36.06500 46.82200 23.57100
C  33.81500 48.35000 21.39200
C  37.40200 46.86400 21.41600
C  38.53900 47.52000 22.16800
N  36.00100 46.28400 26.55900
C  36.54400 45.44700 25.60700
C  36.97600 44.16600 26.30000
C  36.78200 44.44000 27.67400
C  36.26600 45.72400 27.77900
C  37.59200 43.02300 25.56500
C  36.92700 43.91900 28.96500
O  37.24300 42.78300 29.29400
C  36.55100 45.10500 29.98100
C  35.60400 44.64500 31.00200
O  34.43600 44.29300 30.77100
O  36.19100 44.64600 32.27600
C  35.42900 43.99100 33.28200
H  33.91600 51.50200 29.10700
H  34.70500 50.82800 22.93400
H  36.80000 44.90400 23.51600
H  34.64000 47.31100 31.43500
H  34.84700 50.24700 31.09100
H  32.65800 50.10600 31.57100
H  32.68400 48.36500 31.26700
H  32.32200 49.49500 29.96300
H  36.99700 49.28600 31.31700
H  37.44000 47.68000 31.15200
H  37.81500 47.76700 33.36100
H  36.19000 47.13300 33.32700
H  32.80700 54.16500 26.67100
H  34.34300 54.20900 27.53200
H  32.97300 53.27100 28.09000
H  34.15600 55.38800 23.57800
H  34.36400 55.11100 25.21500
H  32.73500 54.88900 24.51800
H  35.90500 49.14900 21.33200
H  35.33200 46.29700 21.56800
H  33.03100 48.52400 22.12900
H  33.60800 47.34100 21.03500
H  33.66000 49.10900 20.62500
H  37.27900 47.43400 20.49500
H  37.45600 45.83000 21.07500
H  38.17100 48.18700 22.94800
H  39.11100 48.11100 21.45300
H  39.14700 46.70900 22.57100
H  37.70200 43.31800 24.52100
H  37.03500 42.08600 25.56200
H  38.52700 42.75900 26.05900
H  37.47500 45.25900 30.53800
H  34.95900 43.05800 32.97200
H  34.57100 44.62700 33.49800
H  36.02000 43.68900 34.14800

