79

Mg 54.28100 24.86700 43.88000
C  51.52600 26.99100 43.68000
C  52.34800 22.27800 42.67700
C  57.02200 22.98100 43.25300
C  56.33000 27.59100 44.47000
N  52.18300 24.65900 43.08500
C  51.18500 25.65000 43.18100
C  49.81900 25.12100 42.74200
C  50.10300 23.55300 42.78900
C  51.63500 23.47600 42.83200
C  49.39700 22.71900 43.93500
C  49.19600 25.57400 41.37800
C  50.06900 25.88100 40.13000
H  49.80100 25.06800 38.83200
N  54.60200 22.88700 43.18100
C  53.70800 22.02500 42.76600
C  54.33400 20.70200 42.48000
C  55.73600 20.88600 42.55300
C  55.84100 22.26700 43.01000
C  53.46400 19.49800 42.07700
C  56.80200 19.89700 42.20000
O  56.39900 18.81300 41.72900
C  58.20700 20.09900 42.45500
N  56.39400 25.29800 43.74200
C  57.33000 24.31100 43.65600
C  58.80000 24.82900 43.84600
C  58.54800 26.29000 44.24400
C  57.04200 26.40800 44.16000
C  59.64600 23.88900 44.85500
C  59.39100 27.35100 43.42600
C  60.67200 27.85600 44.19800
N  53.98800 26.85000 44.20000
C  54.92100 27.84800 44.46900
C  54.21600 29.11400 44.74300
C  52.87100 28.78900 44.42900
C  52.83700 27.45700 44.05900
C  54.83100 30.46700 45.11800
C  51.55100 29.29300 44.34300
O  51.04700 30.34400 44.72500
C  50.66300 28.21200 43.69700
C  50.24800 28.63400 42.32800
O  51.03100 28.56200 41.37900
O  48.93700 29.11700 42.29100
C  48.69600 29.87700 41.04200
H  51.67100 21.49900 42.32000
H  57.99900 22.57400 42.98700
H  56.95900 28.44200 44.73900
H  49.18800 25.44900 43.56800
H  49.75800 23.05500 41.88300
H  48.83300 23.39700 44.57600
H  50.20300 22.10800 44.34200
H  48.66700 22.11700 43.39400
H  48.57700 26.41300 41.69600
H  48.44800 24.85600 41.04200
H  51.12400 25.71300 40.34500
H  49.94300 26.93800 39.89500
H  53.14500 19.48300 41.03500
H  52.46100 19.53200 42.50300
H  53.90100 18.55100 42.39400
H  58.71400 19.14900 42.28800
H  58.32800 20.41200 43.49200
H  58.59100 20.86400 41.78000
H  59.32400 24.70500 42.89800
H  58.91900 26.37900 45.26500
H  59.00400 23.01900 44.99600
H  59.61600 24.40200 45.81600
H  60.65300 23.60000 44.55600
H  58.71500 28.19500 43.28600
H  59.70500 26.89400 42.48700
H  61.50800 27.41500 43.65600
H  60.71000 27.51900 45.23400
H  60.77000 28.93800 44.11500
H  55.91100 30.32200 45.09500
H  54.49700 30.78800 46.10500
H  54.60600 31.22200 44.36500
H  49.77800 28.13300 44.32900
H  49.56300 30.46000 40.73200
H  48.07200 30.70900 41.36800
H  48.27000 29.17100 40.32900

