79

Mg 24.39500 -4.98900 46.42700
C  26.64700 -2.57100 44.99700
C  21.93600 -3.76200 44.45300
C  22.67700 -7.65200 47.24400
C  27.21600 -6.17700 48.41500
N  24.37800 -3.32600 44.91200
C  25.31400 -2.46300 44.50200
C  24.78900 -1.61400 43.38500
C  23.27800 -1.79400 43.53300
C  23.19300 -3.08600 44.39100
C  22.41400 -0.54200 44.07900
C  25.36400 -2.03900 42.04100
C  26.26000 -1.12100 41.23400
H  26.19400 -1.29900 39.71800
N  22.49200 -5.60200 45.85000
C  21.55100 -4.99600 45.09000
C  20.37500 -5.69700 45.03300
C  20.52400 -6.79900 45.92300
C  21.91100 -6.73300 46.34700
C  19.20400 -5.13700 44.29800
C  19.41300 -7.75500 46.20100
O  18.42800 -7.80600 45.52600
C  19.61300 -8.77900 47.23900
N  24.96800 -6.76900 47.63700
C  23.97800 -7.65600 47.80500
C  24.39700 -8.71400 48.71900
C  25.84300 -8.26800 49.26300
C  26.07900 -7.00100 48.41600
C  23.41400 -9.33300 49.79000
C  27.02600 -9.33400 49.20800
C  27.68600 -9.69800 50.58500
N  26.50300 -4.50600 46.62400
C  27.48100 -5.06800 47.51200
C  28.72000 -4.33600 47.30900
C  28.44900 -3.36700 46.37500
C  27.10100 -3.50900 45.92500
C  29.98700 -4.60200 47.90100
C  28.93900 -2.17600 45.66400
O  30.09400 -1.68200 45.64200
C  27.87400 -1.75000 44.64300
C  27.59500 -0.28900 44.76200
O  26.76100 0.28600 45.43900
O  28.46400 0.42200 44.04700
C  28.34300 1.86100 43.91800
H  21.23900 -3.26000 43.77900
H  22.19000 -8.60300 47.47100
H  28.01300 -6.38400 49.13100
H  25.01900 -0.58400 43.65700
H  22.81500 -2.07200 42.58600
H  21.89400 -0.80200 45.00100
H  21.69100 -0.25300 43.31600
H  22.90800 0.41000 44.27100
H  24.54200 -2.30200 41.37500
H  25.96500 -2.92200 42.25700
H  27.30800 -1.14400 41.53100
H  25.90900 -0.11300 41.45700
H  18.60400 -5.90300 43.80600
H  19.53000 -4.55400 43.43700
H  18.51200 -4.57200 44.92300
H  18.71000 -9.21100 47.66900
H  20.11900 -8.23600 48.03700
H  20.28000 -9.47800 46.73400
H  24.63100 -9.51400 48.01700
H  25.87800 -7.94400 50.30400
H  23.29500 -10.38100 49.51300
H  22.44600 -8.86300 49.96300
H  23.88200 -9.58100 50.74200
H  27.77700 -8.95500 48.51400
H  26.75400 -10.25200 48.68700
H  27.92400 -10.75900 50.65900
H  26.92500 -9.46600 51.33000
H  28.62900 -9.16900 50.72600
H  30.39300 -3.72800 48.41100
H  30.79000 -4.58700 47.16400
H  30.07100 -5.52000 48.48300
H  28.31600 -1.75900 43.64600
H  28.96900 2.19500 43.09100
H  28.70300 2.43200 44.77400
H  27.28800 2.10400 43.79300

