79

Mg 53.58800 24.71400 45.06500
C  50.74000 26.70800 44.35900
C  51.95700 22.01800 43.57300
C  56.47500 23.39900 44.69800
C  55.16400 27.92000 45.76900
N  51.76700 24.50300 43.83500
C  50.70600 25.40500 43.69300
C  49.53200 24.74700 42.88600
C  49.76500 23.27900 43.42100
C  51.27300 23.23700 43.54500
C  49.00700 22.88500 44.69800
C  49.85800 24.97600 41.37700
C  48.58800 25.41700 40.54100
H  48.32000 24.54900 39.27100
N  54.14800 22.87100 44.40200
C  53.29400 21.85900 43.83200
C  54.13200 20.70700 43.56300
C  55.51200 21.06700 43.78200
C  55.43200 22.48200 44.38400
C  53.54200 19.36100 43.08300
C  56.75500 20.19100 43.57200
O  56.66000 19.07800 43.09400
C  58.14800 20.62700 43.81900
N  55.54800 25.54100 45.03100
C  56.57300 24.71900 44.98600
C  57.90500 25.45600 45.26600
C  57.45300 26.92300 45.60000
C  55.93100 26.79600 45.45900
C  58.74100 24.88200 46.43200
C  58.16100 28.08500 44.82000
C  59.01100 29.14800 45.59700
N  53.00200 26.72300 45.47700
C  53.75400 27.83000 45.78200
C  52.84800 28.91300 46.01900
C  51.64500 28.55000 45.46200
C  51.81900 27.24000 45.10600
C  53.31400 30.23900 46.58600
C  50.29800 28.96900 45.16100
O  49.81000 30.04400 45.37300
C  49.68300 27.77200 44.36100
C  49.33800 28.38600 43.06500
O  50.19300 28.61800 42.19700
O  48.02300 28.72600 43.16000
C  47.56900 29.46300 41.97700
H  51.32800 21.15300 43.35000
H  57.40300 22.82700 44.74400
H  55.73300 28.83500 45.94800
H  48.58600 25.21100 43.16400
H  49.43200 22.67400 42.57700
H  49.79800 22.71500 45.42800
H  48.54800 21.91600 44.50500
H  48.37600 23.70900 45.03200
H  50.22300 23.99000 41.08900
H  50.60600 25.76200 41.27700
H  48.82100 26.40000 40.13300
H  47.64300 25.46800 41.08200
H  53.64300 19.18400 42.01300
H  52.52000 19.43900 43.45500
H  53.91500 18.53000 43.68100
H  58.31800 21.43100 43.10400
H  58.93100 19.87300 43.73600
H  58.05700 21.00100 44.83900
H  58.43500 25.36900 44.31800
H  57.69400 27.11000 46.64600
H  58.13400 24.07600 46.84500
H  59.03200 25.63700 47.16200
H  59.72700 24.58100 46.07900
H  57.36400 28.65300 44.33900
H  58.74000 27.63000 44.01600
H  60.05600 28.84400 45.53200
H  58.83100 29.24600 46.66800
H  58.77900 30.12100 45.16400
H  52.46500 30.62700 47.14800
H  53.56800 31.08500 45.94600
H  54.08800 29.89500 47.27100
H  48.79100 27.28900 44.76000
H  46.58800 29.89200 42.18000
H  47.54600 28.65600 41.24400
H  48.18600 30.33200 41.75000

