79

Mg 35.72900 0.73300 29.29600
C  33.31600 2.23700 31.49400
C  37.97500 0.87800 31.87200
C  38.14800 -0.06100 27.18300
C  33.55900 1.17800 26.59700
N  35.66800 1.64700 31.39400
C  34.56700 1.98300 32.13000
C  34.92600 2.32100 33.57000
C  36.53500 2.18500 33.56300
C  36.77100 1.58000 32.15400
C  37.40000 3.56100 33.82800
C  34.20500 1.37700 34.56300
C  33.90300 2.04900 35.90000
H  34.81400 3.17200 36.38700
N  37.77100 0.31500 29.51900
C  38.50600 0.28800 30.67500
C  39.82200 -0.21000 30.45200
C  39.78700 -0.58900 29.05800
C  38.51900 -0.11900 28.53500
C  40.84200 -0.31200 31.50400
C  40.86700 -1.27300 28.29500
O  40.76600 -1.60600 27.12000
C  42.04900 -1.65800 29.06000
N  35.77500 0.42000 27.17600
C  36.94500 0.19900 26.57300
C  36.77300 0.27800 25.00900
C  35.24800 0.70800 24.86600
C  34.79000 0.69400 26.27800
C  37.63500 1.14300 24.08100
C  34.31500 -0.15700 23.94200
C  33.32400 0.54800 22.97700
N  33.75400 1.42700 29.10100
C  33.03100 1.54200 27.92600
C  31.69400 2.14500 28.31600
C  31.77500 2.45500 29.70600
C  33.02000 2.04800 30.12300
C  30.50400 2.27900 27.34000
C  31.10200 3.10300 30.84400
O  29.93600 3.56700 30.91800
C  32.09500 2.94200 32.05100
C  32.30400 4.23100 32.77000
O  32.73500 5.24200 32.30500
O  31.80800 4.10200 34.05700
C  31.75900 5.34000 34.86000
H  38.73900 0.82100 32.65000
H  38.85000 -0.30800 26.38300
H  33.05200 1.51500 25.69000
H  34.60100 3.33600 33.79900
H  36.99600 1.47400 34.24900
H  38.35100 3.23600 34.25000
H  36.83000 4.18600 34.51600
H  37.61600 4.04500 32.87600
H  34.93100 0.57400 34.69100
H  33.32200 0.93300 34.10200
H  33.92200 1.31000 36.70100
H  32.89600 2.42000 36.09100
H  41.22000 -1.31800 31.68700
H  40.48200 -0.18400 32.52500
H  41.64900 0.38600 31.27800
H  42.65300 -2.31200 28.43100
H  41.88400 -2.24700 29.96200
H  42.70200 -0.82100 29.30300
H  36.88400 -0.73600 24.62600
H  35.16400 1.74300 24.53300
H  37.19600 2.12300 23.89400
H  37.66200 0.58600 23.14500
H  38.62500 1.22300 24.53000
H  33.80500 -0.89000 24.56600
H  34.93500 -0.75900 23.27700
H  33.41900 1.63300 23.03000
H  32.28600 0.25200 23.12500
H  33.61400 0.31900 21.95100
H  29.70100 2.75200 27.90700
H  30.23700 1.31900 26.90100
H  30.92000 2.87000 26.52400
H  31.64700 2.30500 32.81400
H  30.75200 5.75600 34.82200
H  32.57200 5.99700 34.54900
H  31.98700 4.99500 35.86800

