79

Mg -12.76100 16.11800 41.87700
C  -9.72300 14.41100 41.49500
C  -11.19500 18.93200 40.65300
C  -15.74000 17.42700 41.48300
C  -14.22700 13.00100 42.68500
N  -10.76000 16.54900 41.02700
C  -9.68800 15.70300 41.03200
C  -8.39600 16.45000 40.57500
C  -8.81000 18.00800 40.71600
C  -10.35800 17.85900 40.82600
C  -8.16100 18.70200 41.92600
C  -7.85200 16.20400 39.08200
C  -6.33500 16.18200 39.00900
H  -5.77100 16.92200 37.80400
N  -13.45600 17.98100 41.06600
C  -12.64100 19.06100 40.77000
C  -13.43300 20.24900 40.53100
C  -14.79700 19.80200 40.67900
C  -14.75400 18.33500 41.12500
C  -12.88200 21.63800 40.05900
C  -16.06300 20.71100 40.62000
O  -16.07100 21.92000 40.25100
C  -17.42200 20.10000 40.88000
N  -14.64100 15.28600 42.04500
C  -15.68300 16.10300 41.95500
C  -16.97800 15.45100 42.29900
C  -16.50500 13.99300 42.61900
C  -15.05500 14.03300 42.41300
C  -17.70900 16.08300 43.46000
C  -17.21800 12.83600 41.70500
C  -17.95300 11.83700 42.57900
N  -12.12900 14.12600 42.14800
C  -12.83000 12.95000 42.47700
C  -11.90700 11.87800 42.68400
C  -10.65700 12.41600 42.35600
C  -10.85600 13.72000 41.95400
C  -12.12700 10.51900 43.22000
C  -9.24100 12.15200 42.28000
O  -8.56500 11.15300 42.50700
C  -8.56700 13.44200 41.66000
C  -7.44300 13.89300 42.56200
O  -7.59500 14.45400 43.65600
O  -6.27200 13.88000 41.82900
C  -5.12600 14.53500 42.45900
H  -10.72400 19.85400 40.30400
H  -16.76900 17.79100 41.44400
H  -14.75700 12.09100 42.97200
H  -7.60900 16.11700 41.25200
H  -8.60000 18.67400 39.87900
H  -8.66900 18.62900 42.88800
H  -8.04100 19.74700 41.64200
H  -7.18000 18.23300 41.99700
H  -8.30400 16.90700 38.38200
H  -8.20500 15.21400 38.79400
H  -6.07000 15.12500 39.03200
H  -5.83500 16.52300 39.91500
H  -13.42400 21.86700 39.14200
H  -11.80600 21.66800 39.88700
H  -13.18300 22.43200 40.74200
H  -18.15400 20.88800 40.70300
H  -17.38100 19.85100 41.94000
H  -17.72200 19.31000 40.19200
H  -17.71700 15.47000 41.49900
H  -16.62000 13.67800 43.65600
H  -17.27700 15.87200 44.43900
H  -18.78500 15.92800 43.39000
H  -17.47100 17.13800 43.59600
H  -16.40000 12.26400 41.26700
H  -17.79000 13.27200 40.88700
H  -18.90100 11.62600 42.08400
H  -18.24600 12.25700 43.54000
H  -17.42600 10.88900 42.69300
H  -12.29700 10.50100 44.29600
H  -11.24700 9.89100 43.07900
H  -13.00200 10.03900 42.78100
H  -8.14800 13.17800 40.68900
H  -5.17100 15.61600 42.32900
H  -4.20700 14.15800 42.00900
H  -4.91500 14.28200 43.49800

