79

Mg 26.96900 51.55300 25.81200
C  25.05500 52.62400 28.46100
C  29.21900 50.17600 28.08700
C  28.55400 49.98400 23.31400
C  24.87400 53.07500 23.62000
N  27.03500 51.34300 28.01200
C  26.12100 51.85300 28.89500
C  26.44000 51.41000 30.28900
C  27.86600 50.89700 30.15800
C  28.06800 50.81300 28.65100
C  28.91300 51.79600 30.73400
C  25.31100 50.38000 30.77400
C  24.62500 50.63600 32.15400
H  25.57000 50.99900 33.29700
N  28.69800 50.29400 25.68800
C  29.50900 49.90100 26.73800
C  30.60400 49.09100 26.27200
C  30.38100 48.98400 24.82400
C  29.18000 49.79200 24.54900
C  31.72900 48.60700 27.21100
C  31.14600 48.23000 23.80800
O  30.82000 48.21000 22.63500
C  32.32900 47.40200 24.21000
N  26.89600 51.68900 23.72500
C  27.57500 50.88600 22.90500
C  27.13200 51.06100 21.43500
C  25.78800 51.82100 21.62700
C  25.87300 52.24700 23.04700
C  28.22600 51.95900 20.69900
C  24.56000 50.91600 21.45300
C  23.56600 51.46200 20.39000
N  25.38300 52.71200 25.93700
C  24.58700 53.33000 25.00200
C  23.42900 54.06000 25.60000
C  23.64800 53.78300 26.96600
C  24.81200 52.96800 27.12100
C  22.31700 54.71700 24.89300
C  23.02200 54.02200 28.20400
O  22.06500 54.72200 28.47800
C  23.91700 53.34300 29.26300
C  24.49000 54.30000 30.16900
O  25.20400 55.25600 29.84800
O  23.90400 54.19700 31.39100
C  24.50300 55.05400 32.42400
H  29.82700 49.79000 28.90900
H  28.93300 49.49000 22.41700
H  24.13700 53.45800 22.91200
H  26.39900 52.29700 30.92200
H  27.96400 49.86400 30.49300
H  29.56500 52.19000 29.95500
H  29.43500 51.18000 31.46700
H  28.47300 52.60600 31.31600
H  25.75300 49.38400 30.74100
H  24.53600 50.38100 30.00800
H  24.07800 49.74100 32.45300
H  23.85400 51.38400 31.97100
H  32.12900 47.59400 27.23100
H  31.59000 48.79200 28.27600
H  32.52100 49.35400 27.15400
H  32.14000 46.73700 25.05300
H  33.04000 48.18400 24.47400
H  32.75900 46.82800 23.38900
H  27.14200 50.08000 20.96000
H  25.63100 52.67400 20.96700
H  28.95800 52.17700 21.47700
H  27.92200 52.97300 20.44100
H  28.58500 51.48000 19.78800
H  24.00300 50.89300 22.38900
H  24.92700 49.94700 21.11400
H  23.60000 50.84600 19.49100
H  23.75100 52.51700 20.18900
H  22.61500 51.43200 20.92100
H  21.34000 54.28200 25.10200
H  22.42300 54.92900 23.82900
H  22.14500 55.70100 25.32900
H  23.35900 52.64300 29.88400
H  25.24900 54.44900 32.93700
H  23.71900 55.02800 33.18100
H  24.76300 56.07100 32.12900

