79

Mg 46.86400 24.59900 28.45100
C  47.87100 26.76700 31.10100
C  46.00300 22.25600 30.78700
C  46.13000 22.57800 25.87600
C  48.22200 26.85600 26.18000
N  46.92400 24.53500 30.77600
C  47.21500 25.57200 31.57900
C  46.75800 25.27800 32.99900
C  46.25400 23.76300 32.93200
C  46.44900 23.41700 31.41900
C  46.91800 22.77200 33.89000
C  45.81600 26.34600 33.65500
C  45.97300 26.89100 35.13100
H  46.27600 25.89900 36.27000
N  46.09000 22.72700 28.32200
C  45.86900 21.90100 29.42000
C  45.48100 20.59800 28.90600
C  45.32600 20.73200 27.45500
C  45.87900 22.08200 27.13200
C  45.27200 19.41500 29.79300
C  44.89800 19.61600 26.49900
O  44.98100 19.71800 25.28500
C  44.24300 18.46500 27.04700
N  47.14900 24.77100 26.29000
C  46.78300 23.73200 25.43200
C  47.18900 24.02500 23.97800
C  47.56000 25.56800 24.10100
C  47.72800 25.76400 25.60000
C  48.39700 23.22700 23.51300
C  46.43400 26.43400 23.54600
C  45.04200 26.17500 24.05600
N  47.86400 26.42300 28.49400
C  48.37400 27.21500 27.49900
C  48.97100 28.39500 28.06300
C  48.78300 28.31600 29.46400
C  48.14600 27.04500 29.68700
C  49.52800 29.50900 27.21400
C  48.86800 29.01600 30.69200
O  49.36000 30.07000 30.96100
C  48.23700 28.03600 31.78700
C  49.37800 27.84400 32.76400
O  50.37300 27.20500 32.68700
O  49.11400 28.58400 33.85300
C  49.77600 28.41900 35.14600
H  45.64400 21.48300 31.46800
H  45.87600 21.93300 25.03300
H  48.73100 27.43800 25.40900
H  47.70900 25.34200 33.52800
H  45.19300 23.87600 33.15500
H  46.06000 22.51000 34.50900
H  47.81000 23.01300 34.46700
H  47.09700 21.82700 33.37600
H  44.79900 25.99200 33.48100
H  45.92600 27.19000 32.97400
H  44.98700 27.32700 35.28500
H  46.71900 27.67100 34.97700
H  45.81700 18.62900 29.27000
H  44.24200 19.16800 30.05200
H  45.88800 19.47200 30.69000
H  43.65400 18.75900 27.91600
H  45.01100 17.73700 27.30700
H  43.59700 17.92700 26.35300
H  46.27300 23.91700 23.39800
H  48.49200 25.80500 23.58700
H  48.12200 22.17500 23.58600
H  49.20600 23.56900 24.15800
H  48.56100 23.41800 22.45200
H  46.43000 26.43700 22.45600
H  46.64200 27.44300 23.90200
H  45.02500 25.33400 24.74900
H  44.29600 25.95300 23.29400
H  44.50900 27.00000 24.53100
H  49.81100 29.25800 26.19200
H  50.47700 29.77400 27.68000
H  48.97100 30.44600 27.19100
H  47.52100 28.67200 32.30900
H  50.80900 28.10100 35.00800
H  49.29800 27.60600 35.69400
H  49.71500 29.36400 35.68600

