79

Mg 47.18400 24.39000 28.52200
C  47.95700 26.63400 31.08500
C  46.34700 22.07400 30.79200
C  46.52200 22.36700 25.93800
C  48.49000 26.68700 26.22400
N  47.21200 24.38500 30.76600
C  47.54800 25.37600 31.61300
C  47.18500 24.92400 33.00500
C  46.64700 23.48200 32.86300
C  46.68100 23.31900 31.33700
C  47.39300 22.35400 33.77800
C  46.22100 25.99400 33.77000
C  45.34000 25.44500 34.88700
H  45.10300 26.28300 36.20500
N  46.55100 22.46500 28.42200
C  46.28500 21.59500 29.42100
C  45.94300 20.26900 28.91700
C  45.93800 20.37100 27.48600
C  46.32200 21.78800 27.21300
C  45.76800 18.99700 29.76900
C  45.64200 19.35600 26.39900
O  45.62700 19.65200 25.23400
C  45.33800 17.98400 26.77800
N  47.55700 24.40700 26.37700
C  47.05900 23.56800 25.55700
C  47.09000 23.98700 24.04600
C  47.82700 25.34100 24.15400
C  48.08200 25.46300 25.67400
C  47.64400 22.90500 23.06100
C  47.05300 26.61800 23.62800
C  47.79900 27.75700 22.92200
N  48.15900 26.22600 28.54100
C  48.56000 27.05200 27.54000
C  49.13200 28.33000 28.11200
C  48.84800 28.16500 29.48300
C  48.33200 26.87600 29.71300
C  49.61500 29.54800 27.37600
C  48.97500 28.74700 30.77400
O  49.53900 29.78500 31.04000
C  48.38300 27.82100 31.89500
C  49.31000 27.47900 33.08400
O  50.16900 26.65300 33.00900
O  48.99700 28.11400 34.26100
C  49.58800 27.93300 35.58600
H  45.95300 21.42900 31.57900
H  46.12200 21.82800 25.07700
H  48.70400 27.50600 25.53300
H  48.11800 24.84900 33.56400
H  45.61400 23.43000 33.20500
H  47.93600 21.58700 33.22500
H  46.63000 21.89000 34.40300
H  48.09900 22.94900 34.35800
H  45.55800 26.43500 33.02500
H  46.99500 26.61400 34.22300
H  45.73000 24.48100 35.21600
H  44.34100 25.35600 34.46000
H  46.49300 18.23700 29.47900
H  44.74600 18.67200 29.57700
H  45.83700 19.02000 30.85600
H  44.57700 17.96500 27.55700
H  46.24700 17.42800 27.00800
H  44.80700 17.49700 25.95900
H  46.06700 24.30800 23.84700
H  48.80700 25.33300 23.67700
H  47.80700 21.93800 23.53700
H  48.57700 23.15500 22.55600
H  46.89200 22.67900 22.30500
H  46.47100 26.99800 24.46800
H  46.24400 26.39500 22.93300
H  47.59700 27.70600 21.85200
H  48.87600 27.71300 23.09000
H  47.49300 28.78800 23.09700
H  49.63400 29.54200 26.28600
H  50.63100 29.74600 27.71700
H  48.97300 30.39100 27.63000
H  47.51700 28.33700 32.30800
H  48.86200 27.58100 36.31800
H  49.97900 28.85600 36.01500
H  50.35000 27.15300 35.56900

