79

Mg -1.85600 17.49800 27.32700
C  -2.34500 15.54900 30.09600
C  -2.86100 20.29900 29.14100
C  -1.33600 19.39600 24.44500
C  -1.64900 14.63200 25.38000
N  -2.36600 17.89400 29.49500
C  -2.47300 16.91300 30.47200
C  -2.69400 17.61100 31.85700
C  -3.27000 18.99900 31.42300
C  -2.78200 19.14400 29.90700
C  -4.75200 19.23500 31.43900
C  -1.45300 17.55900 32.77400
C  -1.80600 17.40700 34.31900
H  -0.71000 17.72900 35.32800
N  -1.88300 19.59100 26.95000
C  -2.39100 20.55500 27.83700
C  -2.29800 21.84100 27.18700
C  -1.76200 21.59500 25.85100
C  -1.62000 20.13400 25.68900
C  -2.64100 23.17600 27.83800
C  -1.38800 22.62000 24.82500
O  -1.02000 22.29800 23.71700
C  -1.51300 24.07000 25.12500
N  -1.56300 17.04700 25.17000
C  -1.34800 18.04400 24.16300
C  -1.07300 17.37600 22.76900
C  -0.99800 15.88200 23.20400
C  -1.42400 15.78500 24.65500
C  -2.23300 17.68100 21.79300
C  0.47600 15.23400 23.04200
C  1.49400 16.06200 23.85600
N  -2.05400 15.46100 27.54900
C  -2.01700 14.40600 26.70800
C  -2.21300 13.16200 27.42500
C  -2.31600 13.57100 28.81000
C  -2.22700 14.96200 28.81500
C  -2.27500 11.79100 26.74000
C  -2.49900 13.09500 30.13200
O  -2.58700 11.94900 30.56900
C  -2.42700 14.36900 31.05800
C  -1.19400 14.16600 31.79200
O  -0.02000 14.17400 31.41700
O  -1.52500 14.07600 33.12800
C  -0.42800 13.87000 34.06800
H  -3.21300 21.15500 29.72000
H  -1.13100 20.02100 23.57400
H  -1.51900 13.76400 24.73100
H  -3.40500 16.93000 32.32500
H  -2.85200 19.85400 31.95500
H  -5.22400 18.26600 31.27500
H  -5.18300 19.81000 30.61900
H  -5.06800 19.78700 32.32400
H  -0.81300 18.42900 32.62500
H  -0.79700 16.71000 32.58300
H  -2.12300 16.42400 34.66700
H  -2.67500 18.03700 34.51000
H  -1.73700 23.78400 27.83600
H  -2.80900 23.07000 28.91000
H  -3.57100 23.66700 27.55000
H  -1.66800 24.52400 24.14600
H  -0.62300 24.42700 25.64400
H  -2.35800 24.38900 25.73600
H  -0.16600 17.67900 22.24500
H  -1.67500 15.32600 22.55500
H  -3.15000 17.43200 22.32600
H  -2.11100 17.22100 20.81300
H  -2.28100 18.76500 21.68600
H  0.80600 15.17600 22.00500
H  0.41600 14.20000 23.38100
H  2.17900 15.32100 24.26600
H  1.10300 16.80000 24.55700
H  2.14100 16.61500 23.17500
H  -2.01700 11.82400 25.68200
H  -3.28100 11.37600 26.80300
H  -1.62900 11.08300 27.25900
H  -3.30400 14.51200 31.69000
H  -0.64600 14.35200 35.02100
H  0.54200 14.25400 33.75100
H  -0.35600 12.78800 34.17700

