79

Mg 8.96300 3.18700 27.20500
C  10.17700 1.65300 30.08300
C  7.29800 5.42900 29.22600
C  7.77700 4.52600 24.43900
C  10.56300 0.69600 25.34500
N  8.67200 3.40200 29.51300
C  9.31800 2.73000 30.49700
C  9.05000 3.34600 31.90300
C  8.02700 4.49300 31.54800
C  7.98700 4.43300 30.01300
C  6.69500 4.51100 32.20300
C  10.44600 3.79900 32.50300
C  10.54700 4.58800 33.81800
H  11.22100 4.00200 35.03600
N  7.80800 4.82100 26.82700
C  7.14900 5.58300 27.80200
C  6.42500 6.56200 27.11600
C  6.62200 6.32500 25.73600
C  7.45900 5.20000 25.59000
C  5.80000 7.72600 27.77000
C  6.02700 7.20200 24.61400
O  6.20500 7.00400 23.42200
C  4.86600 8.16300 24.93700
N  9.21100 2.69400 25.15100
C  8.58300 3.41200 24.15000
C  8.74000 2.79800 22.74000
C  9.72700 1.63000 23.10100
C  9.84400 1.63900 24.62800
C  7.44000 2.22200 22.05600
C  11.11500 1.93100 22.51500
C  11.37100 1.70700 20.95400
N  10.00200 1.39300 27.59700
C  10.66500 0.53600 26.74800
C  11.40100 -0.40400 27.50700
C  11.12100 -0.08600 28.85800
C  10.31900 1.09300 28.85600
C  12.24200 -1.58400 27.03900
C  11.37100 -0.50200 30.16500
O  12.08700 -1.41800 30.59100
C  10.86700 0.68100 31.07100
C  10.03400 0.08500 32.12500
O  8.96600 -0.38900 32.08200
O  10.82300 0.06900 33.20600
C  10.07000 0.17500 34.44500
H  6.75300 6.20000 29.77500
H  7.29400 5.06100 23.61800
H  11.10000 -0.02000 24.71900
H  8.58500 2.51300 32.43000
H  8.49800 5.44600 31.79000
H  5.99000 5.03700 31.55900
H  6.79400 5.10400 33.11200
H  6.33400 3.56400 32.60400
H  10.86500 4.31200 31.63800
H  10.96300 2.84800 32.63700
H  9.52300 4.70800 34.17000
H  10.95000 5.58000 33.61600
H  6.26200 7.86700 28.74700
H  4.75900 7.45200 27.93900
H  5.93300 8.67200 27.24400
H  4.40200 8.32600 23.96500
H  5.50400 9.01700 25.16400
H  4.21500 7.87200 25.76200
H  9.17700 3.59100 22.13300
H  9.42200 0.65300 22.72500
H  7.25500 2.75600 21.12400
H  6.62300 2.29000 22.77400
H  7.51100 1.15200 21.86400
H  11.83200 1.37600 23.12100
H  11.35100 2.97200 22.73800
H  11.61300 2.62300 20.41500
H  10.51000 1.43000 20.34400
H  12.15300 0.97900 20.73800
H  13.04900 -1.86600 27.71600
H  12.56100 -1.25200 26.05100
H  11.53700 -2.41400 27.02400
H  11.75100 1.16000 31.49200
H  9.70100 1.20100 34.46300
H  10.62500 0.09400 35.38000
H  9.17800 -0.44700 34.52400

