79

Mg 56.22900 25.74700 45.37300
C  53.15500 27.06800 44.10100
C  55.28200 22.69300 44.07200
C  59.28600 24.87900 45.57500
C  57.07800 29.12200 46.19900
N  54.41300 24.97400 44.23100
C  53.25800 25.67000 43.90300
C  52.14800 24.68600 43.37600
C  52.78900 23.29000 43.56300
C  54.26000 23.66600 43.99500
C  52.17000 22.38600 44.72200
C  51.75300 24.98200 41.86900
C  50.25300 24.88300 41.51800
H  50.06500 24.11400 40.17500
N  57.12500 23.97300 45.05200
C  56.59700 22.82000 44.55000
C  57.64400 21.75500 44.53600
C  58.79900 22.40600 44.99000
C  58.48300 23.76400 45.26100
C  57.45100 20.35600 43.88500
C  60.08600 21.62500 45.11300
O  60.18300 20.43900 44.70200
C  61.31500 22.19400 45.80100
N  57.98500 26.83100 45.83300
C  59.11300 26.21200 45.81000
C  60.26700 27.12200 46.15200
C  59.58100 28.42200 46.56200
C  58.05900 28.15400 46.18900
C  61.32700 26.53900 47.13300
C  60.03300 29.69100 45.76500
C  60.27400 30.90700 46.63300
N  55.41900 27.66100 45.15900
C  55.79800 28.90200 45.68900
C  54.66600 29.84000 45.80300
C  53.63700 29.17400 45.08400
C  54.09000 27.88200 44.76700
C  54.64300 31.20000 46.34500
C  52.28200 29.30900 44.60600
O  51.58300 30.32300 44.65500
C  52.07500 28.04700 43.78100
C  52.02700 28.41200 42.33500
O  52.96200 28.40500 41.55800
O  50.74800 28.72300 42.05200
C  50.31800 28.78200 40.63000
H  55.09300 21.65700 43.78600
H  60.34100 24.63900 45.71800
H  57.29400 30.13600 46.54200
H  51.28100 24.84300 44.01700
H  52.88700 22.68000 42.66400
H  51.34600 22.79700 45.30600
H  52.89600 22.25200 45.52500
H  51.91800 21.42700 44.26900
H  52.39600 24.32700 41.28200
H  52.14300 25.95700 41.57600
H  49.68100 25.80800 41.45500
H  49.87600 24.33500 42.38200
H  58.31000 20.24100 43.22400
H  56.49300 20.23900 43.37900
H  57.38700 19.68800 44.74400
H  61.81900 22.91600 45.15900
H  62.09200 21.45900 46.01500
H  60.82900 22.57000 46.70100
H  60.69000 27.22600 45.15300
H  59.67000 28.54900 47.64100
H  61.67600 27.34700 47.77600
H  62.21300 26.13700 46.64200
H  60.82100 25.79400 47.74700
H  59.28800 30.04000 45.05100
H  60.91100 29.41200 45.18300
H  59.88200 30.88300 47.64900
H  59.78400 31.70800 46.08000
H  61.35000 31.08000 46.61900
H  55.15300 31.95900 45.75200
H  55.17200 31.20900 47.29800
H  53.59300 31.48400 46.42500
H  51.09400 27.66200 44.05700
H  51.10800 29.11900 39.95800
H  49.55900 29.55500 40.50800
H  49.89300 27.80400 40.40600

