79

Mg 24.56800 -5.77300 46.14300
C  26.67200 -3.64400 44.54400
C  22.02900 -4.64500 44.20800
C  22.79500 -8.60700 46.98600
C  27.35900 -7.14200 47.95100
N  24.43400 -4.20500 44.56600
C  25.41800 -3.47600 44.06000
C  24.91600 -2.44600 43.05700
C  23.30700 -2.67100 43.15800
C  23.24600 -3.95000 44.02200
C  22.46800 -1.50200 43.67100
C  25.56300 -2.61500 41.67000
C  25.70900 -1.28600 40.92900
H  25.10800 -1.21800 39.44800
N  22.59400 -6.47800 45.71900
C  21.69200 -5.83400 44.87600
C  20.51300 -6.63100 44.78600
C  20.73700 -7.82000 45.53300
C  22.08300 -7.73900 46.09900
C  19.30100 -6.27300 43.96800
C  19.68300 -8.90600 45.72800
O  18.64900 -8.84700 45.10000
C  19.86100 -10.05900 46.64900
N  24.96400 -7.62400 47.24700
C  24.12200 -8.61700 47.47600
C  24.69700 -9.75000 48.37300
C  26.10200 -9.20200 48.75000
C  26.17400 -7.89300 47.86100
C  23.78000 -10.02000 49.58800
C  27.39800 -10.11900 48.70200
C  28.14800 -10.20200 49.95200
N  26.61400 -5.36700 46.32800
C  27.61100 -5.95800 47.16700
C  28.83700 -5.25500 46.96900
C  28.57700 -4.30700 45.88000
C  27.15400 -4.50900 45.51800
C  30.13100 -5.54200 47.71800
C  29.16200 -3.28600 45.02000
O  30.27600 -2.76100 45.14600
C  27.96300 -2.85900 44.06200
C  27.85800 -1.35200 44.24500
O  27.23700 -0.70300 45.07600
O  28.81800 -0.82900 43.37200
C  28.68900 0.68500 43.18100
H  21.16600 -4.19700 43.71100
H  22.27800 -9.49700 47.35200
H  28.17300 -7.60400 48.51300
H  25.29800 -1.49600 43.43000
H  22.84100 -2.83100 42.18600
H  21.89000 -1.19600 42.79900
H  23.08500 -0.75700 44.17300
H  21.72500 -1.87000 44.37800
H  24.79900 -3.07900 41.04500
H  26.41400 -3.29600 41.69900
H  26.75900 -0.99400 40.91800
H  25.08200 -0.53800 41.41400
H  19.05700 -7.06100 43.25600
H  19.37900 -5.28600 43.51300
H  18.35400 -6.16600 44.49700
H  19.81900 -9.80000 47.70700
H  20.76600 -10.60100 46.37300
H  18.94500 -10.61200 46.44300
H  24.79100 -10.72700 47.89800
H  26.07300 -8.74400 49.73900
H  24.25600 -9.64200 50.49300
H  23.65900 -11.10300 49.59100
H  22.89700 -9.41700 49.37500
H  28.07100 -9.78400 47.91200
H  27.06600 -11.07800 48.30500
H  29.07300 -9.66900 49.73500
H  28.22400 -11.24900 50.24400
H  27.62300 -9.68800 50.75700
H  30.83200 -4.73400 47.50700
H  30.52800 -6.46100 47.28800
H  29.91000 -5.61300 48.78300
H  28.17000 -2.94000 42.99500
H  27.60900 0.82300 43.13100
H  28.96300 1.02600 42.18200
H  29.04100 1.26300 44.03500

