79

Mg 1.63600 -1.10200 43.72500
C  4.87100 -0.28600 43.13100
C  0.71600 1.89900 42.26400
C  -1.57000 -2.29100 43.45300
C  2.59900 -4.26400 44.69000
N  2.71900 0.66900 42.79700
C  4.04600 0.75400 42.63800
C  4.50200 2.03400 41.83200
C  3.12200 2.76500 41.61600
C  2.09600 1.74400 42.25000
C  3.01200 4.24200 42.12500
C  5.30300 1.79300 40.52200
C  6.54100 2.67600 40.22000
H  6.87800 3.28100 38.88300
N  -0.17900 -0.21700 43.15000
C  -0.35500 1.04700 42.59500
C  -1.75200 1.32900 42.47800
C  -2.39300 0.08000 42.79700
C  -1.40300 -0.87600 43.20600
C  -2.29400 2.72500 42.14900
C  -3.94900 -0.05200 42.74900
O  -4.65300 0.89400 42.55900
C  -4.56700 -1.42600 42.81200
N  0.65500 -3.09400 43.98100
C  -0.66000 -3.30200 43.83400
C  -1.10200 -4.78400 44.09600
C  0.19600 -5.23100 44.74100
C  1.21900 -4.18500 44.44100
C  -2.44200 -5.01900 44.85300
C  0.81300 -6.66600 44.45800
C  -0.19200 -7.78300 44.18100
N  3.37800 -2.10200 43.97500
C  3.64700 -3.32400 44.44900
C  4.99400 -3.54600 44.75600
C  5.58600 -2.28700 44.25600
C  4.49400 -1.54800 43.69300
C  5.69000 -4.68000 45.36600
C  6.80800 -1.49600 43.94400
O  7.98200 -1.78500 44.12500
C  6.37300 -0.12900 43.20500
C  6.81900 1.07300 43.99700
O  6.24400 1.51800 44.99800
O  7.89200 1.69300 43.37700
C  8.47300 2.96600 43.88500
H  0.49900 2.88400 41.84700
H  -2.56200 -2.74300 43.39500
H  2.89600 -5.21200 45.14500
H  5.03700 2.74600 42.46000
H  2.85600 2.83300 40.56100
H  2.74600 4.78900 41.22000
H  3.98900 4.58300 42.46800
H  2.28500 4.25900 42.93700
H  4.63300 1.97100 39.68100
H  5.51000 0.73100 40.39000
H  7.34100 1.99700 40.51500
H  6.41100 3.45400 40.97200
H  -1.47800 3.44500 42.21800
H  -3.13200 3.11600 42.72700
H  -2.71700 2.76500 41.14600
H  -5.60000 -1.56900 42.49500
H  -4.37100 -1.71100 43.84500
H  -4.06500 -2.10000 42.11900
H  -1.15100 -5.11400 43.05800
H  -0.01600 -5.21000 45.81000
H  -2.19100 -5.34600 45.86300
H  -2.99200 -5.70700 44.21100
H  -3.06500 -4.14400 45.03700
H  1.33600 -6.94300 45.37300
H  1.54500 -6.49900 43.66800
H  -0.30000 -7.79800 43.09700
H  -1.11500 -7.73700 44.76000
H  0.23000 -8.75200 44.44500
H  4.98000 -5.42400 45.72800
H  6.33200 -4.41000 46.20500
H  6.24900 -5.13100 44.54600
H  6.81300 0.04200 42.22300
H  7.71200 3.69700 44.16000
H  9.17300 3.53800 43.27600
H  9.00900 2.81300 44.82200

