79

Mg -2.00100 17.17100 25.80300
C  -2.70700 14.72500 28.49800
C  -2.28800 19.56400 28.12900
C  -1.96400 19.11100 23.29700
C  -2.66800 14.35700 23.61600
N  -2.49100 17.11600 28.10200
C  -2.51500 16.06900 28.96600
C  -2.50900 16.47000 30.39200
C  -2.68300 18.05500 30.26000
C  -2.48300 18.29700 28.74100
C  -4.10500 18.61100 30.64100
C  -1.23200 16.19100 31.31700
C  -0.91100 17.08600 32.48800
H  -0.61600 16.43400 33.82700
N  -2.03700 19.05600 25.73100
C  -2.18600 19.97600 26.72600
C  -2.30200 21.31400 26.27400
C  -2.21300 21.16500 24.85000
C  -2.05900 19.71600 24.57600
C  -2.59300 22.59600 27.18000
C  -2.23900 22.27900 23.76500
O  -2.12700 22.07400 22.55700
C  -2.30100 23.69700 24.24400
N  -2.40400 16.78900 23.73800
C  -2.09200 17.80200 22.91300
C  -2.06200 17.37300 21.38700
C  -2.48400 15.85800 21.49500
C  -2.42000 15.59700 23.03800
C  -3.04700 18.25300 20.65900
C  -1.52500 14.81000 20.67600
C  -2.17400 13.68300 19.81800
N  -2.46800 14.98100 25.97800
C  -2.70400 14.05300 24.97500
C  -2.92300 12.74000 25.52300
C  -2.90700 12.95700 26.95600
C  -2.73000 14.36700 27.11300
C  -2.96100 11.31700 24.83600
C  -2.90200 12.31500 28.19000
O  -3.06500 11.13500 28.48700
C  -3.05000 13.41300 29.26000
C  -2.08200 13.09100 30.33500
O  -0.91000 13.30100 30.21500
O  -2.69700 12.40200 31.35800
C  -1.79600 11.95400 32.37400
H  -2.10000 20.37300 28.83800
H  -1.96600 19.82000 22.46700
H  -2.76600 13.52500 22.91600
H  -3.37300 16.12400 30.95900
H  -1.94600 18.69300 30.74800
H  -4.52000 19.26700 29.87600
H  -4.10000 19.15300 31.58700
H  -4.72300 17.72000 30.74900
H  -0.31400 16.13700 30.73000
H  -1.31000 15.20300 31.77100
H  -1.83000 17.64400 32.66800
H  -0.19100 17.85800 32.21500
H  -1.98100 23.45000 26.88900
H  -2.43400 22.42000 28.24400
H  -3.63900 22.87300 27.04700
H  -2.52500 24.18100 23.29400
H  -1.35000 24.03800 24.65300
H  -3.06300 23.94100 24.98500
H  -1.02400 17.53200 21.09400
H  -3.45000 15.66500 21.02900
H  -3.99200 18.28700 21.20000
H  -3.18800 17.66400 19.75300
H  -2.64300 19.25300 20.50100
H  -0.99800 14.23600 21.43800
H  -0.86000 15.40500 20.05100
H  -2.11800 12.68600 20.25600
H  -1.85600 13.57500 18.78100
H  -3.25000 13.84800 19.85200
H  -3.12600 11.31100 23.75800
H  -3.74100 10.76500 25.36000
H  -2.00300 10.80000 24.89200
H  -4.05400 13.41700 29.68300
H  -0.87900 11.49100 32.00900
H  -2.27100 11.17400 32.96800
H  -1.42600 12.76300 33.00300

