79

Mg 1.65300 41.02100 25.74500
C  2.74400 41.37600 28.99800
C  -1.30700 39.86700 26.78600
C  1.23200 40.28300 22.47600
C  4.94100 42.23500 24.70800
N  0.70000 40.97400 27.67100
C  1.40900 41.00800 28.88600
C  0.35500 40.86200 30.00800
C  -0.80600 40.09000 29.33900
C  -0.45800 40.27000 27.83000
C  -0.92200 38.60600 29.63500
C  -0.04700 42.24200 30.64900
C  -0.08900 42.33800 32.17400
H  -0.87900 41.18800 32.84200
N  0.19100 40.19800 24.77000
C  -1.03400 39.83800 25.37500
C  -1.94800 39.41700 24.28700
C  -1.20900 39.37100 23.06300
C  0.13500 39.94300 23.39400
C  -3.38400 38.98800 24.66500
C  -1.60900 39.04300 21.62700
O  -0.86700 39.05000 20.68900
C  -3.05100 38.71000 21.36300
N  2.86400 41.38800 23.81500
C  2.44300 40.90600 22.69100
C  3.48300 41.16700 21.55100
C  4.46700 42.06600 22.19200
C  4.08200 41.87300 23.70300
C  4.19600 39.92700 20.85300
C  4.49000 43.56200 21.69700
C  3.16900 44.33100 21.98200
N  3.48500 41.72200 26.65700
C  4.71200 42.06200 26.08900
C  5.62300 42.42400 27.13800
C  4.95600 42.20300 28.37600
C  3.65700 41.77000 27.99400
C  7.05400 42.80000 26.87700
C  4.99900 42.10100 29.77300
O  5.89600 42.32600 30.56100
C  3.53800 41.62200 30.25200
C  3.63000 40.40400 31.13700
O  4.28200 39.32900 30.93700
O  2.91200 40.66100 32.26100
C  2.71800 39.50100 33.06600
H  -2.22600 39.39800 27.14400
H  1.27100 40.00100 21.42200
H  5.88700 42.69500 24.41500
H  0.77900 40.24900 30.80300
H  -1.73000 40.58800 29.63600
H  -0.10100 38.23500 30.24800
H  -0.87800 38.07600 28.68300
H  -1.85000 38.27300 30.10000
H  -0.98600 42.65100 30.27500
H  0.69200 42.98000 30.33800
H  -0.48200 43.32500 32.41500
H  0.93500 42.34500 32.54700
H  -4.08700 38.99000 23.83200
H  -3.81200 39.60600 25.45500
H  -3.45700 37.98900 25.09400
H  -3.66800 39.59900 21.49600
H  -3.46100 37.83800 21.87200
H  -3.19700 38.51100 20.30100
H  2.84400 41.68500 20.83500
H  5.51400 41.76400 22.15500
H  4.27800 39.15200 21.61500
H  5.21100 40.26200 20.63800
H  3.64500 39.53600 19.99700
H  4.51400 43.44700 20.61400
H  5.35400 44.08800 22.10300
H  3.15800 45.10600 21.21500
H  3.31700 44.72400 22.98800
H  2.24300 43.75900 22.02300
H  7.28800 43.56200 27.62000
H  7.28000 43.24300 25.90700
H  7.65400 41.89100 26.84700
H  2.96900 42.37400 30.79900
H  2.47900 38.55500 32.58000
H  1.78600 39.83300 33.52200
H  3.45900 39.38600 33.85700

