79

Mg 36.05700 49.11600 25.17400
C  36.25500 47.27200 28.13600
C  34.85500 51.80100 26.92100
C  35.41600 50.62100 22.13900
C  37.25100 46.30500 23.43300
N  35.61400 49.45200 27.23600
C  35.84500 48.60600 28.30700
C  35.76400 49.31300 29.67900
C  35.27100 50.72300 29.22700
C  35.25000 50.65500 27.66900
C  33.92900 51.18800 29.80400
C  37.14600 49.23300 30.42500
C  37.21000 48.86100 31.92500
H  36.00000 49.09800 32.76800
N  35.21600 50.98700 24.52100
C  34.89200 51.99500 25.42700
C  34.58800 53.13600 24.69800
C  34.79800 52.87600 23.35200
C  35.14800 51.44300 23.24900
C  34.23300 54.47000 25.33800
C  34.69600 53.77300 22.14600
O  34.63900 53.29000 21.01900
C  34.72000 55.32100 22.36300
N  36.22600 48.51700 23.08300
C  35.83100 49.29200 22.08900
C  36.21300 48.62400 20.71300
C  37.06400 47.36500 21.11600
C  36.85300 47.40600 22.66300
C  34.99900 48.18800 19.78300
C  38.54300 47.45400 20.82500
C  39.09200 46.04200 20.41200
N  36.75300 47.21500 25.58000
C  37.17000 46.10600 24.77800
C  37.40900 44.93300 25.59300
C  37.12900 45.42200 26.88300
C  36.70200 46.73100 26.86400
C  37.72700 43.55900 25.13200
C  36.98700 44.90100 28.24100
O  37.24300 43.79800 28.67000
C  36.51900 46.12600 29.07800
C  35.36000 45.77000 30.05100
O  34.21400 45.91100 29.75700
O  35.89400 45.27100 31.22500
C  34.77700 45.10100 32.10700
H  34.67200 52.73800 27.45100
H  35.34400 51.06100 21.14200
H  37.86700 45.57700 22.90100
H  34.96000 48.74700 30.14800
H  36.03000 51.48900 29.38900
H  33.38600 50.34100 30.22400
H  33.32200 51.70600 29.06200
H  34.20000 51.89900 30.58500
H  37.57600 50.23400 30.42000
H  37.87100 48.63600 29.87200
H  38.10100 49.36600 32.29700
H  37.26700 47.77400 31.86200
H  34.86100 55.31400 25.05400
H  34.13100 54.34900 26.41600
H  33.30800 54.68300 24.80100
H  33.80300 55.78300 22.72900
H  34.88200 55.74300 21.37100
H  35.57300 55.42400 23.03300
H  36.86800 49.40700 20.33100
H  36.64900 46.40700 20.80200
H  35.11200 48.65000 18.80200
H  34.14900 48.58600 20.33600
H  34.84700 47.11800 19.64600
H  39.08600 47.79200 21.70800
H  38.76000 48.20200 20.06300
H  39.75300 46.13200 19.55000
H  38.29300 45.37100 20.09700
H  39.71700 45.60300 21.19000
H  37.43000 43.42000 24.09300
H  37.14600 42.86600 25.74100
H  38.79500 43.35700 25.21500
H  37.29100 46.43100 29.78400
H  35.42200 44.92200 32.96700
H  34.11300 44.25600 31.92300
H  34.29100 46.07600 32.06600

