79

Mg 49.57400 46.45100 43.76300
C  46.24600 46.92000 42.68200
C  49.07800 43.03600 42.80700
C  52.85600 45.94300 43.97400
C  49.88100 49.78100 44.35700
N  47.79400 45.15200 42.83600
C  46.58200 45.58400 42.53000
C  45.75700 44.51500 41.82600
C  46.61400 43.26400 42.09100
C  47.93000 43.82700 42.59600
C  46.00000 42.46000 43.26800
C  45.38600 44.85400 40.27100
C  46.45400 44.63700 39.17900
H  45.86500 44.20400 37.82600
N  50.78300 44.73800 43.63400
C  50.36000 43.43600 43.28100
C  51.49500 42.52900 43.27100
C  52.68200 43.37400 43.67000
C  52.11600 44.76700 43.80300
C  51.42800 41.04900 42.90200
C  54.03300 42.88700 43.90600
O  54.29500 41.67400 43.87000
C  55.10200 43.76000 44.39400
N  51.15900 47.70300 44.05200
C  52.46600 47.28200 44.13800
C  53.47300 48.44100 44.40400
C  52.47800 49.65300 44.54600
C  51.06800 49.02900 44.27200
C  54.35900 48.17800 45.70600
C  52.75400 50.81300 43.57300
C  53.33400 52.14100 44.09500
N  48.33500 48.16900 43.64900
C  48.58500 49.41100 43.95900
C  47.39700 50.19700 43.81300
C  46.42200 49.28600 43.32800
C  47.03500 48.02600 43.24100
C  47.07700 51.67800 44.25200
C  45.05300 49.09200 42.92600
O  44.12700 49.83300 43.00100
C  44.91600 47.56600 42.39900
C  43.87600 46.85200 43.13600
O  43.89400 46.67000 44.36400
O  42.90200 46.41300 42.27300
C  41.72000 45.84300 42.93800
H  49.10700 42.01000 42.43200
H  53.94400 45.85100 43.97800
H  50.12300 50.82800 44.55300
H  44.85000 44.58800 42.42600
H  46.65500 42.53600 41.28100
H  45.02200 42.85600 43.54400
H  46.59000 42.53900 44.18100
H  45.74300 41.44400 42.96800
H  45.07400 45.89700 40.20500
H  44.50000 44.23400 40.13300
H  47.23200 43.94300 39.49600
H  47.07900 45.53000 39.18200
H  51.01000 41.03200 41.89600
H  50.71200 40.59200 43.58600
H  52.34600 40.46500 42.83100
H  54.82300 44.31700 45.28900
H  55.65600 44.39500 43.70300
H  55.83200 43.05200 44.78600
H  53.98500 48.63300 43.46100
H  52.52300 50.04100 45.56400
H  54.39300 47.14600 46.05700
H  54.05500 48.83000 46.52400
H  55.37100 48.28100 45.31400
H  51.88000 51.07400 42.97700
H  53.46700 50.53000 42.79800
H  54.41800 52.09300 43.98900
H  53.10400 52.26200 45.15400
H  52.80000 52.95600 43.60700
H  47.18900 52.48000 43.52300
H  47.67500 51.93100 45.12800
H  46.04500 51.72100 44.59800
H  44.78200 47.78800 41.34000
H  41.28100 46.61200 43.57400
H  42.11600 44.96700 43.45100
H  41.03600 45.63800 42.11500

