79

Mg 9.61700 48.24400 25.78300
C  7.19100 48.07500 28.26300
C  11.63900 49.86500 27.95600
C  11.74800 48.34100 23.30400
C  7.01900 47.52100 23.35300
N  9.45000 48.72800 27.90300
C  8.39700 48.53900 28.82200
C  8.78300 48.78200 30.22900
C  10.12700 49.55300 30.05100
C  10.45300 49.41600 28.50800
C  9.95900 51.10500 30.31700
C  8.77700 47.53900 31.15600
C  9.86700 47.20200 32.19400
H  9.37200 46.35000 33.46100
N  11.44900 49.00600 25.65400
C  12.16500 49.60500 26.64300
C  13.50300 49.81600 26.15600
C  13.61300 49.27800 24.81800
C  12.23200 48.86400 24.51400
C  14.70500 50.44100 26.98200
C  14.78100 49.04500 23.86400
O  14.63500 48.45700 22.79400
C  16.14600 49.51100 24.21400
N  9.45100 47.84600 23.64900
C  10.55500 47.87200 22.87500
C  10.20900 47.58200 21.35900
C  8.70400 47.17700 21.38800
C  8.33600 47.58200 22.86300
C  10.43700 48.80700 20.47700
C  8.40200 45.70700 21.16600
C  8.29100 44.71200 22.32600
N  7.50700 47.89800 25.74700
C  6.61100 47.64200 24.72200
C  5.28300 47.49400 25.29400
C  5.46200 47.55900 26.65300
C  6.85600 47.83600 26.86700
C  4.04600 47.26200 24.46700
C  4.74800 47.50400 27.93900
O  3.54600 47.38600 28.27400
C  5.84700 47.91200 29.03200
C  5.90200 46.92500 30.08300
O  6.37000 45.83800 30.02600
O  5.32600 47.46300 31.23700
C  5.17700 46.55000 32.37600
H  12.28900 50.44800 28.61200
H  12.48400 48.42000 22.50200
H  6.23000 47.37000 22.61300
H  8.03800 49.46900 30.63400
H  10.97000 49.25100 30.67200
H  10.07200 51.45600 31.34300
H  8.94400 51.34300 29.99900
H  10.69400 51.72700 29.80700
H  8.64100 46.64500 30.54800
H  7.85500 47.64700 31.72800
H  10.35000 48.08000 32.62200
H  10.72100 46.68900 31.75300
H  15.56900 49.78400 27.08700
H  14.37600 50.56600 28.01300
H  15.05400 51.39600 26.58800
H  16.01800 50.56300 24.46900
H  16.70700 49.41000 23.28500
H  16.37600 48.82800 25.03200
H  10.81300 46.78500 20.92600
H  8.09800 47.84000 20.77000
H  9.69500 48.81200 19.67900
H  11.35700 48.58300 19.93800
H  10.45400 49.75400 21.01700
H  9.10200 45.26600 20.45700
H  7.46400 45.84600 20.62800
H  9.05100 44.98100 23.06000
H  8.45400 43.73900 21.86200
H  7.33300 44.80700 22.83600
H  3.93400 46.20100 24.24600
H  3.99100 47.71500 23.47700
H  3.22800 47.67500 25.05800
H  5.49200 48.85900 29.43900
H  4.10300 46.40300 32.25700
H  5.36000 47.01400 33.34500
H  5.79200 45.66100 32.23700

