79

Mg 1.40100 8.58700 27.02200
C  2.06100 10.66000 29.82600
C  1.66500 5.92000 29.29700
C  1.49100 6.50800 24.49500
C  1.50600 11.34200 24.99800
N  1.76600 8.34900 29.27300
C  1.86800 9.35800 30.21700
C  1.95100 8.80800 31.65900
C  2.19700 7.22800 31.38300
C  1.79600 7.12200 29.90000
C  3.56300 6.61200 31.73300
C  0.69600 8.99200 32.52400
C  0.66000 8.94300 34.04700
H  1.85300 8.33400 34.67700
N  1.36900 6.49900 26.87000
C  1.51500 5.59900 27.90900
C  1.29600 4.25700 27.40300
C  1.24200 4.43100 25.92600
C  1.40000 5.85000 25.74500
C  1.34100 2.98500 28.24000
C  1.03200 3.33500 24.83200
O  0.79200 3.67400 23.69300
C  1.27600 1.87700 25.15200
N  1.40100 8.89200 25.07700
C  1.44400 7.84500 24.19300
C  1.49200 8.41200 22.75900
C  1.03100 9.88700 22.92300
C  1.33600 10.05900 24.42400
C  2.92900 8.23000 22.13200
C  -0.53900 10.15300 22.57500
C  -0.77500 11.15100 21.53300
N  1.65100 10.66900 27.27800
C  1.63300 11.70600 26.35400
C  2.00200 12.93200 27.00300
C  2.11300 12.59100 28.35800
C  1.90500 11.20300 28.46800
C  2.19300 14.17900 26.17700
C  2.38600 13.12500 29.70800
O  2.61700 14.25100 30.04800
C  2.14200 11.84900 30.68000
C  3.20800 11.84300 31.77200
O  4.37600 11.66600 31.55200
O  2.60500 12.21300 32.95600
C  3.52900 12.22800 34.10200
H  1.67300 5.10700 30.02600
H  1.69400 5.92500 23.59500
H  1.55500 12.22200 24.35400
H  2.81400 9.17300 32.21500
H  1.46200 6.59500 31.88100
H  3.46300 5.73900 32.37900
H  4.23400 7.36700 32.14300
H  4.05500 6.21300 30.84700
H  0.01900 8.24400 32.11200
H  0.18700 9.92600 32.28800
H  -0.23000 8.34900 34.25500
H  0.37300 9.91700 34.44200
H  0.74900 2.16700 27.82800
H  0.90200 3.30000 29.18700
H  2.36900 2.67500 28.42400
H  1.54900 1.37000 24.22700
H  0.31100 1.52200 25.51500
H  1.97500 1.75200 25.97800
H  0.76900 7.80600 22.21300
H  1.57100 10.60000 22.29900
H  3.51300 7.66600 22.86000
H  3.38300 9.21100 21.99500
H  2.81700 7.74100 21.16400
H  -1.20700 10.48100 23.37100
H  -0.91700 9.22200 22.15300
H  -0.51100 10.74000 20.55800
H  -0.32900 12.10400 21.81500
H  -1.85200 11.31700 21.48900
H  1.30200 14.80400 26.10100
H  2.27400 13.93100 25.11900
H  3.12500 14.60900 26.54500
H  1.24600 12.05800 31.26400
H  3.71500 13.26400 34.38500
H  4.52300 11.78600 34.03100
H  3.09300 11.64800 34.91400

