79

Mg 1.10100 42.05500 25.53200
C  3.49100 41.97200 28.17800
C  -1.27100 41.46500 27.97600
C  -1.24600 42.08700 23.17400
C  3.58300 42.57200 23.37900
N  1.17600 41.69500 27.78600
C  2.19800 41.80400 28.63700
C  1.76900 41.86900 30.11900
C  0.32400 41.24000 29.99500
C  0.02200 41.44100 28.44900
C  0.16800 39.76400 30.59100
C  1.77600 43.29500 30.78600
C  2.14600 43.19700 32.26700
H  0.99800 43.58100 33.13800
N  -1.02300 41.72000 25.58400
C  -1.80100 41.56800 26.68100
C  -3.21600 41.57500 26.29400
C  -3.24200 41.60400 24.84000
C  -1.79600 41.79900 24.45700
C  -4.38800 41.45400 27.27800
C  -4.46600 41.60000 23.97500
O  -4.37000 41.69800 22.77900
C  -5.80800 41.53200 24.55200
N  1.19600 42.12900 23.59500
C  0.08500 42.10900 22.78800
C  0.49600 42.34600 21.34600
C  1.98100 42.85900 21.44900
C  2.36200 42.47300 22.89600
C  0.32800 41.16200 20.39400
C  2.11700 44.43400 21.36200
C  2.63200 44.96500 19.99900
N  3.14200 42.21200 25.68900
C  4.05300 42.51000 24.71000
C  5.42700 42.63100 25.20800
C  5.21600 42.42000 26.61700
C  3.83400 42.22900 26.80500
C  6.67000 42.71400 24.33000
C  5.87700 42.31000 27.90100
O  7.13400 42.35600 28.09100
C  4.74300 42.27000 28.94700
C  4.96300 41.29700 29.97700
O  5.07700 40.08000 29.79400
O  4.88200 41.91000 31.18500
C  5.11900 41.05000 32.36700
H  -1.94600 41.21000 28.79600
H  -2.04100 42.25600 22.44500
H  4.38900 42.65800 22.64700
H  2.44800 41.15700 30.58800
H  -0.43300 41.82500 30.51800
H  0.95700 39.38500 31.23900
H  0.45500 39.07900 29.79400
H  -0.82300 39.58000 31.00600
H  0.78300 43.71900 30.63500
H  2.41800 43.97800 30.22900
H  2.88900 43.97500 32.44400
H  2.57700 42.23500 32.54700
H  -4.89200 42.39500 27.49900
H  -3.96400 41.04700 28.19500
H  -5.11000 40.67300 27.04100
H  -6.50100 41.54600 23.71000
H  -6.06600 42.41600 25.13500
H  -5.94700 40.65400 25.18300
H  -0.08300 43.13500 20.86500
H  2.73200 42.34600 20.84900
H  1.18100 41.01700 19.73100
H  -0.63100 41.24300 19.88300
H  0.31600 40.33200 21.10000
H  2.74300 44.76500 22.19000
H  1.13600 44.88100 21.52200
H  1.83300 45.54600 19.53900
H  3.05400 44.13600 19.43100
H  3.39400 45.70300 20.25200
H  6.56100 43.67200 23.82100
H  6.58700 41.83500 23.69100
H  7.53700 42.64800 24.98700
H  4.72700 43.27200 29.37400
H  6.10700 41.32400 32.73600
H  5.17300 39.98700 32.12900
H  4.37800 41.21100 33.15000

