79

Mg 42.91000 4.24800 46.45600
C  40.90800 7.15900 46.34000
C  39.81600 2.37100 46.45100
C  44.52800 1.54700 45.62700
C  45.63400 6.21300 46.18000
N  40.52000 4.72600 46.58100
C  40.03300 6.00200 46.42200
C  38.42200 5.99400 46.60300
C  38.23900 4.39100 47.01400
C  39.58800 3.75700 46.65800
C  37.89000 4.13600 48.45500
C  37.59700 6.39700 45.31000
C  37.93200 5.63000 44.08600
H  38.51100 6.36700 42.93800
N  42.29100 2.30700 46.01500
C  41.03600 1.75600 46.11600
C  41.11100 0.40000 45.61600
C  42.45400 0.18300 45.19300
C  43.14000 1.38200 45.59500
C  39.86800 -0.49500 45.33700
C  42.97100 -0.98100 44.35600
O  42.28000 -2.01800 44.19800
C  44.35500 -1.06100 43.77000
N  44.83700 3.98000 45.68000
C  45.37100 2.67300 45.77300
C  46.94000 2.61500 45.82000
C  47.17500 4.17800 46.08700
C  45.80300 4.86300 45.96800
C  47.56600 1.60000 46.87500
C  48.27300 4.87000 45.17800
C  49.14800 5.87700 45.89700
N  43.32500 6.30400 46.31100
C  44.48100 6.94900 46.26600
C  44.25400 8.33700 46.50500
C  42.86600 8.53200 46.37600
C  42.35500 7.17000 46.29200
C  45.23400 9.47800 46.62400
C  41.78600 9.47500 46.31100
O  41.80700 10.71700 46.40000
C  40.51600 8.66200 46.32200
C  39.64000 9.04200 47.46000
O  39.89000 8.88000 48.60800
O  38.42400 9.50900 46.98600
C  37.33700 9.74600 47.99600
H  38.88800 1.80200 46.37700
H  45.09900 0.64900 45.38100
H  46.50900 6.86600 46.16000
H  38.09500 6.66700 47.39500
H  37.46600 3.99300 46.35600
H  38.69600 3.74400 49.07500
H  37.03400 3.46500 48.53200
H  37.54400 5.08700 48.85800
H  37.70300 7.46700 45.12900
H  36.53500 6.23400 45.49400
H  37.08000 5.01700 43.79400
H  38.66000 4.83300 44.23600
H  39.88400 -0.75500 44.27800
H  38.95800 -0.03600 45.72300
H  40.05200 -1.46100 45.80600
H  45.11000 -1.25600 44.53000
H  44.60500 -0.10500 43.31100
H  44.43400 -1.80600 42.97800
H  47.26000 2.29500 44.82900
H  47.43000 4.36800 47.13000
H  46.79200 0.90800 47.20800
H  47.76700 2.20300 47.76100
H  48.43500 1.15700 46.38700
H  47.73200 5.40400 44.39800
H  48.87900 4.14600 44.63300
H  50.17400 5.53200 45.76900
H  49.05200 5.97100 46.97900
H  49.03800 6.91800 45.59300
H  45.78300 9.39300 45.68600
H  46.01100 9.29700 47.36700
H  44.70800 10.42800 46.71300
H  40.05300 8.84800 45.35300
H  36.74400 10.57400 47.60700
H  37.73700 10.27600 48.86000
H  36.89700 8.78200 48.24800

