79

Mg -9.43500 39.65000 41.64400
C  -8.35400 36.24700 41.32100
C  -6.28200 40.57000 40.39400
C  -10.74300 42.60700 40.88600
C  -12.76300 38.34200 42.15700
N  -7.53300 38.54200 40.98400
C  -7.35300 37.17300 40.92300
C  -5.98500 36.87700 40.39700
C  -5.24700 38.30800 40.44700
C  -6.43200 39.21700 40.63100
C  -4.07800 38.52300 41.48000
C  -6.15100 36.26700 38.96800
C  -5.71500 34.77300 38.85800
H  -4.98600 34.35600 37.56300
N  -8.57900 41.36900 40.80700
C  -7.32500 41.54400 40.40600
C  -7.25400 42.92200 39.82500
C  -8.47900 43.57900 40.13500
C  -9.29900 42.50500 40.64000
C  -6.10000 43.55000 39.18800
C  -8.86100 45.07500 39.86400
O  -8.12100 45.81300 39.16000
C  -10.15600 45.69200 40.22500
N  -11.45400 40.37000 41.47800
C  -11.69600 41.65000 41.31900
C  -13.21300 42.07800 41.73800
C  -13.77000 40.63200 42.01900
C  -12.60800 39.71400 41.89300
C  -13.27400 43.07600 42.93800
C  -15.05900 40.21300 41.18800
C  -16.35500 40.00900 42.00300
N  -10.44400 37.70900 41.79100
C  -11.76200 37.34600 42.00500
C  -11.84800 35.98500 42.04200
C  -10.56300 35.48000 41.85400
C  -9.68100 36.56700 41.63600
C  -13.15200 35.29100 42.21900
C  -9.74200 34.28900 41.76300
O  -10.06900 33.14100 41.88400
C  -8.29200 34.72400 41.38000
C  -7.30000 34.26800 42.45200
O  -6.94300 34.81800 43.46100
O  -6.75600 33.15500 41.91600
C  -5.54000 32.63400 42.65500
H  -5.23900 40.81700 40.18100
H  -11.10300 43.63600 40.81700
H  -13.77300 38.13200 42.51400
H  -5.51600 36.10800 41.01000
H  -4.89500 38.53700 39.44100
H  -4.17000 39.25800 42.28000
H  -3.39500 39.04500 40.81000
H  -3.71800 37.57300 41.87500
H  -5.42000 36.74200 38.31400
H  -7.17300 36.48600 38.65900
H  -6.65500 34.24500 38.70100
H  -5.26900 34.43100 39.79200
H  -6.27700 43.91300 38.17500
H  -5.33100 42.77900 39.14000
H  -5.63800 44.31700 39.81000
H  -10.44700 45.43700 41.24400
H  -10.87200 45.31400 39.49600
H  -10.09100 46.78000 40.23100
H  -13.57300 42.50800 40.80400
H  -13.97000 40.61500 43.09100
H  -12.24700 43.33100 43.19800
H  -13.73700 42.70500 43.85200
H  -13.88400 43.92700 42.63300
H  -14.84000 39.30100 40.63300
H  -15.32100 41.07000 40.56900
H  -16.25900 40.12900 43.08200
H  -16.66800 38.96900 41.91000
H  -17.03100 40.73700 41.55500
H  -13.40800 34.98600 41.20400
H  -14.00700 35.82900 42.62800
H  -13.14600 34.45200 42.91500
H  -8.02500 34.19400 40.46600
H  -4.84500 32.14700 41.97100
H  -5.86800 31.92700 43.41700
H  -5.05800 33.44700 43.19800

