79

Mg -4.53700 24.65100 26.96600
C  -2.91300 26.52900 29.43100
C  -5.47700 22.43700 29.42800
C  -6.00300 22.80600 24.67900
C  -3.13900 26.74700 24.54900
N  -4.26600 24.54800 29.19000
C  -3.70200 25.47600 29.95200
C  -4.07100 25.22500 31.43400
C  -4.77600 23.84900 31.46800
C  -4.84600 23.56700 29.92200
C  -3.91700 22.75200 31.99100
C  -4.90800 26.35200 32.08600
C  -4.58100 26.51500 33.61800
H  -5.64300 26.11600 34.64900
N  -5.46200 22.75100 27.04400
C  -5.75000 21.97900 28.10100
C  -6.41900 20.79200 27.77700
C  -6.51000 20.81000 26.33400
C  -6.00300 22.14500 25.91100
C  -6.76200 19.73300 28.87600
C  -6.97400 19.73000 25.34700
O  -7.01100 19.97200 24.13300
C  -7.28000 18.39700 25.84100
N  -4.61000 24.82900 24.86800
C  -5.33200 23.91400 24.16800
C  -5.15000 24.10400 22.72100
C  -4.12700 25.36400 22.59100
C  -3.99500 25.70400 24.10800
C  -4.77900 22.84000 21.94700
C  -4.78000 26.53200 21.83400
C  -3.78600 27.41100 21.03000
N  -3.24200 26.28700 26.92400
C  -2.83600 27.07500 25.90200
C  -2.08400 28.26500 26.40000
C  -2.07800 28.05600 27.78400
C  -2.77100 26.82000 28.04800
C  -1.47400 29.38100 25.64800
C  -1.68100 28.63000 29.05700
O  -1.14900 29.67900 29.39600
C  -2.20600 27.64900 30.12800
C  -1.05200 27.14400 30.89200
O  -0.28100 26.20900 30.59900
O  -1.05000 27.80300 32.07600
C  0.06800 27.28300 32.94500
H  -6.01400 21.86600 30.18900
H  -6.45200 22.13100 23.94700
H  -2.76800 27.39500 23.75300
H  -3.07900 25.12300 31.87500
H  -5.77100 23.77700 31.90700
H  -3.24600 23.12300 32.76600
H  -3.42000 22.23600 31.17000
H  -4.54400 22.08000 32.57700
H  -5.97200 26.20800 31.89800
H  -4.73800 27.29500 31.56600
H  -4.29800 27.55900 33.75400
H  -3.73000 25.90000 33.91100
H  -5.89000 19.28300 29.35100
H  -7.36700 18.96700 28.39100
H  -7.35200 20.15200 29.69100
H  -8.22200 18.41200 26.39000
H  -6.52800 17.96900 26.50400
H  -7.25600 17.74000 24.97200
H  -6.11900 24.57600 22.55700
H  -3.15400 25.09900 22.17600
H  -4.15000 22.18000 22.54500
H  -4.28100 23.04900 21.00000
H  -5.69600 22.43900 21.51700
H  -5.09700 27.29700 22.54200
H  -5.65200 26.23800 21.25000
H  -3.59500 28.40200 21.44200
H  -4.04300 27.44500 19.97100
H  -2.83500 26.88400 20.96000
H  -0.68400 28.97400 25.01800
H  -1.02000 30.08000 26.35100
H  -2.27700 29.74100 25.00600
H  -2.87000 28.24800 30.75100
H  1.06300 27.54900 32.58900
H  0.06000 26.21400 33.16100
H  -0.15200 27.83800 33.85700

