79

Mg 1.64700 -1.64100 44.03100
C  4.98700 -0.54400 43.14800
C  0.42300 1.11900 42.30100
C  -1.30500 -3.03500 44.34300
C  3.26600 -4.53900 45.33000
N  2.59400 -0.06600 42.69600
C  3.96800 0.18400 42.45000
C  4.16100 1.30100 41.50600
C  2.81200 2.14800 41.78500
C  1.84500 1.01200 42.21000
C  2.98200 3.24400 42.88600
C  4.37100 0.72900 40.03300
C  5.36600 1.54700 39.19100
H  4.95200 2.11500 37.90100
N  -0.19700 -0.96100 43.48500
C  -0.55500 0.17600 42.82100
C  -2.03000 0.35600 42.87500
C  -2.52300 -0.83300 43.54500
C  -1.33800 -1.68700 43.80500
C  -2.74200 1.47600 42.16300
C  -4.01500 -1.10000 43.82100
O  -4.88400 -0.24900 43.58400
C  -4.52500 -2.33700 44.56400
N  0.99900 -3.58500 44.61400
C  -0.27400 -3.92500 44.74900
C  -0.44400 -5.36600 45.31200
C  1.01500 -5.84500 45.42500
C  1.81800 -4.57900 45.18200
C  -1.25700 -5.57600 46.63100
C  1.51400 -7.07900 44.50800
C  2.33200 -8.15400 45.31000
N  3.66900 -2.33800 44.39200
C  4.10000 -3.47300 44.97600
C  5.58700 -3.49900 45.09500
C  5.95900 -2.32700 44.34800
C  4.77300 -1.68100 43.95100
C  6.45300 -4.44800 45.78800
C  7.08200 -1.45600 43.95600
O  8.31200 -1.51700 44.18800
C  6.45800 -0.27400 43.17600
C  6.80000 1.03300 43.86100
O  6.87800 1.07000 45.09700
O  7.29300 2.00300 42.96300
C  7.74900 3.25100 43.60100
H  -0.08000 1.99200 41.88100
H  -2.21700 -3.59300 44.56600
H  3.70600 -5.38000 45.87100
H  4.99900 1.92100 41.82300
H  2.39400 2.61800 40.89500
H  2.80100 4.15200 42.31100
H  4.02000 3.18600 43.21500
H  2.33200 3.21000 43.76000
H  3.38200 0.68300 39.57600
H  4.56000 -0.34500 40.04200
H  6.19100 0.86000 39.00200
H  5.75900 2.39000 39.76000
H  -3.63100 1.60500 42.78000
H  -2.86800 1.38600 41.08400
H  -2.14500 2.38800 42.19400
H  -5.49900 -2.20300 45.03300
H  -3.90200 -2.64400 45.40400
H  -4.47000 -3.22000 43.92600
H  -0.89900 -5.89300 44.47300
H  1.24900 -6.01400 46.47600
H  -1.35400 -4.63700 47.17600
H  -0.72600 -6.29500 47.25400
H  -2.26800 -5.97600 46.55500
H  2.21100 -6.72200 43.74900
H  0.72000 -7.65300 44.03000
H  1.84500 -9.12600 45.23300
H  2.28400 -7.95400 46.38000
H  3.35200 -8.20400 44.93100
H  6.21400 -4.51100 46.85000
H  7.51700 -4.23400 45.68800
H  6.28800 -5.42800 45.34000
H  6.89700 -0.28000 42.17800
H  7.06000 4.07400 43.41200
H  8.73900 3.50800 43.22300
H  7.94700 3.16300 44.66900

