79

Mg 1.24500 8.39100 25.66900
C  2.17700 10.33300 28.51400
C  1.46400 5.60200 27.69100
C  0.59700 6.60300 23.00100
C  1.88100 11.14800 23.74300
N  1.73500 7.93600 27.81800
C  1.90600 8.96700 28.75300
C  2.06000 8.39600 30.11800
C  2.16800 6.88500 29.80600
C  1.78500 6.79200 28.39100
C  3.55100 6.25800 30.07200
C  0.90800 8.89100 31.15400
C  1.39400 9.13300 32.61700
H  2.64200 8.32700 33.03400
N  1.09100 6.32200 25.35400
C  1.07200 5.33600 26.35400
C  0.78500 4.09400 25.72900
C  0.48200 4.32800 24.39100
C  0.73200 5.79600 24.16100
C  0.95100 2.72200 26.38700
C  0.18100 3.33100 23.30400
O  0.07800 3.59800 22.13800
C  -0.00200 1.91100 23.62200
N  1.55100 8.78900 23.59400
C  0.94400 7.92100 22.75700
C  0.91200 8.52300 21.38500
C  0.91000 10.01800 21.66500
C  1.47500 9.99500 23.04800
C  2.10800 8.07000 20.41000
C  -0.44900 10.79200 21.63900
C  -0.52900 11.88600 20.53700
N  1.84100 10.34900 26.02300
C  2.04400 11.34400 25.14200
C  2.39800 12.59000 25.81200
C  2.49300 12.18700 27.16500
C  2.16800 10.82800 27.24500
C  2.65200 13.88900 25.15300
C  2.79300 12.65400 28.50300
O  3.17900 13.75400 28.82700
C  2.49600 11.48800 29.46400
C  3.73900 11.29500 30.17200
O  4.84200 10.90700 29.73600
O  3.64500 11.80200 31.44800
C  4.78400 11.39100 32.46100
H  1.33800 4.70900 28.30800
H  0.31500 6.02100 22.12200
H  1.95900 12.05700 23.14300
H  3.03500 8.76000 30.44100
H  1.41000 6.38200 30.40600
H  4.18300 7.03900 30.49500
H  3.88600 5.77700 29.15300
H  3.49100 5.44400 30.79400
H  0.05600 8.22200 31.03500
H  0.50600 9.78000 30.66800
H  0.54900 9.13200 33.30500
H  1.72400 10.17100 32.57800
H  0.03700 2.12800 26.40800
H  1.34300 2.94200 27.38000
H  1.76000 2.22200 25.85400
H  0.97900 1.46000 23.77200
H  -0.44100 1.45300 22.73500
H  -0.81300 1.75900 24.33400
H  -0.07800 8.24300 21.02300
H  1.55700 10.53900 20.95900
H  2.96700 7.74700 20.99800
H  2.49300 8.78200 19.68000
H  1.83800 7.16600 19.86500
H  -0.60700 11.21500 22.63100
H  -1.28200 10.11500 21.44800
H  -1.54400 11.88500 20.13700
H  0.04900 11.64100 19.64600
H  -0.12700 12.74500 21.07200
H  3.49100 13.69400 24.48500
H  3.04500 14.67200 25.80100
H  1.81600 14.15700 24.50800
H  1.71000 11.72300 30.18200
H  5.44900 10.64200 32.03300
H  4.23600 11.00000 33.31900
H  5.42600 12.21100 32.78200

