79

Mg 26.06300 51.29500 26.28300
C  24.12800 52.17200 29.15400
C  28.77300 50.68600 28.43400
C  28.08300 51.29200 23.59000
C  23.33000 52.24000 24.24500
N  26.32700 51.42300 28.49400
C  25.38800 51.70200 29.46600
C  25.93000 51.38200 30.94100
C  27.49500 51.03600 30.60700
C  27.54700 51.03300 29.05600
C  28.62900 51.90000 31.28600
C  25.24200 50.27300 31.65500
C  24.57300 50.58400 33.00500
H  25.32500 51.32100 34.16200
N  28.09100 50.89000 25.99500
C  29.04700 50.59100 27.02900
C  30.37100 50.45400 26.39700
C  30.11900 50.64400 25.01100
C  28.70100 50.92500 24.78200
C  31.59200 50.17400 27.27000
C  31.10900 50.58800 23.80700
O  30.75900 50.67000 22.62200
C  32.54400 50.29800 24.15400
N  25.77100 51.89400 24.18800
C  26.76100 51.64800 23.29600
C  26.28100 52.13500 21.92100
C  24.74700 52.27800 22.01500
C  24.58300 52.18600 23.61100
C  26.91600 53.63200 21.68300
C  23.91500 51.30600 21.14700
C  23.89200 49.94500 21.76200
N  24.09000 51.97700 26.62300
C  23.08900 52.23900 25.68000
C  21.93300 52.66400 26.41100
C  22.27200 52.66100 27.77300
C  23.59300 52.27900 27.82400
C  20.55700 52.96100 25.88500
C  21.79000 52.93600 29.18000
O  20.68600 53.30500 29.60900
C  22.93900 52.51800 30.12600
C  23.24500 53.57000 31.03500
O  23.95300 54.48800 30.71500
O  22.55100 53.37400 32.21000
C  22.63400 54.42600 33.20100
H  29.51100 50.34000 29.16100
H  28.64300 51.24000 22.65300
H  22.41300 52.38500 23.67000
H  25.75700 52.24100 31.58800
H  27.60800 50.00200 30.93100
H  29.26100 51.26000 31.90100
H  28.19500 52.65500 31.94200
H  29.12500 52.55800 30.57200
H  25.90000 49.43000 31.87000
H  24.41400 49.86900 31.07200
H  24.33500 49.57600 33.34600
H  23.65800 51.15700 32.85100
H  31.27400 50.04300 28.30400
H  32.24700 51.04400 27.31100
H  32.11200 49.27400 26.94400
H  32.73600 49.30800 24.56800
H  32.82500 51.08100 24.85900
H  33.10000 50.34400 23.21800
H  26.57500 51.61100 21.01200
H  24.43600 53.29500 21.77600
H  27.87900 53.48000 21.19500
H  26.98200 54.22600 22.59400
H  26.26900 54.15800 20.98100
H  24.35200 51.29300 20.14800
H  22.90200 51.69300 21.03500
H  24.28700 49.27700 20.99600
H  22.86200 49.71900 22.03800
H  24.48700 49.78400 22.66100
H  20.42300 52.39800 24.96100
H  20.68200 54.01800 25.65000
H  19.70300 52.73700 26.52400
H  22.61000 51.60300 30.61900
H  22.26600 54.11800 34.18000
H  21.94300 55.15700 32.78200
H  23.61800 54.89400 33.19600

