79

Mg 41.11800 40.96300 26.59300
C  40.38900 43.25200 29.10900
C  42.48900 38.83000 28.83400
C  42.24400 39.05800 24.02700
C  40.86900 43.68100 24.30200
N  41.38900 41.02300 28.75400
C  40.87400 41.97500 29.60900
C  40.96400 41.54300 31.06700
C  41.67300 40.20100 31.01800
C  41.91400 39.98700 29.45900
C  42.97100 40.11700 31.87000
C  39.67600 41.61100 31.99700
C  39.86300 42.23500 33.42300
H  39.11600 41.68300 34.64800
N  42.16200 39.12000 26.47200
C  42.63300 38.45500 27.52200
C  43.33100 37.24500 26.95800
C  43.19800 37.31100 25.57500
C  42.49500 38.55600 25.29900
C  43.86800 36.18900 27.81300
C  43.67100 36.27500 24.47300
O  43.49600 36.46500 23.29200
C  44.40700 35.03100 24.92000
N  41.47900 41.31000 24.48500
C  41.98200 40.35900 23.69200
C  41.99500 40.83900 22.25000
C  41.16300 42.13300 22.28200
C  41.15600 42.42400 23.76000
C  43.42500 41.09100 21.69700
C  39.78800 41.90500 21.56600
C  38.73400 40.91300 22.00400
N  40.48100 42.95300 26.61800
C  40.55200 43.92700 25.64900
C  40.06700 45.21500 26.15100
C  39.96500 45.01600 27.51500
C  40.29000 43.63900 27.74600
C  39.85300 46.53400 25.34500
C  39.54100 45.62400 28.79500
O  39.15800 46.72900 29.11400
C  39.88700 44.44400 29.90000
C  40.93900 45.07200 30.78000
O  42.07400 45.38100 30.39000
O  40.58700 45.28000 32.10300
C  41.55800 45.73200 33.04600
H  42.95600 38.21700 29.60700
H  42.43800 38.44700 23.14300
H  40.71200 44.61700 23.76200
H  41.66100 42.31800 31.38400
H  40.96300 39.46600 31.39600
H  42.74300 39.24300 32.48000
H  43.29800 40.90500 32.54800
H  43.78900 39.84600 31.20300
H  39.04800 40.72100 32.04400
H  38.98200 42.21200 31.40900
H  39.41500 43.21300 33.25000
H  40.88900 42.48900 33.68800
H  43.27200 35.32000 27.53400
H  43.78100 36.26900 28.89700
H  44.84900 35.85000 27.48100
H  45.31100 35.29400 25.47000
H  44.52200 34.39900 24.03900
H  43.69900 34.60200 25.62900
H  41.52200 40.09000 21.61600
H  41.70400 42.98200 21.86500
H  44.14300 40.73400 22.43600
H  43.55800 42.09800 21.30400
H  43.55300 40.39100 20.87100
H  40.06500 41.66300 20.54000
H  39.39200 42.91800 21.49600
H  37.82300 41.46700 22.23300
H  39.05500 40.31100 22.85400
H  38.63000 40.26700 21.13200
H  39.37500 47.30100 25.95400
H  39.25100 46.34400 24.45600
H  40.78400 46.99700 25.01900
H  39.00900 44.26700 30.52100
H  42.33700 46.32300 32.56500
H  41.80300 44.86300 33.65800
H  41.11100 46.44500 33.73800

