79

Mg 16.89800 -2.41200 28.18200
C  16.01800 -0.32100 30.86400
C  18.69900 -4.29200 30.32500
C  18.03300 -3.99100 25.43700
C  15.29000 -0.00800 26.03700
N  17.27500 -2.20600 30.32700
C  16.78200 -1.37400 31.29600
C  17.37100 -1.67900 32.66800
C  18.39200 -2.84200 32.32600
C  18.04700 -3.17800 30.89400
C  19.91400 -2.46700 32.46800
C  16.32300 -1.99200 33.72100
C  16.58000 -1.51400 35.16600
H  18.01000 -1.63900 35.71300
N  18.06000 -4.08100 27.92300
C  18.70900 -4.70700 28.97100
C  19.39900 -5.86300 28.40200
C  19.20500 -5.79400 26.92400
C  18.38500 -4.58400 26.69700
C  20.10200 -6.79400 29.35900
C  19.75800 -6.67400 25.86400
O  19.54500 -6.63300 24.63800
C  20.71700 -7.66000 26.24600
N  16.67700 -2.06600 26.01500
C  17.35100 -2.79700 25.07400
C  17.06500 -2.27600 23.66600
C  16.20800 -1.07700 23.92100
C  16.06400 -1.02800 25.42700
C  18.33100 -1.90500 22.80100
C  14.86100 -1.05600 23.05400
C  13.45800 -1.47600 23.49900
N  15.84400 -0.62500 28.29100
C  15.16000 0.18100 27.42200
C  14.42900 1.18200 28.11700
C  14.79200 1.06600 29.45100
C  15.63500 -0.01700 29.53600
C  13.51100 2.17400 27.50000
C  14.62300 1.71400 30.72400
O  13.99600 2.70500 30.99400
C  15.40700 0.78100 31.72500
C  16.48700 1.61600 32.38900
O  17.66200 1.72100 32.11500
O  15.87900 2.46300 33.26100
C  16.75400 3.51300 33.82400
H  19.17300 -4.90100 31.09700
H  18.51700 -4.50000 24.60100
H  14.80700 0.74100 25.40500
H  17.86600 -0.77600 33.02600
H  18.20000 -3.67100 33.00700
H  20.03200 -1.42600 32.76900
H  20.31500 -2.56300 31.45900
H  20.44100 -3.15300 33.13200
H  16.10300 -3.05700 33.64500
H  15.39200 -1.51900 33.41100
H  15.90100 -2.21500 35.65100
H  16.09700 -0.54700 35.30700
H  19.45000 -7.27700 30.08700
H  20.91900 -6.25900 29.84400
H  20.49100 -7.65600 28.81700
H  21.10000 -8.13300 25.34200
H  20.14700 -8.39200 26.81800
H  21.59800 -7.33600 26.79900
H  16.49200 -2.98300 23.06700
H  16.72600 -0.12000 23.85800
H  18.26800 -2.67800 22.03500
H  19.21500 -2.15300 23.38800
H  18.36000 -0.88400 22.42000
H  15.06900 -1.58000 22.12100
H  14.78600 -0.00800 22.76300
H  12.84600 -0.58400 23.63300
H  13.58100 -1.98200 24.45600
H  13.03100 -2.14900 22.75500
H  12.82400 1.62800 26.85500
H  14.10400 2.90500 26.95000
H  13.04100 2.80400 28.25600
H  14.75700 0.28900 32.45000
H  17.67000 3.13600 34.27800
H  16.30900 4.09300 34.63200
H  17.18000 4.22400 33.11600

