79

Mg 47.40100 16.00900 28.19300
C  45.68100 15.37300 31.20100
C  49.73700 17.75100 30.11200
C  48.99600 16.80000 25.42100
C  45.01600 14.26100 26.39500
N  47.62800 16.46900 30.43700
C  46.82500 16.05800 31.46300
C  47.20600 16.69400 32.78000
C  48.50300 17.55100 32.36500
C  48.70900 17.25600 30.83500
C  48.59500 19.05900 32.72800
C  47.33700 15.66000 34.01000
C  48.52200 15.81200 34.96700
H  48.61300 17.12600 35.74900
N  49.10900 17.25100 27.80300
C  49.94700 17.82900 28.71100
C  50.96000 18.62000 27.96500
C  50.59300 18.47100 26.57500
C  49.49300 17.49600 26.52700
C  51.99200 19.47100 28.60100
C  51.08900 19.17100 25.34800
O  50.66600 18.83800 24.22200
C  52.12700 20.19800 25.47300
N  47.07300 15.45900 26.19300
C  47.89400 15.94200 25.23700
C  47.32300 15.60800 23.78500
C  46.05200 14.64600 24.11400
C  46.07400 14.76400 25.65800
C  46.97400 16.80100 22.87500
C  46.04800 13.25300 23.48700
C  45.36300 13.19900 22.09800
N  45.75000 14.90900 28.64200
C  44.85600 14.29200 27.79200
C  43.74200 13.84700 28.62500
C  44.00600 14.16200 29.95900
C  45.27200 14.81700 29.92900
C  42.52400 13.20900 28.17900
C  43.52300 14.10400 31.27600
O  42.46600 13.65200 31.69500
C  44.55100 14.86600 32.12500
C  43.84100 15.96200 32.83300
O  43.29900 16.89300 32.34100
O  43.89300 15.88000 34.24500
C  43.37900 16.93400 35.06600
H  50.48700 18.34100 30.64300
H  49.34800 16.97000 24.40200
H  44.17500 13.95600 25.76900
H  46.45800 17.47200 32.93100
H  49.33400 17.00200 32.80800
H  47.78900 19.58000 32.21100
H  49.62000 19.28300 32.43000
H  48.43200 19.19500 33.79700
H  47.51000 14.72500 33.47700
H  46.39900 15.79200 34.54900
H  49.45000 15.68900 34.40800
H  48.55700 14.93400 35.61200
H  52.92100 19.43800 28.03000
H  52.03100 19.17100 29.64800
H  51.68000 20.51300 28.66800
H  51.77100 20.97100 26.15500
H  52.09800 20.73600 24.52600
H  53.11200 19.80600 25.72600
H  48.11600 14.97200 23.39300
H  45.09200 15.04900 23.79100
H  47.18200 17.75300 23.36500
H  45.93500 16.82000 22.54600
H  47.59700 16.81500 21.98100
H  45.65400 12.59700 24.26400
H  47.08500 12.92800 23.41100
H  46.18600 13.15700 21.38300
H  44.73500 14.06300 21.88200
H  44.71700 12.32100 22.11700
H  42.49300 12.93500 27.12400
H  41.61500 13.77500 28.38100
H  42.40900 12.32600 28.80800
H  44.93900 14.14500 32.84400
H  43.16300 17.84100 34.50200
H  44.14500 17.10800 35.82100
H  42.50600 16.69100 35.67100

