79

Mg 46.44600 44.49800 43.75500
C  43.06100 44.14700 43.47000
C  46.77500 41.10600 43.21100
C  49.79000 44.87200 43.46900
C  45.97500 47.92100 43.77500
N  45.01900 42.75500 43.69300
C  43.72600 42.95000 43.31500
C  43.04100 41.59000 42.96100
C  44.19800 40.52200 43.05200
C  45.41100 41.45000 43.40300
C  43.98200 39.31200 44.05800
C  42.26100 41.56700 41.62200
C  42.88900 42.22600 40.38100
H  42.84500 41.36600 39.07600
N  48.09200 43.19600 43.43400
C  47.97800 41.85000 43.27100
C  49.30900 41.29100 43.17900
C  50.24200 42.33400 43.24700
C  49.36800 43.53700 43.46500
C  49.59300 39.81000 43.02700
C  51.73400 42.13200 43.22700
O  52.27200 40.98500 43.09600
C  52.72400 43.19500 43.30000
N  47.72300 46.12900 43.63900
C  49.08300 46.06900 43.59700
C  49.73200 47.48500 43.54800
C  48.45200 48.43400 43.59200
C  47.28600 47.43900 43.72900
C  50.74100 47.66700 44.75400
C  48.31500 49.29700 42.31100
C  49.32700 50.48300 42.27400
N  44.81500 45.82100 43.87800
C  44.78700 47.17900 43.82800
C  43.42400 47.64800 43.90100
C  42.71200 46.49900 43.72800
C  43.62200 45.41700 43.66400
C  43.02800 49.09300 44.02400
C  41.38700 45.92200 43.66400
O  40.27100 46.44800 43.81400
C  41.53100 44.38600 43.32000
C  40.71700 43.63800 44.33700
O  39.68000 43.06300 44.03300
O  41.22700 43.74200 45.63900
C  40.33500 43.20200 46.64800
H  46.85200 40.04200 42.97800
H  50.87100 44.96600 43.35100
H  45.90400 49.01100 43.80400
H  42.33600 41.31600 43.74600
H  44.35100 40.02600 42.09300
H  42.99000 39.11000 44.46100
H  44.64200 39.55400 44.89100
H  44.33500 38.39400 43.58700
H  41.29400 42.06100 41.72600
H  41.85600 40.57200 41.44000
H  43.95900 42.35200 40.54800
H  42.46800 43.22300 40.24900
H  50.13800 39.63400 42.10000
H  48.73800 39.13500 43.07000
H  50.15600 39.40700 43.86900
H  52.47000 43.92100 42.52800
H  53.68200 42.67700 43.25600
H  52.60300 43.74600 44.23200
H  50.39400 47.56200 42.68600
H  48.49100 48.96600 44.54200
H  51.77300 47.73600 44.41000
H  50.65300 46.77200 45.37000
H  50.57500 48.54000 45.38400
H  47.34300 49.74200 42.09700
H  48.50300 48.68600 41.42800
H  48.75500 51.41000 42.24800
H  49.95300 50.30000 41.40100
H  50.07000 50.42800 43.07000
H  42.34700 49.16200 44.87200
H  42.62600 49.47400 43.08500
H  43.86500 49.73600 44.29600
H  41.28500 44.13700 42.28800
H  40.25500 42.11600 46.59400
H  39.34800 43.66000 46.58200
H  40.70000 43.58000 47.60300

