79

Mg -2.38400 16.85800 26.56800
C  -2.86000 14.44200 29.09400
C  -3.12800 19.33700 28.99000
C  -2.28200 19.25200 24.06500
C  -2.42600 14.40300 24.22500
N  -3.00700 16.89200 28.81300
C  -2.92800 15.76000 29.62900
C  -3.05100 16.17600 31.12000
C  -3.35900 17.75200 30.98100
C  -3.15400 18.00400 29.51500
C  -4.72500 18.25000 31.45300
C  -1.80800 15.67600 31.97800
C  -1.11700 16.66600 32.97900
H  -0.74400 15.97500 34.38300
N  -2.66100 18.99100 26.51800
C  -2.88300 19.80300 27.62100
C  -2.97800 21.12900 27.16800
C  -2.68600 21.18000 25.74200
C  -2.44700 19.77100 25.38200
C  -3.27600 22.23400 28.11600
C  -2.55900 22.30900 24.76800
O  -2.36900 22.10100 23.55700
C  -2.71400 23.65800 25.30200
N  -2.38900 16.89200 24.51800
C  -2.27100 17.93700 23.62900
C  -2.49100 17.53600 22.14200
C  -2.29700 15.97000 22.24600
C  -2.38200 15.69600 23.79000
C  -3.86700 17.85900 21.42700
C  -0.88800 15.48700 21.75500
C  -0.88400 14.70400 20.47000
N  -2.57500 14.74900 26.65000
C  -2.57000 13.89700 25.56400
C  -2.52800 12.53100 26.08600
C  -2.63700 12.68500 27.51000
C  -2.72000 14.07000 27.75400
C  -2.47900 11.27800 25.22700
C  -2.76300 12.02200 28.70900
O  -2.68200 10.82800 28.98400
C  -2.93900 13.10600 29.83000
C  -1.83200 12.89800 30.72800
O  -0.72000 13.27400 30.63100
O  -2.38600 12.16100 31.79600
C  -1.38700 11.88300 32.85000
H  -3.25700 20.12100 29.73900
H  -2.23400 19.96200 23.23700
H  -2.33200 13.63100 23.45800
H  -3.88200 15.70000 31.64000
H  -2.56300 18.29400 31.49100
H  -5.62800 17.91800 30.94100
H  -4.76200 19.33900 31.47400
H  -4.81000 17.95600 32.49900
H  -1.05400 15.50000 31.21000
H  -2.11400 14.71000 32.38000
H  -1.92400 17.36600 33.19700
H  -0.21600 17.20500 32.68700
H  -2.34500 22.78300 28.25400
H  -3.70200 22.02400 29.09800
H  -4.09800 22.80000 27.67800
H  -3.79000 23.74700 25.44700
H  -2.30900 24.28300 24.50600
H  -2.13700 23.66600 26.22600
H  -1.68500 18.08600 21.65600
H  -3.09100 15.40900 21.75300
H  -4.45800 16.94500 21.36600
H  -3.75000 18.09100 20.36800
H  -4.42400 18.65000 21.92900
H  -0.44100 14.90000 22.55700
H  -0.29400 16.37900 21.55200
H  -0.13100 15.11700 19.79800
H  -1.85600 14.64000 19.98200
H  -0.42800 13.75100 20.73800
H  -2.28900 11.60100 24.20300
H  -3.47600 10.84800 25.12400
H  -1.89600 10.46500 25.65900
H  -3.89400 13.11100 30.35400
H  -0.85300 10.98200 32.54800
H  -1.93500 11.70600 33.77600
H  -0.76700 12.71100 33.19200

