79

Mg 34.41500 3.59000 30.30200
C  32.20700 4.53000 32.72800
C  36.99000 3.69400 32.68800
C  36.68100 2.90100 27.87900
C  31.93100 3.82400 27.84700
N  34.59700 4.05300 32.37800
C  33.49000 4.17700 33.21700
C  33.84800 4.25800 34.74600
C  35.46300 4.29800 34.63600
C  35.69600 3.92500 33.13400
C  36.12200 5.74200 34.94900
C  33.23200 3.10600 35.63800
C  32.81300 3.70100 36.99400
H  33.68500 4.76800 37.67300
N  36.51100 3.38100 30.30600
C  37.38400 3.43800 31.37400
C  38.72300 3.10200 30.95600
C  38.62800 2.80300 29.55300
C  37.22700 3.01700 29.18300
C  39.91500 3.23500 31.79800
C  39.65300 2.23400 28.61600
O  39.53700 2.08000 27.37500
C  40.91400 1.55200 29.12500
N  34.26100 3.36400 28.13100
C  35.34600 2.98300 27.36200
C  34.99300 2.77900 25.90300
C  33.44700 3.13600 25.99700
C  33.20900 3.49200 27.42700
C  35.77100 3.77800 24.96000
C  32.61600 2.00100 25.33900
C  32.10900 0.94400 26.29800
N  32.45300 4.08100 30.23000
C  31.55800 4.04500 29.21300
C  30.25200 4.37000 29.73300
C  30.40300 4.51300 31.13100
C  31.76100 4.37000 31.35500
C  28.95700 4.50900 28.98900
C  29.75800 4.77300 32.40900
O  28.60700 5.03000 32.69700
C  30.97100 4.90400 33.50200
C  31.06700 6.21100 34.13700
O  31.56600 7.27000 33.65300
O  30.51900 6.11800 35.33200
C  30.54100 7.27000 36.22500
H  37.85000 3.83900 33.34500
H  37.30700 2.61900 27.02900
H  31.16200 3.87300 27.07300
H  33.42800 5.20400 35.08900
H  35.95600 3.52000 35.22000
H  35.44500 6.39700 35.49900
H  36.47600 6.10600 33.98400
H  37.01500 5.71300 35.57300
H  33.99600 2.33900 35.76500
H  32.47400 2.65700 34.99500
H  32.74300 2.89900 37.72900
H  31.82400 4.14200 36.86500
H  39.88800 3.89300 32.66600
H  40.79700 3.53200 31.23000
H  40.32000 2.26700 32.09300
H  40.61700 0.62000 29.60500
H  41.32400 2.30500 29.79900
H  41.55700 1.44600 28.25200
H  35.16100 1.74400 25.60400
H  33.25800 4.03300 25.40700
H  35.16000 4.46700 24.37800
H  36.37500 3.24200 24.22700
H  36.28800 4.52200 25.56600
H  33.17000 1.48800 24.55200
H  31.82800 2.50700 24.78100
H  32.71800 1.05300 27.19600
H  32.12100 -0.09500 25.96800
H  31.08300 1.10500 26.62600
H  28.47400 3.54300 28.84400
H  29.10400 4.83600 27.96000
H  28.36000 5.18000 29.60700
H  30.85600 4.20700 34.33200
H  31.27800 8.03900 35.99600
H  30.79500 6.92900 37.22900
H  29.54400 7.69500 36.34000

