79

Mg -5.23300 24.32000 26.52200
C  -2.99300 25.99700 28.79700
C  -6.14500 22.26200 29.14600
C  -6.92000 22.54900 24.31500
C  -3.85200 26.30200 23.89000
N  -4.70900 24.21400 28.72600
C  -3.78800 25.00600 29.42600
C  -3.97000 24.71600 30.95000
C  -4.63100 23.31200 30.98300
C  -5.20200 23.24300 29.53500
C  -3.79700 22.13400 31.30000
C  -4.63800 25.97800 31.59800
C  -5.95000 25.72600 32.32700
H  -5.91600 25.09900 33.74100
N  -6.44700 22.72900 26.70800
C  -6.73400 21.98800 27.86000
C  -7.64400 20.91500 27.46600
C  -7.88500 20.97700 26.05900
C  -7.09500 22.14900 25.65500
C  -8.16100 19.91800 28.48500
C  -8.84800 20.13200 25.26000
O  -9.06400 20.34300 24.06500
C  -9.58400 18.93100 25.82500
N  -5.23500 24.39200 24.42400
C  -6.16500 23.58000 23.78200
C  -6.26800 24.00000 22.31300
C  -5.29000 25.13300 22.10600
C  -4.75700 25.32900 23.53600
C  -6.27200 22.87500 21.12800
C  -5.84000 26.39400 21.43800
C  -5.74100 26.55800 19.94100
N  -3.80000 25.85700 26.33000
C  -3.40600 26.57400 25.21200
C  -2.42100 27.63000 25.59600
C  -2.22200 27.43000 27.00100
C  -3.07000 26.31000 27.37300
C  -1.73900 28.60800 24.67000
C  -1.46200 27.80500 28.14000
O  -0.57300 28.66800 28.28600
C  -1.97300 26.99700 29.34100
C  -0.85700 26.31700 30.07900
O  0.03200 25.65700 29.55400
O  -0.88000 26.63300 31.40600
C  0.21600 26.19600 32.24600
H  -6.41000 21.58800 29.96400
H  -7.34900 21.86700 23.57800
H  -3.43600 26.84600 23.04000
H  -2.96400 24.71700 31.37100
H  -5.43600 23.35400 31.71700
H  -4.31900 21.53800 32.04900
H  -2.80800 22.39600 31.67900
H  -3.68000 21.46200 30.45000
H  -4.82200 26.83700 30.95300
H  -3.93500 26.47400 32.26800
H  -6.58000 25.21700 31.59700
H  -6.39000 26.71400 32.46200
H  -9.19600 20.12600 28.75500
H  -7.51400 19.98000 29.36100
H  -8.02500 18.90500 28.10400
H  -8.84700 18.13200 25.91300
H  -10.27000 18.62200 25.03600
H  -10.11900 19.09000 26.76100
H  -7.27600 24.41500 22.34400
H  -4.47700 24.73300 21.50000
H  -7.26000 22.71800 20.69400
H  -6.05600 21.90700 21.57900
H  -5.61300 23.11500 20.29400
H  -5.19200 27.17500 21.83600
H  -6.89000 26.50300 21.71000
H  -4.83900 27.11200 19.68100
H  -6.70500 26.89700 19.56200
H  -5.61400 25.58100 19.47500
H  -1.68700 28.26200 23.63800
H  -0.69200 28.66100 24.97000
H  -2.16600 29.59200 24.86300
H  -2.45400 27.64600 30.07300
H  1.11900 25.82800 31.75800
H  -0.22200 25.42400 32.87900
H  0.51400 27.01400 32.90200

