79

Mg 36.31900 48.71300 26.44400
C  36.09400 46.85700 29.30100
C  35.63700 51.57600 28.21400
C  36.16500 50.43700 23.51500
C  36.69600 45.67600 24.53600
N  35.89000 49.12300 28.48800
C  35.92300 48.22300 29.53600
C  35.94700 48.90400 30.87800
C  35.35700 50.38800 30.48300
C  35.59700 50.40500 28.94900
C  33.81600 50.62400 30.82700
C  37.36400 48.83800 31.59900
C  37.47200 48.88900 33.18900
H  36.13400 48.92000 33.96700
N  35.80400 50.76900 25.93900
C  35.73700 51.79000 26.81500
C  35.76900 53.02900 26.09200
C  35.92800 52.68700 24.73200
C  35.95600 51.28400 24.63800
C  35.60500 54.40600 26.76100
C  36.00100 53.58300 23.51600
O  36.06000 53.14200 22.34400
C  36.05300 55.13000 23.79900
N  36.23500 48.07200 24.33400
C  36.27100 49.06600 23.37900
C  36.58300 48.41100 21.92900
C  36.99900 46.98400 22.26500
C  36.63400 46.90900 23.80500
C  35.40000 48.60400 20.93300
C  38.51700 46.66400 21.97900
C  38.87800 46.10200 20.60700
N  36.56600 46.72200 26.79600
C  36.63300 45.56000 25.96200
C  36.68700 44.35400 26.80600
C  36.54500 44.83200 28.10900
C  36.39600 46.25400 28.04800
C  36.82300 42.95200 26.32400
C  36.39900 44.42500 29.51400
O  36.48000 43.32400 30.06900
C  36.09000 45.66800 30.37900
C  34.82000 45.42600 31.05800
O  33.74100 45.55000 30.45400
O  34.94800 45.06100 32.38700
C  33.68700 44.70600 33.10500
H  35.39200 52.44500 28.82800
H  36.39900 50.91400 22.56100
H  36.77900 44.74100 23.97800
H  35.22000 48.31500 31.43800
H  36.00000 51.07800 31.02900
H  33.26800 50.93200 29.93600
H  33.57800 51.47000 31.47200
H  33.38800 49.74100 31.30100
H  37.97300 49.68500 31.28200
H  37.86600 47.96900 31.17300
H  38.07500 49.72900 33.53700
H  37.98900 47.96700 33.45600
H  36.60800 54.83100 26.73600
H  35.29900 54.47100 27.80600
H  34.92300 54.89400 26.06400
H  35.08000 55.57300 24.01200
H  36.38100 55.57300 22.85800
H  36.84800 55.39900 24.49500
H  37.44400 48.95400 21.54000
H  36.33900 46.23400 21.83000
H  35.81200 48.82300 19.94800
H  34.79300 49.48400 21.14500
H  34.79500 47.69800 20.89600
H  38.79600 45.95100 22.75500
H  39.09500 47.58100 22.09100
H  39.51400 46.79500 20.05600
H  38.01700 45.66900 20.09700
H  39.59000 45.29400 20.77200
H  36.44200 42.80100 25.31300
H  36.34800 42.39100 27.12900
H  37.88800 42.73400 26.39400
H  36.84500 45.89700 31.13000
H  33.56700 43.64000 33.29500
H  32.85900 45.05600 32.49000
H  33.74100 45.27000 34.03600

