79

Mg 0.12100 7.67100 26.36300
C  0.83200 9.37700 29.21600
C  -0.12700 4.70000 28.11900
C  0.06000 5.95800 23.35400
C  0.87500 10.56700 24.44200
N  0.28300 7.08300 28.51200
C  0.40800 8.01600 29.49400
C  0.38900 7.32200 30.85200
C  -0.00900 5.82800 30.52700
C  0.05500 5.79100 28.97300
C  1.03600 4.72900 31.14400
C  -0.59400 8.15100 31.82500
C  -0.18400 8.43000 33.28300
H  0.85000 7.54100 33.90600
N  -0.10600 5.66100 25.78800
C  -0.18000 4.60300 26.69800
C  -0.46800 3.43900 25.95300
C  -0.40900 3.69400 24.53400
C  -0.22500 5.19300 24.49600
C  -0.76400 2.12100 26.66200
C  -0.64400 2.80100 23.31200
O  -0.78300 3.25600 22.20500
C  -0.79200 1.25500 23.52100
N  0.21700 8.23300 24.19700
C  0.23700 7.33900 23.22500
C  0.56600 7.92800 21.90500
C  0.35200 9.43300 22.18800
C  0.54900 9.47800 23.68900
C  1.99500 7.58100 21.48800
C  -1.04100 9.89500 21.86900
C  -1.09000 11.42600 21.94300
N  0.55900 9.61900 26.67700
C  0.90000 10.69500 25.83600
C  1.27800 11.87500 26.62100
C  1.31400 11.35200 27.96800
C  0.93900 9.97600 27.93900
C  1.66300 13.22600 26.10800
C  1.80100 11.72400 29.25900
O  2.36100 12.77600 29.62200
C  1.42700 10.54400 30.17500
C  2.59000 10.14700 30.99800
O  3.57400 9.46400 30.70700
O  2.45300 10.82700 32.20200
C  3.60100 10.85600 33.10000
H  -0.32300 3.73100 28.58300
H  0.20000 5.32200 22.47700
H  1.36200 11.34300 23.84800
H  1.41900 7.31700 31.21100
H  -0.97900 5.49800 30.89800
H  1.33300 4.10200 30.30300
H  0.50100 4.09400 31.85100
H  1.88000 5.18300 31.66300
H  -1.45500 7.48400 31.86100
H  -1.01700 9.05800 31.39300
H  -1.05800 8.27100 33.91400
H  0.07500 9.47900 33.43000
H  -1.38400 1.51000 26.00700
H  -1.38700 2.22400 27.55100
H  0.09700 1.52600 26.96700
H  -0.57600 0.77600 22.56600
H  -1.82700 0.97000 23.71000
H  -0.09800 0.81700 24.23900
H  -0.11800 7.61600 21.11700
H  1.11500 10.11300 21.80900
H  2.47100 6.74500 22.00100
H  2.74500 8.35100 21.66700
H  2.02200 7.53700 20.39900
H  -1.80500 9.70000 22.62200
H  -1.45400 9.41600 20.98100
H  -1.40300 11.78600 20.96300
H  -0.09900 11.87800 21.98800
H  -1.76700 11.79000 22.71700
H  0.91800 13.54600 25.37900
H  2.67000 13.13700 25.70000
H  1.60600 13.99700 26.87600
H  0.62400 10.75200 30.88100
H  3.25900 10.77200 34.13100
H  4.01900 11.86000 33.02300
H  4.45100 10.19700 32.92900

