79

Mg 16.77400 51.56400 26.30700
C  18.76400 50.15500 28.75400
C  14.29200 52.01500 28.56900
C  14.76500 52.35000 23.78800
C  19.20600 50.46800 23.88600
N  16.53900 51.12500 28.40900
C  17.53900 50.67400 29.22100
C  17.06500 50.71100 30.71800
C  15.59700 51.15100 30.54300
C  15.41500 51.35100 29.11100
C  14.52300 50.18200 31.13200
C  17.93700 51.64900 31.74900
C  17.86700 51.27600 33.21400
H  16.85900 52.00800 34.16400
N  14.85600 52.30400 26.24700
C  13.99800 52.41400 27.23200
C  12.75500 53.11600 26.75600
C  12.87400 53.19500 25.38000
C  14.16700 52.56100 25.04900
C  11.64400 53.53600 27.62300
C  11.93700 53.77800 24.42800
O  12.11000 53.82400 23.19800
C  10.59900 54.36700 24.90000
N  16.95500 51.40200 24.13200
C  15.94700 51.74300 23.34500
C  16.29800 51.58200 21.85400
C  17.87100 51.46700 21.89700
C  18.04800 51.03100 23.39200
C  15.38700 50.57200 21.11200
C  18.68000 52.72900 21.56000
C  19.72800 52.45800 20.41100
N  18.54400 50.46800 26.23100
C  19.49200 50.28300 25.25600
C  20.68500 49.69100 25.87400
C  20.48300 49.60200 27.22700
C  19.18600 50.15600 27.41400
C  21.88100 49.12300 25.17100
C  21.10400 49.26800 28.47300
O  22.21500 48.86600 28.77900
C  20.00200 49.67300 29.56900
C  19.59300 48.58400 30.35300
O  18.78300 47.77200 30.02300
O  20.19900 48.68800 31.60500
C  19.67700 47.66100 32.51100
H  13.43500 52.13900 29.23400
H  14.17100 52.61300 22.91000
H  20.09800 50.19300 23.32100
H  17.17000 49.66400 31.00300
H  15.33900 52.16800 30.83700
H  13.85700 50.83700 31.69400
H  14.90100 49.58700 31.96400
H  14.09700 49.52300 30.37600
H  17.75100 52.72300 31.72600
H  18.98100 51.47100 31.49000
H  18.91200 51.34900 33.51800
H  17.66200 50.20500 33.19700
H  11.37400 54.59000 27.55600
H  11.74500 53.21400 28.65900
H  10.88400 52.85100 27.24800
H  9.99100 54.59200 24.02400
H  10.84600 55.25600 25.48000
H  10.03500 53.63600 25.47900
H  15.96000 52.50800 21.38900
H  18.16000 50.59100 21.31600
H  14.76200 49.85200 21.64100
H  16.03700 49.95000 20.49600
H  14.81100 51.23300 20.46400
H  19.20200 53.06400 22.45600
H  17.95000 53.48100 21.26200
H  19.35600 52.72400 19.42200
H  19.96300 51.40000 20.29400
H  20.59600 53.08000 20.63200
H  21.66000 48.72800 24.17900
H  22.07700 48.27400 25.82500
H  22.82200 49.67300 25.18900
H  20.40400 50.48400 30.17700
H  20.02300 46.66000 32.25400
H  18.59100 47.66300 32.41500
H  20.00700 47.94900 33.50900

