79

Mg 53.78700 23.90600 44.75700
C  51.50500 26.39400 43.78600
C  51.79000 21.59100 43.28500
C  56.34100 21.74400 45.34300
C  55.91200 26.52000 45.61300
N  51.93000 24.00400 43.65300
C  51.21800 25.12400 43.28100
C  49.92200 24.81500 42.46400
C  49.89700 23.25300 42.69300
C  51.27000 22.87700 43.16700
C  48.66600 22.70700 43.50400
C  50.00800 25.18300 40.91500
C  51.45200 25.67500 40.43200
H  51.55500 26.18300 38.96800
N  54.07800 21.95400 44.34700
C  53.08700 21.13100 43.87700
C  53.53200 19.71200 44.02400
C  54.83500 19.69400 44.56500
C  55.13900 21.14700 44.78200
C  52.64200 18.51200 43.62100
C  55.62600 18.42100 44.93600
O  55.29300 17.26000 44.68400
C  56.89100 18.52200 45.78100
N  55.87500 24.15900 45.19500
C  56.67700 23.07800 45.51300
C  58.16500 23.46800 45.77100
C  57.97100 25.05200 45.80800
C  56.51800 25.26200 45.49100
C  58.96200 22.74100 46.91300
C  58.96500 25.88200 44.91500
C  60.43800 26.16800 45.35700
N  53.63700 26.00900 44.95800
C  54.56600 26.95300 45.31200
C  53.95500 28.27700 45.45400
C  52.69400 28.06200 44.90000
C  52.55700 26.72100 44.55000
C  54.48300 29.55600 45.98400
C  51.46500 28.73600 44.47300
O  51.10900 29.89200 44.68300
C  50.56700 27.63600 43.85000
C  50.04100 28.12500 42.52500
O  50.74100 28.58400 41.64900
O  48.70400 27.92500 42.44100
C  48.00800 28.53700 41.28400
H  51.27000 20.76800 42.78900
H  57.17300 21.09900 45.63300
H  56.54800 27.29500 46.04500
H  48.95900 25.22300 42.77100
H  49.82400 22.65500 41.78500
H  48.12500 21.90000 43.00900
H  47.98300 23.49800 43.81200
H  48.99800 22.22800 44.42500
H  49.25000 25.92300 40.65900
H  49.73900 24.31000 40.31900
H  52.15500 24.85000 40.54800
H  51.81800 26.47200 41.08000
H  51.57300 18.72200 43.59200
H  52.62900 17.66100 44.30200
H  52.86300 18.12000 42.62800
H  56.62500 19.06600 46.68700
H  57.68500 19.02500 45.22900
H  57.20900 17.54300 46.13900
H  58.79400 23.34700 44.88900
H  58.06100 25.24900 46.87600
H  58.50500 21.77400 47.12800
H  59.04900 23.43700 47.74800
H  59.95400 22.51900 46.51900
H  58.53000 26.86900 44.75800
H  59.08300 25.32500 43.98500
H  60.48100 27.17500 45.77200
H  61.21100 25.99100 44.60900
H  60.58500 25.46900 46.18000
H  53.62800 30.18400 45.73200
H  55.42200 29.80400 45.48900
H  54.55700 29.40000 47.06000
H  49.76200 27.38300 44.54000
H  48.52600 29.43600 40.95100
H  46.99800 28.78700 41.61000
H  47.96300 27.84500 40.44300

