79

Mg 48.06400 15.91300 28.72000
C  45.82000 15.33600 31.33700
C  50.13800 17.44100 30.87500
C  49.90100 16.81700 26.09200
C  45.73000 14.54000 26.51000
N  47.93100 16.41300 30.83800
C  47.02100 16.01900 31.78000
C  47.31000 16.36600 33.18200
C  48.53800 17.32300 32.93300
C  48.97100 17.04400 31.52600
C  48.26900 18.81100 33.33600
C  47.49900 15.11500 34.13300
C  46.67400 15.02500 35.40300
H  46.57800 16.18600 36.39100
N  49.80800 16.90900 28.55700
C  50.62600 17.42000 29.56500
C  51.85700 17.89300 29.02100
C  51.77600 17.71000 27.59600
C  50.41700 17.18400 27.36600
C  52.99100 18.38800 29.89000
C  52.87600 17.94500 26.55900
O  52.89500 17.59000 25.38300
C  54.09900 18.74900 26.91900
N  47.77200 15.93800 26.50700
C  48.67300 16.30600 25.62400
C  48.31600 15.92900 24.14300
C  47.03500 15.06000 24.43000
C  46.86500 15.08500 25.91600
C  48.17800 17.10400 23.07900
C  47.17100 13.67400 23.71500
C  46.45000 13.56700 22.27900
N  46.18500 15.08500 28.86100
C  45.38500 14.56000 27.91000
C  44.22000 13.94900 28.41700
C  44.25200 14.32800 29.80100
C  45.53100 14.94500 30.00900
C  43.09000 13.35400 27.66200
C  43.57400 14.24400 31.03400
O  42.49300 13.67200 31.36200
C  44.50000 14.99300 32.13300
C  43.75600 15.97900 32.82200
O  43.50000 17.11200 32.49500
O  43.38600 15.47700 34.03300
C  42.76400 16.49800 34.87400
H  50.75500 17.95100 31.61700
H  50.53000 17.13300 25.25800
H  45.06500 13.93200 25.89300
H  46.42300 16.88600 33.54400
H  49.33600 16.94800 33.57500
H  48.97100 19.24900 34.04600
H  47.20800 18.92500 33.56000
H  48.39100 19.34800 32.39500
H  48.55100 14.90800 34.33000
H  47.18600 14.24300 33.55700
H  47.11500 14.17700 35.92700
H  45.65700 14.71500 35.16300
H  52.91900 19.40700 30.27000
H  54.02500 18.35200 29.54500
H  52.99100 17.74000 30.76700
H  54.93700 18.17800 27.31900
H  53.81000 19.58000 27.56200
H  54.44400 19.24300 26.01100
H  49.20300 15.39100 23.80900
H  46.15900 15.62700 24.11600
H  47.10700 17.27200 22.96600
H  48.77600 16.87400 22.19800
H  48.58400 18.04600 23.44900
H  46.79600 12.82100 24.28000
H  48.22200 13.46800 23.51500
H  46.87300 14.08400 21.41800
H  45.41700 13.91500 22.28900
H  46.53400 12.48600 22.16500
H  42.62600 14.12200 27.04300
H  42.34000 12.86200 28.28200
H  43.56400 12.52700 27.13400
H  44.74700 14.20700 32.84700
H  43.49200 17.23900 35.20200
H  42.20900 16.08100 35.71400
H  41.98700 17.02900 34.32400

