79

Mg 41.23400 9.36800 29.82200
C  43.04600 10.55400 32.48700
C  38.93500 7.95600 31.94900
C  39.86400 7.83400 27.10700
C  43.85500 10.35800 27.71100
N  40.97300 9.30400 32.02900
C  41.90800 9.76000 32.90300
C  41.39700 9.60700 34.32300
C  40.07300 8.75100 34.13300
C  39.96500 8.61900 32.60200
C  39.97600 7.34200 34.82800
C  41.32800 10.86900 35.23800
C  40.50600 10.89400 36.53000
H  41.34300 11.14800 37.87400
N  39.56400 8.18800 29.57800
C  38.74000 7.67100 30.59300
C  37.61500 6.99700 29.97500
C  37.86400 7.05300 28.52000
C  39.16100 7.68800 28.36100
C  36.52900 6.20500 30.74900
C  37.05800 6.49000 27.41700
O  37.34300 6.61000 26.21500
C  35.74300 5.98400 27.72000
N  41.80100 9.15100 27.65300
C  40.98400 8.57400 26.76300
C  41.61800 8.61900 25.32400
C  42.72400 9.61300 25.47200
C  42.83600 9.71500 27.02700
C  41.98900 7.19100 24.82100
C  42.51400 10.99800 24.73500
C  41.93200 12.16000 25.55600
N  43.12000 10.22300 29.98000
C  44.02800 10.58500 29.09800
C  45.13300 11.24100 29.73400
C  44.83300 11.25600 31.11200
C  43.54400 10.67600 31.19000
C  46.49800 11.46600 29.08300
C  45.33700 11.53400 32.43600
O  46.44300 11.95700 32.81600
C  44.14000 11.09700 33.38300
C  44.66600 10.21300 34.38500
O  44.55900 8.99000 34.38100
O  45.19300 10.96800 35.38800
C  45.51200 10.17600 36.59200
H  38.10100 7.55800 32.53000
H  39.38400 7.43600 26.21100
H  44.70800 10.71500 27.13000
H  42.07800 8.92400 34.83300
H  39.20100 9.23300 34.57400
H  38.90800 7.17100 34.96200
H  40.56500 7.29800 35.74500
H  40.36000 6.57400 34.15800
H  41.17000 11.72900 34.58700
H  42.29900 11.13900 35.65200
H  39.99700 9.93100 36.55700
H  39.59600 11.48600 36.44000
H  36.64600 5.16300 30.44900
H  35.53000 6.64000 30.73100
H  36.60600 6.25500 31.83500
H  35.09600 5.84700 26.85400
H  35.28300 6.66700 28.43400
H  35.97000 4.98400 28.09000
H  40.79200 9.09000 24.79100
H  43.61000 9.09400 25.10600
H  41.83100 6.51300 25.65900
H  43.02700 7.06700 24.51100
H  41.27700 6.87100 24.06000
H  41.93300 10.88300 23.82000
H  43.48400 11.39400 24.43600
H  41.44400 11.86100 26.48300
H  41.23100 12.72500 24.94200
H  42.72600 12.87100 25.78400
H  46.70000 10.82300 28.22600
H  47.26800 11.36100 29.84800
H  46.49300 12.51500 28.78700
H  43.86500 12.06100 33.81100
H  45.70300 10.88900 37.39400
H  46.46900 9.70400 36.37200
H  44.77100 9.44900 36.92300

