79

Mg 48.41900 35.03100 26.89600
C  46.66200 33.76000 29.66900
C  49.55100 37.50300 28.90300
C  49.79300 36.49200 24.20400
C  47.25200 32.40700 24.92000
N  48.11500 35.54400 29.00000
C  47.43700 34.88400 29.93400
C  47.75900 35.42000 31.38100
C  48.48500 36.76400 31.02100
C  48.69900 36.65500 29.54400
C  47.60200 38.01900 31.46700
C  48.71700 34.50400 32.22400
C  48.57500 34.48500 33.78300
H  47.77700 35.56000 34.53900
N  49.57200 36.71800 26.58600
C  49.94800 37.60700 27.52800
C  50.95500 38.47300 27.03000
C  51.01500 38.25300 25.63700
C  50.10500 37.10400 25.39400
C  51.58500 39.57800 27.87700
C  51.75100 38.98000 24.45700
O  51.80100 38.60800 23.22700
C  52.66900 40.18100 24.93000
N  48.37100 34.55200 24.79000
C  49.04800 35.33200 23.90600
C  49.01500 34.65700 22.44900
C  48.31400 33.30100 22.75500
C  47.95000 33.44500 24.21500
C  48.32900 35.53800 21.37300
C  49.21000 32.05600 22.36200
C  50.52200 31.96800 23.02000
N  47.18500 33.42600 27.16400
C  46.86500 32.39100 26.26200
C  46.17800 31.34800 27.03200
C  45.98700 31.90700 28.32800
C  46.65700 33.10200 28.32300
C  45.42100 30.21400 26.44800
C  45.30300 31.62100 29.55900
O  44.64800 30.69300 29.94000
C  45.68600 32.81100 30.49400
C  46.18000 32.37200 31.79100
O  46.87100 31.38100 32.01700
O  45.60400 33.17600 32.71800
C  45.36300 32.58900 34.03900
H  50.01600 38.30200 29.48500
H  50.23600 37.02600 23.36100
H  47.09300 31.46300 24.39700
H  46.83200 35.63700 31.91000
H  49.42600 36.89000 31.55700
H  48.11400 38.60300 32.23200
H  46.64800 37.70500 31.88800
H  47.34000 38.56900 30.56300
H  49.75000 34.69000 31.92900
H  48.45600 33.49700 31.90100
H  49.58100 34.31000 34.16500
H  48.05100 33.54600 33.96300
H  52.53100 39.96100 27.49400
H  51.69500 39.27500 28.91800
H  50.97100 40.47400 27.97100
H  53.60400 39.78800 25.32900
H  52.10200 40.79000 25.63500
H  52.90800 40.65800 23.97900
H  50.07300 34.62800 22.18500
H  47.39000 33.17400 22.19200
H  47.94000 36.44200 21.84400
H  47.46500 35.11200 20.86200
H  49.00000 35.88100 20.58600
H  49.33700 31.98400 21.28200
H  48.65800 31.19800 22.74500
H  51.21700 31.60500 22.26300
H  50.61800 31.28600 23.86500
H  50.80500 32.95300 23.39100
H  45.32500 30.26700 25.36300
H  44.41800 30.22400 26.87400
H  45.91900 29.28100 26.71200
H  44.79500 33.42100 30.64500
H  45.57000 31.56000 34.33500
H  44.30300 32.81100 34.15700
H  45.82500 33.20300 34.81100

