79

Mg 46.49200 24.72400 27.88800
C  47.53800 26.71900 30.71300
C  45.35200 22.34600 30.18700
C  46.35300 22.50300 25.34500
C  48.12200 26.97200 25.85400
N  46.23500 24.60000 30.24100
C  46.77800 25.59300 31.11400
C  46.30300 25.30400 32.54700
C  45.60400 23.80500 32.40100
C  45.75100 23.55600 30.88300
C  46.19700 22.69200 33.33200
C  45.41500 26.37800 33.26700
C  45.94100 26.98000 34.59300
H  44.88900 27.09100 35.74500
N  45.73100 22.84100 27.74200
C  45.34900 22.06100 28.84900
C  44.94100 20.73200 28.31000
C  45.23500 20.80500 26.88700
C  45.75200 22.11100 26.61900
C  44.54700 19.57200 29.18700
C  44.97900 19.61200 25.83700
O  45.27500 19.67500 24.66500
C  44.45100 18.18100 26.37700
N  47.12700 24.71200 25.85200
C  46.92600 23.76200 24.99200
C  47.36700 24.14200 23.52500
C  47.86100 25.66500 23.77700
C  47.75500 25.75800 25.28200
C  48.54300 23.26900 22.98700
C  46.93200 26.73700 23.08600
C  47.59700 27.97500 22.46400
N  47.61000 26.44400 28.17300
C  48.16300 27.29200 27.25000
C  48.90900 28.39100 27.92100
C  48.61900 28.17800 29.22700
C  47.93400 26.95600 29.36700
C  49.79100 29.52700 27.34500
C  48.82300 28.78900 30.54300
O  49.38900 29.82000 30.84500
C  48.04000 27.84800 31.56700
C  48.92500 27.33700 32.65600
O  49.67500 26.41400 32.37900
O  48.80100 27.97000 33.88300
C  49.80200 27.54100 34.91100
H  45.00600 21.66200 30.96500
H  46.34600 21.75800 24.54700
H  48.58100 27.76600 25.26200
H  47.23300 25.13000 33.08800
H  44.54700 23.79300 32.66700
H  45.38600 22.01600 33.60600
H  46.55600 23.05100 34.29600
H  47.06500 22.17800 32.92100
H  44.46000 25.92600 33.53200
H  45.14000 27.12000 32.51800
H  46.28500 27.99200 34.38200
H  46.85500 26.47300 34.90500
H  43.48200 19.36300 29.08400
H  44.65000 19.85000 30.23600
H  45.16100 18.69800 28.96900
H  45.12400 17.78100 27.13600
H  44.63100 17.63300 25.45300
H  43.39600 18.10400 26.64100
H  46.47200 24.03300 22.91300
H  48.88400 25.80400 23.42900
H  49.28100 23.71100 22.31700
H  48.14300 22.45600 22.38100
H  49.02300 22.72800 23.80200
H  46.23400 27.04400 23.86500
H  46.36800 26.25100 22.29000
H  47.25200 28.90700 22.91300
H  47.29000 28.07400 21.42300
H  48.67400 27.83300 22.54900
H  49.13400 30.03900 26.64200
H  50.70800 29.10400 26.93500
H  49.99500 30.21500 28.16600
H  47.35100 28.47100 32.13800
H  49.62100 27.92100 35.91700
H  50.76000 27.95700 34.60200
H  49.86800 26.45300 34.87400

