79

Mg 1.88500 42.04400 24.80400
C  3.10400 42.22600 28.18900
C  -1.06200 40.65800 26.19600
C  0.96800 41.06200 21.79300
C  5.02800 42.89500 23.71900
N  1.17500 41.57300 26.98200
C  1.73700 41.84000 28.16700
C  0.81600 41.70900 29.34900
C  -0.46800 41.06300 28.69900
C  -0.08800 41.08100 27.17400
C  -0.91500 39.66700 29.12500
C  0.50500 43.01100 30.22000
C  0.43200 42.88800 31.77800
H  -0.20200 41.67000 32.42600
N  0.26600 41.01900 24.07300
C  -0.89100 40.60100 24.78200
C  -1.84000 40.01500 23.85200
C  -1.31400 40.24200 22.55100
C  0.06400 40.79000 22.78000
C  -3.17900 39.37300 24.10600
C  -1.98200 39.93300 21.22600
O  -1.44500 40.26600 20.19900
C  -3.28400 39.39800 21.04800
N  2.86800 42.04000 23.05200
C  2.25000 41.61900 21.84000
C  3.15900 41.81900 20.64100
C  4.30700 42.68600 21.27000
C  4.04900 42.55900 22.80100
C  3.67400 40.44300 20.06000
C  4.31400 44.08700 20.73800
C  3.61500 45.17900 21.59200
N  3.65700 42.50000 25.69400
C  4.88300 42.73200 25.12700
C  5.96100 42.83500 26.15900
C  5.27700 42.72700 27.37900
C  3.88000 42.42000 27.04900
C  7.39600 43.22100 25.99400
C  5.43100 42.69200 28.82600
O  6.42700 42.72400 29.55400
C  3.98500 42.32000 29.40400
C  4.10500 41.00200 30.15600
O  4.53500 39.93500 29.67100
O  3.69700 41.20500 31.42100
C  3.90800 40.13100 32.36900
H  -2.04300 40.33000 26.54700
H  0.68100 40.82600 20.76700
H  6.00200 43.21500 23.34400
H  1.31100 41.00400 30.01700
H  -1.29900 41.76600 28.64800
H  -0.38200 39.04600 28.40500
H  -1.99600 39.67200 28.98600
H  -0.54900 39.41300 30.12000
H  -0.46900 43.38000 29.90100
H  1.22700 43.78100 29.95000
H  -0.17500 43.75500 32.04000
H  1.46200 42.99700 32.11700
H  -3.96700 39.75000 23.45500
H  -3.53900 39.67100 25.09000
H  -3.12300 38.28400 24.12600
H  -3.40800 38.42500 21.52300
H  -3.47200 39.09100 20.01800
H  -3.95300 40.24600 21.19300
H  2.64600 42.25300 19.78200
H  5.30100 42.29300 21.05700
H  4.69800 40.25800 20.38700
H  3.68400 40.46500 18.97000
H  3.07700 39.59000 20.38300
H  3.80100 44.11900 19.77700
H  5.36600 44.31300 20.56500
H  3.02900 44.67000 22.35700
H  2.90700 45.72700 20.96900
H  4.36900 45.86600 21.97700
H  7.53900 44.27500 25.76000
H  7.72100 42.54700 25.20100
H  7.94900 43.06200 26.92000
H  3.64700 43.14900 30.02700
H  3.96300 39.18900 31.82300
H  3.24600 40.24700 33.22800
H  4.83600 40.45000 32.84300

