79

Mg 44.11800 3.68500 46.81400
C  42.17300 6.51400 47.14300
C  41.19400 1.89800 46.47200
C  45.88900 1.03600 45.57400
C  46.99300 5.59100 46.75000
N  41.91400 4.22200 46.64600
C  41.34500 5.40600 46.99600
C  39.80800 5.20800 47.28400
C  39.57300 3.66800 47.14900
C  40.99400 3.23100 46.87100
C  38.98000 3.06100 48.40400
C  38.87000 6.16600 46.47600
C  38.93800 5.88300 44.95600
H  39.13400 7.08100 43.96400
N  43.59100 1.63700 46.22600
C  42.30600 1.08700 46.13900
C  42.43200 -0.25700 45.79100
C  43.79400 -0.50700 45.52900
C  44.50400 0.77400 45.79900
C  41.19100 -1.14000 45.58500
C  44.25900 -1.81400 44.95200
O  43.47900 -2.75500 44.79000
C  45.70700 -2.16700 44.63800
N  46.25400 3.32000 46.43000
C  46.69000 2.11000 45.97600
C  48.16300 2.31200 45.60000
C  48.66100 3.67600 46.26900
C  47.24200 4.21600 46.62500
C  49.07700 1.16700 45.71800
C  49.44500 4.50500 45.18300
C  50.87300 4.98500 45.63700
N  44.56200 5.60500 46.86500
C  45.75300 6.24800 46.79800
C  45.50900 7.67300 47.08800
C  44.13400 7.81800 47.15400
C  43.57900 6.56300 47.02600
C  46.47500 8.67100 47.21000
C  43.04900 8.70400 47.43300
O  43.13000 9.90400 47.78500
C  41.77600 7.91200 47.49100
C  41.01900 8.14800 48.78400
O  41.32900 7.68600 49.88200
O  39.84800 8.85000 48.46100
C  38.98500 9.08400 49.68800
H  40.25600 1.33800 46.46200
H  46.39800 0.25100 45.01100
H  47.87400 6.23000 46.66500
H  39.62400 5.56100 48.29900
H  38.93700 3.34100 46.32600
H  38.65600 3.68900 49.23500
H  39.66300 2.42900 48.97200
H  38.05500 2.50900 48.23700
H  39.25800 7.17300 46.63000
H  37.82600 6.10100 46.78000
H  38.03300 5.43600 44.54400
H  39.74200 5.15100 44.88300
H  41.19200 -1.97900 46.28100
H  41.20700 -1.63300 44.61300
H  40.22900 -0.62800 45.59100
H  46.29100 -1.80900 45.48600
H  46.05000 -1.75900 43.68700
H  45.86900 -3.23600 44.50000
H  48.00500 2.59500 44.55900
H  49.11200 3.47100 47.24000
H  49.24400 0.86700 44.68400
H  48.66800 0.40000 46.37600
H  50.02400 1.48400 46.15600
H  48.86500 5.39000 44.92000
H  49.60300 3.97000 44.24600
H  50.68500 6.00800 45.96500
H  51.46700 5.05200 44.72600
H  51.44000 4.43400 46.38700
H  47.24400 8.51800 46.45300
H  46.91100 8.67200 48.20900
H  46.09200 9.65800 46.94700
H  41.08400 8.26600 46.72600
H  39.17100 10.13900 49.88800
H  39.18900 8.56800 50.62600
H  37.94300 8.90500 49.42200

