79

Mg 41.00900 9.38400 30.12500
C  42.72900 10.89000 33.00100
C  38.63500 8.38700 32.21400
C  39.68700 7.79800 27.48500
C  43.80300 10.32000 28.26800
N  40.80600 9.57400 32.34200
C  41.52800 10.27300 33.39000
C  40.92600 10.10500 34.78300
C  39.65100 9.25800 34.41000
C  39.69100 9.06600 32.88300
C  39.51600 7.92500 35.31000
C  40.68700 11.47500 35.44200
C  40.83200 11.47200 37.01100
H  41.30500 12.77300 37.73500
N  39.35900 8.26200 29.84200
C  38.45000 8.01600 30.80300
C  37.31100 7.35400 30.15500
C  37.59900 7.17000 28.78300
C  38.94400 7.72300 28.65300
C  36.07300 7.00800 30.99500
C  36.76000 6.51400 27.63800
O  37.23800 6.34900 26.55100
C  35.35200 6.11400 27.94900
N  41.63000 9.19100 28.15300
C  40.85400 8.54500 27.17800
C  41.46100 8.73400 25.78100
C  42.70100 9.50700 26.06300
C  42.72800 9.64600 27.59900
C  41.59100 7.33100 25.02200
C  43.06500 10.84700 25.26200
C  42.43000 12.18300 25.76400
N  42.89400 10.32700 30.47600
C  43.87600 10.72500 29.62500
C  44.86400 11.54400 30.30300
C  44.39900 11.56800 31.61700
C  43.24100 10.82400 31.66600
C  46.11100 12.13800 29.70800
C  44.79600 12.16000 32.87000
O  45.73500 12.82100 33.13700
C  43.65600 11.63400 33.92000
C  44.27700 10.79600 34.96900
O  45.05100 9.79700 34.81500
O  44.05600 11.37100 36.24800
C  44.71000 10.75600 37.45700
H  37.84000 8.04100 32.87700
H  39.22800 7.29000 26.63400
H  44.68200 10.62400 27.69600
H  41.65600 9.48800 35.30700
H  38.85400 9.91700 34.75600
H  40.48300 7.45700 35.49700
H  39.01700 7.14800 34.73000
H  38.96000 8.06500 36.23700
H  39.64300 11.73800 35.27600
H  41.26600 12.29800 35.02300
H  41.64400 10.80100 37.29200
H  39.94800 11.17100 37.57300
H  35.87700 5.93600 31.03600
H  35.24700 7.40700 30.40700
H  36.02400 7.35700 32.02700
H  34.97000 5.77100 26.98800
H  34.87700 7.06300 28.19700
H  35.36300 5.43200 28.79900
H  40.67700 9.29600 25.27300
H  43.55000 8.83700 25.93000
H  40.89500 7.23600 24.18800
H  41.37000 6.54200 25.74200
H  42.59500 7.14500 24.64300
H  42.81500 10.72800 24.20700
H  44.15500 10.85900 25.25800
H  41.75300 12.50400 24.97300
H  43.17900 12.97100 25.84500
H  41.72600 12.01100 26.57900
H  46.62500 12.64000 30.52800
H  45.83200 12.86700 28.94600
H  46.73000 11.37900 29.22900
H  43.18700 12.52900 34.32900
H  45.68000 11.21100 37.65900
H  44.93300 9.70300 37.28900
H  44.11100 10.75300 38.36800

