79

Mg 28.25800 56.50700 40.36900
C  25.98600 53.95900 39.32600
C  30.65100 54.58000 38.91800
C  30.37300 59.16400 40.20600
C  25.50500 58.68700 40.63600
N  28.19500 54.53000 39.14200
C  27.26300 53.65800 38.91500
C  27.76900 52.37600 38.25700
C  29.32600 52.53500 38.43500
C  29.40500 53.98700 38.93500
C  29.90600 51.64000 39.48000
C  27.29900 52.09200 36.86200
C  27.81800 53.12500 35.73500
H  26.82400 53.71100 34.71400
N  30.33400 56.77600 39.87600
C  31.11800 55.85500 39.30300
C  32.50700 56.34900 39.30700
C  32.38600 57.74400 39.72900
C  31.00400 57.97200 40.00000
C  33.69900 55.53900 38.82100
C  33.58300 58.70500 39.81300
O  34.66200 58.36800 39.26300
C  33.51000 59.97400 40.59900
N  27.98000 58.55000 40.36100
C  29.02100 59.44600 40.37200
C  28.46200 60.88700 40.62100
C  26.91900 60.77700 40.51200
C  26.78300 59.26700 40.50600
C  28.87700 61.40600 41.98500
C  26.30800 61.41600 39.26600
C  25.23000 62.48700 39.53800
N  26.19400 56.30300 40.36400
C  25.20100 57.27800 40.55700
C  23.89700 56.59000 40.56700
C  24.18600 55.26900 40.09000
C  25.59200 55.21200 39.93300
C  22.62000 57.31400 40.98800
C  23.58600 54.00000 39.81000
O  22.42200 53.63000 39.86500
C  24.72100 53.09700 39.19800
C  24.81300 51.81200 39.95700
O  24.53100 50.69600 39.50200
O  25.37900 52.02600 41.23700
C  25.66100 50.81500 42.07200
H  31.42300 53.93200 38.49700
H  30.92900 60.08500 40.01800
H  24.63200 59.33800 40.71400
H  27.41800 51.55900 38.88700
H  29.83300 52.36900 37.48400
H  29.39000 50.68900 39.61100
H  29.97700 52.16100 40.43500
H  30.91500 51.38800 39.15400
H  26.21200 52.02200 36.91600
H  27.73300 51.14100 36.55200
H  28.67400 52.79600 35.14500
H  28.22200 53.95400 36.31500
H  34.03100 55.81800 37.82100
H  33.39900 54.49500 38.73000
H  34.55200 55.61800 39.49300
H  32.69500 59.84200 41.31000
H  33.36400 60.74200 39.83800
H  34.44200 60.31100 41.05300
H  28.86900 61.58900 39.89300
H  26.40400 61.15200 41.39700
H  29.70700 60.90400 42.48300
H  28.04300 61.53400 42.67400
H  29.21400 62.43600 41.86600
H  26.00100 60.53700 38.69900
H  27.04400 61.98000 38.69200
H  25.44700 63.33400 38.88800
H  25.13500 62.83100 40.56800
H  24.33200 62.08900 39.06600
H  21.85100 56.56000 41.15800
H  22.29300 57.85000 40.09800
H  22.84600 57.99000 41.81200
H  24.46300 53.11800 38.13900
H  26.58800 51.07900 42.58000
H  25.80900 49.99500 41.36900
H  24.93400 50.60300 42.85600

