79

Mg 47.60100 25.33800 29.06100
C  48.57600 27.52100 31.62900
C  46.60200 23.15100 31.48000
C  47.18900 23.18000 26.63100
C  48.93300 27.65800 26.72400
N  47.76100 25.34700 31.33500
C  48.11800 26.35000 32.16100
C  47.63300 26.14200 33.60900
C  47.24400 24.62000 33.51400
C  47.13900 24.39100 32.06500
C  48.24800 23.62200 34.11100
C  46.48600 27.10700 34.11800
C  46.84600 27.75900 35.45300
H  45.69700 27.78800 36.53400
N  46.83000 23.46900 29.06500
C  46.43100 22.65800 30.17900
C  45.84900 21.47200 29.63700
C  46.00000 21.47600 28.19800
C  46.72100 22.69500 27.89700
C  45.23200 20.41700 30.61000
C  45.63100 20.46300 27.20900
O  45.78600 20.59200 26.00800
C  44.93000 19.18200 27.60000
N  48.33400 25.37200 27.04100
C  47.87200 24.35800 26.22400
C  48.18100 24.65300 24.71600
C  48.52900 26.18800 24.70600
C  48.56700 26.43600 26.25200
C  49.23000 23.75200 23.99000
C  47.47900 27.13000 24.05900
C  48.09000 28.16700 23.10300
N  48.65500 27.15900 29.12600
C  49.04500 28.01700 28.11600
C  49.59100 29.28400 28.64500
C  49.39500 29.11400 30.03500
C  48.82100 27.78300 30.22600
C  50.16900 30.40900 27.86800
C  49.55200 29.78400 31.26200
O  49.92500 30.90900 31.44500
C  49.17600 28.71900 32.32300
C  50.32800 28.43500 33.17400
O  51.25400 27.69700 32.85200
O  50.24400 29.09200 34.41000
C  51.27400 28.86200 35.38600
H  46.02600 22.53600 32.17500
H  46.79100 22.71000 25.72900
H  49.26700 28.40300 25.99900
H  48.59200 26.22000 34.12200
H  46.33700 24.45300 34.09600
H  49.13900 24.11500 34.49800
H  48.69100 23.07100 33.28100
H  47.71600 22.95600 34.79000
H  45.59400 26.52300 34.34500
H  46.24100 27.87600 33.38600
H  47.03500 28.79500 35.17300
H  47.75600 27.36700 35.90600
H  44.31500 20.04200 30.15500
H  45.13500 20.72200 31.65200
H  45.86500 19.53500 30.70100
H  44.64700 18.60400 26.72100
H  44.00200 19.32000 28.15500
H  45.65900 18.62200 28.18600
H  47.16700 24.49300 24.34900
H  49.54500 26.16700 24.31200
H  50.04700 24.23500 23.45400
H  48.70300 23.14000 23.25800
H  49.67000 23.00300 24.64800
H  46.82400 27.52000 24.83900
H  46.84400 26.47300 23.46500
H  49.14800 27.99900 22.90200
H  47.96100 29.16800 23.51500
H  47.53400 28.16100 22.16600
H  49.73200 30.42500 26.86900
H  51.24500 30.33600 27.70900
H  49.86200 31.37900 28.25800
H  48.40400 29.22300 32.90400
H  50.78900 28.26800 36.16000
H  51.63400 29.79000 35.83100
H  52.17400 28.34300 35.05700

