79

Mg 0.24700 43.44200 25.49400
C  2.52600 42.84900 27.99200
C  -2.28800 42.50500 27.73700
C  -2.10600 43.70600 22.91000
C  2.67700 44.07500 23.17500
N  0.21100 42.49800 27.61200
C  1.27000 42.65600 28.45400
C  0.79900 42.40000 29.91600
C  -0.77700 42.12400 29.78300
C  -1.00900 42.33500 28.28100
C  -1.16000 40.69900 30.34900
C  1.13100 43.61100 30.84700
C  1.58700 43.27600 32.29000
H  1.03800 42.01000 32.99300
N  -1.89900 43.11900 25.36500
C  -2.74000 42.73600 26.42900
C  -4.11800 42.84300 25.99100
C  -4.11500 42.99000 24.55000
C  -2.64000 43.28600 24.20700
C  -5.37800 42.78100 26.90200
C  -5.24000 43.22500 23.58900
O  -5.03500 43.58400 22.44300
C  -6.59200 43.10800 24.07700
N  0.19500 43.84100 23.35800
C  -0.83700 44.01400 22.55000
C  -0.44300 44.51100 21.17100
C  1.02900 44.78400 21.32100
C  1.33700 44.27200 22.69200
C  -0.87800 43.54600 20.01200
C  1.35700 46.29000 21.06800
C  1.47700 47.20100 22.25200
N  2.19400 43.45500 25.51900
C  3.11900 43.85800 24.52900
C  4.49000 43.63600 25.04800
C  4.31800 43.24600 26.37900
C  2.89100 43.15500 26.64100
C  5.78600 43.92100 24.28400
C  5.02100 42.87100 27.60200
O  6.17800 42.63700 27.84500
C  3.90500 42.77800 28.74000
C  4.10400 41.44800 29.42700
O  3.93700 40.36200 28.96300
O  4.52100 41.69300 30.73300
C  4.68300 40.48900 31.51800
H  -3.07900 42.30200 28.46300
H  -2.72600 43.73100 22.01200
H  3.39200 44.26600 22.37100
H  1.41400 41.58200 30.29100
H  -1.33300 42.78800 30.44500
H  -1.64200 40.14000 29.54600
H  -1.76400 41.01000 31.20200
H  -0.34800 40.05000 30.67400
H  0.26800 44.27200 30.92700
H  1.82200 44.29600 30.35500
H  1.38500 44.07000 33.00800
H  2.67400 43.24100 32.20600
H  -5.96500 43.67900 26.70900
H  -4.97800 42.88800 27.91100
H  -5.88900 41.82300 26.80400
H  -7.25600 43.20800 23.21900
H  -6.82700 43.78900 24.89500
H  -6.72900 42.11000 24.49400
H  -0.95400 45.44700 20.94300
H  1.58200 44.22600 20.56500
H  -0.17700 43.36500 19.19600
H  -1.75100 43.92200 19.48000
H  -1.03800 42.61500 20.55600
H  0.69600 46.73100 20.32200
H  2.34300 46.35700 20.60900
H  2.32400 47.88100 22.15700
H  1.48400 46.65200 23.19300
H  0.66400 47.92800 22.25400
H  6.47900 44.61300 24.76200
H  5.38400 44.31900 23.35200
H  6.45000 43.08400 24.06600
H  4.02700 43.59400 29.45300
H  5.69500 40.56500 31.91700
H  4.56000 39.48400 31.11600
H  3.97600 40.54600 32.34600

