79

Mg 0.30100 8.36500 26.42500
C  0.86600 10.18300 29.50600
C  -0.06900 5.50000 28.37200
C  0.31000 6.73600 23.63100
C  1.23400 11.27400 24.80200
N  0.34600 7.96600 28.70300
C  0.56900 8.88300 29.72400
C  0.51600 8.11600 31.08800
C  0.46800 6.58000 30.62600
C  0.20300 6.64900 29.14200
C  1.71500 5.68100 30.99300
C  -0.66600 8.57300 32.00300
C  -0.47000 8.48300 33.58300
H  0.85900 7.89300 34.19400
N  0.08300 6.39100 26.04300
C  -0.00200 5.30900 26.88200
C  -0.03500 4.07300 26.09900
C  -0.08000 4.43900 24.75100
C  0.12400 5.89600 24.79100
C  -0.11400 2.68600 26.69800
C  -0.15600 3.59400 23.55500
O  -0.14400 4.07600 22.42400
C  -0.26300 2.09800 23.70800
N  0.43600 9.01900 24.46100
C  0.54100 8.10200 23.46400
C  0.69300 8.87600 22.13000
C  0.69700 10.37200 22.51600
C  0.91200 10.19600 24.03500
C  2.02200 8.43700 21.44000
C  -0.67900 11.06500 22.39700
C  -1.21200 11.23000 20.88800
N  0.89300 10.42100 26.97500
C  1.17100 11.42300 26.20500
C  1.43500 12.56200 27.00200
C  1.43600 12.06600 28.28400
C  0.97900 10.80900 28.27100
C  1.67700 13.93800 26.63900
C  1.66300 12.46600 29.68500
O  2.00100 13.54100 30.20000
C  1.24200 11.24000 30.50300
C  2.22900 10.86900 31.58800
O  3.27500 10.23000 31.46500
O  1.77800 11.35300 32.77300
C  2.70700 11.45100 33.91700
H  -0.02900 4.53900 28.88900
H  0.37800 6.21900 22.67100
H  1.48400 12.22100 24.31900
H  1.45500 8.33600 31.59500
H  -0.50700 6.20700 30.94200
H  2.41700 6.11400 31.70500
H  2.26700 5.42400 30.08900
H  1.44700 4.72900 31.45100
H  -1.48800 7.88900 31.79100
H  -0.94300 9.59600 31.75000
H  -1.25500 7.82300 33.95200
H  -0.67700 9.49700 33.92500
H  0.18800 2.65100 27.74500
H  0.49400 1.99200 26.11600
H  -1.16500 2.40500 26.63600
H  -0.64100 1.63100 22.79800
H  -1.00800 1.94200 24.48800
H  0.72900 1.74300 23.98700
H  -0.11100 8.77800 21.40100
H  1.48400 10.98000 22.07000
H  2.36700 7.67300 22.13600
H  2.73000 9.25600 21.31100
H  1.81400 7.92900 20.49800
H  -0.69500 12.06400 22.83300
H  -1.40100 10.44200 22.92400
H  -0.39400 11.08500 20.18300
H  -1.58700 12.24300 20.74500
H  -1.98100 10.50200 20.62900
H  1.90500 14.09000 25.58400
H  2.34300 14.39800 27.36800
H  0.71200 14.43600 26.73300
H  0.32400 11.55600 30.99700
H  2.93100 12.51100 34.04100
H  3.67600 11.04400 33.62900
H  2.34400 10.91700 34.79500

