79

Mg 5.33300 54.42400 41.20600
C  4.98300 50.87200 41.04500
C  8.52400 54.12200 40.29300
C  5.41400 57.79600 41.00700
C  2.01700 54.60800 42.19300
N  6.47400 52.64600 40.46300
C  6.26200 51.31000 40.61600
C  7.50400 50.50900 40.42500
C  8.64100 51.56600 40.42600
C  7.83600 52.85200 40.42800
C  9.71800 51.44400 41.55900
C  7.62500 49.50900 39.32200
C  6.97600 49.94700 38.01900
H  7.91700 50.37100 36.97100
N  6.73300 55.86300 40.65800
C  8.03800 55.48700 40.39200
C  8.75700 56.65900 40.02400
C  7.89700 57.76100 40.22400
C  6.62400 57.18400 40.64200
C  10.18700 56.62600 39.48600
C  8.19000 59.28400 40.08700
O  9.28200 59.81300 39.84100
C  7.04700 60.23400 40.00700
N  3.93300 55.99500 41.63900
C  4.23000 57.29800 41.58000
C  3.06700 58.23200 41.83000
C  1.99000 57.21400 42.35500
C  2.63000 55.86400 42.15400
C  3.40300 59.47200 42.72200
C  0.58300 57.32500 41.70000
C  -0.05300 58.72800 41.84500
N  3.73800 53.10300 41.37900
C  2.45100 53.32800 41.87800
C  1.75400 52.05700 42.12000
C  2.68200 51.05100 41.81500
C  3.87600 51.74500 41.32700
C  0.44900 51.90700 42.89200
C  3.03700 49.72700 41.98200
O  2.38400 48.92500 42.60400
C  4.49300 49.52700 41.36100
C  4.42400 48.55600 40.34600
O  4.06500 48.82600 39.19700
O  4.79100 47.28800 40.78100
C  4.83800 46.24100 39.71500
H  9.56300 54.08800 39.95900
H  5.33800 58.88500 41.01600
H  0.97900 54.68900 42.52300
H  7.63400 49.94300 41.34800
H  9.28200 51.68000 39.55200
H  9.78300 52.34600 42.16600
H  10.62400 51.34100 40.96100
H  9.54900 50.58400 42.20800
H  7.30900 48.52400 39.66400
H  8.69500 49.31700 39.23900
H  6.23300 50.72900 38.17300
H  6.36900 49.11100 37.67200
H  10.12800 56.51400 38.40300
H  10.69200 55.71400 39.80300
H  10.75700 57.50500 39.78800
H  6.21100 59.81700 39.44400
H  7.25100 61.06800 39.33600
H  6.99300 60.57800 41.04000
H  2.63600 58.52600 40.87300
H  1.94900 57.47100 43.41400
H  3.10400 60.36500 42.17300
H  4.45000 59.58000 43.00700
H  2.83200 59.46500 43.65000
H  -0.18100 56.63000 42.04700
H  0.69600 57.27800 40.61700
H  -0.90800 58.65500 42.51700
H  -0.34300 59.13900 40.87800
H  0.55700 59.50600 42.30600
H  -0.22100 52.72500 42.62800
H  0.60100 52.07700 43.95800
H  0.08800 50.88100 42.82000
H  5.15600 49.21400 42.16700
H  5.81100 46.27300 39.22500
H  4.21700 46.55900 38.87800
H  4.51200 45.27900 40.10900

