79

Mg 47.44300 25.68200 27.79600
C  48.69600 27.52600 30.51100
C  46.79500 23.03600 30.01900
C  46.45700 23.72300 25.22900
C  48.60500 28.08200 25.67900
N  47.68300 25.40000 29.98900
C  48.07600 26.32500 30.88800
C  47.87600 25.85700 32.34400
C  47.41100 24.44600 32.16500
C  47.32700 24.19500 30.62500
C  48.34900 23.40800 32.87300
C  46.85600 26.82300 32.99500
C  46.12000 26.35100 34.28500
H  45.84600 27.29800 35.45000
N  46.74900 23.68300 27.69000
C  46.66700 22.72800 28.66300
C  46.20400 21.48200 28.10800
C  45.98500 21.65200 26.72400
C  46.37600 23.07900 26.47400
C  46.05200 20.24100 28.95300
C  45.36300 20.82600 25.69200
O  45.09000 21.26400 24.57000
C  44.99400 19.42100 26.07900
N  47.66500 25.80700 25.79600
C  47.07500 24.91000 24.87200
C  47.49500 25.24500 23.45800
C  47.95600 26.67900 23.58600
C  48.04600 26.93900 25.08900
C  48.48100 24.11000 22.91100
C  47.08800 27.74400 22.95800
C  47.78200 28.73000 21.92000
N  48.38500 27.48000 27.95300
C  48.77500 28.33900 27.01200
C  49.43200 29.52300 27.63500
C  49.47800 29.17500 29.00500
C  48.80200 27.92500 29.13500
C  49.88900 30.76600 27.00300
C  49.83600 29.74800 30.28200
O  50.44800 30.80600 30.50100
C  49.21300 28.66200 31.37800
C  50.24700 28.34000 32.40500
O  51.14900 27.52300 32.25300
O  49.87300 28.98900 33.58800
C  50.62100 28.54000 34.77000
H  46.56000 22.34000 30.82700
H  46.13600 23.12500 24.37400
H  49.12600 28.73000 24.97100
H  48.85000 25.92400 32.82900
H  46.36500 24.42300 32.46900
H  48.88000 22.80400 32.13800
H  47.72400 22.65600 33.35500
H  49.09300 23.68000 33.62200
H  46.05900 27.21700 32.36600
H  47.38600 27.74300 33.24100
H  46.65800 25.46000 34.60900
H  45.10600 25.98500 34.12500
H  45.02600 19.97900 29.21400
H  46.64500 20.40900 29.85200
H  46.48400 19.32300 28.55300
H  44.43100 18.96500 25.26500
H  44.46300 19.45500 27.03000
H  45.88400 18.80100 26.19000
H  46.56600 25.13400 22.89800
H  48.95000 26.73200 23.14300
H  48.00600 23.67300 22.03200
H  48.54800 23.34000 23.67900
H  49.47400 24.50700 22.70000
H  46.66100 28.49300 23.62500
H  46.27400 27.36200 22.34300
H  48.63200 28.27400 21.41300
H  48.19100 29.55400 22.50500
H  47.07100 28.96600 21.12900
H  49.09600 31.06000 26.31500
H  50.74300 30.62400 26.34000
H  50.19600 31.45800 27.78700
H  48.32300 29.15000 31.77600
H  49.98500 28.62400 35.65200
H  51.59400 29.02900 34.82100
H  50.83500 27.47300 34.69900

