79

Mg -1.81400 17.17400 26.21400
C  -1.93500 14.82000 28.65900
C  -1.96500 19.80000 28.45700
C  -1.79700 19.39800 23.66100
C  -2.10900 14.57800 23.85500
N  -2.06000 17.27500 28.27500
C  -1.98900 16.16200 29.10300
C  -1.98100 16.68800 30.61500
C  -2.18600 18.25200 30.47800
C  -2.03300 18.49400 28.97400
C  -3.45900 18.74200 31.14600
C  -0.76500 16.24700 31.61500
C  -0.43100 17.15300 32.75800
H  -0.28800 16.62800 34.19000
N  -1.88600 19.33600 26.08900
C  -1.96900 20.21900 27.09400
C  -2.06200 21.52200 26.59500
C  -2.03100 21.45100 25.11700
C  -1.86600 20.02300 24.88900
C  -2.29500 22.70700 27.59300
C  -2.18600 22.47400 24.05100
O  -2.28400 22.25100 22.88100
C  -2.25600 23.84100 24.52200
N  -2.08100 17.07000 24.05000
C  -1.89100 18.12900 23.23200
C  -1.83600 17.76300 21.71800
C  -1.79000 16.16100 21.87900
C  -2.00700 15.88600 23.34600
C  -3.04100 18.24800 20.96400
C  -0.49100 15.54500 21.34000
C  -0.56400 14.77000 20.05700
N  -1.97500 15.16000 26.25600
C  -2.07300 14.21600 25.22700
C  -2.18100 12.87500 25.78200
C  -2.03300 13.05400 27.17700
C  -1.88500 14.42300 27.37100
C  -2.53600 11.74300 24.94900
C  -2.10400 12.32600 28.38700
O  -2.00000 11.13700 28.66500
C  -2.10700 13.54800 29.50700
C  -0.99500 13.32000 30.46000
O  0.19900 13.47200 30.17000
O  -1.51900 12.73600 31.60000
C  -0.55100 12.24000 32.54000
H  -1.98500 20.56200 29.23900
H  -1.62500 20.00700 22.77200
H  -2.06400 13.77600 23.11600
H  -2.90600 16.30300 31.04400
H  -1.38400 18.80800 30.96300
H  -4.19600 17.98500 31.41400
H  -3.92400 19.37400 30.39000
H  -3.19400 19.33700 32.02000
H  0.20200 16.13100 31.12400
H  -1.17700 15.35200 32.08100
H  -1.31900 17.77400 32.88200
H  0.44900 17.77900 32.60900
H  -2.74900 22.48400 28.55800
H  -2.83800 23.59000 27.25800
H  -1.33000 23.13900 27.85800
H  -3.13600 23.98500 25.14900
H  -2.43500 24.36700 23.58400
H  -1.34200 24.11800 25.04800
H  -0.98800 18.22500 21.21200
H  -2.55400 15.65900 21.28500
H  -3.80200 18.68900 21.60700
H  -3.51100 17.37600 20.50900
H  -2.83500 18.98700 20.18900
H  0.10100 14.99300 22.07100
H  0.26400 16.32200 21.22000
H  -0.08600 15.48000 19.38200
H  -1.59600 14.55900 19.77900
H  0.02000 13.86100 20.19900
H  -1.75200 11.04100 24.66600
H  -3.07400 12.02700 24.04500
H  -3.16900 11.16800 25.62400
H  -3.07800 13.60500 30.00000
H  -0.28600 11.23000 32.22800
H  -1.03400 12.35600 33.51000
H  0.36000 12.83400 32.61600

