79

Mg 2.80600 -3.20900 45.07600
C  5.72500 -1.14000 44.37900
C  1.08200 -1.32000 42.97400
C  0.64400 -5.50900 45.45300
C  5.29600 -5.34800 46.75100
N  3.44900 -1.36800 43.82000
C  4.62100 -0.79100 43.61300
C  4.55200 0.36400 42.57900
C  2.99100 0.27300 42.14200
C  2.40500 -0.84000 43.09000
C  2.25500 1.62500 42.27100
C  5.47100 0.21100 41.31300
C  6.53600 1.28100 41.12000
H  6.60800 1.93600 39.77900
N  1.03300 -3.32200 44.35200
C  0.41700 -2.43500 43.52800
C  -0.89200 -3.01900 43.11300
C  -1.02100 -4.24900 43.83200
C  0.24600 -4.47900 44.61100
C  -1.85700 -2.30800 42.17400
C  -2.25100 -5.19600 43.67300
O  -3.18400 -4.83400 42.93000
C  -2.29200 -6.54600 44.18700
N  3.00200 -5.24800 45.99900
C  1.80800 -5.88500 46.13300
C  1.96800 -7.12200 47.06900
C  3.49700 -7.20200 47.22300
C  4.02200 -5.83700 46.63100
C  1.06400 -7.07500 48.35600
C  4.09700 -8.40100 46.37400
C  3.68300 -9.71500 46.91900
N  4.99500 -3.18700 45.69400
C  5.76000 -4.10100 46.38600
C  7.07500 -3.65100 46.59500
C  7.10500 -2.41100 45.87600
C  5.85500 -2.22700 45.24800
C  8.35300 -4.28400 47.40500
C  7.92200 -1.30900 45.51400
O  9.10100 -1.05100 45.67800
C  7.06500 -0.46000 44.43000
C  6.97800 0.95600 44.89900
O  7.61000 1.88600 44.46100
O  6.09500 1.01800 45.93900
C  5.88100 2.28500 46.63800
H  0.44300 -0.68100 42.36100
H  -0.17800 -6.17000 45.73400
H  6.03300 -5.99400 47.23200
H  4.84800 1.23000 43.17200
H  2.80900 -0.12600 41.14400
H  1.81200 1.98800 41.34400
H  2.90200 2.40900 42.66500
H  1.52800 1.46400 43.06700
H  4.87100 0.14000 40.40600
H  6.03300 -0.72200 41.37200
H  7.50000 0.91400 41.47100
H  6.20400 2.11400 41.73900
H  -1.53500 -1.29200 41.94700
H  -2.86700 -2.34400 42.58200
H  -1.72500 -2.85100 41.23800
H  -1.29300 -6.94300 44.00500
H  -3.07500 -7.06500 43.63400
H  -2.45900 -6.56400 45.26400
H  1.53700 -7.87600 46.41000
H  3.85400 -7.20100 48.25200
H  0.83600 -6.00900 48.35400
H  1.67900 -7.30600 49.22600
H  0.14800 -7.65300 48.23400
H  5.17900 -8.29600 46.45800
H  3.79000 -8.47300 45.33100
H  2.93400 -9.61000 47.70300
H  4.50300 -10.31600 47.31400
H  3.30700 -10.23900 46.04000
H  8.43000 -5.31000 47.04600
H  8.16800 -4.30700 48.47900
H  9.25000 -3.68400 47.25200
H  7.50100 -0.35000 43.43700
H  5.49500 1.91700 47.58900
H  5.32000 3.09300 46.17000
H  6.84700 2.74800 46.83900

