79

Mg 49.75100 35.58700 26.52700
C  47.68800 34.34500 29.27500
C  50.39600 38.39100 28.34800
C  51.62100 36.55000 23.93100
C  48.66000 32.74100 24.68400
N  49.02500 36.31300 28.60600
C  48.30600 35.60900 29.59200
C  48.40900 36.29100 30.92400
C  48.86700 37.79300 30.44400
C  49.46100 37.48500 29.06000
C  47.78800 38.84100 30.33200
C  49.44900 35.64700 31.77800
C  49.07300 35.49000 33.24000
H  48.02500 36.36300 33.87300
N  50.90000 37.25200 26.18000
C  51.08700 38.33500 27.04900
C  52.03600 39.23600 26.42800
C  52.49000 38.64500 25.18500
C  51.65700 37.42200 25.05100
C  52.37000 40.59900 27.08400
C  53.42200 39.34600 24.19900
O  53.68200 38.81400 23.09500
C  54.18800 40.64500 24.54200
N  50.00900 34.82100 24.54700
C  50.86200 35.37900 23.75100
C  51.07500 34.51900 22.44800
C  50.31400 33.28900 22.78200
C  49.60100 33.62700 24.05800
C  50.88700 35.13900 21.04900
C  51.22500 32.07200 23.08800
C  50.68800 30.68200 22.92900
N  48.37800 33.96100 26.81200
C  48.12300 32.86300 25.99900
C  47.33100 31.88400 26.72400
C  47.06900 32.47400 27.96000
C  47.79400 33.70800 28.01900
C  46.69700 30.68800 26.12000
C  46.37300 32.21100 29.19500
O  45.70400 31.28400 29.56900
C  46.64600 33.47800 30.07100
C  47.01100 32.98900 31.48700
O  48.13500 32.57000 31.78300
O  45.92200 32.84200 32.27900
C  46.20500 32.19700 33.60800
H  50.64400 39.16600 29.07600
H  52.28100 36.88400 23.12800
H  48.40500 31.84800 24.11000
H  47.40300 36.27500 31.34300
H  49.55000 38.28500 31.13600
H  48.14600 39.72000 30.86900
H  46.95400 38.41300 30.88800
H  47.52300 39.13100 29.31600
H  50.35000 36.25300 31.68400
H  49.53900 34.60400 31.47500
H  49.92500 35.38900 33.91200
H  48.70300 34.46500 33.24200
H  51.50800 40.84300 27.70600
H  52.37700 41.42500 26.37300
H  53.34900 40.62700 27.56200
H  53.76500 41.63200 24.35900
H  55.01200 40.60700 23.83000
H  54.44400 40.50800 25.59300
H  52.14500 34.31700 22.48600
H  49.55700 32.99400 22.05600
H  50.13200 34.58800 20.48800
H  51.81900 35.17900 20.48700
H  50.56700 36.16900 21.21000
H  51.74800 32.12100 24.04400
H  51.95300 32.06400 22.27700
H  51.14900 30.04700 23.68600
H  51.02700 30.30900 21.96200
H  49.61100 30.52000 22.95700
H  47.28700 30.19800 25.34600
H  45.71300 30.95500 25.73400
H  46.69900 29.97300 26.94300
H  45.65700 33.93600 30.06600
H  47.11200 31.59600 33.67800
H  45.36600 31.50500 33.68900
H  46.06900 32.86400 34.45900

