79

Mg 35.47800 2.61000 30.09100
C  33.09700 3.73200 32.38000
C  37.80600 2.47000 32.64500
C  37.67800 1.69700 27.89600
C  33.09000 3.29600 27.53400
N  35.42900 3.12700 32.25300
C  34.34700 3.51200 32.95600
C  34.71100 3.57500 34.44900
C  36.20100 3.23400 34.53800
C  36.52300 2.99600 33.03600
C  37.06600 4.43800 35.01000
C  33.89300 2.63500 35.40400
C  33.55900 3.13400 36.81900
H  34.35400 4.18900 37.66000
N  37.45200 2.13900 30.25700
C  38.22100 2.01300 31.35900
C  39.48100 1.39800 31.10900
C  39.49700 1.25600 29.67700
C  38.14900 1.68900 29.20700
C  40.56000 1.11600 32.10200
C  40.56400 0.66700 28.81900
O  40.47900 0.47900 27.60900
C  41.90900 0.27900 29.46200
N  35.50700 2.80600 27.90600
C  36.44400 2.03800 27.32500
C  35.98700 1.78600 25.86400
C  34.57200 2.34200 25.69100
C  34.36700 2.80600 27.14700
C  36.98300 2.38200 24.74500
C  33.43700 1.37200 25.18200
C  33.30100 -0.09000 25.79700
N  33.48700 3.38300 29.87500
C  32.70100 3.55600 28.84500
C  31.37300 3.92200 29.32100
C  31.53000 3.94800 30.68500
C  32.84500 3.66700 30.97600
C  30.15200 3.94100 28.41200
C  30.75500 4.09900 31.91300
O  29.51000 4.32000 32.09300
C  31.78900 4.05600 33.04200
C  31.80700 5.40800 33.64700
O  32.50700 6.34600 33.27400
O  31.02400 5.34200 34.74000
C  31.18500 6.54000 35.63600
H  38.40300 2.44300 33.55900
H  38.26400 1.25900 27.08500
H  32.41000 3.50300 26.70600
H  34.50600 4.59200 34.78200
H  36.55600 2.39200 35.13200
H  36.63900 4.84900 35.92500
H  37.04200 5.08500 34.13300
H  38.06800 4.07200 35.23200
H  34.44800 1.69700 35.44000
H  32.93200 2.26800 35.04500
H  33.42500 2.28700 37.49200
H  32.59300 3.63800 36.79600
H  40.06600 1.25100 33.06400
H  41.43800 1.73500 31.92200
H  40.75400 0.06300 31.89700
H  42.31000 1.18900 29.90900
H  42.62200 0.00800 28.68300
H  41.83400 -0.58400 30.12300
H  36.00700 0.72200 25.62600
H  34.34500 3.19900 25.05700
H  36.37800 2.89500 23.99700
H  37.64200 1.64600 24.28600
H  37.57800 3.19500 25.16200
H  33.79200 1.16200 24.17300
H  32.49900 1.92100 25.26600
H  33.92100 -0.04600 26.69200
H  33.65700 -0.94900 25.23000
H  32.28000 -0.27200 26.13400
H  30.19700 3.20200 27.61200
H  29.90900 4.93200 28.03000
H  29.32700 3.59900 29.03700
H  31.34600 3.35100 33.74600
H  32.26000 6.63900 35.78700
H  30.70300 6.44000 36.60900
H  30.87600 7.47600 35.16900

