79

Mg -10.13100 39.12000 39.83600
C  -9.44400 35.87900 38.58600
C  -7.12500 40.08500 39.04600
C  -11.18100 42.17400 40.37800
C  -13.43300 37.92000 40.62900
N  -8.49600 38.06700 38.92300
C  -8.40800 36.76800 38.44900
C  -7.00300 36.46500 37.90800
C  -6.24700 37.77400 38.24800
C  -7.30400 38.73500 38.78600
C  -5.01800 37.63600 39.10900
C  -6.90300 36.09700 36.32700
C  -7.33500 37.22000 35.31900
H  -8.74600 36.99700 34.74100
N  -9.16800 40.92200 39.81000
C  -7.91800 41.11900 39.48300
C  -7.63900 42.50500 39.44500
C  -8.82200 43.22000 39.79300
C  -9.78800 42.10600 40.04000
C  -6.26500 43.05500 38.99000
C  -8.87700 44.74000 39.87700
O  -7.91800 45.50200 39.71600
C  -10.21500 45.38800 39.98500
N  -12.16000 39.94600 40.37600
C  -12.23600 41.31400 40.53200
C  -13.68700 41.69000 40.80000
C  -14.38100 40.31800 41.19300
C  -13.32500 39.31800 40.68500
C  -14.06000 42.93100 41.65900
C  -15.82000 40.16500 40.63800
C  -16.94600 39.77600 41.60100
N  -11.27400 37.24800 39.72800
C  -12.54500 36.96300 40.17800
C  -12.74100 35.56400 40.05700
C  -11.53300 35.05800 39.46700
C  -10.71300 36.16500 39.22000
C  -14.00300 34.76100 40.40300
C  -10.83600 33.88100 39.02800
O  -11.18100 32.72700 39.10400
C  -9.40300 34.33400 38.45400
C  -8.33100 33.65700 39.22700
O  -8.25900 33.45100 40.42400
O  -7.46400 33.04900 38.26700
C  -6.51700 31.99500 38.73100
H  -6.10400 40.46700 38.97700
H  -11.54000 43.20200 40.44800
H  -14.41800 37.54400 40.91600
H  -6.51100 35.59500 38.34000
H  -5.91600 38.36200 37.39200
H  -5.09000 38.16200 40.06100
H  -4.16600 37.90800 38.48700
H  -4.85800 36.57800 39.31500
H  -7.49000 35.21900 36.05700
H  -5.88800 35.80700 36.05600
H  -6.61700 37.37500 34.51300
H  -7.39400 38.17300 35.84600
H  -6.26700 44.09700 38.67100
H  -5.92000 42.32400 38.25900
H  -5.57600 42.89100 39.81800
H  -10.60200 45.25700 40.99500
H  -10.91500 45.07300 39.21100
H  -10.08900 46.43900 39.72400
H  -14.00800 42.01100 39.80900
H  -14.34700 40.21300 42.27700
H  -13.48600 42.95000 42.58500
H  -15.08900 42.82200 42.00100
H  -14.06700 43.84500 41.06500
H  -15.77300 39.48300 39.78900
H  -16.07400 41.05300 40.05900
H  -17.58200 40.64800 41.75700
H  -16.60500 39.32500 42.53300
H  -17.69200 39.02800 41.33200
H  -14.77500 35.36400 40.88300
H  -13.64900 33.99800 41.09600
H  -14.46000 34.50900 39.44600
H  -9.34300 34.19900 37.37400
H  -5.95700 31.71300 37.83800
H  -6.89100 31.12300 39.26600
H  -5.84200 32.46300 39.44800

