79

Mg 7.21900 53.08900 40.09900
C  6.62100 49.61400 39.90400
C  10.60500 52.37000 39.58100
C  7.74800 56.28700 39.57500
C  3.76100 53.53100 40.06700
N  8.40300 51.25600 39.62500
C  7.96900 49.96000 39.90400
C  9.12900 48.93000 39.67800
C  10.39500 49.87400 39.81500
C  9.72000 51.21600 39.62600
C  11.16000 49.65800 41.13900
C  9.16700 48.14400 38.36500
C  9.04300 48.99800 37.04300
H  7.92600 48.56600 36.12000
N  8.93500 54.17500 39.74300
C  10.22400 53.69400 39.50600
C  11.11000 54.82700 39.27500
C  10.32500 56.00600 39.25700
C  8.94800 55.52700 39.59100
C  12.60000 54.70700 39.02100
C  10.80400 57.35800 38.81900
O  11.94800 57.53900 38.36800
C  9.96700 58.55200 38.98900
N  5.91900 54.67600 39.91000
C  6.40800 55.96400 39.87200
C  5.37600 56.93900 40.12400
C  4.04100 56.06600 40.03200
C  4.54800 54.65600 39.97300
C  5.53400 57.74800 41.42600
C  2.91200 56.51300 39.00300
C  1.56500 56.79500 39.62800
N  5.53100 51.90800 39.95600
C  4.20600 52.20700 39.97100
C  3.41700 51.04300 40.15500
C  4.30600 49.94900 40.15500
C  5.57100 50.52700 39.94500
C  1.93300 51.05900 40.36000
C  4.34000 48.51900 40.32500
O  3.49200 47.67100 40.34800
C  5.89400 48.23500 40.08300
C  5.93600 47.36800 38.91700
O  5.63500 47.64300 37.80000
O  6.29300 46.12600 39.34500
C  6.31500 45.07200 38.38000
H  11.63800 52.09900 39.35500
H  8.05600 57.33200 39.51100
H  2.68200 53.69300 40.00400
H  9.13500 48.16500 40.45500
H  11.17100 49.71500 39.06600
H  12.23100 49.48600 41.03800
H  10.66200 48.86200 41.69300
H  11.17400 50.55000 41.76700
H  8.49500 47.28900 38.43900
H  10.12600 47.64500 38.22600
H  9.87100 48.65100 36.42500
H  9.07000 50.06200 37.27600
H  13.00900 53.70400 39.15000
H  13.15800 55.37000 39.68200
H  12.83900 55.08400 38.02700
H  9.59200 58.70500 40.00100
H  9.15500 58.42300 38.27300
H  10.43000 59.49100 38.68600
H  5.26200 57.65000 39.30500
H  3.54100 56.17900 40.99400
H  6.42400 57.39800 41.94900
H  4.70300 57.55500 42.10400
H  5.52000 58.82900 41.28400
H  2.81300 55.76400 38.21700
H  3.32600 57.35900 38.45500
H  1.57300 56.49400 40.67600
H  0.78700 56.28000 39.06500
H  1.40300 57.85700 39.44500
H  1.41100 50.18000 39.98200
H  1.39800 51.85200 39.83800
H  1.73000 51.27200 41.41000
H  6.26900 47.81200 41.01500
H  7.34200 44.94600 38.03500
H  5.63000 45.19700 37.54200
H  6.11800 44.11400 38.86100

