79

Mg 25.50100 -1.33600 29.27900
C  27.50000 -1.40400 32.30000
C  22.68400 -1.11700 31.35100
C  23.69400 -1.44300 26.55400
C  28.39500 -2.08200 27.44900
N  25.14600 -1.45500 31.62600
C  26.17000 -1.29600 32.57300
C  25.48300 -1.18200 33.95900
C  23.95200 -1.01900 33.62000
C  23.92700 -1.25500 32.10500
C  23.03900 -1.85800 34.45800
C  26.14500 -0.12800 34.90300
C  25.15500 0.50300 35.93800
H  25.87500 1.12400 37.15700
N  23.48800 -1.16900 28.95800
C  22.50800 -1.05100 29.95100
C  21.21600 -1.07000 29.22900
C  21.51500 -1.00600 27.80200
C  22.99100 -1.23200 27.70400
C  19.88200 -1.05400 29.95700
C  20.52100 -0.89100 26.66800
O  20.79100 -1.04200 25.48300
C  19.11000 -0.71700 26.96500
N  25.97500 -1.88500 27.32200
C  25.05800 -1.82600 26.34900
C  25.65600 -1.96600 24.94200
C  27.25700 -2.03700 25.23400
C  27.21400 -1.95800 26.76700
C  25.13200 -3.23300 24.20200
C  28.04600 -0.87000 24.66700
C  27.71600 0.51900 25.07300
N  27.52600 -1.75200 29.75600
C  28.55700 -1.94400 28.89400
C  29.78500 -2.05000 29.62900
C  29.39500 -1.86900 30.98100
C  28.05100 -1.62500 31.02300
C  31.13400 -2.28000 29.02000
C  29.93700 -1.73200 32.33200
O  31.06900 -1.88300 32.83400
C  28.70800 -1.34600 33.23800
C  28.67000 -2.32900 34.39800
O  28.44000 -3.55600 34.37400
O  29.20300 -1.63300 35.53400
C  29.41500 -2.45300 36.75000
H  21.84100 -0.85400 31.99500
H  23.13000 -1.45900 25.61900
H  29.21800 -2.28000 26.75800
H  25.79200 -2.14000 34.37900
H  23.66400 0.02100 33.77400
H  22.51400 -2.59000 33.84400
H  22.26800 -1.18400 34.83200
H  23.43600 -2.42700 35.29900
H  26.32300 0.74000 34.26700
H  27.04400 -0.46900 35.41600
H  24.47700 -0.32200 36.15300
H  24.49800 1.26700 35.52300
H  20.05500 -1.25500 31.01400
H  19.25400 -1.89200 29.65200
H  19.31000 -0.13400 29.84100
H  18.90800 0.16200 27.57700
H  18.84400 -1.67100 27.42200
H  18.51700 -0.60800 26.05700
H  25.49800 -1.08800 24.31500
H  27.64200 -2.97000 24.82300
H  24.81300 -2.92200 23.20700
H  24.30900 -3.66800 24.76900
H  25.90100 -3.98600 24.02600
H  27.80300 -0.96500 23.60900
H  29.11800 -1.05500 24.59000
H  27.18400 0.93700 24.21800
H  28.60700 1.13400 25.20400
H  27.04300 0.46500 25.92800
H  31.20500 -1.70200 28.09800
H  31.22300 -3.32500 28.72200
H  31.80900 -1.88800 29.78000
H  28.88900 -0.34700 33.63300
H  29.13300 -3.50100 36.64900
H  28.82500 -2.03300 37.56400
H  30.42500 -2.42100 37.15800

