79

Mg 48.51900 34.55300 26.49800
C  46.76300 33.13500 29.33700
C  48.71100 37.50600 28.08000
C  49.65900 35.72400 23.63900
C  47.69900 31.43700 24.72100
N  47.91300 35.22900 28.51200
C  47.31600 34.47600 29.47900
C  47.36700 35.28700 30.82900
C  47.44000 36.76300 30.38800
C  48.04300 36.52900 28.87700
C  46.07400 37.52200 30.41500
C  48.45800 34.80400 31.81200
C  48.06700 34.59800 33.29100
H  46.90800 35.45000 33.83700
N  49.22300 36.28500 25.95500
C  49.20800 37.38800 26.75200
C  50.02800 38.44000 26.06700
C  50.28500 38.01700 24.70900
C  49.70300 36.65800 24.68400
C  50.51600 39.75500 26.74800
C  50.93900 38.66900 23.54200
O  51.32400 38.15300 22.51400
C  51.10400 40.15100 23.59700
N  48.40500 33.79000 24.44500
C  49.15500 34.48100 23.56200
C  49.36400 33.68900 22.28200
C  48.84900 32.30100 22.65700
C  48.28100 32.46300 24.04700
C  48.70400 34.22800 20.96400
C  49.87900 31.17700 22.56900
C  50.99800 31.19600 23.58900
N  47.41200 32.66400 26.93200
C  47.16800 31.51800 26.04100
C  46.45400 30.54900 26.81700
C  46.14700 31.19600 28.09900
C  46.79700 32.43400 28.09500
C  46.10200 29.12600 26.39300
C  45.53600 31.01500 29.39400
O  45.06900 30.03900 29.98200
C  45.80400 32.37300 30.20100
C  46.35600 31.90400 31.54400
O  47.49500 31.54500 31.84600
O  45.30700 31.67200 32.42000
C  45.58500 31.01300 33.71600
H  48.91400 38.51300 28.45000
H  50.21000 35.93600 22.72000
H  47.62500 30.46900 24.22200
H  46.37400 35.07900 31.22700
H  48.16000 37.32600 30.98200
H  45.29000 36.87000 30.79800
H  45.91600 37.89800 29.40400
H  46.19600 38.31500 31.15300
H  49.33000 35.45800 31.83300
H  48.68600 33.78000 31.51500
H  48.96100 34.74600 33.89700
H  47.67000 33.58600 33.37100
H  49.84300 40.50400 26.33100
H  51.58200 39.90600 26.58200
H  50.29900 39.77500 27.81600
H  51.66400 40.34200 24.51300
H  50.20900 40.76300 23.70700
H  51.76700 40.55700 22.83300
H  50.42200 33.58400 22.04000
H  48.06000 32.07800 21.93800
H  48.04600 35.06400 21.20300
H  48.13300 33.54500 20.33500
H  49.52500 34.67300 20.40200
H  50.40300 31.06200 21.62000
H  49.31200 30.26400 22.75000
H  50.80000 30.34300 24.23800
H  50.99500 32.13300 24.14600
H  52.01700 31.06300 23.22600
H  46.12300 28.91100 25.32500
H  45.16500 28.69500 26.74900
H  46.90000 28.51400 26.81200
H  44.91100 32.98300 30.34000
H  46.65500 31.02400 33.92600
H  45.25800 29.97400 33.71700
H  45.10900 31.60000 34.50100

