79

Mg 26.82700 50.66100 27.52100
C  24.61200 51.84600 29.92000
C  28.88500 49.68000 29.94000
C  28.87300 49.72200 25.09000
C  24.57300 52.03200 25.11200
N  26.69300 50.72500 29.61500
C  25.74300 51.29500 30.46000
C  26.00400 51.05200 31.90000
C  27.51200 50.49700 31.88700
C  27.71700 50.27200 30.37500
C  28.62700 51.48900 32.36700
C  25.07600 49.97200 32.54100
C  24.44700 50.34500 33.90400
H  25.42200 50.93700 35.01100
N  28.61000 49.86300 27.46500
C  29.30600 49.51300 28.61300
C  30.60700 48.98600 28.27000
C  30.71700 49.12300 26.85600
C  29.35700 49.56400 26.38400
C  31.60400 48.52700 29.21100
C  31.88500 48.77200 25.91300
O  31.80400 48.76000 24.67500
C  33.21400 48.27500 26.34100
N  26.76100 50.84400 25.31800
C  27.69400 50.32200 24.57200
C  27.26200 50.31200 23.14100
C  25.84700 50.91000 23.16900
C  25.71200 51.32000 24.62700
C  28.21000 51.07600 22.10400
C  24.71500 49.86800 22.84700
C  23.52900 50.40900 22.07000
N  24.97000 51.80400 27.44600
C  24.19100 52.36100 26.41600
C  23.08700 53.04800 26.94500
C  23.17200 52.91100 28.31200
C  24.35200 52.15400 28.57500
C  22.01300 53.72700 26.26500
C  22.56400 53.24600 29.55500
O  21.59600 53.95500 29.72000
C  23.52300 52.66900 30.69700
C  23.92700 53.86300 31.58300
O  24.94200 54.52400 31.33600
O  23.04700 54.02100 32.60400
C  23.46200 54.90400 33.70500
H  29.42300 49.26600 30.79600
H  29.55000 49.41800 24.28900
H  23.97700 52.34100 24.25100
H  25.85300 51.96700 32.47300
H  27.61800 49.54300 32.40400
H  29.29400 51.73700 31.54200
H  29.20000 50.97000 33.13500
H  28.27900 52.42700 32.79800
H  25.66300 49.06400 32.67800
H  24.26800 49.70800 31.85800
H  23.84500 49.49900 34.23700
H  23.76000 51.14100 33.61500
H  31.75000 47.44700 29.19600
H  31.36100 48.70500 30.25800
H  32.54800 49.07100 29.21300
H  33.62700 47.79400 25.45400
H  32.90300 47.40600 26.92100
H  33.59600 49.19200 26.79100
H  27.22300 49.24700 22.91100
H  25.78400 51.85600 22.63100
H  29.10100 51.55500 22.51200
H  27.65700 51.75900 21.46000
H  28.59000 50.27300 21.47200
H  24.40300 49.38800 23.77500
H  25.11500 49.00700 22.31000
H  22.55400 50.46200 22.55500
H  23.49200 49.63300 21.30600
H  23.69800 51.35600 21.55800
H  22.32700 54.09300 25.28700
H  21.69700 54.53700 26.92200
H  21.19200 53.02000 26.14900
H  22.90000 52.01800 31.31000
H  23.47800 55.93700 33.35800
H  24.40200 54.60400 34.16900
H  22.79700 54.85800 34.56800

