79

Mg 46.78400 44.80800 43.51400
C  43.36800 44.15900 42.96200
C  47.30800 41.41000 43.27400
C  50.07600 45.38700 43.41600
C  46.06600 48.22000 43.22400
N  45.42700 43.01800 43.18600
C  44.13200 43.00000 42.98900
C  43.64900 41.56600 42.67400
C  44.85800 40.72800 43.15400
C  45.94600 41.76200 43.30400
C  44.51000 40.01100 44.53600
C  43.09900 41.20100 41.23100
C  43.33300 42.16000 39.95700
H  43.15600 41.46600 38.61300
N  48.43000 43.54700 43.50100
C  48.45100 42.19500 43.34200
C  49.86200 41.80300 43.49700
C  50.73600 42.92200 43.45000
C  49.76400 44.03300 43.48100
C  50.35600 40.34700 43.57700
C  52.27500 42.96500 43.30900
O  52.88000 41.97500 42.97700
C  53.10100 44.22300 43.51800
N  47.89500 46.52200 43.10200
C  49.26800 46.51100 43.38400
C  49.78200 48.00000 43.52600
C  48.51600 48.83500 43.27400
C  47.38100 47.79500 43.23600
C  50.49800 48.32700 44.87500
C  48.63400 49.79100 42.08000
C  47.83000 51.07500 42.18700
N  45.10900 45.99900 43.07800
C  44.94100 47.35200 43.11100
C  43.44400 47.72100 42.99200
C  42.81600 46.49300 42.91200
C  43.83500 45.52300 43.02700
C  42.89300 49.09900 42.91800
C  41.56700 45.84300 42.71300
O  40.41700 46.26000 42.56700
C  41.84900 44.29900 42.90200
C  41.13100 43.80800 44.08200
O  40.25900 42.94900 44.16900
O  41.65300 44.43700 45.22600
C  41.15300 43.96900 46.48200
H  47.56000 40.34800 43.28000
H  51.09500 45.64800 43.70900
H  45.83600 49.28300 43.32500
H  42.80000 41.49100 43.35300
H  45.08300 39.94700 42.42700
H  45.19800 40.47700 45.24100
H  44.78000 38.97500 44.33500
H  43.47300 39.95700 44.87000
H  42.01200 41.13300 41.23700
H  43.48300 40.21100 40.98200
H  44.32300 42.61500 39.93800
H  42.51700 42.88300 39.97500
H  49.56800 39.84400 44.13700
H  51.16900 40.33900 44.30200
H  50.57200 39.96600 42.57900
H  53.07400 45.05900 42.81900
H  54.15300 43.93600 43.51300
H  52.90300 44.54400 44.54000
H  50.41000 48.01300 42.63500
H  48.35600 49.33600 44.22900
H  51.56800 48.42900 44.69500
H  50.43400 47.46000 45.53400
H  50.03200 49.16200 45.39900
H  48.38700 49.19600 41.20100
H  49.69400 50.02700 41.98800
H  46.97500 50.93900 41.52500
H  48.50400 51.87700 41.88500
H  47.46600 51.25300 43.19900
H  43.59500 49.82000 42.49900
H  42.74200 49.46900 43.93200
H  41.96200 49.05900 42.35300
H  41.42100 43.82900 42.01600
H  40.20600 44.49900 46.58000
H  41.84000 44.40100 47.20900
H  41.05000 42.89800 46.65500

