79

Mg 36.54700 49.85600 26.26900
C  36.67300 47.93200 29.36000
C  35.54900 52.50100 28.20700
C  35.96600 51.54900 23.37800
C  37.03100 46.98800 24.46500
N  36.25700 50.19800 28.53600
C  36.43100 49.28400 29.60800
C  36.16500 49.94500 30.99800
C  35.67300 51.33800 30.48600
C  35.85900 51.39100 28.98400
C  34.24800 51.79800 31.07900
C  37.55600 49.97000 31.75500
C  37.71200 49.71200 33.28200
H  36.44100 49.79300 34.00600
N  35.99400 51.75000 25.87700
C  35.68400 52.72500 26.84100
C  35.40900 53.95000 26.16200
C  35.49700 53.69700 24.74400
C  35.82300 52.26500 24.60000
C  34.64000 55.08000 26.77700
C  35.37600 54.66200 23.57800
O  35.37800 54.29500 22.38300
C  35.21200 56.12900 24.00700
N  36.59200 49.32200 24.23000
C  36.40800 50.25300 23.20900
C  36.53100 49.60800 21.80700
C  37.15000 48.17600 22.21100
C  36.91900 48.14400 23.71800
C  35.17700 49.49600 20.98900
C  38.65800 48.02700 21.95500
C  39.17200 46.66200 21.30000
N  36.78700 47.83200 26.68900
C  37.04200 46.78500 25.86100
C  37.17800 45.55000 26.62500
C  36.98300 45.96800 27.95200
C  36.78200 47.38300 27.95600
C  37.64200 44.23200 26.14000
C  37.04300 45.51200 29.32400
O  37.27700 44.42100 29.77400
C  36.85700 46.79300 30.30100
C  35.56500 46.49200 31.15500
O  34.42600 46.89600 30.98200
O  35.96700 45.77900 32.24100
C  34.86400 45.41400 33.18300
H  35.04400 53.26200 28.80600
H  35.78000 52.03900 22.42000
H  37.27800 46.05100 23.96000
H  35.39400 49.41800 31.56000
H  36.29100 52.12500 30.91700
H  33.85200 50.92200 31.59100
H  33.54600 51.98400 30.26600
H  34.32400 52.56700 31.84800
H  37.97600 50.96100 31.58300
H  38.14800 49.14600 31.35800
H  38.46600 50.41500 33.63800
H  38.17300 48.73200 33.40600
H  33.77900 55.38700 26.18200
H  35.28900 55.92100 27.01900
H  34.25800 54.92600 27.78600
H  34.24300 56.28500 24.48000
H  35.11200 56.63000 23.04500
H  35.99000 56.48700 24.68200
H  37.26600 50.16200 21.22400
H  36.51900 47.34500 21.89800
H  34.74500 48.52800 21.24200
H  35.57500 49.48700 19.97400
H  34.49400 50.32800 21.16200
H  39.09800 48.01100 22.95200
H  39.08800 48.81200 21.33200
H  39.95200 47.02900 20.63200
H  38.34100 46.30800 20.68900
H  39.65300 45.97000 21.99100
H  38.14200 44.30000 25.17400
H  36.79200 43.55000 26.14500
H  38.32500 43.84200 26.89500
H  37.82700 46.87100 30.79300
H  35.30900 44.56100 33.69600
H  33.92500 45.21600 32.66700
H  34.75300 46.21100 33.91800

