79

Mg 46.77100 5.29900 47.94700
C  44.76600 8.16600 47.43500
C  44.11500 3.36400 46.92500
C  48.89600 2.77600 47.55300
C  49.43300 7.58500 48.36900
N  44.70400 5.75100 47.37600
C  44.08600 6.99100 47.32900
C  42.61700 6.76800 46.94100
C  42.43400 5.22900 46.83700
C  43.79300 4.73900 47.12200
C  41.27200 4.63600 47.67600
C  42.00400 7.51300 45.69200
C  40.45300 7.69100 45.71800
H  39.61000 7.42500 44.44600
N  46.53000 3.34800 47.45500
C  45.36900 2.73100 47.08300
C  45.64800 1.37800 46.67700
C  47.01600 1.13200 46.91400
C  47.54500 2.47100 47.37300
C  44.53800 0.43100 46.11000
C  47.71700 -0.22000 46.79500
O  47.07300 -1.19000 46.43700
C  49.16600 -0.42500 47.09200
N  48.87100 5.29100 47.86700
C  49.47900 4.09100 47.79000
C  50.92500 4.13400 48.16100
C  51.09200 5.61700 48.53900
C  49.74400 6.25500 48.18300
C  51.42900 3.08600 49.25500
C  52.35700 6.28600 47.87600
C  53.14100 7.28300 48.77300
N  47.10500 7.46700 48.04700
C  48.19500 8.18500 48.16700
C  47.93100 9.59000 48.30500
C  46.57200 9.68000 47.89200
C  46.15100 8.32500 47.78100
C  48.87900 10.67200 48.70600
C  45.45900 10.58800 47.66000
O  45.35600 11.80700 47.56500
C  44.27000 9.62300 47.19400
C  43.08900 9.97800 47.96100
O  42.79700 9.54000 49.05800
O  42.28800 10.74100 47.10500
C  41.01600 11.15400 47.62800
H  43.25300 2.77300 46.61100
H  49.61800 1.96000 47.47500
H  50.29600 8.22300 48.57000
H  42.05100 7.15500 47.78900
H  42.28300 4.94400 45.79600
H  40.56100 3.99800 47.15200
H  40.67500 5.44800 48.09100
H  41.64300 4.01800 48.49300
H  42.27900 6.93200 44.81100
H  42.40100 8.50600 45.48100
H  40.15700 8.70400 45.99000
H  40.03400 7.09800 46.53200
H  44.85400 0.22300 45.08800
H  43.50400 0.77000 46.05900
H  44.52600 -0.58400 46.50600
H  49.41900 -1.48200 47.01000
H  49.38700 -0.09800 48.10700
H  49.77100 0.21200 46.44700
H  51.46700 3.95000 47.23300
H  51.12500 5.80100 49.61300
H  50.69800 2.28300 49.35100
H  51.51300 3.66400 50.17500
H  52.34900 2.65000 48.86500
H  51.92800 6.78200 47.00500
H  53.14300 5.68000 47.42500
H  54.16500 6.90800 48.77400
H  52.77800 7.41000 49.79200
H  53.19700 8.23400 48.24200
H  49.75400 10.38500 49.29000
H  48.27300 11.33500 49.32400
H  49.24800 11.27300 47.87500
H  44.13500 9.87100 46.14200
H  40.45000 11.70100 46.87500
H  41.22000 11.82200 48.46500
H  40.54400 10.27500 48.06700

