79

Mg 26.83500 51.50300 26.32700
C  24.88400 52.28500 28.98800
C  29.42100 50.64300 28.60300
C  28.89800 50.65200 23.73000
C  24.55200 52.61900 24.13000
N  27.13700 51.56400 28.49800
C  26.12500 51.78400 29.41200
C  26.49200 51.42200 30.85500
C  27.93800 51.07100 30.66300
C  28.20100 51.04600 29.17300
C  28.93800 52.10600 31.40800
C  25.64800 50.32800 31.55700
C  25.04800 50.83000 32.90100
H  25.95100 50.79300 34.15000
N  28.85500 50.80100 26.22400
C  29.75600 50.49200 27.23400
C  31.02500 50.01100 26.77300
C  30.81400 49.81700 25.39700
C  29.45800 50.38800 25.06800
C  32.17600 49.80900 27.71400
C  31.68700 48.99100 24.45900
O  31.44900 48.96300 23.22700
C  32.84600 48.21000 24.83700
N  26.81700 51.73600 24.09700
C  27.77200 51.29300 23.24300
C  27.25700 51.36500 21.80400
C  25.83000 51.95700 21.92300
C  25.73600 52.16500 23.46200
C  28.31900 52.14300 20.92100
C  24.66700 51.24000 21.30000
C  24.22500 49.99800 22.01100
N  25.13400 52.44800 26.48300
C  24.26900 52.77300 25.49500
C  23.02500 53.30100 26.07100
C  23.20300 53.10900 27.43300
C  24.54600 52.59400 27.65700
C  21.80500 53.72900 25.30700
C  22.62700 53.24500 28.69800
O  21.53200 53.65100 28.96700
C  23.64700 52.68800 29.75000
C  23.94800 53.85100 30.61800
O  24.75500 54.70800 30.36100
O  23.20700 53.80300 31.81500
C  23.62500 54.75100 32.91600
H  30.23500 50.23500 29.20600
H  29.49900 50.29700 22.89100
H  23.71400 52.92700 23.50000
H  26.47500 52.29000 31.51300
H  28.15600 50.07400 31.04500
H  29.28800 52.78300 30.62900
H  29.67000 51.54800 31.99200
H  28.54800 52.81300 32.14100
H  26.20100 49.42500 31.81500
H  24.76200 50.10400 30.96200
H  24.05000 50.40400 33.00600
H  24.79200 51.87000 32.69700
H  33.07000 50.10200 27.16500
H  32.15100 48.77200 28.04900
H  32.04200 50.54200 28.50900
H  33.47800 48.81800 25.48500
H  33.37600 48.10800 23.89000
H  32.54000 47.28700 25.32900
H  27.25900 50.34600 21.41800
H  25.67700 52.96500 21.53600
H  28.54100 51.56900 20.02100
H  29.23100 52.30800 21.49500
H  27.89600 53.08900 20.58100
H  24.84700 50.93100 20.27000
H  23.77600 51.86700 21.28000
H  24.43100 49.21500 21.28100
H  23.14800 50.11200 22.13600
H  24.71700 49.75400 22.95200
H  21.00500 53.75000 26.04700
H  21.62300 53.05100 24.47300
H  21.99800 54.74200 24.95400
H  23.04300 51.96300 30.29600
H  23.85900 55.75100 32.55200
H  24.60600 54.49400 33.31400
H  22.85600 54.88400 33.67700

