79

Mg -0.22300 7.61900 25.96600
C  0.72200 9.18800 28.97800
C  -0.24600 4.66500 27.72300
C  -0.38200 6.09300 23.10500
C  0.79200 10.53900 24.26100
N  0.13600 6.99900 28.18700
C  0.42100 7.82600 29.23300
C  0.13500 7.17400 30.57300
C  0.12500 5.66900 30.09900
C  0.01600 5.72400 28.55800
C  1.26200 4.72800 30.63100
C  -1.23400 7.62500 31.21100
C  -1.21700 7.69700 32.77100
H  0.03600 7.25100 33.54100
N  -0.35000 5.59100 25.46000
C  -0.37100 4.51500 26.30700
C  -0.66200 3.34500 25.54100
C  -0.82900 3.72600 24.14300
C  -0.53700 5.19300 24.18100
C  -0.73900 2.03300 26.17700
C  -1.19200 2.90100 22.88800
O  -1.34300 3.36700 21.75100
C  -1.34100 1.38200 22.99900
N  0.24400 8.19600 24.01400
C  -0.16600 7.35800 22.98100
C  0.25600 7.97200 21.64500
C  0.29000 9.44600 21.98400
C  0.41700 9.44000 23.48400
C  1.73100 7.46500 21.21700
C  -0.97000 10.40400 21.60700
C  -2.14900 10.38500 22.52300
N  0.35500 9.49000 26.45300
C  0.84000 10.52700 25.67900
C  1.36400 11.57100 26.47900
C  1.19100 11.16000 27.79300
C  0.71300 9.86300 27.67700
C  1.96400 12.91700 26.05000
C  1.44600 11.52000 29.13700
O  2.03200 12.45900 29.64600
C  1.02400 10.22200 30.03800
C  2.03300 9.89100 31.02300
O  3.11900 9.39800 30.76800
O  1.68900 10.52700 32.20000
C  2.79900 10.73300 33.12600
H  -0.45100 3.79700 28.35400
H  -0.38800 5.51500 22.17800
H  1.17400 11.38500 23.68500
H  0.94900 7.35900 31.27400
H  -0.77500 5.08800 30.29700
H  0.88400 4.16200 31.48200
H  2.06300 5.39700 30.94500
H  1.69900 4.16000 29.80900
H  -2.05000 6.98400 30.87700
H  -1.47500 8.57700 30.73700
H  -2.10900 7.14900 33.07700
H  -1.57600 8.68500 33.05900
H  -1.65200 1.55000 25.83100
H  -0.88700 2.07300 27.25600
H  0.15600 1.43800 25.99400
H  -2.30700 0.96700 23.28700
H  -0.46500 1.13400 23.59900
H  -1.36300 1.00200 21.97800
H  -0.32000 7.83400 20.73000
H  1.18100 9.96600 21.63300
H  1.78200 6.47000 20.77400
H  2.29100 7.33000 22.14200
H  2.18400 8.26400 20.63000
H  -1.20500 10.43700 20.54300
H  -0.56400 11.39800 21.79600
H  -2.06000 11.00100 23.41700
H  -2.32000 9.37700 22.90100
H  -2.93700 10.72200 21.84900
H  2.85500 13.13400 26.64000
H  1.26200 13.71800 26.28000
H  2.09400 12.69000 24.99200
H  0.11300 10.55600 30.53400
H  2.87200 11.82100 33.11400
H  3.71400 10.15100 33.01700
H  2.41500 10.61200 34.13800

