79

Mg 47.46300 24.82400 28.34600
C  48.10700 27.19700 30.66900
C  46.52900 22.63400 30.84300
C  46.61600 22.56800 25.94100
C  48.57600 27.03000 25.88200
N  47.00900 25.03900 30.43400
C  47.43000 26.08300 31.23100
C  47.12200 25.83500 32.75200
C  46.78300 24.30800 32.73600
C  46.78000 23.94400 31.22900
C  47.55800 23.32800 33.64900
C  46.01800 26.80100 33.29800
C  46.38700 27.51500 34.57100
H  45.40100 27.71300 35.67300
N  46.77500 22.83300 28.31300
C  46.50100 22.14500 29.45200
C  46.09300 20.83400 29.12900
C  45.86200 20.86100 27.65000
C  46.41200 22.15000 27.24700
C  45.70100 19.81100 30.19900
C  45.28600 19.86500 26.72700
O  45.23700 19.93800 25.49700
C  44.70200 18.57100 27.26900
N  47.64600 24.79000 26.27200
C  47.04500 23.83100 25.49400
C  47.02300 24.20100 23.98300
C  47.69500 25.64500 23.91600
C  48.04900 25.81100 25.43800
C  47.77000 23.20300 23.03800
C  46.75800 26.72400 23.19500
C  47.48900 27.77300 22.24800
N  48.38900 26.63200 28.23700
C  48.77800 27.45500 27.22700
C  49.33100 28.75000 27.71700
C  49.17500 28.61700 29.13200
C  48.45200 27.40500 29.32300
C  49.90500 29.86900 26.94100
C  49.30900 29.32600 30.44000
O  49.65200 30.47900 30.66200
C  48.62400 28.36100 31.46400
C  49.63800 28.15200 32.51700
O  50.55700 27.35800 32.59300
O  49.28600 28.90000 33.66700
C  50.14500 28.66400 34.78300
H  46.48400 21.92700 31.67400
H  46.23600 21.84400 25.21700
H  48.83500 27.80300 25.15600
H  48.05700 26.02000 33.28100
H  45.77800 24.22000 33.15000
H  48.10100 23.95500 34.35600
H  48.18700 22.65600 33.06600
H  46.79500 22.74800 34.16700
H  45.18900 26.20100 33.67400
H  45.70000 27.54500 32.56800
H  46.52700 28.56800 34.32400
H  47.31400 27.19400 35.04600
H  45.92500 18.76900 29.96800
H  44.70400 19.95700 30.61400
H  46.18800 20.02800 31.15000
H  45.44900 18.29100 28.01200
H  44.67500 17.84600 26.45500
H  43.80200 18.78600 27.84500
H  46.01800 24.29000 23.57200
H  48.64600 25.62200 23.38300
H  48.14300 22.32200 23.56100
H  48.59300 23.70300 22.52900
H  47.07100 22.82700 22.29000
H  46.28500 27.32100 23.97500
H  46.01800 26.16300 22.62500
H  47.15900 27.67300 21.21400
H  48.52800 27.48700 22.41300
H  47.17500 28.77000 22.55600
H  50.05200 29.58000 25.90000
H  50.80600 30.16200 27.47900
H  49.17500 30.67000 27.05800
H  47.83800 28.96800 31.91200
H  50.13600 29.56600 35.39400
H  51.21100 28.55100 34.58600
H  49.82100 27.70700 35.19100

