79

Mg 9.89500 47.44700 25.61400
C  7.59800 47.46800 28.33000
C  12.41000 48.49100 27.81500
C  12.05000 47.34600 23.05400
C  7.24100 46.75300 23.43100
N  9.95800 48.00600 27.85800
C  8.91200 47.81600 28.75100
C  9.38500 48.34100 30.13100
C  10.88300 48.76900 29.86900
C  11.16600 48.41500 28.42400
C  11.36000 50.20700 30.11400
C  9.13900 47.37100 31.37800
C  10.09700 47.56800 32.53200
H  9.48900 47.10700 33.88700
N  11.93500 47.89200 25.46000
C  12.78900 48.27300 26.44700
C  14.12800 48.41600 25.90400
C  14.02500 48.06500 24.56500
C  12.64600 47.74600 24.26500
C  15.31300 48.84400 26.75000
C  15.16100 48.03900 23.50000
O  15.00000 47.79900 22.33300
C  16.63400 48.10000 23.91600
N  9.61400 47.40800 23.42800
C  10.71200 47.12000 22.69200
C  10.33600 46.39000 21.36300
C  8.76900 46.31900 21.51400
C  8.49400 46.86100 22.85800
C  10.94800 47.04400 20.03600
C  8.21200 44.88300 21.42400
C  8.46500 43.91600 22.60200
N  7.90200 47.07500 25.78700
C  6.90600 46.97400 24.79000
C  5.63800 46.85700 25.46400
C  5.82700 47.05400 26.81200
C  7.22300 47.18900 26.98600
C  4.38000 46.60900 24.72700
C  5.24800 47.06600 28.21400
O  4.07000 46.89200 28.59100
C  6.42000 47.29700 29.23000
C  6.63500 46.11500 30.05100
O  7.17000 45.15600 29.63300
O  6.08600 46.35500 31.27700
C  6.20600 45.29600 32.23900
H  13.27200 48.52800 28.48400
H  12.76100 46.92300 22.34200
H  6.51200 46.37700 22.70900
H  8.73200 49.20800 30.23000
H  11.60900 48.21900 30.46900
H  10.50800 50.84500 30.34800
H  12.03900 50.59500 29.35600
H  11.89700 50.25100 31.06200
H  9.09800 46.35900 30.97600
H  8.13600 47.66200 31.68800
H  10.36300 48.61900 32.64300
H  11.00900 46.98600 32.39400
H  16.24100 48.27300 26.78500
H  15.02800 49.14100 27.75900
H  15.65300 49.78100 26.31100
H  17.26900 47.98200 23.03800
H  16.72600 47.23200 24.56900
H  16.85200 49.08800 24.32200
H  10.82900 45.42700 21.49900
H  8.28200 46.96700 20.78700
H  11.44300 46.26900 19.45000
H  11.79800 47.67800 20.28900
H  10.10500 47.56700 19.58600
H  8.87600 44.40000 20.70800
H  7.16900 44.96100 21.11600
H  8.95000 44.48400 23.39600
H  9.08400 43.04500 22.38700
H  7.50200 43.53900 22.94900
H  4.35100 47.24500 23.84300
H  3.54200 46.75000 25.41000
H  4.33500 45.56500 24.41900
H  6.04700 48.09200 29.87600
H  7.09700 44.68600 32.09200
H  5.36500 44.62800 32.05700
H  6.15700 45.79100 33.20900

