79

Mg 8.69400 3.68200 27.24100
C  10.12300 1.98900 29.85100
C  6.94400 5.61800 29.42100
C  7.15300 5.08900 24.63200
C  9.77800 1.15700 25.02200
N  8.52100 3.72000 29.45300
C  9.40700 3.05800 30.30500
C  9.22400 3.58500 31.63300
C  8.05600 4.70800 31.57200
C  7.81500 4.72300 30.05500
C  6.79100 4.29500 32.40500
C  10.56100 4.13200 32.21600
C  11.08500 3.63100 33.56500
H  10.97800 4.69300 34.74300
N  7.36900 5.30000 27.01900
C  6.66700 5.96200 28.06600
C  5.82000 6.96300 27.59400
C  5.95100 6.88500 26.16200
C  6.87700 5.74800 25.85600
C  4.97100 7.85500 28.42800
C  5.37400 7.86400 25.02600
O  5.75600 7.76100 23.85800
C  4.42500 8.98000 25.36900
N  8.41700 3.17300 25.17300
C  7.86900 4.02100 24.32400
C  8.02700 3.47600 22.78000
C  9.07900 2.32900 22.94800
C  9.04900 2.19200 24.44700
C  6.71600 3.03600 22.05200
C  10.48700 2.56000 22.38200
C  11.22200 1.36700 21.83800
N  9.70500 1.87300 27.33100
C  10.17700 0.95400 26.36900
C  11.00500 -0.02200 27.00700
C  11.05100 0.40100 28.40600
C  10.19700 1.51500 28.52500
C  11.80100 -1.11200 26.39900
C  11.62500 0.15300 29.65200
O  12.33600 -0.76400 30.07000
C  10.99700 1.09000 30.64300
C  10.37800 0.24200 31.75400
O  9.50700 -0.58200 31.68800
O  11.03300 0.50100 32.89100
C  10.53300 -0.05500 34.16300
H  6.41200 6.35400 30.02700
H  6.62300 5.50100 23.77100
H  10.10500 0.32400 24.39700
H  8.99500 2.71900 32.25400
H  8.28100 5.72900 31.88000
H  6.02100 3.98900 31.69800
H  6.48500 5.14100 33.02100
H  7.05000 3.42000 33.00100
H  10.39700 5.20900 32.22000
H  11.36500 3.95100 31.50200
H  12.16500 3.54600 33.44200
H  10.61000 2.72200 33.93300
H  5.00000 7.67000 29.50200
H  3.93100 7.76300 28.11400
H  5.37100 8.86400 28.33200
H  3.49000 8.59200 25.77300
H  4.13800 9.53400 24.47600
H  4.99200 9.66700 25.99900
H  8.59700 4.22300 22.22600
H  8.74300 1.39800 22.49100
H  5.87000 3.41300 22.62700
H  6.65300 1.94900 21.99500
H  6.69300 3.42700 21.03500
H  11.17600 2.82400 23.18500
H  10.45500 3.31100 21.59300
H  12.23900 1.34900 22.22800
H  11.34900 1.34300 20.75600
H  10.74700 0.42200 22.10400
H  11.40800 -1.46500 25.44600
H  11.90900 -1.96200 27.07300
H  12.81400 -0.71000 26.37000
H  11.75600 1.67100 31.16700
H  9.62400 0.41200 34.54200
H  11.25700 0.15000 34.95200
H  10.37100 -1.13300 34.13700

