79

Mg 54.25000 24.50900 44.93100
C  51.62300 26.78700 44.23300
C  52.05100 21.93600 44.23800
C  56.93400 22.42800 44.85400
C  56.24300 27.05500 45.88400
N  52.03600 24.40900 44.33600
C  51.22000 25.47000 44.02400
C  49.85900 24.92500 43.52500
C  49.91600 23.42300 43.98300
C  51.39900 23.20000 44.20300
C  48.90600 23.14200 45.13700
C  49.50900 25.17100 42.03900
C  50.70400 25.25800 41.07700
H  51.54500 23.91800 40.95200
N  54.47700 22.43000 44.48400
C  53.41700 21.56100 44.30600
C  53.99100 20.23300 44.12500
C  55.38900 20.35900 44.19100
C  55.71300 21.77700 44.49300
C  53.05200 19.12800 43.79900
C  56.45000 19.18100 44.00400
O  56.07200 18.04200 43.86900
C  58.00500 19.43300 43.93700
N  56.42400 24.85200 45.08400
C  57.21200 23.77500 45.19500
C  58.68000 24.29900 45.55500
C  58.42400 25.79500 45.90000
C  56.92400 25.91700 45.62900
C  59.45800 23.53300 46.66300
C  59.28200 26.81800 45.13700
C  60.17600 27.83500 45.85100
N  54.03800 26.59300 44.92600
C  54.93300 27.46000 45.47700
C  54.25700 28.75200 45.56000
C  52.93200 28.56200 45.11900
C  52.85600 27.18600 44.77300
C  54.81000 30.01400 46.21000
C  51.63800 29.18100 44.79400
O  51.21500 30.34800 45.01200
C  50.78900 28.00600 44.17400
C  50.55800 28.48600 42.79800
O  51.41000 28.87000 42.03400
O  49.25900 28.42300 42.42500
C  48.96000 28.57700 40.98900
H  51.34600 21.10200 44.19300
H  57.74000 21.71600 45.04100
H  56.82100 27.85900 46.34500
H  49.15800 25.59100 44.02900
H  49.44600 22.81200 43.21200
H  48.83400 24.14000 45.56900
H  49.24000 22.40600 45.86800
H  47.96200 22.84800 44.67900
H  48.92700 26.09200 42.06900
H  48.77600 24.44600 41.68400
H  51.25900 26.19000 41.18900
H  50.26800 25.42000 40.09100
H  52.71300 19.41400 42.80300
H  52.15500 19.09000 44.41700
H  53.55800 18.16300 43.75400
H  58.11100 20.18900 43.15800
H  58.49400 18.51700 43.60600
H  58.46000 19.70800 44.88900
H  59.24400 24.26600 44.62200
H  58.54100 25.91900 46.97600
H  60.32000 23.05700 46.19500
H  58.85400 22.71700 47.06000
H  59.72500 24.04800 47.58600
H  58.55100 27.44700 44.62800
H  59.97200 26.46100 44.37300
H  60.21200 28.75200 45.26400
H  61.20700 27.53600 46.04100
H  59.84000 28.05200 46.86500
H  55.85000 29.80200 46.45700
H  54.11500 30.21000 47.02700
H  54.84200 30.88400 45.55500
H  49.84500 27.87000 44.70300
H  48.24000 27.76700 40.87700
H  49.79200 28.53700 40.28500
H  48.42900 29.52900 40.97100

