79

Mg 48.06400 44.43500 42.83400
C  44.51600 44.10300 42.47600
C  48.28600 41.03600 42.53900
C  51.32900 44.82400 42.98200
C  47.66000 47.85300 42.52400
N  46.55300 42.82300 42.44000
C  45.21800 42.81500 42.54400
C  44.56400 41.41000 42.55900
C  45.89200 40.47900 42.76300
C  47.02800 41.51200 42.60900
C  45.83900 39.77100 44.15900
C  43.72300 40.97300 41.31800
C  43.97200 41.70200 39.95800
H  43.89800 40.92400 38.69200
N  49.58600 43.08000 42.69400
C  49.49500 41.72100 42.59200
C  50.86200 41.16100 42.62100
C  51.74500 42.23400 42.56700
C  50.95000 43.41600 42.82100
C  51.16000 39.75900 42.42100
C  53.30400 42.19100 42.38000
O  53.88900 41.09500 42.35300
C  54.20500 43.45700 42.20700
N  49.33000 46.16100 42.88600
C  50.69100 46.06700 43.01500
C  51.37300 47.45100 43.14900
C  50.13900 48.40800 43.15900
C  48.98500 47.46500 42.75100
C  52.53000 47.59500 44.23700
C  50.36300 49.55800 42.10800
C  50.48800 50.96000 42.67300
N  46.46100 45.72500 42.49900
C  46.47200 47.10300 42.38200
C  45.07500 47.61800 42.22600
C  44.30100 46.43700 42.29800
C  45.19700 45.34100 42.38100
C  44.63300 49.04400 42.19400
C  42.91200 45.96000 42.51300
O  41.89800 46.57300 42.61100
C  43.02600 44.43000 42.61800
C  42.35400 44.00100 43.84200
O  41.22200 43.53600 43.99200
O  43.15300 44.28900 44.96900
C  42.73900 43.66800 46.29100
H  48.37200 39.94900 42.49500
H  52.37300 45.02500 43.22900
H  47.52900 48.93600 42.47700
H  43.99800 41.40900 43.49000
H  46.11500 39.74600 41.98700
H  45.39800 38.79700 43.94800
H  45.16200 40.25000 44.86600
H  46.86400 39.61600 44.49600
H  42.68800 41.01400 41.65600
H  43.90500 39.92300 41.09000
H  44.91800 42.24400 39.93200
H  43.17700 42.44200 39.86800
H  51.75700 39.41200 43.26500
H  51.86200 39.69400 41.59000
H  50.27600 39.16400 42.19100
H  53.83600 44.24000 41.54400
H  55.17100 43.18500 41.78300
H  54.28200 43.92200 43.19000
H  51.81000 47.51100 42.15300
H  49.93700 48.69900 44.19000
H  52.31100 48.28100 45.05600
H  53.45100 47.93900 43.76700
H  52.84300 46.67900 44.73700
H  49.43600 49.61100 41.53600
H  51.17900 49.45200 41.39400
H  49.78600 51.66100 42.22000
H  51.43600 51.49000 42.58300
H  50.25400 50.78600 43.72300
H  44.65000 49.51000 43.17900
H  43.69100 49.15700 41.65600
H  45.33100 49.63200 41.59800
H  42.40400 44.09000 41.79000
H  43.60200 43.63100 46.95500
H  42.35800 42.65300 46.40400
H  41.95800 44.24100 46.79200

