79

Mg -6.66000 24.82500 26.40600
C  -5.47400 26.36700 29.33900
C  -8.38800 22.58600 28.26800
C  -7.62700 23.19200 23.63100
C  -4.29000 26.73400 24.61400
N  -6.69100 24.45000 28.58100
C  -6.38700 25.37100 29.59200
C  -7.11500 24.90500 30.86000
C  -7.70000 23.51500 30.53900
C  -7.59400 23.54100 29.01700
C  -6.84300 22.33000 31.02400
C  -8.23800 25.78300 31.49100
C  -8.71400 25.38500 32.96100
H  -7.83700 24.44600 33.81200
N  -7.88000 23.13700 25.99600
C  -8.50500 22.38300 26.89700
C  -9.17600 21.33200 26.28600
C  -9.10300 21.55900 24.86300
C  -8.19300 22.70300 24.77000
C  -9.92400 20.29100 27.04900
C  -9.76300 20.73900 23.69600
O  -9.51700 20.97400 22.54000
C  -10.86500 19.72500 24.01500
N  -6.07300 24.98400 24.46800
C  -6.63000 24.16400 23.47200
C  -5.90900 24.44200 22.14700
C  -4.86900 25.54000 22.41400
C  -5.08500 25.78200 23.90700
C  -5.54500 23.25600 21.19100
C  -4.94200 26.74100 21.49400
C  -5.96200 27.86600 21.85000
N  -5.24600 26.43900 26.84300
C  -4.31000 27.04400 25.98300
C  -3.58800 28.00700 26.76300
C  -4.06800 27.84700 28.14400
C  -4.96100 26.79400 28.10000
C  -2.60200 29.00500 26.19500
C  -3.99600 28.29400 29.52200
O  -3.26900 29.17000 29.98300
C  -4.82600 27.30400 30.34500
C  -3.99500 26.77100 31.44600
O  -3.28600 25.77900 31.40500
O  -3.80800 27.56600 32.59000
C  -2.82600 27.11900 33.57500
H  -8.93100 21.94800 28.96900
H  -7.85500 22.72000 22.67300
H  -3.66300 27.44000 24.06500
H  -6.34400 24.78700 31.62100
H  -8.74600 23.42400 30.83200
H  -6.43300 21.81600 30.15500
H  -7.45700 21.59600 31.54600
H  -6.06000 22.47400 31.76800
H  -9.14600 25.65200 30.90200
H  -7.99400 26.83500 31.34400
H  -9.62600 24.80200 32.83100
H  -8.84000 26.34600 33.46000
H  -10.05600 19.34800 26.51800
H  -10.89000 20.72000 27.31300
H  -9.46900 19.90900 27.96400
H  -11.32700 19.41500 23.07800
H  -11.59300 20.20700 24.66700
H  -10.40100 18.84900 24.46900
H  -6.66200 24.97400 21.56600
H  -3.88400 25.07200 22.39900
H  -4.49300 23.37800 20.93100
H  -6.19400 23.11800 20.32600
H  -5.63700 22.32700 21.75400
H  -5.07000 26.37500 20.47600
H  -3.95300 27.15900 21.68100
H  -6.82500 27.42700 22.35100
H  -6.32000 28.32700 20.92900
H  -5.38000 28.56300 22.45300
H  -1.59100 28.60300 26.25300
H  -2.61600 29.93200 26.76900
H  -2.93400 29.27000 25.19100
H  -5.58300 27.72100 31.01000
H  -1.84600 27.12500 33.09800
H  -3.13300 26.22900 34.12500
H  -2.70500 27.93600 34.28600

