79

Mg 25.53600 51.02300 26.39100
C  23.28200 52.09700 28.91600
C  27.57200 49.68200 28.81600
C  27.93200 50.76200 24.04700
C  23.61500 52.76500 24.15800
N  25.45600 51.13000 28.65400
C  24.40400 51.41800 29.48700
C  24.72300 51.03400 30.95000
C  26.12900 50.36900 30.82700
C  26.36300 50.36500 29.30300
C  27.21800 50.94300 31.80200
C  23.63900 50.13100 31.57600
C  23.76500 49.69400 33.08500
H  24.36800 50.66300 34.14400
N  27.36900 50.07500 26.38600
C  28.04500 49.58800 27.43900
C  29.31500 48.90500 26.93300
C  29.44800 49.34900 25.58900
C  28.25700 50.15800 25.30000
C  30.17500 48.06900 27.85800
C  30.60700 49.01300 24.59700
O  30.57600 49.35100 23.40500
C  31.72000 48.13800 24.99200
N  25.91500 51.96900 24.43500
C  26.85600 51.59600 23.56800
C  26.63000 52.17400 22.15600
C  25.12900 52.45400 22.22500
C  24.85300 52.37500 23.73000
C  27.52000 53.42000 21.93300
C  24.14200 51.50700 21.45700
C  24.10500 51.76100 19.86100
N  23.88700 52.23400 26.41100
C  23.10200 52.73300 25.42800
C  21.81800 53.10800 25.80500
C  21.89200 53.01000 27.19000
C  23.11000 52.36500 27.53500
C  20.70100 53.68000 24.98900
C  21.17300 53.26100 28.45000
O  20.03800 53.64000 28.62900
C  22.12900 52.74700 29.58400
C  22.59000 53.82500 30.46000
O  23.18200 54.87300 30.21900
O  22.21300 53.48700 31.74400
C  22.43400 54.41200 32.89000
H  28.17800 49.14500 29.54900
H  28.65200 50.40800 23.30700
H  22.95900 53.21800 23.41100
H  24.68100 51.98400 31.48200
H  25.96300 49.38200 31.25900
H  27.86200 51.60600 31.22400
H  27.89200 50.11000 32.00300
H  26.79500 51.57800 32.58100
H  23.89200 49.21100 31.04900
H  22.58000 50.28500 31.36500
H  24.33300 48.76300 33.08900
H  22.71800 49.58100 33.36700
H  29.90800 48.10900 28.91400
H  31.18700 48.47400 27.81900
H  30.21100 47.07100 27.42100
H  31.13100 47.22300 25.05700
H  32.16000 48.32700 25.97100
H  32.47900 48.09600 24.21100
H  26.87200 51.39400 21.43500
H  24.97200 53.45300 21.81900
H  27.78200 53.67000 22.96100
H  26.92900 54.27700 21.60900
H  28.43500 53.19300 21.38500
H  23.10400 51.45300 21.78400
H  24.64700 50.54900 21.58200
H  23.53700 50.98900 19.34200
H  25.08900 51.83300 19.39700
H  23.61400 52.72800 19.75300
H  20.84700 53.69700 23.90900
H  20.71800 54.70500 25.35800
H  19.73200 53.24500 25.23100
H  21.62900 51.96800 30.16000
H  23.37600 54.07800 33.32600
H  21.59200 54.31000 33.57400
H  22.40300 55.45200 32.56600

