79

Mg -2.46100 16.85800 26.78400
C  -2.88500 14.52900 29.56000
C  -2.72600 19.42200 29.06900
C  -2.46900 18.79200 24.16500
C  -2.83200 13.94100 24.73800
N  -2.87400 16.97400 29.07500
C  -2.82100 15.91300 29.94200
C  -2.85500 16.47900 31.43500
C  -2.95200 18.04500 31.18800
C  -2.85500 18.15700 29.69300
C  -4.23100 18.74900 31.81400
C  -1.70400 15.94100 32.41600
C  -1.19200 16.88800 33.49700
H  -0.74800 16.21300 34.75700
N  -2.48400 18.82500 26.67400
C  -2.60000 19.76800 27.70000
C  -2.58100 21.08900 27.09500
C  -2.59300 20.91800 25.65200
C  -2.49600 19.44600 25.43700
C  -2.75300 22.28700 27.99100
C  -2.66300 21.95500 24.63300
O  -2.79500 21.67800 23.42500
C  -2.78400 23.41600 25.01500
N  -2.71700 16.38400 24.78000
C  -2.57300 17.35000 23.82700
C  -2.59400 16.84100 22.34600
C  -2.58300 15.30500 22.60700
C  -2.59200 15.13300 24.11200
C  -3.92300 17.30500 21.62400
C  -1.45200 14.52200 21.82800
C  -1.93000 13.41000 20.81100
N  -2.82100 14.67100 27.01900
C  -2.89700 13.68200 26.10100
C  -2.96700 12.40700 26.74200
C  -2.99000 12.72500 28.08700
C  -2.85600 14.09500 28.25900
C  -2.93000 11.03800 26.09300
C  -3.00100 12.09100 29.42700
O  -3.08300 10.93400 29.82400
C  -2.88200 13.28500 30.43800
C  -1.62600 13.10400 31.17500
O  -0.52300 13.42900 30.76800
O  -1.78500 12.49200 32.36300
C  -0.64200 12.36900 33.31100
H  -2.63000 20.30200 29.70800
H  -2.40400 19.44500 23.29200
H  -2.81300 13.01400 24.16300
H  -3.78100 16.05600 31.82400
H  -2.11100 18.64700 31.53000
H  -5.07700 18.80400 31.12900
H  -3.93800 19.72400 32.20600
H  -4.53200 18.13800 32.66500
H  -0.86800 15.73400 31.74800
H  -1.99700 14.98900 32.86000
H  -1.90000 17.69500 33.68500
H  -0.29700 17.31500 33.04400
H  -3.34900 21.97500 28.84900
H  -3.25600 23.15800 27.57000
H  -1.86300 22.78400 28.37600
H  -2.86900 24.06700 24.14500
H  -1.94300 23.82400 25.57500
H  -3.68900 23.55400 25.60600
H  -1.73500 17.20300 21.78100
H  -3.57000 14.95200 22.30900
H  -4.80000 17.02000 22.20400
H  -4.05700 16.65600 20.75900
H  -4.05900 18.34900 21.34100
H  -0.68900 14.11500 22.49200
H  -0.93500 15.23800 21.19000
H  -1.50400 13.63600 19.83400
H  -3.01000 13.42700 20.66400
H  -1.58700 12.40600 21.06200
H  -3.91600 10.64900 25.84100
H  -2.36800 10.42900 26.80200
H  -2.41300 11.08800 25.13500
H  -3.75900 13.22500 31.08200
H  -0.78300 11.31100 33.53100
H  -0.68200 13.04000 34.16900
H  0.36600 12.55100 32.93800

