79

Mg 1.23300 41.52800 25.17900
C  2.27200 42.12300 28.39200
C  -1.73900 40.29400 26.35500
C  0.40800 40.86200 22.06300
C  4.37700 42.74200 23.99500
N  0.35700 41.25900 27.17200
C  0.88500 41.75200 28.31100
C  -0.03000 41.60700 29.56300
C  -1.31500 40.98400 28.85200
C  -0.88900 40.76600 27.41600
C  -2.06500 39.78600 29.51600
C  -0.39500 42.95100 30.24800
C  0.11200 43.10900 31.73000
H  -0.92900 43.14500 32.85600
N  -0.40700 40.71100 24.37800
C  -1.50900 40.25300 24.97100
C  -2.45000 39.76100 23.99800
C  -1.86400 39.95400 22.68000
C  -0.56900 40.55400 22.97900
C  -3.92400 39.29600 24.34600
C  -2.44200 39.65700 21.21300
O  -1.89100 40.14600 20.20500
C  -3.67400 38.85400 20.97700
N  2.21700 41.78000 23.33500
C  1.66300 41.50300 22.19400
C  2.53800 42.06200 20.99900
C  3.69800 42.70800 21.64700
C  3.37300 42.41200 23.10600
C  2.93700 40.88300 20.02500
C  3.71600 44.28700 21.48000
C  3.89000 44.84600 20.05200
N  2.99000 42.09500 25.98300
C  4.17400 42.54800 25.38800
C  5.15100 42.85800 26.39500
C  4.44500 42.70900 27.64500
C  3.15500 42.26900 27.32600
C  6.61100 43.28300 26.13100
C  4.59900 42.64900 29.04600
O  5.59400 42.87700 29.75200
C  3.18100 42.41300 29.65900
C  3.34400 41.22000 30.59600
O  3.48800 40.02400 30.30600
O  3.43000 41.69100 31.88600
C  3.56200 40.77400 33.01900
H  -2.66400 39.79900 26.65800
H  0.15900 40.79100 21.00200
H  5.23200 43.34700 23.68600
H  0.51800 40.98000 30.26700
H  -2.15300 41.67800 28.78600
H  -2.35700 39.10900 28.71400
H  -2.92700 40.15000 30.07500
H  -1.37200 39.18100 30.10200
H  -1.47000 43.12500 30.30800
H  0.04900 43.70800 29.60100
H  0.86300 43.89700 31.67700
H  0.70900 42.20100 31.82100
H  -4.61900 39.36300 23.50900
H  -4.40300 39.84900 25.15400
H  -3.93300 38.25900 24.68000
H  -3.69800 38.05500 21.71700
H  -3.51700 38.45200 19.97600
H  -4.54500 39.50100 21.07800
H  1.93500 42.80200 20.47300
H  4.67700 42.30000 21.39300
H  2.06100 40.82200 19.38000
H  2.99800 39.94700 20.58000
H  3.88700 41.09600 19.53300
H  4.67100 44.56400 21.92700
H  2.80100 44.71400 21.89200
H  3.62800 43.99000 19.43000
H  4.85400 45.30300 19.83200
H  3.20900 45.69300 19.96700
H  6.95100 43.46300 25.11100
H  7.14400 42.41500 26.51900
H  6.86000 44.16100 26.72600
H  2.95800 43.28600 30.27200
H  4.59200 40.69300 33.36600
H  3.10800 39.79200 32.88900
H  2.97400 41.23300 33.81400

