79

Mg 17.34600 -0.89600 27.68500
C  15.81000 1.34600 30.16600
C  18.88600 -2.43500 30.26000
C  18.86300 -2.67800 25.47400
C  15.51700 0.97100 25.28800
N  17.37300 -0.51300 29.96000
C  16.69000 0.37700 30.73300
C  16.90700 0.18800 32.27300
C  18.08100 -0.88200 32.23200
C  18.10400 -1.37700 30.77600
C  19.40300 -0.16800 32.62800
C  15.63400 -0.26300 32.95800
C  15.75000 -0.52900 34.51500
H  16.92500 0.11100 35.28200
N  18.79700 -2.34200 27.82400
C  19.31500 -2.91900 28.97300
C  20.16400 -4.05800 28.63300
C  20.08200 -4.13900 27.17300
C  19.20900 -3.04200 26.73200
C  20.96800 -4.74700 29.65500
C  20.73600 -5.11100 26.23200
O  20.69000 -5.18900 24.99400
C  21.41300 -6.28900 26.86600
N  17.15800 -0.86500 25.60800
C  18.02700 -1.64700 24.89800
C  17.88900 -1.29800 23.41000
C  16.73600 -0.20800 23.32500
C  16.42200 -0.03200 24.85400
C  19.24800 -0.91500 22.72000
C  15.47400 -0.58000 22.50800
C  15.17800 0.34000 21.27300
N  16.00200 0.81500 27.67300
C  15.31000 1.38700 26.60100
C  14.45500 2.45200 27.00400
C  14.57800 2.47000 28.43300
C  15.57400 1.46600 28.77300
C  13.50600 3.29100 26.18400
C  14.15400 3.10200 29.73200
O  13.50200 4.08900 30.09200
C  14.92800 2.38600 30.81300
C  15.63600 3.41500 31.59800
O  16.35100 4.24500 31.10700
O  15.43600 3.26600 32.98000
C  16.26800 4.14600 33.81300
H  19.40100 -2.97400 31.05800
H  19.51000 -3.23800 24.79600
H  15.11200 1.65700 24.54000
H  17.30800 1.09000 32.73300
H  17.96200 -1.73500 32.90000
H  19.87600 -0.80400 33.37700
H  19.36400 0.86900 32.96100
H  20.07600 -0.21100 31.77100
H  15.51100 -1.16600 32.35900
H  14.76800 0.38400 32.82000
H  15.91400 -1.60500 34.58200
H  14.79500 -0.36200 35.01400
H  20.75400 -4.31500 30.63300
H  22.02700 -4.52800 29.52100
H  20.83400 -5.82700 29.71200
H  21.54000 -7.00500 26.05300
H  20.67100 -6.70600 27.54700
H  22.27500 -5.87900 27.39200
H  17.57400 -2.18500 22.86100
H  17.21800 0.69600 22.95400
H  19.19900 0.16000 22.54300
H  19.37300 -1.33500 21.72200
H  20.10800 -1.18600 23.33200
H  14.56100 -0.51000 23.09900
H  15.61300 -1.59800 22.14300
H  14.24400 0.88200 21.41900
H  15.13500 -0.19900 20.32600
H  15.90000 1.12000 21.03300
H  12.65100 3.61200 26.77900
H  13.08600 2.66300 25.39800
H  13.96000 4.18800 25.76300
H  14.24200 1.84200 31.46200
H  16.04600 5.17400 33.52600
H  17.31200 3.83900 33.73800
H  15.95800 4.13700 34.85800

