79

Mg 6.86300 53.90400 41.73800
C  6.24500 50.39400 41.65800
C  10.06000 53.33600 41.12800
C  7.16800 57.25500 41.29500
C  3.43900 54.37700 42.54200
N  7.89600 52.06500 41.31800
C  7.57400 50.78500 41.49500
C  8.79600 49.87600 41.33400
C  9.99300 50.83400 41.53000
C  9.27800 52.20400 41.38100
C  10.79500 50.72600 42.81100
C  8.87000 49.13100 39.96900
C  8.75200 49.96200 38.70700
H  7.36200 49.96800 38.12000
N  8.34900 55.06500 41.03600
C  9.64000 54.67400 40.96000
C  10.46800 55.80000 40.58300
C  9.69400 56.97600 40.76200
C  8.31000 56.47700 40.94600
C  11.93400 55.63800 40.14400
C  10.22700 58.42500 40.59300
O  11.39300 58.57000 40.34900
C  9.49700 59.69600 40.83400
N  5.36900 55.62700 41.66200
C  5.89900 56.87200 41.77000
C  4.83000 57.82200 42.32200
C  3.49900 56.95900 42.44100
C  4.12200 55.55100 42.30200
C  5.21500 58.62000 43.60600
C  2.46200 57.34400 41.32300
C  1.19200 56.49200 41.31200
N  5.20200 52.72000 42.00200
C  3.89100 53.03900 42.35100
C  3.11500 51.84100 42.57400
C  4.00700 50.71800 42.30600
C  5.20700 51.35500 41.97300
C  1.66500 51.67600 42.88400
C  4.14300 49.29300 42.35800
O  3.35400 48.39300 42.69300
C  5.57500 49.01400 41.80900
C  5.29900 48.35400 40.45000
O  4.59500 48.83800 39.49900
O  5.83700 47.06100 40.50200
C  5.52600 46.20100 39.40300
H  11.13000 53.11800 41.10000
H  7.25900 58.34000 41.37800
H  2.45500 54.43300 43.01500
H  8.85200 49.24200 42.22000
H  10.58500 50.68100 40.62800
H  11.75900 50.22200 42.74700
H  10.37300 50.16800 43.64600
H  10.98000 51.74500 43.15100
H  8.07300 48.38800 39.97700
H  9.73300 48.46700 39.89900
H  9.49600 49.57600 38.01000
H  9.03700 50.99900 38.88100
H  12.31400 54.62600 40.00400
H  12.51200 56.38700 40.68500
H  11.91100 56.11200 39.16300
H  8.86100 59.91200 39.97600
H  10.25100 60.47700 40.93500
H  8.98900 59.66300 41.79800
H  4.54900 58.48300 41.50200
H  2.98500 57.00200 43.40200
H  4.89200 58.18500 44.55100
H  4.87800 59.65300 43.68400
H  6.30200 58.56700 43.66400
H  2.87500 57.39700 40.31600
H  2.22800 58.39200 41.51100
H  1.47200 55.68900 40.63000
H  0.45200 57.10700 40.79900
H  0.76900 56.13700 42.25100
H  1.35400 50.80800 42.30300
H  1.28400 52.68900 42.75600
H  1.66500 51.35500 43.92600
H  5.94300 48.31300 42.55800
H  4.45900 45.99200 39.49200
H  6.07300 45.26400 39.50900
H  5.80700 46.75200 38.50500

