79

Mg 7.43200 52.96300 40.98500
C  6.98400 49.51300 40.30800
C  10.58300 52.70400 39.40200
C  7.52500 56.26600 40.89100
C  4.00300 52.98900 41.89700
N  8.46300 51.36500 39.90300
C  8.17100 50.00800 39.72400
C  9.31000 49.23700 39.00900
C  10.50400 50.14300 39.38400
C  9.82500 51.59500 39.55800
C  11.35600 49.83700 40.64300
C  8.97200 49.23300 37.44500
C  9.10600 47.88500 36.73600
H  8.19200 47.68300 35.47200
N  8.91100 54.34800 40.34500
C  10.15000 53.97300 39.83200
C  10.80700 55.23900 39.58300
C  10.01300 56.33300 39.97500
C  8.77400 55.72400 40.49600
C  12.13500 55.22500 38.91100
C  10.39300 57.80700 39.80600
O  11.50600 58.15800 39.45500
C  9.42600 58.87800 40.14700
N  5.88100 54.37100 41.02100
C  6.25900 55.65200 41.19000
C  5.06400 56.57000 41.73900
C  4.03900 55.48400 42.13100
C  4.65200 54.23100 41.64800
C  5.59300 57.53400 42.84900
C  2.59700 55.72200 41.58500
C  1.35700 55.36000 42.47800
N  5.85500 51.53200 41.14800
C  4.53400 51.71300 41.59800
C  3.93700 50.46900 41.73700
C  4.85400 49.48500 41.20500
C  5.99300 50.21400 40.85500
C  2.55200 50.35700 42.14700
C  5.11400 48.02500 40.93300
O  4.38100 47.00700 41.14800
C  6.59800 47.97800 40.41800
C  6.62400 47.17500 39.19900
O  6.36900 47.49400 38.02600
O  6.97900 45.90500 39.51700
C  6.76000 44.81400 38.56700
H  11.56100 52.66100 38.91800
H  7.43900 57.32300 41.15000
H  2.97500 52.97200 42.26400
H  9.33300 48.24000 39.45100
H  11.22500 50.11900 38.56700
H  10.83200 49.20400 41.35800
H  11.55200 50.70000 41.28000
H  12.29500 49.38200 40.32800
H  9.61000 49.87200 36.83500
H  7.96000 49.61900 37.32200
H  8.99600 47.05000 37.42900
H  10.11000 47.98000 36.32300
H  11.94700 55.23700 37.83800
H  12.71700 54.33900 39.16500
H  12.81100 56.03200 39.19600
H  9.06400 58.69900 41.15900
H  8.55000 58.78600 39.50600
H  9.88800 59.82800 39.87700
H  4.79600 57.06600 40.80700
H  3.97600 55.45800 43.21900
H  6.66200 57.48700 43.05500
H  4.98700 57.41400 43.74700
H  5.41400 58.56600 42.54700
H  2.47800 55.32000 40.57900
H  2.52500 56.80700 41.50200
H  0.89800 56.27600 42.85000
H  1.57800 54.68700 43.30600
H  0.54200 54.91700 41.90700
H  1.89900 50.85700 41.43200
H  2.38400 50.96300 43.03700
H  2.26700 49.30500 42.17200
H  7.24800 47.43700 41.10600
H  7.22600 45.16400 37.64600
H  5.72800 44.46700 38.51300
H  7.40900 43.99800 38.88600

