79

Mg 24.36900 -5.59400 47.06800
C  26.25600 -3.40100 45.15200
C  21.75200 -5.04100 44.91000
C  22.83200 -8.26300 48.45400
C  27.48400 -6.81300 48.50600
N  24.10200 -4.52400 45.18300
C  24.93100 -3.54000 44.67100
C  24.29500 -2.66200 43.58800
C  22.85000 -3.22200 43.60300
C  22.89500 -4.31100 44.64400
C  21.72600 -2.21200 43.87800
C  25.00400 -2.61300 42.16600
C  25.18000 -1.11200 41.66100
H  25.37800 -0.96300 40.09000
N  22.53500 -6.46400 46.79000
C  21.62000 -6.10300 45.86000
C  20.44100 -6.90900 46.10200
C  20.68200 -7.80300 47.14300
C  22.11800 -7.51400 47.55100
C  19.15200 -6.56000 45.33000
C  19.70900 -8.80100 47.74600
O  18.59500 -8.82700 47.17000
C  19.93200 -9.69500 48.90500
N  25.08100 -7.46300 48.10700
C  24.19400 -8.30200 48.65600
C  24.90800 -9.37900 49.55000
C  26.27200 -8.78100 49.71900
C  26.33900 -7.64000 48.65900
C  24.31600 -9.75000 50.92800
C  27.40200 -9.86800 49.65400
C  27.88100 -10.62100 50.90400
N  26.39600 -5.10800 47.05800
C  27.50100 -5.60900 47.70600
C  28.64500 -4.91000 47.35500
C  28.20900 -3.97500 46.39200
C  26.81100 -4.18700 46.16500
C  30.08400 -5.12200 47.91900
C  28.65500 -2.94400 45.50200
O  29.78500 -2.53900 45.34700
C  27.34400 -2.49800 44.73100
C  27.12800 -1.06000 45.05300
O  26.29300 -0.63400 45.81700
O  27.86700 -0.22100 44.34700
C  27.84000 1.20300 44.66900
H  20.88000 -4.83300 44.28600
H  22.37600 -9.16700 48.86200
H  28.44400 -7.02000 48.98300
H  24.24400 -1.67400 44.04600
H  22.63300 -3.66000 42.62900
H  21.03400 -2.21200 43.03600
H  22.07100 -1.19200 44.04700
H  21.22100 -2.53000 44.79100
H  24.40100 -3.09100 41.39400
H  25.92800 -3.19200 42.16400
H  26.12700 -0.70400 42.01500
H  24.27000 -0.65800 42.05500
H  18.87000 -7.34700 44.63100
H  19.18000 -5.71900 44.63700
H  18.42600 -6.39100 46.12500
H  18.96900 -10.16200 49.11200
H  20.38500 -9.14900 49.73200
H  20.67000 -10.48300 48.75300
H  25.04300 -10.25900 48.92100
H  26.42100 -8.23500 50.65000
H  23.49300 -9.08300 51.18400
H  24.95500 -9.65300 51.80600
H  23.97600 -10.78500 50.95400
H  28.27600 -9.32100 49.30100
H  27.15100 -10.65900 48.94700
H  28.92500 -10.42800 51.15200
H  27.84100 -11.70500 50.79300
H  27.27400 -10.46700 51.79600
H  30.82300 -4.60500 47.30600
H  30.13600 -6.21000 47.96100
H  30.05900 -4.65800 48.90500
H  27.53900 -2.52000 43.65900
H  28.63400 1.36900 45.39800
H  26.88100 1.51800 45.08000
H  28.23600 1.75100 43.81400

