79

Mg 35.31300 2.96200 30.77400
C  32.65600 3.97300 32.79100
C  37.35100 3.07000 33.35200
C  37.88000 2.14500 28.61100
C  33.22400 3.23000 27.99000
N  34.98000 3.46400 32.88500
C  33.84100 3.79700 33.53500
C  34.04000 3.87200 35.04300
C  35.61600 3.89900 35.12900
C  36.03500 3.43300 33.71900
C  36.23700 5.25100 35.57300
C  33.24700 2.69300 35.75600
C  33.65900 2.26400 37.16400
H  34.28100 3.37400 38.12800
N  37.30400 2.58200 31.00700
C  37.99200 2.63400 32.13500
C  39.38800 2.28100 31.90700
C  39.56800 2.21600 30.52900
C  38.22200 2.31500 29.98700
C  40.29900 2.09300 33.14600
C  40.85000 1.93800 29.75400
O  40.91500 1.84600 28.51000
C  42.20100 1.65500 30.57600
N  35.56900 2.90200 28.55800
C  36.71100 2.50900 27.93700
C  36.41300 2.15100 26.43800
C  34.88200 2.30800 26.35600
C  34.48600 2.85800 27.69400
C  37.28300 3.06200 25.47600
C  34.10300 1.01300 25.94700
C  33.65800 0.87900 24.49500
N  33.41200 3.58500 30.42000
C  32.67700 3.64500 29.21800
C  31.30000 4.00800 29.49500
C  31.22100 4.09000 30.89000
C  32.57700 3.83500 31.40700
C  30.18200 4.11000 28.55100
C  30.35900 4.41500 32.04100
O  29.17900 4.65700 32.10200
C  31.28200 4.40400 33.34400
C  31.25900 5.70000 34.09400
O  31.67700 6.75800 33.65800
O  30.80800 5.47400 35.36700
C  30.59100 6.65100 36.19800
H  38.01200 3.22000 34.20800
H  38.64000 1.66900 27.98700
H  32.58300 3.10200 27.11600
H  33.63300 4.80500 35.43200
H  36.01900 3.37600 35.99600
H  35.61800 6.11100 35.31600
H  37.13400 5.41400 34.97500
H  36.41700 5.27700 36.64700
H  33.44500 1.83900 35.10800
H  32.18000 2.87500 35.88100
H  34.21300 1.32500 37.16600
H  32.73600 1.94800 37.65000
H  41.37300 2.24300 33.03200
H  40.20800 1.04300 33.42400
H  40.00600 2.76100 33.95500
H  42.95700 1.50400 29.80500
H  42.31400 0.79000 31.23000
H  42.48000 2.56300 31.10900
H  36.72300 1.11900 26.26900
H  34.73200 3.11200 25.63600
H  37.37500 4.09800 25.80400
H  36.72400 3.18900 24.54800
H  38.26100 2.60800 25.32000
H  33.25000 1.21400 26.59600
H  34.58800 0.12400 26.34900
H  33.89000 -0.16400 24.28100
H  34.17800 1.66200 23.94300
H  32.58300 1.06000 24.51100
H  29.26600 3.85400 29.08400
H  30.29500 3.51800 27.64300
H  30.14500 5.15400 28.24100
H  30.92500 3.58100 33.96200
H  30.22900 7.52900 35.66300
H  31.51100 7.03000 36.64100
H  29.80800 6.50100 36.94200

