79

Mg 53.88000 24.18800 43.91400
C  51.37100 26.65100 43.16800
C  51.49300 21.89700 43.06900
C  56.27600 21.91500 43.95100
C  56.12800 26.68500 44.67700
N  51.71600 24.39800 43.06800
C  50.92500 25.42900 42.79300
C  49.50500 24.94100 42.49900
C  49.48800 23.51500 43.17600
C  51.00000 23.20900 43.12000
C  48.82100 23.29500 44.58100
C  49.10600 24.88800 41.02300
C  50.06300 24.32300 40.01400
H  50.48100 25.38200 38.96100
N  53.90200 22.20900 43.48800
C  52.80600 21.39600 43.13200
C  53.22500 20.05600 42.89000
C  54.61200 20.04200 43.17600
C  55.00900 21.42800 43.58100
C  52.20400 19.03800 42.32300
C  55.50700 18.84400 42.97800
O  54.95700 17.79600 42.56000
C  57.02600 18.76200 43.19100
N  56.05800 24.38400 43.91200
C  56.78800 23.25900 44.19000
C  58.23100 23.64600 44.59100
C  58.10900 25.17900 44.95700
C  56.70700 25.46300 44.43900
C  58.94900 22.77000 45.72100
C  59.11500 26.05200 44.21400
C  60.25300 26.75200 45.06300
N  53.81400 26.22200 43.94100
C  54.76000 27.04700 44.49900
C  54.10300 28.41900 44.74700
C  52.86300 28.24600 44.13200
C  52.66800 26.90800 43.66300
C  54.84000 29.63500 45.22100
C  51.63500 28.95300 43.80200
O  51.29300 30.09200 44.03300
C  50.64300 27.97000 43.10900
C  50.29000 28.38900 41.77800
O  51.13800 28.57000 40.92400
O  48.93200 28.45500 41.60800
C  48.49800 29.18000 40.32400
H  50.74400 21.10900 43.17100
H  57.06200 21.15900 44.02100
H  56.72500 27.42500 45.21600
H  48.85300 25.63200 43.03400
H  48.87800 22.83800 42.57900
H  49.60100 23.13700 45.32500
H  48.15500 22.44000 44.46900
H  48.18100 24.14900 44.80300
H  48.83700 25.91300 40.76600
H  48.15700 24.35200 40.98800
H  49.53500 23.61400 39.37700
H  50.90300 23.75600 40.41600
H  51.39400 19.57600 41.83100
H  51.67700 18.58700 43.16400
H  52.63600 18.29500 41.65300
H  57.24500 19.29400 44.11700
H  57.59900 19.10300 42.32900
H  57.30400 17.72100 43.35400
H  58.77300 23.33000 43.70000
H  58.05400 25.32600 46.03500
H  58.39000 21.84200 45.84500
H  58.89500 23.38500 46.62000
H  60.00900 22.56100 45.58400
H  58.65900 26.73700 43.50000
H  59.67500 25.37100 43.57400
H  60.59900 27.57300 44.43500
H  61.06500 26.06200 45.29200
H  59.75400 27.08600 45.97300
H  54.78200 29.64900 46.30900
H  54.25400 30.47200 44.84000
H  55.82700 29.71000 44.76500
H  49.79900 27.73700 43.75900
H  47.95300 30.11400 40.46600
H  47.93800 28.59000 39.59900
H  49.37900 29.43300 39.73400

