79

Mg 16.77000 -1.35600 27.55200
C  15.60700 0.78200 29.96600
C  18.47500 -3.04300 29.76500
C  18.15200 -3.22900 24.95100
C  14.80500 0.39500 25.12200
N  17.08600 -1.06000 29.60700
C  16.51200 -0.17000 30.47200
C  16.99000 -0.38900 31.88500
C  18.02900 -1.54800 31.74400
C  17.83700 -1.93900 30.26600
C  19.41200 -1.22800 32.15800
C  15.88900 -0.67000 32.89300
C  15.88400 0.10000 34.22900
H  17.23200 0.81700 34.72100
N  18.12700 -2.88600 27.39900
C  18.70900 -3.52400 28.47400
C  19.52300 -4.60100 28.02900
C  19.45200 -4.65000 26.60400
C  18.55600 -3.54500 26.23900
C  20.23200 -5.49600 29.03600
C  19.97900 -5.70600 25.62600
O  19.77500 -5.62200 24.43500
C  20.67300 -6.95400 26.15500
N  16.55100 -1.40900 25.33600
C  17.21400 -2.18500 24.46100
C  16.76200 -1.96700 23.00200
C  15.65600 -0.86300 23.10800
C  15.60000 -0.58700 24.61600
C  17.81100 -1.67300 21.82200
C  14.25700 -1.29400 22.60400
C  13.45600 -2.36600 23.53500
N  15.41100 0.27300 27.50700
C  14.71200 0.83000 26.46500
C  13.92400 1.95900 27.06900
C  14.24000 1.95400 28.46100
C  15.13000 0.90200 28.64700
C  12.96800 3.01300 26.30900
C  13.91100 2.63500 29.65000
O  13.27400 3.64900 29.93300
C  14.74600 1.79900 30.79400
C  15.54700 2.83800 31.46400
O  16.61600 3.27300 31.09300
O  14.94400 3.25800 32.58700
C  15.57900 4.36100 33.34200
H  19.11900 -3.53200 30.49900
H  18.49600 -3.74000 24.04900
H  14.26700 0.93800 24.34200
H  17.60300 0.46800 32.16300
H  17.71800 -2.30600 32.46300
H  19.98000 -1.12100 31.23300
H  19.93700 -2.03800 32.66500
H  19.52400 -0.28100 32.68700
H  16.07600 -1.69600 33.21300
H  14.87000 -0.54900 32.52600
H  15.65800 -0.63400 35.00200
H  15.07800 0.82200 34.10000
H  20.68600 -4.82600 29.76600
H  21.00000 -6.12100 28.58000
H  19.46700 -6.19500 29.37500
H  21.62400 -6.54100 26.49300
H  20.85800 -7.58800 25.28900
H  20.13800 -7.49600 26.93500
H  16.29100 -2.90100 22.69600
H  15.93500 0.00500 22.51100
H  18.78400 -1.57500 22.30500
H  17.52400 -0.78200 21.26300
H  17.79700 -2.50300 21.11600
H  14.22400 -1.77900 21.62900
H  13.69400 -0.37800 22.42700
H  12.71000 -1.92000 24.19300
H  14.17500 -2.99300 24.06300
H  12.89200 -2.94000 22.79900
H  12.63600 3.59000 27.17200
H  12.16000 2.42000 25.88000
H  13.44500 3.57500 25.50600
H  14.09900 1.40800 31.57900
H  15.69000 5.22000 32.68000
H  16.54000 4.13800 33.80500
H  14.86700 4.61400 34.12700

