79

Mg 24.01400 -6.62300 46.70200
C  26.20000 -4.38000 45.09500
C  21.45500 -5.50200 44.83000
C  22.48600 -9.58500 47.13000
C  27.04000 -8.04700 48.08900
N  23.92800 -5.19700 45.19300
C  24.89900 -4.37100 44.68100
C  24.26800 -3.30700 43.78600
C  22.75500 -3.42400 44.02200
C  22.64300 -4.82700 44.76200
C  21.94400 -2.22500 44.75100
C  24.61600 -3.60600 42.28900
C  25.18400 -2.34700 41.52900
H  24.75600 -2.28300 40.07800
N  22.04900 -7.36400 46.23100
C  21.15800 -6.69100 45.49700
C  19.97700 -7.41900 45.46500
C  20.21300 -8.67300 46.20000
C  21.61400 -8.58800 46.58900
C  18.72000 -6.95500 44.74600
C  19.12000 -9.66000 46.51300
O  17.98600 -9.52200 46.05000
C  19.29100 -10.64400 47.66900
N  24.64200 -8.53800 47.60700
C  23.81100 -9.62100 47.62000
C  24.45100 -10.86300 48.32700
C  25.89200 -10.31700 48.68900
C  25.84600 -8.86700 48.11100
C  23.58000 -11.38200 49.45300
C  27.15300 -11.10900 48.25200
C  28.41500 -11.07900 49.14000
N  26.19700 -6.19600 46.81700
C  27.28700 -6.84300 47.41600
C  28.43500 -6.06300 47.23900
C  28.09900 -5.10300 46.22600
C  26.73300 -5.24300 45.99300
C  29.74500 -6.30500 47.86800
C  28.62800 -4.05900 45.38300
O  29.75000 -3.58600 45.16600
C  27.37000 -3.53600 44.57200
C  27.27900 -2.05700 44.76700
O  27.51300 -1.23600 43.86000
O  26.71300 -1.69000 45.99800
C  26.83500 -0.22600 46.23800
H  20.57300 -5.18400 44.27100
H  22.07500 -10.59400 47.05100
H  27.92900 -8.54000 48.48600
H  24.68100 -2.35700 44.12500
H  22.37800 -3.48300 43.00100
H  21.28700 -1.84100 43.97000
H  22.61800 -1.41700 45.03700
H  21.31800 -2.57500 45.57100
H  23.88100 -4.17800 41.72300
H  25.47900 -4.26300 42.18700
H  26.26600 -2.33900 41.65800
H  24.71300 -1.47500 41.98300
H  18.10700 -7.71100 44.25600
H  19.01000 -6.26000 43.95800
H  18.11100 -6.33400 45.40300
H  19.88400 -10.25000 48.49400
H  19.78400 -11.50800 47.22300
H  18.33600 -10.99400 48.06000
H  24.64000 -11.70200 47.65600
H  26.00000 -10.18900 49.76600
H  23.18900 -12.37700 49.24500
H  22.71600 -10.72000 49.50900
H  24.04400 -11.27300 50.43300
H  27.31500 -10.83900 47.20800
H  26.80400 -12.13900 48.31900
H  29.31800 -11.10700 48.53000
H  28.33800 -12.08400 49.55600
H  28.45200 -10.31500 49.91600
H  30.30000 -7.01800 47.25800
H  29.67900 -6.49800 48.93900
H  30.22100 -5.34800 47.65100
H  27.57700 -3.67900 43.51100
H  27.79000 0.24800 46.00900
H  26.80700 -0.03600 47.31100
H  25.98900 0.29800 45.79400

