79

Mg 10.00400 47.88100 26.72600
C  7.89600 47.79400 29.53100
C  12.46700 49.10200 28.71100
C  11.95300 47.84200 23.97400
C  7.15100 47.20600 24.67300
N  10.20300 48.27700 28.97100
C  9.20900 48.06900 29.93900
C  9.85800 48.24100 31.31200
C  11.06500 49.20400 31.01500
C  11.25900 48.85600 29.43600
C  10.84100 50.73500 31.23900
C  10.24100 46.83800 31.86300
C  9.80300 46.46800 33.34000
H  10.67600 45.65800 34.24800
N  11.94600 48.37900 26.39400
C  12.84500 48.81700 27.35200
C  14.10600 49.12300 26.71500
C  14.01500 48.57700 25.35600
C  12.60500 48.24700 25.15200
C  15.30100 49.78300 27.44800
C  15.12300 48.51600 24.32100
O  14.92500 47.89300 23.28600
C  16.59300 49.00900 24.59300
N  9.57600 47.53000 24.62700
C  10.58500 47.61100 23.70100
C  10.11200 47.26500 22.26900
C  8.58100 47.01700 22.55800
C  8.39500 47.27500 24.02900
C  10.43400 48.22600 21.15500
C  8.10500 45.54600 22.21600
C  6.79200 45.45100 21.52800
N  7.91800 47.63000 27.00700
C  6.89700 47.35200 26.08400
C  5.62100 47.20000 26.81500
C  5.97400 47.38500 28.20300
C  7.36500 47.64400 28.24200
C  4.32700 46.80600 26.24400
C  5.44200 47.38700 29.57300
O  4.24500 47.28800 29.91700
C  6.68100 47.58700 30.45900
C  6.82800 46.28700 31.18700
O  7.29000 45.26100 30.66900
O  6.44000 46.45900 32.52000
C  6.28300 45.24900 33.22800
H  13.14400 49.73700 29.28600
H  12.52100 47.77300 23.04500
H  6.20600 46.94000 24.19300
H  9.17200 48.59800 32.08000
H  11.97100 48.87000 31.52200
H  11.78500 51.15100 31.59200
H  10.09300 50.83000 32.02500
H  10.55700 51.29500 30.34800
H  11.32900 46.79200 31.90200
H  9.93300 46.01000 31.22400
H  8.96500 45.80500 33.12400
H  9.29000 47.26200 33.88200
H  16.15400 49.11600 27.31900
H  15.23600 50.04900 28.50400
H  15.41700 50.67200 26.82700
H  16.52800 50.09100 24.70700
H  17.26400 48.92400 23.73800
H  17.05000 48.42400 25.39100
H  10.63000 46.32500 22.07900
H  8.02400 47.83600 22.10300
H  11.22200 47.89200 20.48000
H  10.70000 49.18300 21.60500
H  9.57700 48.34600 20.49200
H  7.97900 44.94500 23.11700
H  8.82300 45.02100 21.58600
H  6.27700 46.40200 21.38800
H  6.21600 44.66000 22.00800
H  7.01000 45.16000 20.50100
H  3.79800 46.19100 26.97200
H  4.56200 46.08800 25.45800
H  3.64600 47.53700 25.80900
H  6.55900 48.53200 30.98700
H  6.83000 44.35800 32.92000
H  5.22600 44.98600 33.20800
H  6.47600 45.46200 34.27900

