79

Mg 46.69200 24.38800 28.37400
C  47.65900 26.71000 30.87500
C  46.55500 21.85600 30.81400
C  45.93000 22.18800 26.07500
C  47.98600 26.65600 26.11600
N  47.13400 24.25300 30.57400
C  47.32900 25.42600 31.35200
C  47.14700 25.00800 32.77500
C  46.83100 23.52300 32.77800
C  46.92600 23.13000 31.31300
C  47.83500 22.61400 33.54800
C  46.02800 25.83800 33.44800
C  45.52600 25.33200 34.83700
H  45.68200 26.20500 36.06100
N  46.12200 22.32600 28.53600
C  46.11100 21.50600 29.59900
C  45.52100 20.28600 29.22000
C  45.26600 20.31700 27.82100
C  45.80600 21.57400 27.41800
C  45.21200 19.15500 30.15400
C  44.85400 19.23100 26.87600
O  44.80600 19.41100 25.69300
C  44.52200 17.94700 27.35800
N  46.85900 24.39800 26.42100
C  46.41200 23.38400 25.61900
C  46.74300 23.65900 24.20100
C  47.12300 25.19200 24.23700
C  47.38200 25.45300 25.64800
C  47.85900 22.74200 23.57300
C  46.13200 26.12600 23.48200
C  46.57300 27.38300 22.80000
N  47.66000 26.28300 28.45500
C  48.09400 27.03800 27.45600
C  48.66700 28.29400 27.90400
C  48.38900 28.27500 29.24600
C  47.84600 26.96500 29.56600
C  49.18000 29.46900 27.16000
C  48.33400 29.07500 30.42500
O  48.65800 30.24200 30.55200
C  47.89500 28.06900 31.57700
C  48.78300 28.11400 32.78700
O  49.55100 27.24200 33.03400
O  48.59700 29.21100 33.59300
C  49.26700 29.20200 34.92900
H  46.45400 21.11800 31.61200
H  45.75700 21.58500 25.18100
H  48.24100 27.47300 25.43800
H  48.02000 25.20100 33.39800
H  45.83500 23.31300 33.16800
H  47.17200 21.92700 34.07300
H  48.39400 23.20400 34.27500
H  48.60800 22.04400 33.03100
H  45.16300 26.03600 32.81600
H  46.50700 26.81500 33.51100
H  46.27500 24.56200 35.02000
H  44.47300 25.06000 34.77200
H  44.38000 18.58600 29.73900
H  45.02900 19.46300 31.18300
H  46.04300 18.45000 30.12400
H  45.19700 17.44400 28.05000
H  44.45200 17.35600 26.44500
H  43.52300 18.03300 27.78500
H  45.84600 23.43300 23.62500
H  48.08100 25.42100 23.77000
H  48.81800 22.98200 24.03200
H  47.96000 22.62000 22.49500
H  47.51900 21.84200 24.08600
H  45.45700 26.50700 24.24900
H  45.58500 25.41100 22.86800
H  46.08900 28.29900 23.13900
H  46.47600 27.21400 21.72700
H  47.64400 27.56100 22.89700
H  48.31300 29.86800 26.63500
H  49.81600 29.16900 26.32700
H  49.73700 30.13500 27.82000
H  46.93000 28.36300 31.98900
H  48.73500 28.45400 35.51700
H  49.20600 30.16600 35.43600
H  50.28000 28.80300 34.89500

