79

Mg -0.85000 43.25400 26.68500
C  1.70900 43.20900 29.08900
C  -3.16400 42.77100 29.22900
C  -3.21100 43.22900 24.34900
C  1.63100 43.54900 24.11400
N  -0.72000 42.98200 28.81900
C  0.43500 43.04100 29.62200
C  0.05100 42.95500 31.14000
C  -1.43200 42.52400 31.16600
C  -1.85600 42.81700 29.64000
C  -1.58800 41.02000 31.51100
C  0.34300 44.32800 31.84300
C  0.45100 44.29600 33.36900
H  0.26600 43.06700 34.19200
N  -2.97500 43.13400 26.79900
C  -3.69800 42.93100 27.92200
C  -5.09900 42.96300 27.51600
C  -5.15700 43.02400 26.08000
C  -3.73700 43.10300 25.68800
C  -6.34100 42.85000 28.43100
C  -6.32100 42.94900 25.10700
O  -6.28600 42.99500 23.88300
C  -7.71500 42.88700 25.73300
N  -0.75000 43.28500 24.56000
C  -1.89400 43.32100 23.85700
C  -1.63300 43.47300 22.35700
C  -0.06600 43.66000 22.21100
C  0.29200 43.56900 23.68300
C  -2.17100 42.22500 21.59800
C  0.47100 44.99900 21.50500
C  0.10400 46.29100 22.10100
N  1.22500 43.19900 26.58000
C  2.06600 43.33600 25.50100
C  3.44600 43.22800 26.00500
C  3.39500 43.19900 27.38700
C  2.00000 43.19600 27.69100
C  4.64700 43.30100 25.20500
C  4.12900 43.05000 28.65500
O  5.38500 42.86900 28.73800
C  3.08000 43.23600 29.82200
C  3.29600 42.09600 30.74600
O  3.26000 40.87600 30.53000
O  3.59700 42.60400 31.93900
C  3.92800 41.58200 32.98100
H  -3.90200 42.68700 30.03000
H  -3.99800 43.17200 23.59300
H  2.38100 43.69400 23.33500
H  0.68900 42.17900 31.56300
H  -2.01300 43.12800 31.86500
H  -0.81700 40.50000 30.94200
H  -2.57900 40.63200 31.27700
H  -1.31700 40.79400 32.54200
H  -0.44400 45.06800 31.70000
H  1.28300 44.72000 31.45400
H  -0.24900 45.00300 33.81200
H  1.44600 44.71700 33.51200
H  -7.08000 43.51400 27.98100
H  -6.26100 43.18900 29.46400
H  -6.54000 41.77900 28.42100
H  -8.37100 42.77400 24.87000
H  -8.05100 43.83900 26.14600
H  -7.84400 42.07700 26.45100
H  -2.18300 44.34200 21.99400
H  0.30700 42.79500 21.66400
H  -2.04900 41.32200 22.19600
H  -1.61500 41.98700 20.69100
H  -3.24100 42.34700 21.42900
H  -0.01900 44.97000 20.53200
H  1.53800 44.92600 21.29500
H  -0.38100 46.93100 21.36400
H  1.04700 46.76700 22.36900
H  -0.47100 46.23800 23.02600
H  4.61900 44.16200 24.53700
H  4.81900 42.39500 24.62300
H  5.52600 43.51300 25.81300
H  3.24900 44.13200 30.41900
H  3.99900 42.21500 33.86500
H  4.89100 41.08700 32.86200
H  3.09700 40.87700 33.00000

