79

Mg 7.08200 53.72000 41.73600
C  6.20600 50.37400 41.31900
C  10.17100 53.00900 40.16600
C  7.83300 57.06300 41.36100
C  3.89900 54.45300 42.57500
N  7.95300 51.90200 40.72600
C  7.48900 50.61200 40.77500
C  8.52300 49.58000 40.31800
C  9.80800 50.48300 40.33800
C  9.30100 51.91800 40.35400
C  10.79200 50.15000 41.52000
C  8.13700 48.87300 38.92900
C  7.57000 49.76100 37.84500
H  7.10800 49.11800 36.55900
N  8.86300 54.91400 41.05100
C  9.92900 54.37600 40.37500
C  10.84800 55.45200 40.09200
C  10.25400 56.69300 40.42700
C  8.91600 56.23600 41.00900
C  12.17100 55.19800 39.36800
C  10.77400 58.09300 40.13100
O  11.81900 58.26400 39.53000
C  9.97700 59.34100 40.49900
N  6.11200 55.44800 41.94100
C  6.58200 56.67600 41.78000
C  5.47500 57.76500 42.21500
C  4.26100 56.91000 42.61900
C  4.75400 55.48400 42.35200
C  5.82900 58.92200 43.12300
C  2.95600 57.21500 41.96000
C  1.71500 57.50100 42.95600
N  5.39100 52.66900 41.94400
C  4.15700 53.03500 42.38000
C  3.28800 51.84600 42.51900
C  4.09800 50.79800 42.16700
C  5.37700 51.32100 41.78500
C  1.89200 51.87700 42.87300
C  4.18100 49.36700 41.95400
O  3.23300 48.59600 42.10400
C  5.61100 49.04900 41.54100
C  5.34000 48.37300 40.23100
O  4.86100 48.83400 39.25700
O  5.65700 47.00300 40.40200
C  5.19400 46.22800 39.21000
H  11.09300 52.68400 39.68000
H  7.99300 58.14200 41.42100
H  2.89800 54.62700 42.97400
H  8.49300 48.74700 41.02100
H  10.43400 50.44700 39.44600
H  10.40200 49.41100 42.21900
H  10.93200 51.02700 42.15300
H  11.70900 49.73300 41.10400
H  7.71100 47.89200 39.14200
H  9.08300 48.65100 38.43500
H  8.29700 50.49900 37.50400
H  6.75000 50.41000 38.15200
H  12.72800 56.10600 39.13900
H  12.08400 54.55000 38.49600
H  12.86300 54.70800 40.05300
H  8.94700 59.20900 40.16700
H  10.38700 60.26600 40.09500
H  10.15900 59.40900 41.57200
H  5.30800 58.28700 41.27200
H  4.03600 56.90700 43.68600
H  5.30500 58.97100 44.07700
H  5.55200 59.87100 42.66400
H  6.89000 58.89100 43.37000
H  2.73500 56.43000 41.23700
H  3.06700 58.12200 41.36400
H  2.11300 58.05800 43.80500
H  1.19400 56.57600 43.20200
H  1.11000 58.27300 42.48100
H  1.42800 52.85600 42.74900
H  1.82500 51.75000 43.95300
H  1.37700 51.13900 42.25800
H  6.06900 48.36900 42.26000
H  5.53200 45.19500 39.27900
H  5.54800 46.67700 38.28200
H  4.10800 46.25900 39.12100

