79

Mg 35.92700 49.20100 24.82900
C  36.01000 47.52200 28.04000
C  34.53300 51.87500 26.47600
C  35.62100 50.51900 21.85600
C  36.67800 46.03200 23.33400
N  35.49600 49.68300 27.07200
C  35.59800 48.85500 28.19000
C  35.23900 49.62700 29.44100
C  34.86900 51.07100 28.92100
C  34.89100 50.81400 27.38100
C  33.49900 51.58100 29.49800
C  36.42000 49.71300 30.46800
C  36.10100 49.02300 31.81600
H  35.73700 49.91700 32.97100
N  35.32100 51.05900 24.23200
C  34.76800 51.97100 25.05200
C  34.56700 53.12300 24.28500
C  34.77800 52.81700 22.85800
C  35.26100 51.40500 22.92200
C  34.05800 54.44300 24.89400
C  34.48200 53.68700 21.63300
O  34.86600 53.29100 20.50000
C  33.73400 54.97500 21.66500
N  35.96100 48.32300 22.84200
C  36.00900 49.13700 21.81600
C  36.41200 48.49500 20.47700
C  36.76200 47.07700 21.01600
C  36.49400 47.12200 22.52800
C  35.28600 48.53200 19.40200
C  38.15900 46.61200 20.74100
C  39.35800 46.82800 21.72700
N  36.08200 47.10600 25.52000
C  36.55700 45.99200 24.75600
C  36.86400 44.97200 25.74900
C  36.60400 45.49400 26.99000
C  36.20800 46.83900 26.81900
C  37.29800 43.56900 25.38600
C  36.68200 45.15000 28.36400
O  37.04600 44.09900 28.92600
C  36.28300 46.42200 29.13800
C  35.02900 46.11400 29.86900
O  33.90600 46.40900 29.48100
O  35.34100 45.52900 31.08200
C  34.17900 45.05900 31.92600
H  34.10900 52.79600 26.88100
H  35.47900 51.00200 20.88700
H  37.18400 45.17400 22.88600
H  34.43600 49.17800 30.02700
H  35.59700 51.88000 28.97500
H  33.10900 51.03300 30.35600
H  32.72000 51.44800 28.74700
H  33.64100 52.59900 29.85800
H  36.67600 50.76700 30.57400
H  37.30400 49.15900 30.15100
H  36.97700 48.48200 32.17400
H  35.36000 48.22900 31.73100
H  32.97300 54.42300 25.00000
H  34.35200 55.28500 24.26800
H  34.57500 54.66400 25.82800
H  33.33100 55.28400 20.70100
H  34.36400 55.70700 22.17000
H  32.85400 54.74300 22.26600
H  37.24200 49.15000 20.21300
H  36.04500 46.32600 20.68500
H  35.15000 47.55000 18.94800
H  35.49600 49.10500 18.49900
H  34.36800 48.84300 19.90000
H  38.37200 47.09300 19.78600
H  38.16100 45.54400 20.52600
H  39.55100 45.82000 22.09600
H  39.32300 47.47600 22.60300
H  40.21300 47.19200 21.15900
H  36.83600 42.85400 26.06700
H  38.34200 43.26400 25.30700
H  36.89500 43.38400 24.39100
H  36.98100 46.75300 29.90700
H  33.47300 44.65400 31.20100
H  33.79200 45.69600 32.72100
H  34.57500 44.17500 32.42600

