79

Mg -10.76500 17.01400 40.43700
C  -7.32900 16.07900 40.61200
C  -9.90800 20.25400 39.75000
C  -14.03600 17.59700 39.48800
C  -11.55400 13.52000 40.79300
N  -8.84100 17.96200 40.18000
C  -7.55000 17.43000 40.35900
C  -6.45700 18.53800 40.10300
C  -7.31600 19.88600 40.20200
C  -8.82200 19.32400 40.04400
C  -7.13200 20.85900 41.45900
C  -5.82800 18.31800 38.71700
C  -4.48500 17.59900 38.79000
H  -4.12800 16.37900 37.92300
N  -11.82800 18.70100 39.72400
C  -11.25000 19.98400 39.58200
C  -12.31700 20.89600 39.45900
C  -13.54900 20.17200 39.41900
C  -13.23100 18.76800 39.52700
C  -12.08600 22.42000 39.26600
C  -14.93500 20.88900 39.26100
O  -15.10700 22.09600 39.07600
C  -16.11800 20.04400 39.27500
N  -12.53200 15.77200 40.31400
C  -13.75200 16.30500 39.90200
C  -14.82400 15.25300 39.84900
C  -13.97100 13.92800 40.06400
C  -12.63700 14.39000 40.47400
C  -16.06800 15.43100 40.72700
C  -14.03900 12.85600 38.95200
C  -14.10600 11.36200 39.34000
N  -9.74100 15.17500 40.77900
C  -10.15400 13.86200 40.83400
C  -9.01700 12.99800 41.23000
C  -7.93000 13.79600 41.02800
C  -8.35900 15.12600 40.81900
C  -8.96200 11.53900 41.48400
C  -6.45700 13.77400 40.97500
O  -5.62400 12.89400 41.00100
C  -6.05800 15.31300 40.98800
C  -5.44700 15.56000 42.26600
O  -4.24600 15.75400 42.36900
O  -6.29800 15.56000 43.42200
C  -5.58800 15.66000 44.67400
H  -9.51100 21.26900 39.82700
H  -15.06100 17.71600 39.12900
H  -11.97400 12.51700 40.89200
H  -5.70400 18.46700 40.88700
H  -7.12900 20.49100 39.31600
H  -6.38400 20.30600 42.02800
H  -8.10400 20.94700 41.94300
H  -6.62200 21.73700 41.06100
H  -5.63800 19.14600 38.03400
H  -6.43900 17.65300 38.10800
H  -4.18400 17.40400 39.81900
H  -3.72500 18.33600 38.53100
H  -12.48300 22.79900 38.32400
H  -11.03000 22.68400 39.22100
H  -12.40800 22.99400 40.13500
H  -17.00700 20.63800 39.05900
H  -16.12500 19.50400 40.22100
H  -16.05500 19.42500 38.38000
H  -15.17500 15.22700 38.81700
H  -14.41900 13.40500 40.90900
H  -16.15100 16.46800 41.05400
H  -16.10700 14.71200 41.54600
H  -16.84600 15.26300 39.98300
H  -13.13300 12.89900 38.34800
H  -14.90800 13.08900 38.33700
H  -15.08000 10.93500 39.09800
H  -14.00300 11.28700 40.42200
H  -13.31600 10.82600 38.81400
H  -8.07500 11.24200 42.04500
H  -8.87100 11.04400 40.51800
H  -9.85700 11.32900 42.07000
H  -5.27100 15.34800 40.23400
H  -5.92500 16.47100 45.31900
H  -4.50600 15.53400 44.69800
H  -5.97900 14.86700 45.31300

