79

Mg -11.15000 16.11900 42.06900
C  -8.27000 14.18200 41.44300
C  -9.75000 18.63500 40.25900
C  -14.24100 17.62600 41.75500
C  -12.68900 13.18000 43.27200
N  -9.25300 16.36500 41.07600
C  -8.15800 15.48000 40.97900
C  -6.94400 16.14200 40.44900
C  -7.44300 17.60600 40.07600
C  -8.91000 17.56800 40.57300
C  -6.59300 18.75200 40.67700
C  -6.31400 15.44600 39.22900
C  -4.83500 15.05000 39.24800
H  -3.85800 15.57800 38.14000
N  -11.87900 17.99000 41.38000
C  -11.06900 18.87900 40.66100
C  -11.82000 20.10700 40.52100
C  -13.19200 19.82500 40.89000
C  -13.13100 18.40800 41.37100
C  -11.26600 21.43100 39.95300
C  -14.28200 20.87500 40.93600
O  -14.12000 22.02500 40.59600
C  -15.61400 20.42500 41.52500
N  -13.21200 15.41500 42.30400
C  -14.27800 16.26500 42.25900
C  -15.56900 15.58800 42.69000
C  -15.10400 14.18300 43.08200
C  -13.59600 14.21200 42.88100
C  -16.45200 16.44200 43.63100
C  -15.82300 13.04100 42.36500
C  -16.27800 11.80100 43.26400
N  -10.58700 14.15700 42.38100
C  -11.32200 13.03100 42.97700
C  -10.45100 11.87000 43.09700
C  -9.24200 12.32900 42.51500
C  -9.39900 13.66700 42.05800
C  -10.97000 10.60500 43.77100
C  -7.86700 11.89600 42.08000
O  -7.31200 10.81000 42.21200
C  -7.18400 13.16000 41.61900
C  -6.18900 13.68500 42.65500
O  -6.49300 14.31100 43.69500
O  -4.89500 13.44900 42.25000
C  -3.78200 13.85900 43.23900
H  -9.29500 19.51100 39.79200
H  -15.26700 17.91300 41.51300
H  -13.12900 12.29100 43.72800
H  -6.19600 16.14100 41.24200
H  -7.47400 17.76000 38.99700
H  -6.30500 19.54800 39.98900
H  -5.77400 18.22600 41.16700
H  -7.18200 19.13800 41.50900
H  -6.45400 15.92900 38.26200
H  -6.94600 14.58700 39.00500
H  -4.82700 13.96600 39.13300
H  -4.41300 15.19000 40.24300
H  -11.82700 21.78000 39.08600
H  -10.25000 21.26300 39.59500
H  -11.30700 22.16300 40.75900
H  -16.26200 21.30000 41.58900
H  -15.44200 19.94900 42.49100
H  -16.14200 19.67700 40.93500
H  -16.12700 15.46700 41.76100
H  -15.17400 13.94200 44.14300
H  -17.27400 16.89200 43.07500
H  -15.80700 17.17000 44.12400
H  -16.90800 15.80800 44.39200
H  -15.29500 12.61400 41.51300
H  -16.75400 13.38500 41.91600
H  -16.32500 10.82600 42.77900
H  -17.29900 12.01700 43.57800
H  -15.61700 11.77300 44.13000
H  -10.10500 10.29400 44.35600
H  -11.27700 9.84000 43.05800
H  -11.69600 10.97900 44.49300
H  -6.64600 12.99200 40.68600
H  -3.49000 14.84200 42.87100
H  -2.96600 13.13600 43.21400
H  -4.05000 13.96700 44.28900

