79

Mg 47.99600 24.94400 27.50700
C  48.90900 26.95800 30.22800
C  47.06200 22.49400 29.76700
C  47.26700 22.93600 24.88800
C  49.09300 27.35200 25.37500
N  48.18600 24.75100 29.81100
C  48.37000 25.72600 30.66700
C  48.05500 25.23900 32.12000
C  47.59400 23.81900 31.88900
C  47.54700 23.70300 30.36400
C  48.43700 22.65300 32.62100
C  47.15800 26.32400 32.80500
C  47.52000 26.65800 34.26400
H  46.59000 27.42500 35.19900
N  47.31500 22.96900 27.35900
C  46.98700 22.11500 28.38400
C  46.55400 20.81300 27.94500
C  46.51700 20.95400 26.47600
C  47.03500 22.31400 26.15500
C  46.02500 19.70400 28.90000
C  46.08000 19.88800 25.48500
O  46.25300 19.97800 24.27300
C  45.41500 18.64800 26.01800
N  48.44100 24.98400 25.45000
C  47.94400 24.09300 24.60200
C  48.10000 24.58400 23.13400
C  48.62000 26.02900 23.27600
C  48.76000 26.14800 24.80600
C  48.90900 23.70900 22.20400
C  47.66900 27.10400 22.64000
C  48.31800 27.74800 21.38700
N  48.89900 26.75500 27.70700
C  49.23400 27.65100 26.74700
C  49.74800 28.84800 27.29900
C  49.71500 28.57300 28.70200
C  49.19200 27.32300 28.90800
C  50.22100 29.97800 26.57800
C  50.02100 29.21000 29.99400
O  50.64300 30.26300 30.23600
C  49.38500 28.22100 31.02800
C  50.51000 27.86400 31.95100
O  51.41100 27.05000 31.72100
O  50.39800 28.54800 33.14500
C  51.33000 28.04900 34.15200
H  46.71600 21.80000 30.53600
H  47.08600 22.34700 23.98700
H  49.40000 28.18800 24.74300
H  48.99300 25.26100 32.67500
H  46.55000 23.78400 32.20200
H  48.84100 22.06600 31.79700
H  47.76200 21.98500 33.15600
H  49.31800 22.93200 33.19800
H  46.09500 26.08600 32.81700
H  47.20200 27.31500 32.35400
H  48.36600 27.34400 34.20600
H  47.78800 25.76300 34.82500
H  46.20600 18.70800 28.49500
H  44.94800 19.75000 29.05800
H  46.58900 19.78200 29.82900
H  44.53800 18.89600 26.61500
H  46.11400 18.01300 26.56200
H  45.08000 17.99200 25.21500
H  47.12500 24.60400 22.64700
H  49.64800 26.03000 22.91500
H  49.44800 22.95000 22.77000
H  49.72900 24.21300 21.69200
H  48.30300 23.26300 21.41600
H  47.34100 27.79800 23.41400
H  46.69300 26.67100 22.42400
H  49.13600 27.14900 20.98900
H  48.78700 28.70200 21.62600
H  47.46700 27.86000 20.71500
H  51.27200 29.86500 26.31100
H  50.12100 30.79800 27.28800
H  49.65600 30.24800 25.68600
H  48.62000 28.78900 31.55900
H  50.57600 27.71600 34.86600
H  52.00400 28.77900 34.60000
H  51.90200 27.17100 33.85600

