79

Mg 29.75300 58.10300 40.92200
C  26.99600 56.11000 39.76400
C  31.84300 55.54800 39.66900
C  32.30600 60.27500 41.12100
C  27.43700 60.81900 41.20200
N  29.48000 56.02800 39.82600
C  28.26100 55.43200 39.56800
C  28.42300 53.97700 39.06300
C  30.00600 53.76300 39.25700
C  30.49800 55.16400 39.64000
C  30.40900 52.81200 40.38800
C  28.00300 53.84000 37.56100
C  28.33100 54.97600 36.47300
H  27.13400 55.64800 35.69800
N  31.76200 57.88500 40.55900
C  32.46300 56.82300 40.06600
C  33.87100 57.12200 39.89000
C  34.00600 58.44100 40.36200
C  32.68000 59.00300 40.69500
C  34.97100 56.21600 39.23000
C  35.33900 59.21300 40.31300
O  36.31600 58.61800 39.86700
C  35.56500 60.61800 40.91900
N  29.79800 60.24200 40.98400
C  31.03900 60.80600 41.30000
C  30.84300 62.26900 41.72400
C  29.31100 62.43300 41.75500
C  28.79800 61.08000 41.27600
C  31.45900 62.63500 43.11400
C  28.67500 63.59100 41.03000
C  28.16400 64.73400 42.02200
N  27.60400 58.43700 40.69700
C  26.86300 59.56100 40.86200
C  25.47200 59.19300 40.78600
C  25.45900 57.87100 40.29300
C  26.83000 57.45100 40.23200
C  24.26400 60.16300 41.04000
C  24.58900 56.78800 39.80500
O  23.39100 56.63100 39.69500
C  25.58900 55.67000 39.35000
C  25.08500 54.42500 39.98400
O  25.12700 54.25200 41.19400
O  24.60500 53.55500 39.04400
C  23.90900 52.31800 39.61900
H  32.51200 54.73800 39.36900
H  32.96400 61.13700 41.24900
H  26.75100 61.63500 41.43900
H  27.84600 53.25900 39.64400
H  30.43400 53.47000 38.29900
H  29.48600 52.39000 40.78600
H  30.95700 53.28100 41.20600
H  30.89900 51.94400 39.94600
H  26.92300 53.69900 37.51900
H  28.36000 52.93800 37.06500
H  29.01000 54.51500 35.75600
H  28.89900 55.72300 37.02700
H  35.57300 56.66500 38.44100
H  34.50900 55.33000 38.79300
H  35.68900 55.91900 39.99500
H  35.13000 61.37100 40.26100
H  36.61100 60.89700 41.04300
H  35.11200 60.54700 41.90800
H  31.20800 62.98100 40.98400
H  28.99200 62.38200 42.79600
H  32.07000 61.78200 43.41000
H  30.76500 62.84600 43.92800
H  32.18100 63.45100 43.09400
H  27.76100 63.23500 40.55600
H  29.33000 63.95200 40.23700
H  28.82500 65.01800 42.84100
H  27.15300 64.55100 42.38400
H  28.05500 65.59000 41.35500
H  24.42300 61.17500 41.41200
H  23.59000 59.67600 41.74500
H  23.82200 60.38100 40.06800
H  25.49600 55.52100 38.27400
H  22.84100 52.50100 39.73400
H  24.40800 51.96900 40.52300
H  23.90600 51.63400 38.77000

