79

Mg 47.32000 25.67100 28.92700
C  47.83100 27.82600 31.57100
C  46.19400 23.25900 30.98500
C  47.02300 23.57000 26.21300
C  48.80400 28.06900 26.76700
N  46.98700 25.59000 31.02300
C  47.21900 26.58700 31.89900
C  46.71000 26.14600 33.31100
C  46.29300 24.62000 33.16900
C  46.53900 24.48200 31.63500
C  47.11000 23.63700 34.06500
C  45.62500 26.98900 34.00700
C  45.95200 27.61300 35.32900
H  46.23700 26.72100 36.53900
N  46.74300 23.70200 28.66600
C  46.24800 22.91500 29.66900
C  45.78200 21.63000 29.07100
C  45.96700 21.73300 27.67000
C  46.60700 23.04400 27.43200
C  45.18200 20.49800 29.93700
C  45.64300 20.80100 26.59000
O  45.99900 20.93600 25.40000
C  44.90400 19.52600 26.91600
N  47.83400 25.83100 26.70400
C  47.62800 24.78000 25.86300
C  48.09000 25.13500 24.40900
C  48.68000 26.59400 24.58400
C  48.37500 26.88300 26.08100
C  49.15000 24.08800 23.79300
C  47.86500 27.64400 23.69600
C  48.75600 28.36600 22.69500
N  48.15100 27.51100 29.10000
C  48.74900 28.35400 28.15100
C  49.21600 29.60300 28.77100
C  48.87300 29.39700 30.08500
C  48.26000 28.16400 30.27300
C  49.82800 30.84700 28.04300
C  48.95300 30.06500 31.35300
O  49.52500 31.12900 31.69000
C  48.27800 29.02600 32.38000
C  49.29300 28.83300 33.46800
O  50.33800 28.23900 33.28200
O  48.99700 29.36700 34.65800
C  49.83400 28.95900 35.79500
H  45.85200 22.53400 31.72700
H  46.89600 22.98900 25.29700
H  49.17100 28.90800 26.17200
H  47.62200 26.25500 33.89800
H  45.22800 24.48400 33.36100
H  47.70900 23.08200 33.34300
H  46.49700 22.88700 34.56400
H  47.81100 24.19300 34.68700
H  44.74700 26.38500 34.23600
H  45.42000 27.84500 33.36400
H  45.07000 28.19800 35.58800
H  46.88000 28.16700 35.19000
H  45.59700 19.49500 29.83600
H  44.10600 20.45200 29.77300
H  45.27800 20.66900 31.01000
H  45.63500 18.92000 27.45200
H  44.56900 19.13100 25.95800
H  44.11600 19.79000 27.62100
H  47.34000 25.08500 23.62000
H  49.75900 26.52600 24.44600
H  50.06100 24.59300 23.47300
H  48.62500 23.56500 22.99400
H  49.48500 23.39500 24.56500
H  47.47900 28.42700 24.34900
H  47.04700 27.09200 23.23500
H  48.67800 29.44800 22.80500
H  48.73500 27.96600 21.68200
H  49.80100 28.24500 22.98200
H  49.66600 30.93100 26.96900
H  50.89000 30.77700 28.27600
H  49.39300 31.68500 28.58900
H  47.38600 29.49200 32.79900
H  49.71200 27.88400 35.92500
H  49.42100 29.51000 36.64000
H  50.85900 29.23100 35.54500

