79

Mg 41.27500 40.93100 26.93700
C  40.76500 43.32100 29.54800
C  42.79700 39.06100 29.25200
C  42.07100 38.98000 24.41400
C  40.42800 43.51000 24.61700
N  41.79000 41.27600 29.13900
C  41.35000 42.17900 30.01700
C  41.57100 41.76400 31.52100
C  42.52800 40.52100 31.30000
C  42.38600 40.23500 29.79300
C  43.98400 40.74300 31.75800
C  40.19500 41.51300 32.19600
C  39.96600 42.34400 33.43800
H  39.18000 41.84100 34.58800
N  42.22000 39.16100 26.88300
C  42.83200 38.50400 27.90900
C  43.34500 37.26800 27.51000
C  43.17400 37.20000 26.08300
C  42.43900 38.47900 25.73000
C  44.05200 36.24900 28.49000
C  43.52200 36.11200 25.08300
O  43.37500 36.22100 23.86300
C  44.27000 34.86900 25.57200
N  41.30200 41.20300 24.80200
C  41.67000 40.19200 23.98700
C  41.46600 40.64800 22.47900
C  40.73000 42.02200 22.62400
C  40.81700 42.27000 24.09300
C  42.78800 40.60500 21.59800
C  39.24800 41.92300 22.02600
C  38.20400 41.09200 22.84000
N  40.60900 42.92500 26.98600
C  40.32500 43.83300 26.00000
C  39.89700 45.11700 26.57000
C  40.02300 44.99300 27.92100
C  40.57900 43.66400 28.13900
C  39.39700 46.31900 25.74600
C  39.84200 45.60900 29.24100
O  39.39700 46.74400 29.44000
C  40.28200 44.49600 30.34300
C  41.36300 45.04300 31.25600
O  42.57100 45.07300 30.97200
O  40.78800 45.53700 32.46000
C  41.61600 46.19800 33.39000
H  43.23200 38.37100 29.97700
H  42.41300 38.38000 23.56900
H  40.05400 44.20800 23.86600
H  42.10900 42.53000 32.08000
H  42.10100 39.61500 31.72800
H  44.10400 40.09800 32.62900
H  44.17300 41.77800 32.04300
H  44.63100 40.49400 30.91700
H  40.22800 40.49500 32.58400
H  39.32100 41.61600 31.55200
H  39.44300 43.26600 33.18500
H  40.93700 42.64800 33.82900
H  45.08200 35.98600 28.25200
H  43.58400 35.26400 28.47300
H  44.03500 36.68800 29.48700
H  43.77700 34.44600 26.44700
H  45.28000 35.14400 25.87700
H  44.26600 34.03000 24.87600
H  40.79100 39.88600 22.09000
H  41.37500 42.68900 22.05100
H  43.38700 41.51400 21.64700
H  42.46700 40.58300 20.55700
H  43.25800 39.68800 21.95400
H  39.21900 41.54500 21.00300
H  38.91300 42.94500 21.84700
H  37.65900 41.70700 23.55600
H  38.69100 40.21600 23.26800
H  37.38200 40.83300 22.17300
H  39.18800 45.93200 24.74900
H  40.20500 47.04600 25.66300
H  38.65700 46.80900 26.37800
H  39.43900 44.28900 31.00200
H  42.01500 45.43200 34.05500
H  41.02000 46.95500 33.90000
H  42.42300 46.75000 32.90900

