79

Mg -2.12500 17.14300 27.06900
C  -2.79400 14.94100 29.61700
C  -2.85100 19.73500 29.25500
C  -2.31500 19.18300 24.46600
C  -2.36300 14.34400 24.79900
N  -2.76500 17.27100 29.23100
C  -2.75600 16.22600 30.08900
C  -3.02900 16.74800 31.56300
C  -3.40600 18.25400 31.25200
C  -2.96300 18.44600 29.80000
C  -4.83500 18.74100 31.60300
C  -1.83000 16.45700 32.49400
C  -1.52600 17.45600 33.56700
H  -1.02300 16.99700 34.93100
N  -2.24700 19.19900 26.93300
C  -2.55500 20.06900 27.95500
C  -2.43700 21.41100 27.43200
C  -2.23800 21.29100 25.98200
C  -2.25400 19.81900 25.71700
C  -2.61200 22.82400 28.25200
C  -2.06800 22.35700 24.91100
O  -1.90800 22.06300 23.73100
C  -2.00100 23.73100 25.30700
N  -2.39000 16.79200 24.91000
C  -2.27500 17.85700 24.08100
C  -2.24400 17.37000 22.61700
C  -1.96100 15.88100 22.74400
C  -2.30300 15.61400 24.21700
C  -3.57900 17.69100 21.86600
C  -0.51500 15.41200 22.42600
C  0.62400 16.01600 23.25900
N  -2.37200 15.01400 27.10000
C  -2.52900 14.04600 26.15000
C  -2.88200 12.81600 26.75700
C  -2.94400 13.08700 28.09700
C  -2.73000 14.47900 28.24800
C  -3.21000 11.49300 26.09300
C  -3.15600 12.51700 29.43100
O  -3.28900 11.33200 29.74900
C  -3.19100 13.76300 30.46200
C  -2.28000 13.33300 31.60400
O  -1.04000 13.19900 31.47400
O  -3.04700 13.02300 32.76700
C  -2.30900 12.43500 33.87600
H  -2.93200 20.56600 29.95900
H  -2.31800 19.91000 23.65000
H  -2.41900 13.58200 24.01900
H  -3.84800 16.17600 32.00100
H  -2.77500 18.95000 31.80600
H  -5.57500 17.98900 31.87700
H  -5.09900 19.30600 30.70900
H  -4.76700 19.53700 32.34600
H  -0.93800 16.38000 31.87200
H  -2.15400 15.50200 32.90600
H  -2.44100 17.97100 33.85800
H  -0.80200 18.18800 33.20700
H  -1.97800 23.62200 27.86600
H  -2.49800 22.63400 29.31900
H  -3.59000 23.16300 27.90900
H  -2.90700 24.02500 25.83600
H  -2.07100 24.21900 24.33400
H  -1.13500 24.01600 25.90400
H  -1.43500 17.87800 22.09100
H  -2.51800 15.23100 22.06900
H  -4.18600 18.35300 22.48300
H  -4.27300 16.85800 21.74700
H  -3.37400 18.23000 20.94100
H  -0.35400 15.66300 21.37700
H  -0.57300 14.32400 22.46400
H  0.22900 16.56200 24.11500
H  1.20000 16.74000 22.68300
H  1.30100 15.22300 23.57500
H  -3.21900 11.66300 25.01600
H  -4.23400 11.31000 26.41600
H  -2.46300 10.84400 26.55000
H  -4.23400 13.80400 30.77500
H  -2.20800 13.32500 34.49600
H  -1.39800 11.88900 33.63200
H  -2.94900 11.68000 34.33200

