79

Mg -1.26300 35.28700 27.33300
C  -3.05900 33.51800 29.69300
C  -0.29600 37.45500 29.89900
C  0.64800 36.85700 25.08600
C  -2.39700 32.98200 24.91400
N  -1.55000 35.35800 29.51000
C  -2.22600 34.48600 30.25900
C  -2.03800 34.77400 31.76700
C  -1.46000 36.18300 31.76700
C  -1.12000 36.33400 30.26900
C  -2.45700 37.31100 32.23600
C  -1.22900 33.70500 32.58700
C  -2.05500 32.78800 33.44300
H  -1.69300 32.34000 34.87600
N  -0.08600 36.96500 27.48400
C  0.21000 37.71800 28.58400
C  1.19000 38.73100 28.20600
C  1.27900 38.64900 26.80000
C  0.55100 37.49000 26.40400
C  1.72300 39.68300 29.25500
C  2.09500 39.57700 25.86800
O  2.01000 39.44100 24.65100
C  2.91200 40.69500 26.37400
N  -1.10500 35.13200 25.23800
C  -0.08600 35.80400 24.60700
C  0.23500 35.20100 23.21500
C  -0.81500 34.01300 23.08500
C  -1.50500 34.03900 24.48600
C  0.18700 36.28200 22.08800
C  -0.21200 32.56700 22.82600
C  -0.96900 31.67900 21.83900
N  -2.61400 33.65500 27.23800
C  -3.03500 32.86900 26.15800
C  -4.02900 31.92800 26.65900
C  -4.08600 32.19400 28.00100
C  -3.16000 33.19200 28.30900
C  -4.82100 31.02800 25.89600
C  -4.75700 31.82100 29.26500
O  -5.62800 31.01100 29.54300
C  -4.08200 32.68600 30.35100
C  -5.12100 33.38900 31.11300
O  -5.67000 34.46500 30.94300
O  -5.42600 32.54800 32.18800
C  -6.40800 33.08000 33.16400
H  -0.04800 38.17000 30.68600
H  1.46300 37.22200 24.45800
H  -2.58200 32.20500 24.17000
H  -3.05700 34.71300 32.14900
H  -0.51600 36.22900 32.30900
H  -3.48100 37.00900 32.45700
H  -2.55800 38.10000 31.49000
H  -2.03900 37.67400 33.17500
H  -0.51600 34.22300 33.22900
H  -0.70800 33.09500 31.85000
H  -2.12600 31.91500 32.79400
H  -3.06700 33.18500 33.52400
H  1.60200 39.39200 30.29900
H  1.35100 40.67600 29.00100
H  2.75500 39.78000 28.91900
H  3.84200 40.29700 26.77900
H  2.33900 41.32200 27.05600
H  3.15100 41.37300 25.55400
H  1.28700 34.92300 23.28200
H  -1.55700 34.15300 22.29800
H  -0.49800 37.09200 22.34100
H  -0.29500 35.85000 21.21100
H  1.18700 36.64000 21.84400
H  -0.18000 31.99300 23.75200
H  0.83100 32.69500 22.53700
H  -1.12500 30.79900 22.46300
H  -0.48200 31.42100 20.89900
H  -1.90800 32.20500 21.67200
H  -4.16100 30.34400 25.36200
H  -5.42100 31.65200 25.23500
H  -5.35900 30.50100 26.68300
H  -3.76900 32.00400 31.14200
H  -6.54900 32.31000 33.92200
H  -7.30600 33.48100 32.69300
H  -5.79000 33.82800 33.66200

