79

Mg 17.15800 51.80400 26.01600
C  19.02900 50.41200 28.69200
C  14.74200 52.91100 28.33700
C  15.32700 52.63600 23.51000
C  19.35400 50.04400 23.85800
N  16.92000 51.60000 28.26000
C  17.92100 51.16500 29.10300
C  17.57100 51.54200 30.51700
C  16.11100 52.06100 30.42000
C  15.88400 52.19100 28.91500
C  15.04000 51.11900 31.01300
C  18.61100 52.56900 31.19700
C  18.71100 52.56100 32.80600
H  17.70200 51.72500 33.59800
N  15.21500 52.68100 25.94100
C  14.45500 53.10100 26.94200
C  13.25200 53.65600 26.38000
C  13.39200 53.63000 24.95600
C  14.68400 52.93500 24.73500
C  12.07200 54.14400 27.25900
C  12.38900 54.02500 23.89400
O  12.68600 54.06400 22.70600
C  11.10800 54.55600 24.29500
N  17.35400 51.42400 23.91700
C  16.51600 52.05900 23.02700
C  16.92500 51.74500 21.56400
C  18.30500 51.07200 21.79200
C  18.32900 50.79400 23.24300
C  15.89200 50.87400 20.72700
C  19.64600 51.81900 21.39500
C  19.57200 53.36300 21.55300
N  18.90900 50.54800 26.14000
C  19.68700 49.92800 25.22700
C  20.75200 49.20000 25.88100
C  20.54700 49.35500 27.24800
C  19.41700 50.21400 27.40700
C  21.70700 48.42800 25.07500
C  21.07400 48.99200 28.57700
O  21.96200 48.24800 28.85500
C  20.14800 49.74400 29.55100
C  19.53500 48.80600 30.66700
O  18.45500 48.20900 30.55200
O  20.44100 48.71800 31.72400
C  20.07500 47.98100 32.95200
H  13.98800 53.23900 29.05600
H  14.84700 53.02700 22.61100
H  20.11000 49.63300 23.18600
H  17.55200 50.60100 31.06600
H  16.04000 53.08100 30.79600
H  14.28800 51.72300 31.52200
H  15.46000 50.44100 31.75500
H  14.44900 50.47600 30.36000
H  18.29900 53.60700 31.07900
H  19.61000 52.43100 30.78400
H  18.62500 53.59500 33.14000
H  19.74100 52.32700 33.07600
H  11.26400 53.46300 26.99500
H  11.74800 55.15800 27.02200
H  12.03800 54.03000 28.34300
H  11.29400 55.55900 24.67900
H  10.57700 53.87200 24.95600
H  10.47900 54.55100 23.40500
H  16.94300 52.71800 21.07400
H  18.27500 50.09300 21.31200
H  14.92600 50.67400 21.19000
H  16.28400 49.89200 20.46200
H  15.83200 51.46000 19.81000
H  19.78700 51.60300 20.33600
H  20.46000 51.45100 22.02000
H  20.47900 53.66000 22.08000
H  18.73700 53.50400 22.24000
H  19.46100 53.95800 20.64600
H  22.30500 49.11900 24.48200
H  21.33400 47.81400 24.25600
H  22.29900 47.91100 25.83000
H  20.58600 50.52100 30.17700
H  18.99300 48.04600 33.07200
H  20.58600 48.45300 33.79100
H  20.37200 46.93500 33.03300

