79

Mg -5.83100 25.29400 26.14600
C  -4.36400 26.65100 28.99000
C  -7.53900 23.14500 28.20200
C  -6.92800 23.82300 23.41900
C  -3.56500 27.24000 24.22300
N  -5.89800 24.94900 28.33100
C  -5.30900 25.67400 29.31700
C  -5.68400 25.19200 30.69800
C  -6.43900 23.83700 30.42400
C  -6.65600 23.95800 28.87100
C  -5.58000 22.55200 30.79700
C  -6.45200 26.31300 31.43700
C  -6.17000 26.67400 32.91100
H  -5.35500 25.57000 33.81600
N  -7.19500 23.80200 25.81200
C  -7.83300 23.08100 26.76100
C  -8.80600 22.19000 26.14800
C  -8.55700 22.33000 24.76400
C  -7.52000 23.35500 24.60400
C  -9.90400 21.45600 27.02800
C  -9.18600 21.49000 23.64800
O  -8.96500 21.73900 22.45000
C  -9.99100 20.27400 23.99500
N  -5.29300 25.51400 24.06100
C  -5.91900 24.75600 23.13500
C  -5.29500 24.97800 21.70700
C  -4.26000 26.11800 21.97600
C  -4.36600 26.32400 23.51000
C  -4.76000 23.71800 20.89800
C  -4.45600 27.39100 21.20400
C  -3.32900 27.76600 20.16700
N  -4.19000 26.47800 26.46800
C  -3.42000 27.26600 25.58500
C  -2.60000 28.17800 26.33800
C  -2.91900 27.96700 27.70400
C  -3.87700 26.88700 27.69200
C  -1.62700 29.08800 25.83400
C  -2.65200 28.43000 29.04000
O  -1.87100 29.30400 29.46500
C  -3.53000 27.52200 29.96000
C  -2.60900 26.58500 30.67100
O  -2.24400 25.52500 30.27400
O  -2.48800 27.01200 31.96900
C  -1.53000 26.10000 32.69800
H  -8.04700 22.42600 28.84800
H  -7.25900 23.38800 22.47300
H  -2.90800 27.94800 23.71200
H  -4.79700 24.93800 31.27800
H  -7.41800 23.73000 30.89200
H  -6.22700 22.09500 31.54600
H  -4.56700 22.79200 31.11900
H  -5.58300 21.94900 29.88900
H  -7.52900 26.15600 31.38000
H  -6.30500 27.19300 30.81200
H  -7.13500 26.77100 33.41000
H  -5.69800 27.64600 33.05200
H  -9.67700 20.39300 27.10900
H  -10.89700 21.54800 26.58700
H  -10.04500 21.78500 28.05800
H  -9.59100 19.70000 24.83100
H  -10.03600 19.64300 23.10800
H  -11.03800 20.54400 24.13900
H  -6.04700 25.49000 21.10600
H  -3.32400 25.57200 21.85700
H  -5.41600 23.60100 20.03600
H  -4.84000 22.79200 21.46700
H  -3.77100 23.67700 20.44100
H  -4.42500 28.22400 21.90600
H  -5.37100 27.32600 20.61600
H  -2.54500 27.00800 20.17400
H  -2.91400 28.71300 20.51100
H  -3.67200 28.02600 19.16500
H  -1.53800 29.84900 26.60900
H  -1.95500 29.44400 24.85700
H  -0.75200 28.47700 25.60900
H  -4.33500 28.01700 30.50400
H  -0.68100 25.99600 32.02200
H  -1.89500 25.07900 32.79900
H  -1.22400 26.54800 33.64300

