79

Mg 17.68600 -1.94800 28.44000
C  16.74700 0.31300 31.08400
C  19.47900 -3.76000 30.58300
C  18.29700 -4.01400 25.90400
C  16.35200 0.39600 26.33100
N  18.24400 -1.54800 30.52700
C  17.72900 -0.64800 31.41300
C  18.20400 -1.04500 32.80500
C  19.14500 -2.24300 32.61900
C  18.85300 -2.61700 31.14700
C  20.67100 -1.88100 32.98000
C  17.04700 -1.31400 33.80400
C  17.09000 -0.72600 35.21300
H  18.35500 -0.65800 35.94800
N  18.66100 -3.76300 28.34600
C  19.38800 -4.30700 29.31500
C  19.99200 -5.55600 28.83600
C  19.72500 -5.66700 27.44500
C  18.81300 -4.49000 27.15900
C  20.56600 -6.54400 29.78900
C  20.17700 -6.75200 26.36000
O  19.79400 -6.73800 25.19200
C  21.05400 -7.88700 26.82400
N  17.44700 -1.78600 26.37900
C  17.71600 -2.79200 25.54500
C  17.50000 -2.38300 24.03900
C  16.77200 -0.97800 24.19400
C  16.92300 -0.70400 25.70400
C  18.61500 -2.48700 23.03800
C  15.31100 -0.85800 23.61600
C  15.24900 -0.19300 22.25800
N  16.73200 0.02300 28.57100
C  16.15800 0.73800 27.61100
C  15.43700 1.84500 28.13100
C  15.67500 1.78500 29.51100
C  16.48000 0.60100 29.76300
C  14.64000 2.81700 27.26200
C  15.45900 2.40900 30.79100
O  14.80600 3.38500 31.16900
C  16.11400 1.42000 31.82500
C  17.10700 2.16600 32.66400
O  18.32100 2.33800 32.41600
O  16.42700 2.79400 33.64400
C  17.33100 3.77000 34.39700
H  19.94600 -4.39500 31.33900
H  18.53600 -4.59100 25.00800
H  15.97900 1.10900 25.59300
H  18.75400 -0.13000 33.02600
H  18.77600 -3.01000 33.30100
H  20.95200 -2.02500 34.02400
H  20.90100 -0.82900 32.80700
H  21.32900 -2.50000 32.37000
H  17.11500 -2.37100 34.06300
H  16.09300 -1.13800 33.30800
H  16.43300 -1.20900 35.93600
H  16.53800 0.21400 35.19000
H  21.48000 -6.07400 30.15300
H  20.95600 -7.51100 29.47100
H  20.00300 -6.67300 30.71300
H  21.38200 -8.53400 26.01000
H  20.41900 -8.42900 27.52400
H  21.89300 -7.41000 27.32900
H  16.76300 -3.10200 23.68200
H  17.32900 -0.27100 23.57900
H  19.54700 -2.74500 23.54100
H  18.85900 -1.51300 22.61400
H  18.36400 -3.24000 22.29200
H  14.74100 -0.32100 24.37300
H  14.80000 -1.81800 23.54400
H  16.21900 -0.00400 21.79800
H  14.79400 0.79400 22.34300
H  14.72900 -0.90100 21.61300
H  15.24300 3.58800 26.78400
H  14.06400 3.33000 28.03200
H  13.95400 2.39700 26.52600
H  15.23500 1.14700 32.40900
H  16.97100 4.78200 34.21600
H  18.40300 3.74000 34.20400
H  17.16200 3.68100 35.47000

