79

Mg 29.39900 58.78400 41.17200
C  26.45200 57.13900 40.30100
C  31.22700 56.23700 39.87700
C  32.05400 60.95000 40.90600
C  27.45600 61.65900 41.98100
N  28.84300 57.01600 40.15500
C  27.57700 56.43600 39.99300
C  27.69300 55.15300 39.20500
C  29.18900 54.73200 39.47300
C  29.83200 56.08700 39.87000
C  29.33800 53.54100 40.49800
C  27.32300 55.38000 37.66900
C  26.35700 54.42600 36.94900
H  25.62700 55.01100 35.69900
N  31.40400 58.52200 40.75200
C  31.96500 57.35100 40.26500
C  33.38800 57.60800 40.21200
C  33.66300 58.94300 40.53300
C  32.36200 59.54400 40.75500
C  34.39900 56.51000 39.68900
C  35.08000 59.50800 40.72500
O  36.00800 58.75200 40.66200
C  35.26200 60.86100 41.27300
N  29.72900 61.07000 41.52500
C  30.96300 61.58200 41.41700
C  30.98100 63.07900 41.73700
C  29.45200 63.35700 42.02400
C  28.80600 61.99100 41.93800
C  31.94400 63.40200 42.98000
C  28.77300 64.33800 41.05600
C  27.99700 65.48800 41.83600
N  27.38900 59.29900 41.22900
C  26.73200 60.48500 41.59800
C  25.25900 60.25600 41.47100
C  25.08200 59.00900 40.99800
C  26.44600 58.45000 40.86100
C  24.24700 61.35900 41.79000
C  24.12400 57.98700 40.58100
O  22.91500 58.01000 40.62700
C  24.97000 56.85300 40.13400
C  24.57900 55.67600 41.09200
O  24.51300 55.77400 42.33200
O  24.16300 54.52700 40.37800
C  23.86000 53.32800 41.11800
H  31.62700 55.28900 39.51200
H  32.88700 61.56400 40.55800
H  26.90100 62.53300 42.32700
H  26.96800 54.40100 39.51600
H  29.58700 54.38100 38.52000
H  29.57400 53.86200 41.51300
H  30.15700 52.88800 40.19600
H  28.41300 52.96500 40.50700
H  28.22900 55.35700 37.06300
H  26.98600 56.40500 37.51000
H  25.58300 54.11400 37.65100
H  26.88900 53.51700 36.67100
H  35.00400 56.97800 38.91200
H  33.89300 55.62600 39.30100
H  35.08700 56.09600 40.42700
H  35.16400 61.59800 40.47600
H  36.29900 60.92500 41.60500
H  34.59900 61.04200 42.12000
H  31.20200 63.59500 40.80300
H  29.38200 63.79000 43.02200
H  31.38300 63.91900 43.75900
H  32.72400 64.09000 42.65300
H  32.41200 62.49800 43.36900
H  28.10800 63.83100 40.35700
H  29.45900 64.76200 40.32300
H  26.91900 65.47300 41.67700
H  28.27900 66.50300 41.55400
H  28.26600 65.51000 42.89200
H  24.53100 62.27400 41.27100
H  24.45400 61.49400 42.85100
H  23.22000 61.04800 41.59500
H  24.70500 56.58100 39.11300
H  23.27300 52.76500 40.39300
H  23.36400 53.54500 42.06400
H  24.69200 52.64900 41.30300

