79

Mg 35.42300 49.99400 25.73800
C  35.71500 47.97800 28.50400
C  33.77200 52.38800 27.67000
C  34.97300 51.82400 22.90000
C  36.70100 47.39800 23.80300
N  34.73000 50.08500 27.79500
C  35.06000 49.22500 28.74900
C  34.69900 49.78600 30.14700
C  33.94000 51.09600 29.87000
C  34.11700 51.22900 28.32900
C  32.44200 51.10200 30.28100
C  35.88800 50.02500 31.14000
C  35.51800 49.73300 32.62900
H  34.07400 49.71100 33.06400
N  34.50300 51.91600 25.33600
C  33.90300 52.71800 26.28400
C  33.59900 53.98100 25.60200
C  33.81000 53.79200 24.18400
C  34.44200 52.47800 24.07600
C  33.04900 55.16400 26.38300
C  33.60800 54.76800 23.07900
O  34.00400 54.60300 21.91700
C  32.73400 55.95500 23.25800
N  35.68900 49.59900 23.64600
C  35.51000 50.58700 22.70700
C  36.11900 50.10100 21.40500
C  36.76500 48.76200 21.61100
C  36.34500 48.55900 23.04200
C  35.20600 50.03100 20.14000
C  38.32700 48.77900 21.42600
C  39.12600 49.49900 22.40500
N  35.87400 48.04700 26.00400
C  36.33600 47.06600 25.09000
C  36.51300 45.85800 25.74200
C  36.30200 46.13900 27.11900
C  35.93000 47.48700 27.20800
C  37.22900 44.71600 25.14800
C  36.43600 45.62200 28.45800
O  36.76800 44.52500 28.85900
C  36.05600 46.78000 29.43200
C  34.96800 46.38100 30.26400
O  33.77800 46.54500 30.02600
O  35.47700 45.87900 31.45200
C  34.52900 45.50000 32.48900
H  33.32500 53.19200 28.25700
H  35.05100 52.41600 21.98500
H  37.21100 46.69800 23.13800
H  33.96200 49.05000 30.47000
H  34.44600 51.96900 30.28000
H  31.76600 50.97900 29.43400
H  32.27700 52.11800 30.63900
H  32.24300 50.43100 31.11600
H  36.35300 51.00600 31.04000
H  36.60500 49.32000 30.72000
H  36.07100 50.40800 33.28200
H  35.87400 48.72400 32.83800
H  33.57700 55.19500 27.33600
H  31.96400 55.14000 26.49300
H  33.42400 56.00700 25.80200
H  32.08200 55.86500 24.12600
H  32.04300 56.07200 22.42300
H  33.44000 56.77600 23.38400
H  36.78300 50.95000 21.24400
H  36.43100 47.93200 20.98900
H  34.69200 49.07000 20.11800
H  35.84100 50.11400 19.25700
H  34.47300 50.83700 20.11000
H  38.53600 49.14000 20.41900
H  38.69200 47.75700 21.32500
H  39.35500 48.74900 23.16200
H  38.73400 50.39600 22.88300
H  40.14000 49.66100 22.03800
H  38.06300 45.13200 24.58200
H  36.69500 44.05900 24.46200
H  37.66500 44.09300 25.92900
H  36.85300 46.95100 30.15600
H  34.85700 44.62400 33.04800
H  33.53300 45.23400 32.13600
H  34.46200 46.25400 33.27300

