79

Mg -0.76200 7.39800 26.36100
C  0.11100 9.44100 29.10900
C  -0.73700 4.80800 28.61500
C  -1.19700 5.39000 23.76700
C  -0.35900 10.10100 24.32800
N  -0.46800 7.17300 28.66100
C  -0.18200 8.21000 29.58400
C  -0.34400 7.73200 31.05800
C  -0.40500 6.12700 30.85300
C  -0.58300 6.00000 29.28800
C  0.90000 5.41300 31.39900
C  -1.70300 8.35500 31.67200
C  -1.75100 8.44600 33.17300
H  -0.51600 7.97200 33.92800
N  -0.95700 5.39400 26.21300
C  -0.87500 4.50100 27.19700
C  -0.79400 3.16100 26.53900
C  -1.03000 3.27600 25.13500
C  -1.09900 4.70500 24.99300
C  -0.69600 2.00500 27.35900
C  -1.14300 2.19500 24.06900
O  -1.34200 2.45400 22.88200
C  -1.35700 0.72000 24.50800
N  -0.93600 7.70100 24.37500
C  -1.04600 6.73400 23.46200
C  -1.31100 7.25800 22.03300
C  -1.34900 8.76700 22.35400
C  -0.83300 8.93900 23.77000
C  -0.20700 6.73900 21.10400
C  -2.86100 9.41200 22.31700
C  -2.97100 10.99200 22.05400
N  -0.33200 9.38900 26.55900
C  -0.12800 10.36500 25.62500
C  0.21000 11.64400 26.24300
C  0.37100 11.32100 27.60200
C  0.04300 9.96000 27.78700
C  0.44000 12.94900 25.56800
C  0.80700 11.82200 28.84300
O  1.44300 12.81600 29.12600
C  0.52800 10.71300 29.93700
C  1.70700 10.57800 30.78200
O  2.52000 9.67000 30.84900
O  1.59300 11.54900 31.70000
C  2.44100 11.43700 32.85200
H  -0.74800 3.93500 29.27200
H  -1.42100 4.78300 22.88800
H  -0.39700 11.00200 23.71200
H  0.56300 8.06300 31.56400
H  -1.22500 5.67600 31.41100
H  0.53600 4.41400 31.64000
H  1.28600 5.89300 32.29800
H  1.68500 5.39700 30.64300
H  -2.50900 7.74200 31.26800
H  -1.84700 9.33400 31.21500
H  -2.61100 7.88500 33.54000
H  -1.98900 9.45600 33.50600
H  0.18200 1.40800 27.11700
H  -1.63200 1.44700 27.33000
H  -0.51500 2.19000 28.41800
H  -0.45400 0.30600 24.95900
H  -1.70100 0.09400 23.68500
H  -2.12000 0.78100 25.28400
H  -2.34300 7.08000 21.72900
H  -0.67500 9.36700 21.74200
H  0.40500 7.61000 20.87400
H  -0.68300 6.48300 20.15700
H  0.44200 5.95900 21.50300
H  -3.22300 9.36700 23.34400
H  -3.51900 8.84800 21.65600
H  -3.57300 11.38700 22.87300
H  -3.35300 11.19700 21.05400
H  -2.03100 11.53500 22.14700
H  1.17200 12.84700 24.76700
H  0.91400 13.70500 26.19400
H  -0.53100 13.31600 25.23600
H  -0.33200 10.95100 30.56300
H  2.62500 12.32700 33.45300
H  3.42100 11.04400 32.58200
H  2.00600 10.68000 33.50500

