79

Mg -5.36100 25.56000 26.31100
C  -3.58900 26.36900 29.00900
C  -7.44000 23.39500 28.43500
C  -6.38800 23.67800 23.62400
C  -3.15100 27.25400 24.20700
N  -5.56300 25.05000 28.47700
C  -4.78200 25.63900 29.39000
C  -5.38500 25.47800 30.83400
C  -6.27200 24.19400 30.55200
C  -6.45400 24.16000 29.05100
C  -5.76000 22.85400 31.06100
C  -6.13200 26.73100 31.37400
C  -6.17800 27.00000 32.90300
H  -5.72800 25.97400 33.88800
N  -7.02500 24.09200 26.00200
C  -7.67500 23.39400 26.98700
C  -8.49400 22.34500 26.31000
C  -8.16500 22.38000 24.91400
C  -7.14300 23.42000 24.77600
C  -9.42100 21.34800 26.99900
C  -8.80500 21.55600 23.78500
O  -8.53000 21.76100 22.54400
C  -9.94900 20.57300 24.06500
N  -4.82700 25.50100 24.18700
C  -5.33200 24.54600 23.32700
C  -4.80500 24.73600 21.88900
C  -4.01600 26.04600 22.06100
C  -4.04500 26.34600 23.55000
C  -3.99600 23.64000 21.26300
C  -4.42600 27.28700 21.20800
C  -3.28600 27.96800 20.48300
N  -3.72000 26.69400 26.55900
C  -2.90500 27.33700 25.61200
C  -1.88600 28.08700 26.33800
C  -2.09000 27.75800 27.75500
C  -3.15500 26.79200 27.74300
C  -1.05900 29.23700 25.77300
C  -1.63800 28.01600 29.09300
O  -0.78700 28.76800 29.51200
C  -2.61000 27.08200 29.98300
C  -1.90600 26.15100 30.90800
O  -1.17600 25.18600 30.61800
O  -1.83900 26.66400 32.17000
C  -1.16300 25.96300 33.23800
H  -8.12400 22.79700 29.04000
H  -6.68900 23.21500 22.68200
H  -2.50000 27.81400 23.53200
H  -4.57600 25.21100 31.51300
H  -7.22000 24.44100 31.03000
H  -4.92600 22.93100 31.75800
H  -5.38300 22.39600 30.14600
H  -6.60700 22.38000 31.55800
H  -7.15900 26.75500 31.00800
H  -5.65700 27.65800 31.05300
H  -7.22400 27.21200 33.12600
H  -5.76100 27.99100 33.08300
H  -10.46000 21.66000 26.89400
H  -9.21800 21.26300 28.06700
H  -9.31200 20.33200 26.62000
H  -9.40500 19.74800 24.52500
H  -10.47300 20.13500 23.21600
H  -10.71100 20.84900 24.79400
H  -5.71700 24.91300 21.32000
H  -2.97400 25.87900 21.78700
H  -2.96000 23.89300 21.03600
H  -4.60000 23.26000 20.43900
H  -4.01000 22.79900 21.95700
H  -4.79200 28.08900 21.84800
H  -5.26000 27.10200 20.53100
H  -2.29500 27.51400 20.46400
H  -3.05600 28.95500 20.88300
H  -3.63100 27.97400 19.44900
H  -1.36700 29.50000 24.76100
H  -0.01100 28.95700 25.66600
H  -1.16100 30.13800 26.37900
H  -3.20000 27.73900 30.62100
H  -0.08200 26.09400 33.18600
H  -1.39500 24.89800 33.23200
H  -1.43200 26.24500 34.25500

