79

Mg -2.77800 17.38800 27.19100
C  -3.36600 15.06900 29.76000
C  -3.22300 19.91000 29.54300
C  -2.54400 19.50100 24.79200
C  -3.11700 14.72400 24.86200
N  -3.25000 17.45200 29.34200
C  -3.32800 16.40200 30.16600
C  -3.37300 16.88300 31.67500
C  -3.79000 18.40500 31.48500
C  -3.47400 18.61000 30.02900
C  -5.31900 18.77800 31.75200
C  -2.07000 16.60600 32.41300
C  -1.93600 17.35700 33.70200
H  -1.59700 16.66900 34.95100
N  -2.68000 19.45800 27.17600
C  -2.84300 20.34800 28.24100
C  -2.59600 21.68900 27.72700
C  -2.22400 21.55300 26.37700
C  -2.47800 20.14000 26.04700
C  -2.71400 22.89900 28.51400
C  -1.58200 22.55200 25.42800
O  -1.37000 22.33400 24.24600
C  -1.23200 23.82600 25.95100
N  -2.75700 17.16600 25.11400
C  -2.77100 18.20100 24.32800
C  -2.90700 17.85500 22.83100
C  -3.04600 16.28800 22.90800
C  -2.90500 16.04700 24.38700
C  -3.89700 18.66700 22.04100
C  -2.16300 15.42900 21.99700
C  -0.74900 14.99700 22.32900
N  -3.21400 15.31600 27.20700
C  -3.24000 14.33700 26.27000
C  -3.41300 12.99800 26.87200
C  -3.28600 13.29600 28.19600
C  -3.28100 14.66000 28.38300
C  -3.54500 11.72700 26.11400
C  -3.25900 12.64100 29.47000
O  -3.16500 11.49000 29.85200
C  -3.40600 13.80700 30.48000
C  -2.34400 13.64100 31.49400
O  -1.19800 13.70600 31.14600
O  -2.90600 13.17400 32.68300
C  -1.89600 12.59200 33.59500
H  -3.34800 20.75400 30.22500
H  -2.45300 20.13600 23.90800
H  -3.24000 13.93600 24.11700
H  -4.10700 16.27900 32.20800
H  -3.23500 19.09600 32.11900
H  -5.43600 18.65200 32.82800
H  -6.03700 18.17800 31.19200
H  -5.40700 19.84000 31.52300
H  -1.09700 16.81100 31.96600
H  -2.22500 15.57000 32.71200
H  -2.87300 17.88200 33.89000
H  -1.15500 18.11400 33.65100
H  -1.75300 23.36700 28.72700
H  -3.13800 22.69800 29.49700
H  -3.29600 23.72700 28.10900
H  -0.51500 23.71800 26.76500
H  -2.11500 24.37900 26.27100
H  -0.78200 24.51200 25.23400
H  -1.98700 18.17000 22.34000
H  -4.09700 16.09000 22.69600
H  -3.51200 19.45100 21.38800
H  -4.63800 19.06100 22.73600
H  -4.52300 18.04900 21.39700
H  -2.05100 16.05700 21.11300
H  -2.75600 14.58800 21.63900
H  -0.42900 15.36800 23.30200
H  0.03600 15.28900 21.63100
H  -0.69500 13.91600 22.46400
H  -4.13200 11.02600 26.70700
H  -2.55000 11.43900 25.77500
H  -4.18000 11.89700 25.24400
H  -4.37800 13.73800 30.96900
H  -2.28900 12.91400 34.55900
H  -0.87900 12.84900 33.29600
H  -1.92600 11.50200 33.60000

