79

Mg -2.77500 17.25200 25.95300
C  -2.87500 15.10200 28.71700
C  -3.67600 19.86400 28.02400
C  -2.96700 19.26600 23.31300
C  -2.60800 14.51500 23.89500
N  -3.21600 17.46100 28.13600
C  -3.16400 16.45200 29.05500
C  -3.65400 16.94100 30.38600
C  -4.19200 18.38200 30.07100
C  -3.79700 18.60300 28.59000
C  -5.72200 18.52300 30.16500
C  -2.55500 16.93400 31.51400
C  -3.16900 16.78100 32.90400
H  -2.79000 15.64500 33.92200
N  -2.97600 19.34000 25.75600
C  -3.33700 20.24000 26.71400
C  -3.37800 21.54100 26.15900
C  -3.02100 21.40700 24.72700
C  -3.02000 19.95900 24.51100
C  -3.61800 22.83500 26.92400
C  -2.80100 22.52600 23.66300
O  -2.56800 22.40200 22.49900
C  -2.67300 23.89700 24.10600
N  -2.93100 16.95700 23.82900
C  -2.86800 17.94100 22.91000
C  -2.99600 17.37400 21.48900
C  -2.69200 15.83300 21.75300
C  -2.70600 15.77300 23.24800
C  -4.33000 17.77900 20.80400
C  -1.37500 15.36000 21.13900
C  -0.13100 15.48400 21.95500
N  -2.82500 15.20100 26.14000
C  -2.69800 14.18600 25.26800
C  -2.62000 12.87000 25.96000
C  -2.70800 13.19300 27.35800
C  -2.86400 14.62300 27.40700
C  -2.60400 11.55400 25.25300
C  -2.72800 12.61300 28.67200
O  -2.53600 11.53100 29.18300
C  -2.77400 13.84300 29.64900
C  -1.42700 13.70900 30.31600
O  -0.32900 13.92800 29.83600
O  -1.57300 13.29200 31.63500
C  -0.34900 13.09800 32.41400
H  -3.83800 20.63900 28.77600
H  -3.05600 19.82300 22.37800
H  -2.50700 13.71800 23.15500
H  -4.46700 16.23200 30.54400
H  -3.68200 19.22300 30.54100
H  -6.29800 18.49300 29.24000
H  -5.94500 19.51800 30.55000
H  -6.05400 17.78700 30.89700
H  -1.98700 17.86400 31.50200
H  -1.85700 16.14700 31.23000
H  -4.25600 16.81000 32.82400
H  -2.87400 17.69100 33.42700
H  -4.20800 22.59800 27.80900
H  -4.32000 23.46700 26.38000
H  -2.66800 23.36600 26.98400
H  -2.02600 24.00800 24.97600
H  -3.65300 24.08900 24.54100
H  -2.43000 24.57700 23.28900
H  -2.09400 17.86100 21.11800
H  -3.44600 15.09500 21.47800
H  -5.06500 18.05200 21.56100
H  -4.81000 16.97400 20.24600
H  -4.10000 18.69200 20.25500
H  -1.27800 15.98300 20.25000
H  -1.47300 14.38000 20.67200
H  -0.17800 15.35200 23.03600
H  0.44800 16.40000 21.83500
H  0.49000 14.63400 21.67300
H  -3.08700 11.75700 24.29600
H  -3.24400 10.80000 25.71000
H  -1.63900 11.04800 25.22200
H  -3.55600 13.85700 30.40800
H  -0.10500 12.03700 32.35100
H  -0.51900 13.51500 33.40600
H  0.57000 13.47600 31.96700

