79

Mg 49.77800 35.69400 28.04100
C  47.40300 34.34700 30.31900
C  49.87500 38.46300 30.01300
C  51.66100 37.22000 25.61200
C  49.00800 33.12900 25.79300
N  48.82700 36.21100 30.04500
C  48.00600 35.50000 30.87100
C  48.04500 36.19100 32.24300
C  48.30800 37.63200 31.79900
C  49.10400 37.46200 30.55800
C  47.06400 38.56500 31.56900
C  49.07300 35.48500 33.15200
C  48.69200 35.10700 34.63400
H  49.56300 35.69500 35.78200
N  50.77200 37.52400 27.87100
C  50.74000 38.45000 28.82200
C  51.54900 39.61900 28.44700
C  51.95200 39.35400 27.09700
C  51.44300 38.01400 26.78300
C  51.75300 40.80500 29.30800
C  52.57600 40.29000 26.01400
O  52.73500 39.96300 24.86000
C  53.01600 41.68800 26.50200
N  50.19400 35.29400 25.93100
C  51.13800 35.99500 25.24700
C  51.41600 35.38200 23.88700
C  50.78000 33.93100 24.08800
C  49.90600 34.11200 25.35400
C  50.75000 36.19700 22.69900
C  51.81200 32.79100 24.22000
C  51.81000 31.66500 23.13700
N  48.54900 34.03600 28.05900
C  48.38700 33.06200 27.05700
C  47.41900 32.10200 27.54800
C  46.96400 32.58900 28.75900
C  47.67500 33.77600 29.06300
C  46.82500 30.90400 26.82500
C  46.09700 32.22900 29.92700
O  45.32100 31.35800 30.16500
C  46.33100 33.44300 30.90700
C  46.60400 32.83300 32.21300
O  47.51200 32.12300 32.57000
O  45.63800 33.30100 33.12100
C  45.69900 32.61500 34.38100
H  49.95700 39.37800 30.60300
H  52.41800 37.64500 24.95000
H  48.87200 32.27400 25.12800
H  47.01400 36.09200 32.58500
H  48.95200 38.18900 32.47900
H  46.96400 39.36400 32.30400
H  46.07700 38.10700 31.50500
H  47.37300 39.18500 30.72700
H  50.02800 36.00700 33.21000
H  49.29700 34.54300 32.65100
H  48.53900 34.02800 34.64000
H  47.69200 35.48600 34.84600
H  52.68500 41.32400 29.08500
H  51.69000 40.62000 30.38000
H  50.91300 41.43600 29.01600
H  53.71800 41.69500 27.33600
H  52.10500 42.19100 26.82500
H  53.46600 42.24500 25.68000
H  52.50000 35.27800 23.83100
H  50.22600 33.68000 23.18400
H  50.06400 35.55100 22.15100
H  51.56400 36.51600 22.04900
H  50.34200 37.06500 23.21700
H  51.73400 32.51800 25.27200
H  52.77900 33.29200 24.17000
H  51.53500 30.70900 23.58100
H  52.80500 31.61200 22.69500
H  51.00200 31.85400 22.43000
H  46.27100 30.14400 27.37700
H  47.57600 30.44500 26.18100
H  46.23900 31.37300 26.03500
H  45.42100 34.04200 30.95600
H  45.53900 31.54100 34.47500
H  45.14300 33.21100 35.10400
H  46.67600 32.81000 34.82400

