79

Mg 1.86900 7.96300 25.97700
C  2.36100 9.92700 28.84800
C  2.17400 5.15800 28.05500
C  1.68400 6.10600 23.32100
C  2.05000 10.86800 24.02300
N  2.17100 7.60600 28.22800
C  2.30000 8.60900 29.16900
C  2.42000 8.00000 30.60100
C  2.40100 6.48100 30.36500
C  2.26700 6.36300 28.81100
C  3.58900 5.64600 30.89100
C  1.14000 8.49700 31.52200
C  1.40600 8.68800 33.04900
H  2.58200 8.02700 33.76400
N  1.73000 5.92900 25.70700
C  1.84700 4.97600 26.65000
C  1.73100 3.66100 26.06300
C  1.53900 3.93400 24.69300
C  1.71700 5.38000 24.47200
C  1.90900 2.41400 26.79300
C  1.09600 2.88100 23.67900
O  1.10600 3.21500 22.48100
C  0.71300 1.54300 24.02500
N  1.91700 8.48400 23.92900
C  1.74300 7.51300 23.07700
C  1.61300 8.09100 21.65600
C  1.67000 9.66400 21.85400
C  1.77500 9.70400 23.36100
C  2.73000 7.55000 20.66700
C  0.39900 10.46700 21.41700
C  0.71700 11.80100 20.67400
N  2.15900 9.97600 26.30400
C  2.15900 11.06600 25.41100
C  2.19500 12.35200 26.16300
C  2.28200 11.91500 27.48900
C  2.19400 10.49800 27.53000
C  2.31200 13.69300 25.51500
C  2.54100 12.37500 28.89500
O  2.68600 13.48400 29.35400
C  2.55100 11.11700 29.76200
C  3.90400 11.15900 30.35500
O  4.89000 10.54700 29.98300
O  3.81000 11.71200 31.63200
C  4.94700 11.74300 32.54000
H  2.25100 4.28300 28.70500
H  1.49900 5.53400 22.40900
H  2.22500 11.74200 23.39100
H  3.38900 8.21100 31.05300
H  1.56400 5.99000 30.86200
H  4.24900 5.34400 30.07700
H  3.22800 4.76900 31.42700
H  4.17200 6.12800 31.67500
H  0.35500 7.76300 31.34100
H  0.82400 9.43500 31.06500
H  0.50800 8.34800 33.56400
H  1.49200 9.77300 33.10800
H  1.17200 2.17900 27.56000
H  2.89200 2.32600 27.25700
H  2.02500 1.60300 26.07400
H  1.60600 0.91700 24.03500
H  0.01000 1.25300 23.24400
H  0.19300 1.41500 24.97500
H  0.64300 7.75800 21.28600
H  2.49600 10.17400 21.35900
H  3.72500 7.48400 21.10700
H  2.88500 8.13800 19.76300
H  2.47000 6.52800 20.39100
H  -0.17800 10.91500 22.22500
H  -0.41700 9.96000 20.90200
H  1.35300 12.51700 21.19500
H  -0.08600 12.41500 20.26700
H  1.35900 11.60500 19.81600
H  1.43700 14.27100 25.81000
H  2.34000 13.51800 24.43900
H  3.24600 14.04400 25.95300
H  1.83300 11.19200 30.57900
H  5.36800 12.74800 32.56200
H  5.69600 10.97400 32.35200
H  4.49900 11.56500 33.51800

