79

Mg -1.19200 18.17200 27.52400
C  -1.76300 15.80300 30.05800
C  -1.60900 20.68500 30.02600
C  -1.42900 20.46700 25.13400
C  -1.32000 15.61500 25.11900
N  -1.64500 18.22700 29.81000
C  -1.72900 17.10500 30.58200
C  -1.81500 17.54200 32.06600
C  -2.05200 19.08900 31.99100
C  -1.67100 19.36500 30.53900
C  -3.45400 19.61800 32.42500
C  -0.58200 17.03900 32.88700
C  -0.29200 17.68400 34.24000
H  0.41100 16.78200 35.33900
N  -1.36600 20.30400 27.61400
C  -1.51300 21.17700 28.67000
C  -1.60800 22.50300 28.18300
C  -1.79900 22.39700 26.76600
C  -1.54600 21.01100 26.44900
C  -1.65900 23.70000 29.07100
C  -2.23400 23.38400 25.72700
O  -2.47100 23.19100 24.53600
C  -2.45000 24.80400 26.20200
N  -1.42700 18.03500 25.50100
C  -1.35900 19.16300 24.73500
C  -1.21500 18.78300 23.28800
C  -0.96800 17.25600 23.31200
C  -1.23200 16.94000 24.74700
C  -2.51700 19.13500 22.46100
C  0.49100 16.83000 22.95300
C  1.70500 17.33400 23.87300
N  -1.35400 16.07400 27.47800
C  -1.54500 15.12800 26.44200
C  -1.67100 13.83700 26.99800
C  -1.81700 14.00400 28.40700
C  -1.68600 15.42100 28.65000
C  -1.81100 12.57800 26.21200
C  -1.99900 13.36800 29.71300
O  -2.21500 12.20100 30.00200
C  -1.79200 14.47900 30.82100
C  -0.62600 14.03100 31.65200
O  0.52000 14.17900 31.26500
O  -1.13100 13.43200 32.79000
C  -0.16100 12.53800 33.53700
H  -1.56400 21.50600 30.74500
H  -1.35700 21.13100 24.26900
H  -1.26300 14.84100 24.35100
H  -2.69100 17.07900 32.51900
H  -1.34000 19.54100 32.68100
H  -3.37400 20.42000 33.15900
H  -4.06400 18.87700 32.94200
H  -4.02400 20.07400 31.61600
H  0.29100 16.99200 32.23700
H  -0.77400 16.02200 33.22800
H  -1.25100 18.07800 34.57600
H  0.20000 18.64400 34.08400
H  -2.67800 24.05600 29.22500
H  -1.15400 24.49700 28.52500
H  -1.25800 23.46500 30.05600
H  -3.01100 25.38200 25.46800
H  -1.47000 25.23000 26.41500
H  -2.99800 24.68600 27.13700
H  -0.32200 19.24400 22.86700
H  -1.65100 16.70500 22.66500
H  -2.22600 19.85200 21.69200
H  -3.22000 19.54800 23.18500
H  -2.97800 18.34800 21.86400
H  0.62800 17.12400 21.91200
H  0.50700 15.75200 23.11300
H  1.40200 17.87000 24.77200
H  2.33700 17.97200 23.25500
H  2.38600 16.58100 24.26900
H  -1.68400 12.46400 25.13600
H  -2.87500 12.35300 26.28500
H  -1.35800 11.69700 26.66800
H  -2.72600 14.52900 31.38100
H  0.38500 11.80400 32.94400
H  -0.74200 11.93500 34.23500
H  0.51800 13.13100 34.14900

