79

Mg 52.54100 23.72000 44.95200
C  49.60500 25.61000 44.48900
C  50.76600 20.84600 44.44400
C  55.43800 22.15500 44.38000
C  54.30200 26.68800 45.24200
N  50.39300 23.31900 44.24600
C  49.34400 24.19800 44.46700
C  48.07800 23.36400 44.56500
C  48.48800 21.84700 44.79800
C  50.02500 21.99700 44.46200
C  48.26100 21.44900 46.34300
C  47.18300 23.49400 43.28700
C  47.75000 22.82500 42.00100
H  47.57800 23.63000 40.72600
N  53.03200 21.83600 44.44800
C  52.14800 20.73300 44.33600
C  52.96800 19.51400 44.09300
C  54.33200 19.87700 44.00400
C  54.30300 21.34700 44.32900
C  52.26600 18.15500 44.02500
C  55.47700 18.81400 43.78200
O  55.25400 17.67900 43.48300
C  56.85700 19.24400 43.91700
N  54.62500 24.35600 44.65600
C  55.62600 23.50200 44.59000
C  57.05000 24.20600 44.56700
C  56.66800 25.72800 44.83700
C  55.10700 25.59400 44.98700
C  58.07400 23.66100 45.58800
C  57.11100 26.82300 43.78000
C  58.42500 26.73100 43.12600
N  52.09800 25.78500 44.91000
C  52.93400 26.84100 45.13400
C  52.06600 28.08600 45.17100
C  50.75700 27.63300 44.98900
C  50.84900 26.23900 44.67000
C  52.51500 29.49900 45.48000
C  49.33900 27.96500 44.94700
O  48.85700 29.07700 45.03800
C  48.53800 26.71600 44.57900
C  48.02000 27.08300 43.23400
O  48.63500 27.05900 42.19200
O  46.65800 27.25200 43.27500
C  45.94100 27.49300 42.01100
H  50.25000 19.92000 44.70300
H  56.27300 21.48500 44.16600
H  54.83900 27.63500 45.33600
H  47.43600 23.76300 45.35100
H  48.14300 21.07100 44.11500
H  48.25700 20.36000 46.37200
H  47.33500 21.91200 46.68600
H  49.08200 21.77000 46.98400
H  47.10100 24.54600 43.01000
H  46.12400 23.28400 43.43900
H  47.15700 21.94200 41.76400
H  48.78100 22.47300 42.04400
H  51.52300 18.20500 43.22900
H  51.75500 17.93600 44.96300
H  52.90700 17.29500 43.83100
H  57.50400 18.37500 43.80000
H  56.90600 19.71400 44.89900
H  57.09000 20.00500 43.17300
H  57.53300 24.08200 43.59800
H  57.01200 26.16400 45.77500
H  59.06400 23.90500 45.20200
H  58.01000 22.57300 45.62200
H  57.87400 24.13000 46.55100
H  57.20000 27.80000 44.25400
H  56.28100 26.86100 43.07400
H  59.15600 26.01000 43.49300
H  58.87400 27.72100 43.04300
H  58.31400 26.49900 42.06700
H  53.14900 29.71700 46.33900
H  51.72400 30.23900 45.59700
H  53.10000 29.81300 44.61500
H  47.72800 26.54200 45.28600
H  45.58400 28.52200 41.97800
H  45.10400 26.79400 42.03400
H  46.51800 27.38000 41.09300

