79

Mg -1.51400 34.65300 26.79800
C  -3.28100 32.91600 29.23300
C  -0.48800 36.85100 29.09400
C  -0.26600 36.62700 24.19400
C  -2.56700 32.42400 24.40700
N  -1.74900 34.79100 28.97900
C  -2.53500 33.94000 29.81600
C  -2.37900 34.32500 31.22000
C  -1.48300 35.58500 31.17700
C  -1.26900 35.80000 29.62400
C  -2.10700 36.82000 31.81300
C  -1.76900 33.16300 32.05700
C  -2.51700 32.83000 33.40500
H  -1.74400 32.75200 34.77500
N  -0.46300 36.43100 26.66500
C  -0.07500 37.20500 27.75000
C  0.81000 38.23000 27.31100
C  0.73500 38.29600 25.84800
C  -0.02000 37.02200 25.49900
C  1.55300 39.17100 28.26200
C  1.33000 39.34000 24.84700
O  1.33700 39.15800 23.65800
C  1.94000 40.60900 25.45300
N  -1.67700 34.71900 24.55700
C  -1.04600 35.60900 23.73900
C  -1.16100 35.11800 22.28000
C  -1.70800 33.68500 22.37500
C  -1.98000 33.54800 23.86600
C  -1.93200 36.16100 21.37300
C  -0.77100 32.63400 21.73000
C  0.44700 32.20400 22.59100
N  -2.73700 33.02100 26.71800
C  -3.05300 32.21300 25.66400
C  -4.06300 31.20900 26.14600
C  -4.09000 31.40000 27.56200
C  -3.29500 32.50700 27.89000
C  -4.81600 30.27900 25.37700
C  -4.64300 30.94300 28.82900
O  -5.43900 29.99100 29.05600
C  -4.07200 31.85000 29.95500
C  -5.11400 32.42100 30.80200
O  -5.63300 33.50400 30.65300
O  -5.41400 31.51400 31.85000
C  -6.29100 32.16500 32.86200
H  0.04000 37.54800 29.74800
H  0.05900 37.31200 23.40800
H  -2.87500 31.72900 23.62300
H  -3.36700 34.56400 31.61500
H  -0.49300 35.44300 31.61200
H  -2.23100 37.56800 31.03000
H  -1.56400 37.11100 32.71100
H  -3.16300 36.73300 32.07000
H  -0.79100 33.28900 32.52300
H  -1.52400 32.31500 31.41700
H  -2.89300 31.81800 33.25800
H  -3.35200 33.50400 33.59900
H  2.60600 39.16700 27.98100
H  1.61000 38.95700 29.33000
H  1.10600 40.16400 28.28600
H  1.18100 40.89600 26.18100
H  1.97100 41.36800 24.67200
H  2.92900 40.26500 25.75700
H  -0.12900 35.12800 21.92700
H  -2.70200 33.67500 21.92900
H  -2.66100 35.67300 20.72600
H  -1.14600 36.58100 20.74500
H  -2.38700 36.97600 21.93600
H  -0.51100 33.01700 20.74400
H  -1.47600 31.83900 21.48500
H  0.44000 32.67000 23.57700
H  1.37700 32.34600 22.04100
H  0.42600 31.12700 22.75800
H  -4.50800 30.43200 24.34300
H  -5.88300 30.49900 25.40900
H  -4.78600 29.23700 25.69800
H  -3.40000 31.25900 30.57800
H  -5.70900 32.59200 33.67800
H  -6.73600 31.35200 33.43400
H  -7.01500 32.91700 32.54700

