79

Mg 25.10500 -0.86300 29.09400
C  27.00100 -0.82400 32.04000
C  22.19800 -0.50000 31.24300
C  23.07200 -1.03000 26.44400
C  27.88300 -1.87500 27.27700
N  24.64900 -0.55100 31.36600
C  25.68300 -0.54100 32.30700
C  25.16400 -0.18100 33.66300
C  23.55700 -0.39200 33.40100
C  23.42500 -0.45800 31.88600
C  22.98400 -1.56900 34.22600
C  25.64200 1.25100 34.07800
C  26.64300 1.37600 35.26700
H  26.15600 1.98200 36.59800
N  22.95700 -0.61200 28.82900
C  21.98400 -0.51900 29.82200
C  20.73100 -0.27300 29.15100
C  20.91900 -0.39200 27.76300
C  22.39100 -0.71500 27.63400
C  19.40400 -0.22500 29.81000
C  19.89100 -0.27300 26.57900
O  20.24800 -0.47800 25.42200
C  18.51800 0.31400 26.86900
N  25.42200 -1.71900 27.12600
C  24.41900 -1.38800 26.18600
C  24.99600 -1.45600 24.74000
C  26.54400 -1.39900 25.05400
C  26.65800 -1.70000 26.55100
C  24.59500 -2.58300 23.81100
C  27.31000 -0.16900 24.48600
C  27.80700 0.98000 25.34900
N  27.07400 -1.32800 29.51300
C  28.11900 -1.69400 28.67500
C  29.34700 -1.75900 29.49400
C  28.95700 -1.42100 30.78300
C  27.53800 -1.23000 30.78100
C  30.72400 -2.11200 29.06000
C  29.40700 -1.20900 32.16000
O  30.57100 -1.17800 32.50900
C  28.22600 -0.86900 33.05700
C  28.04600 -1.87100 34.05600
O  27.40300 -2.89500 33.85300
O  28.72500 -1.46200 35.16300
C  28.52400 -2.37000 36.34300
H  21.37200 -0.48100 31.95700
H  22.39700 -0.90200 25.59600
H  28.84800 -1.95500 26.77400
H  25.52600 -0.89900 34.40000
H  23.04700 0.52700 33.69100
H  22.38800 -1.19400 35.05800
H  23.77900 -2.22500 34.58000
H  22.31100 -2.17900 33.62400
H  24.82700 1.87400 34.44500
H  25.94300 1.79900 33.18500
H  27.41500 2.06200 34.92000
H  27.17200 0.46300 35.53900
H  19.50500 -0.71700 30.77700
H  18.70300 -0.66400 29.10000
H  19.13300 0.81900 29.97000
H  18.27700 0.84400 25.94800
H  18.63500 1.10300 27.61200
H  17.84100 -0.47600 27.19100
H  24.69600 -0.48500 24.34600
H  27.13700 -2.18100 24.58000
H  24.45400 -2.37800 22.74900
H  23.72700 -3.04000 24.28600
H  25.41400 -3.30100 23.77600
H  26.76200 0.19700 23.61800
H  28.08500 -0.77000 24.01100
H  27.36500 0.90500 26.34300
H  27.46400 1.92000 24.91700
H  28.89400 0.94600 25.42100
H  30.63900 -2.48200 28.03800
H  31.15200 -2.95300 29.60600
H  31.30600 -1.19200 29.02600
H  28.39600 0.12600 33.46800
H  28.52700 -3.38700 35.95100
H  27.61200 -2.07700 36.86300
H  29.38500 -2.30600 37.00800

