79

Mg 9.71100 48.28100 25.80500
C  7.38700 48.54900 28.48000
C  12.23300 49.29000 27.84400
C  11.70800 48.11400 23.16600
C  6.95500 47.54000 23.69400
N  9.76800 48.83400 27.89800
C  8.77200 48.78100 28.85900
C  9.16700 49.16000 30.22100
C  10.64000 49.71200 29.90600
C  10.92600 49.22300 28.45400
C  10.99800 51.17300 30.25300
C  9.15800 47.92700 31.24700
C  8.67600 48.18400 32.68400
H  8.59900 47.04400 33.69100
N  11.68700 48.59400 25.56200
C  12.58100 48.97500 26.52900
C  13.94400 48.89200 26.01800
C  13.79800 48.59600 24.62500
C  12.33600 48.43100 24.37100
C  15.21600 49.16300 26.84100
C  14.94800 48.31900 23.58000
O  14.69200 48.06300 22.44800
C  16.40900 48.17900 24.09000
N  9.35400 48.00600 23.75300
C  10.34900 48.00500 22.88300
C  9.98500 47.48800 21.48500
C  8.44300 47.27800 21.72800
C  8.22900 47.65300 23.14600
C  10.31500 48.45400 20.29100
C  8.01600 45.76100 21.44300
C  8.67100 44.74000 22.40000
N  7.56700 48.05700 25.97200
C  6.58100 47.75600 25.05600
C  5.25000 47.71400 25.65700
C  5.59500 47.96900 27.00500
C  6.95600 48.21300 27.13700
C  3.95800 47.33200 25.09000
C  4.98400 48.00800 28.29300
O  3.81200 47.89700 28.67600
C  6.09900 48.43800 29.31200
C  6.10500 47.37900 30.34500
O  6.51300 46.24400 30.09000
O  5.48000 47.76800 31.50500
C  5.08400 46.65900 32.38700
H  12.93900 49.72300 28.55600
H  12.37600 47.82300 22.35200
H  6.23000 47.07200 23.02500
H  8.66700 49.97500 30.74400
H  11.35900 49.13800 30.49000
H  11.65300 51.25300 31.12100
H  10.07300 51.68200 30.52200
H  11.35500 51.67700 29.35500
H  10.17400 47.72200 31.58600
H  8.68500 46.97900 30.99300
H  7.76300 48.77900 32.65400
H  9.37200 48.91000 33.10300
H  14.92100 49.46500 27.84600
H  15.83000 49.93700 26.38000
H  15.80600 48.24700 26.86700
H  16.46500 47.58500 25.00200
H  16.72900 49.17000 24.41100
H  17.01400 47.81500 23.25900
H  10.56000 46.57700 21.32000
H  7.76400 47.91300 21.15900
H  10.76200 49.37300 20.67200
H  9.45900 48.85700 19.75000
H  11.01300 47.95500 19.61900
H  8.33000 45.52800 20.42500
H  6.93800 45.60500 21.39700
H  8.95700 45.24900 23.32100
H  9.56800 44.35800 21.91400
H  8.04800 43.90800 22.72800
H  3.53400 46.36300 25.35300
H  4.08900 47.28100 24.00900
H  3.09500 47.95700 25.31900
H  5.91800 49.37300 29.84200
H  4.09300 46.81900 32.81200
H  5.76000 46.55200 33.23600
H  5.15300 45.66600 31.94200

