79

Mg 30.55800 57.34600 40.83000
C  27.87700 55.78700 39.33100
C  32.59300 55.14600 39.21600
C  33.07100 59.41500 41.51200
C  28.24600 59.92800 41.79300
N  30.21500 55.76500 39.33700
C  29.04700 55.17500 38.97500
C  29.20300 54.09400 37.90500
C  30.73500 53.66900 38.23100
C  31.19100 54.93400 38.96600
C  30.80000 52.34600 39.04800
C  29.04700 54.62300 36.43000
C  28.61100 53.59600 35.38100
H  27.82500 54.05000 34.16500
N  32.59600 57.28600 40.52300
C  33.22200 56.25300 39.93100
C  34.60600 56.31600 40.19200
C  34.85500 57.65600 40.67600
C  33.50600 58.19700 41.00700
C  35.57000 55.36400 39.58800
C  36.24300 58.32400 40.90400
O  37.24500 57.75700 40.56900
C  36.37100 59.57800 41.67200
N  30.61400 59.36000 41.60200
C  31.76100 59.90600 41.80900
C  31.63700 61.29700 42.53200
C  30.06600 61.35400 42.80000
C  29.61000 60.12600 41.99900
C  32.56600 61.67000 43.72600
C  29.37600 62.75700 42.51200
C  28.19300 63.22400 43.41400
N  28.42400 57.74400 40.84500
C  27.64400 58.79200 41.22700
C  26.26300 58.58900 40.91100
C  26.30700 57.39700 40.18400
C  27.62200 56.90200 40.19100
C  25.09100 59.49400 41.24300
C  25.46400 56.45800 39.47200
O  24.24900 56.55300 39.25900
C  26.47000 55.35300 38.86500
C  26.10100 54.05000 39.46100
O  26.82700 53.33800 40.10900
O  24.96900 53.65200 38.88500
C  24.47700 52.28100 39.00200
H  33.22800 54.28600 38.99500
H  33.82300 60.13400 41.84500
H  27.45600 60.63400 42.05700
H  28.53600 53.26000 38.12200
H  31.28800 53.62500 37.29400
H  31.79300 52.21300 39.47900
H  30.51100 51.55900 38.35100
H  30.01300 52.27200 39.79900
H  30.03300 54.95300 36.10000
H  28.41000 55.50600 36.45900
H  28.03100 52.79000 35.83000
H  29.46500 53.10700 34.91000
H  35.48000 55.55100 38.51800
H  35.33200 54.31900 39.78600
H  36.61500 55.54200 39.84600
H  37.40100 59.91400 41.79400
H  36.02000 59.46500 42.69800
H  35.69400 60.29900 41.21200
H  31.87000 62.08200 41.81300
H  29.93700 61.05400 43.84000
H  32.01900 62.06100 44.58400
H  33.32900 62.39800 43.44900
H  33.27100 60.89400 44.02300
H  29.04100 62.65700 41.48000
H  30.14200 63.52200 42.64300
H  27.75400 62.30200 43.79700
H  27.45700 63.79600 42.84800
H  28.53300 63.67700 44.34500
H  25.22000 60.06000 42.16600
H  24.18900 58.88900 41.14800
H  24.97900 60.21000 40.42900
H  26.38800 55.50800 37.78900
H  24.94800 51.73900 39.82200
H  24.32900 51.82400 38.02300
H  23.47100 52.49100 39.36700

