79

Mg -1.56700 17.96700 26.39400
C  -2.33400 15.76500 29.12800
C  -2.23800 20.64300 28.49800
C  -1.46200 20.02400 23.67300
C  -1.68500 15.22900 24.26100
N  -2.12500 18.19800 28.59900
C  -2.21000 17.13300 29.47800
C  -2.37900 17.72000 30.92700
C  -2.61300 19.22100 30.68900
C  -2.34200 19.38500 29.18700
C  -4.14600 19.61800 30.98300
C  -1.32100 17.35900 32.01500
C  -1.44000 18.11100 33.33200
H  -0.99900 17.34000 34.60600
N  -1.68400 19.98600 26.10700
C  -1.99100 20.91500 27.10800
C  -2.01900 22.26300 26.51100
C  -1.79500 22.09300 25.08500
C  -1.58300 20.66700 24.90700
C  -2.39500 23.53100 27.25700
C  -1.82000 23.19700 23.93300
O  -1.62200 22.87800 22.75700
C  -2.14000 24.57700 24.25900
N  -1.56200 17.64800 24.29100
C  -1.34200 18.65500 23.37300
C  -1.29200 18.15600 21.92100
C  -1.18100 16.62400 22.18200
C  -1.50200 16.43400 23.65300
C  -2.56400 18.48400 21.06100
C  0.20000 16.05200 21.79100
C  1.51200 16.76000 22.25000
N  -1.97100 15.91800 26.56100
C  -1.92000 14.91200 25.60700
C  -2.28000 13.60500 26.23300
C  -2.47300 13.90000 27.61300
C  -2.27500 15.32600 27.74800
C  -2.33900 12.33200 25.48200
C  -2.69700 13.26900 28.83600
O  -2.81500 12.06300 29.12800
C  -2.51200 14.50200 29.98400
C  -1.25300 14.17800 30.73900
O  -0.19500 14.22600 30.33800
O  -1.66300 13.55400 31.88300
C  -0.67500 12.87800 32.68200
H  -2.45800 21.54200 29.07700
H  -1.32600 20.62600 22.77200
H  -1.70200 14.32100 23.65300
H  -3.26800 17.16800 31.23200
H  -1.94000 19.80200 31.31800
H  -4.75300 18.72600 31.13900
H  -4.56200 20.13600 30.11900
H  -4.18400 20.33000 31.80800
H  -0.37100 17.58400 31.53000
H  -1.40800 16.30100 32.26400
H  -2.50500 18.31100 33.44800
H  -0.90300 19.04300 33.15500
H  -3.35400 23.91300 26.90700
H  -1.64800 24.30600 27.08500
H  -2.48800 23.33900 28.32600
H  -3.19500 24.63100 24.52900
H  -1.87600 25.15500 23.37300
H  -1.47900 24.93400 25.04900
H  -0.38000 18.47300 21.41500
H  -2.01700 16.17100 21.64900
H  -3.29800 17.68300 20.97300
H  -2.27600 18.74400 20.04200
H  -3.05500 19.37100 21.46100
H  0.18300 16.03400 20.70100
H  0.20900 14.99900 22.07400
H  1.53800 17.71200 22.78000
H  2.15900 16.92700 21.38900
H  2.03200 15.99800 22.83100
H  -2.80100 12.54800 24.51800
H  -2.98200 11.69200 26.08700
H  -1.33400 11.91000 25.49700
H  -3.39700 14.46400 30.61900
H  0.13200 12.53300 32.03500
H  -1.15500 11.96900 33.04300
H  -0.29600 13.51200 33.48400

