79

Mg 0.11700 43.75700 26.84000
C  2.48000 43.45300 29.35100
C  -2.29100 42.59900 28.98100
C  -2.00700 43.46500 24.20400
C  2.78600 44.57900 24.58800
N  0.15200 43.12000 28.95500
C  1.17500 43.33600 29.83100
C  0.73000 43.04000 31.30000
C  -0.69800 42.38900 31.05800
C  -1.01000 42.66700 29.56600
C  -0.85200 40.92900 31.33600
C  0.73700 44.38000 32.19000
C  1.22200 44.25400 33.65100
H  0.64300 43.12400 34.46600
N  -1.87400 43.08300 26.58100
C  -2.67800 42.67100 27.62900
C  -3.98700 42.44600 27.11000
C  -3.93600 42.57600 25.66800
C  -2.54700 43.03500 25.39900
C  -5.13900 42.07500 27.97400
C  -5.01500 42.42400 24.67300
O  -4.80900 42.60400 23.50400
C  -6.41000 42.09600 25.08800
N  0.36400 43.91400 24.77700
C  -0.74200 43.91500 23.95800
C  -0.39600 44.29400 22.55700
C  1.10400 44.74100 22.60200
C  1.49800 44.42300 24.10900
C  -0.76400 43.19800 21.49500
C  1.34600 46.23000 22.21400
C  1.14800 47.23500 23.37200
N  2.20500 43.99600 26.90700
C  3.19000 44.26800 25.92000
C  4.52000 44.25200 26.50800
C  4.28400 43.91900 27.78900
C  2.86500 43.79300 28.00900
C  5.88900 44.43900 25.83600
C  4.93400 43.50400 29.05100
O  6.08600 43.23200 29.30800
C  3.81200 43.40500 30.10000
C  3.84200 42.13200 30.84000
O  3.48100 41.04100 30.45100
O  4.31000 42.36700 32.05200
C  4.39500 41.23900 33.01300
H  -3.03100 42.07600 29.59100
H  -2.63700 43.51300 23.31300
H  3.53700 44.90900 23.86800
H  1.41000 42.36700 31.82200
H  -1.48100 42.96100 31.55400
H  -1.41400 40.51300 30.50000
H  -1.49700 40.81600 32.20700
H  0.04300 40.30700 31.35100
H  -0.25700 44.82600 32.19800
H  1.41100 45.03200 31.63300
H  0.84000 45.16100 34.12000
H  2.30600 44.15100 33.60800
H  -4.85900 41.70400 28.96000
H  -5.63000 41.23200 27.48900
H  -5.81000 42.92800 28.07600
H  -6.43200 41.09400 25.51500
H  -7.08200 42.12300 24.23000
H  -6.76300 42.87000 25.77000
H  -1.00800 45.18800 22.43700
H  1.74400 44.09800 21.99700
H  0.21900 42.98200 21.07700
H  -1.55700 43.55300 20.83800
H  -0.99100 42.21100 21.90000
H  0.69900 46.53600 21.39100
H  2.38000 46.39400 21.90800
H  0.57000 48.09100 23.02700
H  2.11000 47.58500 23.74600
H  0.63400 46.80600 24.23200
H  5.71400 44.59600 24.77200
H  6.61500 43.63100 25.92900
H  6.32200 45.36800 26.20600
H  3.93800 44.25800 30.76600
H  3.67500 40.43300 32.86600
H  4.07900 41.61200 33.98800
H  5.37800 40.76700 33.01800

