79

Mg 34.59100 48.34200 26.43000
C  34.98900 46.12700 29.14800
C  33.89400 50.79100 28.66900
C  33.98800 50.37300 23.66400
C  34.90100 45.59400 24.26400
N  34.45000 48.32200 28.67500
C  34.74000 47.37300 29.55200
C  34.75700 47.92800 30.96600
C  33.95500 49.28400 30.79500
C  34.15200 49.52900 29.26400
C  32.38400 49.08600 31.08600
C  36.16500 47.82800 31.67300
C  36.16000 47.45600 33.20100
H  36.21300 48.65300 34.09700
N  34.18800 50.33200 26.18700
C  33.88700 51.19100 27.23000
C  33.62800 52.48400 26.73700
C  33.74700 52.44600 25.32000
C  34.03400 50.99600 25.00200
C  33.41600 53.67400 27.68100
C  33.78700 53.50100 24.27200
O  34.06300 53.20700 23.09500
C  33.44900 54.98000 24.63500
N  34.49800 48.04300 24.27700
C  34.23800 49.06200 23.33000
C  34.16900 48.46500 21.98500
C  34.69700 46.93700 22.18400
C  34.71400 46.79800 23.68300
C  32.89500 48.58600 21.20100
C  36.09600 46.68900 21.64500
C  36.06600 45.57500 20.61700
N  34.76400 46.21400 26.58000
C  34.96900 45.26700 25.63200
C  35.37700 43.98200 26.28800
C  35.22400 44.22700 27.68300
C  35.02200 45.63500 27.79200
C  35.83900 42.77900 25.55900
C  35.45700 43.70800 28.97400
O  35.72500 42.57500 29.35500
C  35.26900 44.91000 30.07100
C  34.22100 44.44800 30.97900
O  33.08000 44.26100 30.69800
O  34.74400 44.27400 32.24600
C  33.83000 44.16600 33.37400
H  33.58300 51.50900 29.43100
H  33.77500 51.04300 22.82900
H  34.87400 44.63200 23.74800
H  34.09600 47.37000 31.62900
H  34.43400 50.15800 31.23600
H  31.93400 49.35400 32.04200
H  32.17300 48.02900 30.92500
H  31.91400 49.64300 30.27600
H  36.57900 48.82500 31.51900
H  36.86700 47.14500 31.19600
H  37.07100 46.88400 33.37900
H  35.39900 46.72300 33.46800
H  32.40200 54.03400 27.50400
H  34.15800 54.46900 27.60000
H  33.29600 53.45600 28.74200
H  33.40100 55.66400 23.78800
H  34.30800 55.30700 25.22100
H  32.56300 55.11100 25.25600
H  34.88300 49.12200 21.49000
H  34.05700 46.16500 21.75600
H  32.39000 47.62200 21.24300
H  33.09000 48.89900 20.17500
H  32.07200 49.20700 21.55500
H  36.77200 46.39300 22.44700
H  36.46300 47.55100 21.08800
H  35.03700 45.33200 20.35200
H  36.46200 44.62400 20.97300
H  36.62300 45.90700 19.74100
H  36.68400 43.14100 24.97400
H  34.99100 42.49900 24.93500
H  36.06900 41.86100 26.10000
H  36.18700 45.10500 30.62500
H  32.93800 44.77000 33.20900
H  34.27200 44.48100 34.31900
H  33.66200 43.09500 33.48300

