79

Mg 2.30600 -0.65400 44.35100
C  5.86400 -0.24900 43.64500
C  1.87200 2.21800 42.40600
C  -0.98900 -1.29100 44.35000
C  2.97200 -3.58600 46.05700
N  3.72900 0.94800 43.32000
C  5.10100 0.72900 42.97300
C  5.65100 1.85600 42.07600
C  4.41500 2.85500 42.04200
C  3.23500 2.02000 42.63600
C  4.59200 4.12200 42.81800
C  5.92900 1.29700 40.68300
C  7.29900 1.73000 40.08500
H  7.20600 2.68600 38.92500
N  0.69500 0.33800 43.57200
C  0.75400 1.50800 42.86000
C  -0.63100 2.00600 42.53800
C  -1.52500 0.88900 42.88700
C  -0.62500 -0.09900 43.56900
C  -0.93200 3.30800 41.84600
C  -2.95700 0.89300 42.51600
O  -3.47300 1.86400 42.00800
C  -3.75900 -0.32800 42.81500
N  1.14700 -2.27500 45.02500
C  -0.21200 -2.31600 44.99100
C  -0.82200 -3.53100 45.71400
C  0.49800 -4.12500 46.35600
C  1.66500 -3.28800 45.77900
C  -1.96700 -3.21500 46.70900
C  0.59600 -5.71600 46.03400
C  1.24400 -6.59500 47.24900
N  4.00100 -1.76200 44.79000
C  4.15600 -2.90100 45.57300
C  5.52600 -3.22000 45.73700
C  6.18200 -2.21400 45.04600
C  5.26300 -1.31000 44.42700
C  6.11100 -4.39100 46.50200
C  7.43200 -1.68600 44.74000
O  8.53200 -2.16500 45.05700
C  7.32700 -0.37100 43.75900
C  7.88600 0.75500 44.46800
O  7.60100 1.06800 45.64100
O  8.82000 1.49400 43.71100
C  9.22100 2.76800 44.31200
H  1.67600 3.18800 41.94500
H  -2.07400 -1.41200 44.39200
H  3.15000 -4.47600 46.66500
H  6.51800 2.25200 42.60500
H  4.17800 3.15700 41.02200
H  4.11000 3.99700 43.78700
H  4.19400 5.01000 42.32700
H  5.61300 4.47700 42.96100
H  5.18800 1.77400 40.04100
H  5.87300 0.21400 40.79100
H  7.85600 0.87600 39.70100
H  7.91700 2.09500 40.90600
H  -1.87700 3.64300 42.27300
H  -0.91700 3.19300 40.76200
H  -0.19000 4.08500 42.03000
H  -4.70100 -0.34900 42.26700
H  -3.79400 -0.49400 43.89100
H  -3.07000 -1.10200 42.47700
H  -1.22400 -4.26400 45.01500
H  0.47400 -4.07200 47.44500
H  -1.72200 -3.65600 47.67500
H  -2.78100 -3.85100 46.36100
H  -2.30800 -2.18300 46.79500
H  0.90500 -5.98800 45.02500
H  -0.44600 -6.01700 45.92400
H  2.05700 -7.24900 46.93300
H  0.46000 -7.27200 47.58700
H  1.43100 -5.93700 48.09800
H  5.46300 -5.26400 46.42100
H  6.46000 -4.22200 47.52100
H  6.97200 -4.78700 45.96400
H  7.88900 -0.53700 42.84000
H  10.11200 2.59500 44.91500
H  8.44300 3.13200 44.98400
H  9.44600 3.55300 43.59000

