79

Mg 1.63200 8.42200 26.42700
C  1.74900 10.54100 29.08900
C  1.33600 5.69700 28.55600
C  2.06300 6.52200 23.79200
C  1.64500 11.42600 24.27800
N  1.49900 8.17000 28.57400
C  1.43900 9.17900 29.47100
C  1.29100 8.66400 30.93500
C  1.51800 7.11700 30.74200
C  1.45700 6.94500 29.21900
C  2.80500 6.51900 31.36700
C  -0.04800 9.12200 31.58300
C  -0.31100 8.62900 33.06300
H  0.87300 8.27900 33.97000
N  1.63400 6.48500 26.13600
C  1.43900 5.45700 27.17800
C  1.52900 4.14700 26.54600
C  1.87700 4.36400 25.23400
C  1.89400 5.84100 24.96700
C  1.16100 2.88700 27.32100
C  2.14900 3.38800 24.15900
O  2.50200 3.65200 23.00800
C  2.20100 1.86800 24.53200
N  1.86600 8.93700 24.37500
C  1.95000 7.90000 23.46500
C  2.01700 8.48700 22.02900
C  1.68200 9.95600 22.19400
C  1.71700 10.17700 23.71600
C  3.31400 8.16600 21.24000
C  0.32800 10.48900 21.64200
C  -0.84300 9.69700 22.19200
N  1.72800 10.55400 26.63100
C  1.80400 11.59300 25.64000
C  2.07700 12.79700 26.35900
C  2.09300 12.44900 27.75600
C  1.87900 11.07800 27.84000
C  2.26900 14.22300 25.86700
C  2.24900 12.93200 29.09400
O  2.51200 14.07700 29.52700
C  1.86800 11.77900 30.04000
C  2.89700 11.72900 31.15500
O  4.07000 11.31400 31.10500
O  2.31700 12.22400 32.26200
C  3.20100 12.16200 33.39600
H  1.25900 4.85700 29.24900
H  2.12000 5.97100 22.85100
H  1.55300 12.34100 23.68900
H  2.02600 9.04500 31.64400
H  0.69500 6.50500 31.11100
H  2.67900 5.48800 31.69800
H  3.07100 7.22700 32.15200
H  3.64900 6.49400 30.67800
H  -0.85300 8.85600 30.89900
H  0.01600 10.20800 31.65400
H  -0.97600 7.76800 32.98400
H  -0.99400 9.37500 33.46900
H  0.90500 3.07100 28.36500
H  1.90500 2.09100 27.33200
H  0.37200 2.32100 26.82600
H  1.26100 1.56200 24.99200
H  2.99700 1.72800 25.26300
H  2.58100 1.25900 23.71100
H  1.27400 7.84000 21.56200
H  2.43900 10.54000 21.67100
H  4.02700 8.98800 21.31100
H  3.01600 7.97700 20.20900
H  3.77000 7.22500 21.54700
H  0.40600 10.54200 20.55600
H  0.17300 11.53700 21.89600
H  -1.23400 10.06200 23.14100
H  -0.75100 8.61300 22.25300
H  -1.75800 9.85800 21.62100
H  1.67900 14.27400 24.95200
H  3.28600 14.45500 25.55300
H  1.94000 15.01600 26.53800
H  0.98300 12.09400 30.59400
H  4.05700 12.80600 33.19200
H  3.53500 11.14300 33.59600
H  2.70800 12.61000 34.25800

