79

Mg 44.34300 5.88300 48.05200
C  42.40400 8.75900 47.31500
C  41.63900 3.91100 47.09300
C  46.33600 3.14200 48.18200
C  47.14600 8.02100 48.22300
N  42.30800 6.31000 47.22100
C  41.68300 7.52900 47.12600
C  40.22800 7.37500 46.93100
C  39.96900 5.84000 46.73500
C  41.40500 5.27100 47.08200
C  38.87600 5.24400 47.62900
C  39.69800 8.23900 45.76700
C  40.52200 8.23600 44.47400
H  39.82800 7.95900 43.13500
N  44.00800 3.79500 47.77000
C  42.82700 3.19000 47.39700
C  42.99700 1.76300 47.49500
C  44.38200 1.50900 47.71800
C  44.96700 2.85600 47.93500
C  41.87400 0.84500 47.49600
C  45.04000 0.07400 47.77800
O  44.31800 -0.90400 47.56500
C  46.49300 -0.14000 48.05300
N  46.41700 5.63300 48.00200
C  46.96100 4.37700 48.18400
C  48.50300 4.42000 48.44100
C  48.77700 5.98000 48.34200
C  47.35000 6.57900 48.24100
C  48.89400 3.62800 49.76000
C  49.66800 6.28200 47.05900
C  51.17400 6.28000 47.31000
N  44.76500 8.04400 47.82600
C  45.93100 8.76100 47.91200
C  45.59200 10.18400 47.82700
C  44.27600 10.25100 47.51500
C  43.80600 8.90900 47.54700
C  46.55300 11.40900 48.07600
C  43.06500 11.11600 47.35700
O  42.90100 12.32700 47.40200
C  41.80400 10.12300 47.28000
C  40.79500 10.50600 48.28800
O  40.34000 9.78600 49.16900
O  40.17000 11.69400 47.93100
C  38.86500 12.10200 48.55700
H  40.82400 3.23900 46.81300
H  46.98000 2.26500 48.28600
H  48.01900 8.67600 48.27200
H  39.69300 7.68300 47.83000
H  39.68200 5.62900 45.70500
H  38.11400 6.02300 47.65000
H  39.28000 5.00800 48.61400
H  38.42500 4.42800 47.06500
H  39.42200 9.25700 46.04200
H  38.75700 7.74500 45.52500
H  41.18200 7.38600 44.64800
H  41.01100 9.21000 44.44100
H  41.82500 0.17800 46.63600
H  40.92400 1.38100 47.49900
H  41.93400 0.29200 48.43300
H  47.07600 0.39100 47.30100
H  46.60000 -1.21400 47.90100
H  46.75000 0.25200 49.03700
H  48.93500 3.86300 47.60900
H  49.30100 6.29900 49.24300
H  48.41700 2.64900 49.73200
H  48.52700 4.20000 50.61200
H  49.96400 3.43300 49.83200
H  49.42900 7.29100 46.72200
H  49.41100 5.57700 46.26900
H  51.75200 5.93000 46.45400
H  51.43500 5.69200 48.19100
H  51.54500 7.27700 47.54700
H  46.34100 12.15600 47.31200
H  47.61600 11.17800 47.99900
H  46.46400 11.83200 49.07700
H  41.28100 10.42100 46.37100
H  37.94800 11.74500 48.08900
H  38.68500 13.17500 48.62000
H  38.84900 11.66600 49.55600

