79

Mg 47.92700 34.32200 27.06700
C  46.21700 33.07100 29.93200
C  48.26100 37.31100 28.75400
C  49.04100 35.72400 24.20900
C  47.04000 31.51500 25.33300
N  47.35000 34.98100 29.11200
C  46.67200 34.31700 30.10600
C  46.92500 35.00100 31.47400
C  47.15100 36.51200 30.99600
C  47.59600 36.34200 29.51900
C  45.97900 37.55200 31.00600
C  48.11100 34.43100 32.34400
C  47.73900 34.38500 33.84900
H  46.56100 35.22100 34.37000
N  48.61100 36.26100 26.59600
C  48.70500 37.35200 27.40200
C  49.32900 38.43100 26.77300
C  49.60100 38.00200 25.40100
C  49.10200 36.55900 25.36300
C  49.71000 39.80000 27.39400
C  50.37800 38.71100 24.23900
O  50.64000 38.13700 23.15300
C  50.85800 40.03600 24.40100
N  47.96800 33.79600 25.05700
C  48.55200 34.50600 24.10200
C  48.45300 33.73600 22.73700
C  47.90600 32.29300 23.09100
C  47.68600 32.52800 24.60700
C  47.52000 34.51100 21.74500
C  48.87000 31.02900 22.92400
C  50.40600 31.26700 23.06700
N  46.93500 32.59200 27.50500
C  46.62100 31.54000 26.64000
C  45.71400 30.63400 27.39700
C  45.52500 31.19700 28.65300
C  46.27100 32.39500 28.64300
C  45.30100 29.34300 26.82500
C  44.85800 31.06300 29.93800
O  44.06600 30.19300 30.35700
C  45.31200 32.25200 30.81800
C  45.97000 31.72700 32.05900
O  47.07500 31.28400 32.13500
O  45.04000 31.56200 33.02400
C  45.33700 30.51800 34.01200
H  48.42200 38.21700 29.34200
H  49.37100 36.27400 23.32600
H  46.72200 30.65700 24.73700
H  45.98700 34.91500 32.02100
H  47.92900 36.98900 31.59200
H  46.09900 38.20600 30.14200
H  45.99800 38.13500 31.92700
H  44.99700 37.08500 30.93800
H  48.97500 35.08000 32.20100
H  48.42900 33.49900 31.87700
H  48.58000 34.84400 34.36800
H  47.53000 33.41200 34.29400
H  49.36600 40.64800 26.80200
H  50.79600 39.71400 27.36200
H  49.30400 39.86300 28.40400
H  49.97000 40.65200 24.53900
H  51.42500 40.20000 23.48400
H  51.52200 39.99400 25.26500
H  49.45200 33.66300 22.30800
H  46.93100 32.15400 22.62300
H  46.49000 34.20900 21.92900
H  47.89500 34.21000 20.76600
H  47.76500 35.53200 22.03700
H  48.72700 30.62900 21.92100
H  48.55600 30.21500 23.57700
H  50.84200 31.21800 22.06900
H  50.86500 30.47800 23.66300
H  50.47000 32.22400 23.58400
H  44.21400 29.41500 26.87500
H  45.36100 28.53300 27.55100
H  45.66000 29.06900 25.83300
H  44.60600 32.93000 31.29800
H  45.34900 29.55200 33.50900
H  44.44100 30.62400 34.62400
H  46.30800 30.80100 34.41900

