79

Mg 0.57400 43.47200 26.04400
C  2.87100 43.70300 28.66100
C  -1.94500 43.41000 28.16300
C  -1.42400 42.93500 23.35400
C  3.33000 43.39800 23.81200
N  0.48300 43.48600 28.20000
C  1.49700 43.78600 29.07600
C  0.94700 43.89800 30.48400
C  -0.64100 43.74300 30.27800
C  -0.71600 43.45600 28.78000
C  -1.23300 42.45700 30.95900
C  1.34300 45.20600 31.26800
C  1.62600 45.06300 32.75900
H  0.96500 43.84600 33.37100
N  -1.38800 43.25800 25.85600
C  -2.30500 43.22400 26.82900
C  -3.61400 42.90400 26.33800
C  -3.55100 42.80700 24.93500
C  -2.04300 43.00400 24.63800
C  -4.91200 42.91600 27.22900
C  -4.61600 42.39400 23.85300
O  -4.43300 42.33400 22.62500
C  -6.01600 41.93900 24.32900
N  0.92400 43.36500 23.87700
C  -0.14300 43.17300 22.99200
C  0.37300 43.07900 21.57600
C  1.89300 43.35700 21.70100
C  2.09600 43.43200 23.22200
C  0.05400 41.77900 20.83200
C  2.40400 44.62100 21.03700
C  3.64300 44.49200 20.19600
N  2.72900 43.53000 26.11100
C  3.69700 43.51500 25.13900
C  4.99100 43.47300 25.78400
C  4.71400 43.62300 27.15600
C  3.30600 43.58400 27.31600
C  6.28000 43.50400 25.14800
C  5.35000 43.78900 28.45000
O  6.48200 43.87800 28.85800
C  4.12900 43.71100 29.46900
C  4.35900 42.66700 30.45800
O  4.37800 41.44100 30.31800
O  4.66100 43.24700 31.67300
C  4.91600 42.29300 32.72100
H  -2.76000 43.71000 28.82400
H  -2.15800 42.87100 22.54800
H  4.17600 43.24300 23.13900
H  1.46000 43.09100 31.00800
H  -1.15700 44.66000 30.56300
H  -0.44100 41.78900 31.29800
H  -1.91600 41.81900 30.39800
H  -1.73500 42.76400 31.87700
H  0.53000 45.92900 31.19800
H  2.15100 45.67800 30.70800
H  1.28500 45.98200 33.23600
H  2.66900 44.89800 33.02700
H  -5.71700 43.52700 26.82200
H  -4.76200 43.35800 28.21400
H  -5.23000 41.88300 27.37200
H  -5.88300 41.33400 25.22500
H  -6.58100 41.44100 23.54000
H  -6.47800 42.87500 24.64200
H  -0.13500 43.93800 21.13700
H  2.48800 42.48800 21.42200
H  -0.81100 42.03800 20.22100
H  -0.41500 41.02800 21.46700
H  0.85700 41.40500 20.19600
H  2.68600 45.34900 21.79800
H  1.60700 45.05100 20.43000
H  3.80000 43.46400 19.86900
H  4.50500 44.60100 20.85400
H  3.73600 45.26300 19.43200
H  6.59100 44.47300 24.75800
H  6.15400 42.79700 24.32800
H  7.07600 43.20800 25.83200
H  4.07900 44.68200 29.96100
H  5.43200 42.86200 33.49400
H  5.47200 41.37600 32.52700
H  3.98400 41.81200 33.01700

