79

Mg 2.17100 -1.98800 43.79100
C  5.55400 -0.89900 43.55900
C  1.25100 0.93900 42.29300
C  -0.86900 -3.12200 43.95800
C  3.44500 -5.00200 45.25500
N  3.31400 -0.18400 42.93500
C  4.65500 0.02000 42.93700
C  4.96900 1.31800 42.18100
C  3.59500 2.08100 42.09600
C  2.66300 0.85800 42.36600
C  3.33400 3.33200 43.03400
C  5.52700 1.12500 40.74500
C  6.80600 1.90300 40.55000
H  7.01900 2.56200 39.19900
N  0.49300 -1.27800 43.08200
C  0.24600 -0.04300 42.57400
C  -1.17100 0.09800 42.15700
C  -1.81900 -1.09700 42.63900
C  -0.73700 -1.89400 43.24200
C  -1.77300 1.29100 41.46400
C  -3.29600 -1.47000 42.45200
O  -4.07300 -0.64400 41.98400
C  -3.88600 -2.83900 42.79900
N  1.38100 -3.95500 44.37400
C  0.09700 -3.98500 44.56700
C  -0.29800 -5.29500 45.24000
C  1.08900 -6.00800 45.55800
C  2.03500 -4.91500 45.12900
C  -1.18100 -5.20100 46.42800
C  1.46900 -7.43000 44.96600
C  1.87200 -8.52700 46.03500
N  4.09300 -2.88600 44.25800
C  4.43600 -4.08900 44.78500
C  5.91200 -4.23600 44.78100
C  6.38100 -2.98600 44.40200
C  5.24500 -2.17100 44.05600
C  6.60700 -5.47500 45.22500
C  7.55600 -2.14800 44.21700
O  8.71800 -2.34700 44.45000
C  7.04300 -0.76600 43.64800
C  7.28000 0.21500 44.66700
O  6.98100 0.23400 45.84500
O  8.13500 1.10100 44.13000
C  8.43000 2.29900 44.86400
H  0.98100 1.94900 41.97500
H  -1.88900 -3.49500 44.07100
H  3.83800 -5.93900 45.65300
H  5.61800 1.88400 42.85000
H  3.25700 2.31300 41.08700
H  4.14400 3.47900 43.74800
H  2.45900 3.12000 43.64700
H  3.17900 4.16200 42.34400
H  4.75000 1.40700 40.03400
H  5.77800 0.07300 40.60500
H  7.59400 1.16900 40.71800
H  6.94600 2.63600 41.34400
H  -1.94400 1.97700 42.29400
H  -2.71300 1.20500 40.92000
H  -0.97000 1.81700 40.94800
H  -4.81100 -2.97200 42.23700
H  -4.08500 -2.84100 43.87100
H  -3.29200 -3.60500 42.30100
H  -0.86700 -5.92900 44.56000
H  1.14600 -6.06300 46.64500
H  -2.22900 -5.21000 46.12800
H  -0.98300 -4.25400 46.93000
H  -1.14400 -6.03100 47.13300
H  2.24300 -7.41600 44.19900
H  0.59600 -7.80200 44.43000
H  2.92700 -8.78700 45.94900
H  1.33900 -9.46200 45.85900
H  1.65200 -8.13600 47.02900
H  7.54900 -5.75100 44.75200
H  5.95100 -6.34100 45.14000
H  6.91200 -5.35000 46.26400
H  7.53300 -0.64400 42.68200
H  7.56200 2.75600 45.33900
H  8.81000 3.03200 44.15300
H  9.18000 2.00100 45.59700

