79

Mg -1.15000 17.60200 27.99700
C  -1.77300 15.29300 30.48600
C  -1.47800 20.11900 30.41500
C  -1.00000 19.80400 25.53700
C  -1.37400 15.00400 25.58700
N  -1.39800 17.71300 30.27600
C  -1.68900 16.56100 31.04700
C  -1.83200 16.99000 32.51800
C  -2.06900 18.53300 32.44000
C  -1.60700 18.87000 30.98100
C  -3.42000 19.12200 32.66800
C  -0.63500 16.62300 33.46500
C  -0.49200 17.45700 34.75300
H  0.12800 16.82100 36.00700
N  -1.10000 19.65500 27.96200
C  -1.25500 20.50600 29.05100
C  -1.04900 21.87900 28.58400
C  -0.80300 21.78500 27.19100
C  -0.92600 20.36800 26.79100
C  -1.18200 23.15600 29.43400
C  -0.66100 22.90200 26.20400
O  -0.52100 22.69700 25.00300
C  -0.43900 24.26200 26.70800
N  -1.23500 17.38700 25.91600
C  -1.09400 18.49100 25.09400
C  -1.05100 18.15400 23.55400
C  -0.89700 16.62500 23.66000
C  -1.13900 16.27400 25.10800
C  -2.34200 18.47100 22.81400
C  0.47100 16.11000 23.21800
C  1.61600 16.22500 24.20300
N  -1.46000 15.53900 28.02700
C  -1.54000 14.66200 26.92800
C  -1.81000 13.31300 27.45300
C  -1.81300 13.45400 28.81400
C  -1.67800 14.90600 29.12800
C  -1.97700 12.07600 26.52800
C  -1.92100 12.75100 30.14900
O  -2.15400 11.58400 30.40900
C  -2.02100 13.92700 31.19200
C  -0.93300 13.62400 32.18700
O  0.22700 13.79100 32.10700
O  -1.46200 13.02300 33.29600
C  -0.54200 12.61000 34.36000
H  -1.64400 21.00500 31.03200
H  -0.93300 20.36800 24.60400
H  -1.16600 14.37700 24.71700
H  -2.73400 16.45400 32.81200
H  -1.39200 19.10900 33.07200
H  -3.75900 19.55600 31.72700
H  -3.41300 19.95900 33.36700
H  -4.08300 18.37200 33.09800
H  0.26800 16.66000 32.85400
H  -0.87400 15.60400 33.76800
H  -1.46100 17.82400 35.09200
H  0.17100 18.30800 34.59500
H  -0.15500 23.50300 29.55100
H  -1.56500 23.01200 30.44500
H  -1.88500 23.85400 28.97900
H  -1.37000 24.75900 26.97900
H  0.00200 24.83200 25.89000
H  0.30900 24.18400 27.49700
H  -0.18600 18.58100 23.04800
H  -1.61000 16.01300 23.10700
H  -2.95700 17.57900 22.69300
H  -2.18400 18.98200 21.86400
H  -3.04200 19.15700 23.29100
H  0.76600 16.52000 22.25200
H  0.41800 15.03500 23.04500
H  1.83500 15.24500 24.62900
H  1.39500 17.03600 24.89600
H  2.47700 16.51500 23.60000
H  -1.78600 11.18300 27.12400
H  -1.27600 11.94400 25.70400
H  -2.98000 12.02300 26.10400
H  -3.05600 14.00600 31.52700
H  -0.37800 13.50700 34.95800
H  0.38200 12.18500 33.96900
H  -1.01400 11.84500 34.97600

