79

Mg 26.47000 50.40300 26.66900
C  24.48500 51.98700 28.92500
C  28.87900 49.71600 29.12000
C  28.51000 49.31700 24.31300
C  24.20100 51.58300 24.08100
N  26.66300 50.78700 28.71300
C  25.63500 51.33800 29.46300
C  25.86200 51.08500 30.95400
C  27.28700 50.39400 31.05500
C  27.65700 50.29400 29.57100
C  28.37100 51.22400 31.91700
C  24.75400 50.21400 31.68300
C  24.10800 50.72000 32.95800
H  24.82100 51.25800 34.14700
N  28.43100 49.66900 26.70300
C  29.19100 49.44200 27.79200
C  30.43100 48.78700 27.36300
C  30.36800 48.71800 25.94700
C  29.07000 49.28300 25.55700
C  31.54400 48.19500 28.31300
C  31.34300 48.06800 24.94500
O  31.13400 47.92000 23.72500
C  32.61600 47.49600 25.46200
N  26.39100 50.46900 24.46800
C  27.32000 49.81600 23.78300
C  27.14700 50.11400 22.29700
C  25.61400 50.57400 22.19000
C  25.34200 50.92600 23.66900
C  28.12200 51.17600 21.68200
C  24.60700 49.42200 21.76200
C  24.59400 49.02800 20.24400
N  24.69700 51.63300 26.49400
C  23.87200 51.96000 25.39000
C  22.72300 52.66600 25.92200
C  22.92700 52.77900 27.27900
C  24.10700 52.10800 27.61000
C  21.62800 53.29400 25.02100
C  22.36500 53.23600 28.47900
O  21.33500 53.91600 28.72300
C  23.30400 52.65600 29.65600
C  23.73700 53.81000 30.50200
O  24.43900 54.74000 30.12000
O  22.98800 53.77600 31.71600
C  23.11500 55.06000 32.47500
H  29.56700 49.32700 29.87300
H  29.05500 48.82300 23.50600
H  23.47200 51.78400 23.29300
H  25.81000 52.03100 31.49300
H  27.20900 49.36000 31.39000
H  29.09800 51.59500 31.19500
H  28.88000 50.61600 32.66500
H  27.85600 51.97600 32.51400
H  25.29100 49.38200 32.13800
H  24.00700 49.80800 31.00000
H  23.53500 49.88100 33.35100
H  23.48200 51.50200 32.52800
H  31.71400 47.12500 28.19200
H  31.25500 48.23600 29.36300
H  32.51400 48.65000 28.11200
H  33.26500 47.18900 24.64200
H  32.39200 46.60100 26.04300
H  33.09900 48.32000 25.98700
H  27.27000 49.25100 21.64200
H  25.71900 51.41000 21.49900
H  28.85300 51.35400 22.47000
H  27.65000 52.14500 21.51900
H  28.58500 50.71500 20.81000
H  23.59600 49.65400 22.09500
H  24.89100 48.50000 22.26900
H  23.60100 49.31700 19.89900
H  24.85100 47.98000 20.09100
H  25.25200 49.59200 19.58400
H  21.26100 52.45300 24.43200
H  22.07700 53.95000 24.27500
H  20.88600 53.87100 25.57400
H  22.72700 51.92600 30.22400
H  23.47500 55.92700 31.92000
H  23.81600 54.77800 33.25900
H  22.21500 55.34300 33.02100

