79

Mg 5.38800 54.10600 40.63900
C  5.64600 50.69900 40.09500
C  8.40800 54.41700 38.80200
C  4.92700 57.51300 40.40900
C  2.18600 53.75200 41.86400
N  6.75600 52.70600 39.52800
C  6.69100 51.33300 39.52400
C  7.74600 50.81000 38.57300
C  8.82000 51.87900 38.85100
C  7.92400 53.08600 38.94200
C  9.76500 51.76900 40.04400
C  7.10200 50.76500 37.17900
C  7.53300 51.80200 36.05300
H  6.38100 52.29500 35.26700
N  6.55700 55.78700 39.79900
C  7.75200 55.67700 39.14200
C  8.24300 57.00700 38.84100
C  7.26500 57.92500 39.44600
C  6.13700 57.11200 39.86600
C  9.57000 57.28100 38.15500
C  7.50100 59.34800 39.63600
O  8.53800 59.82600 39.21700
C  6.62500 60.23300 40.34700
N  3.74200 55.43600 40.85500
C  3.79900 56.74200 40.82100
C  2.56100 57.40000 41.39700
C  1.59200 56.23100 41.55700
C  2.52700 55.02900 41.34800
C  2.94700 58.32300 42.72900
C  0.27100 56.35500 40.77100
C  -0.93300 56.73300 41.62100
N  4.07200 52.62200 40.89000
C  2.90500 52.57100 41.59200
C  2.51600 51.13200 41.85300
C  3.55400 50.37000 41.29900
C  4.44600 51.32300 40.76200
C  1.39800 50.59900 42.68800
C  4.10000 49.05200 41.00300
O  3.70800 47.91500 41.33600
C  5.39500 49.22100 40.22100
C  5.18400 48.52200 38.90100
O  4.25800 48.66100 38.13000
O  6.21600 47.59400 38.66000
C  5.97800 46.61600 37.50900
H  9.43700 54.47800 38.44100
H  4.78400 58.58900 40.53200
H  1.17600 53.65900 42.27000
H  8.12100 49.82000 38.83500
H  9.44700 52.05200 37.97600
H  10.79400 51.58400 39.73700
H  9.37800 50.93500 40.63100
H  9.81700 52.66900 40.65600
H  6.03300 50.73800 37.39000
H  7.37000 49.78000 36.79700
H  8.23600 51.38200 35.33400
H  7.89700 52.68800 36.57300
H  9.50600 56.78600 37.18600
H  10.36600 56.80200 38.72600
H  9.79600 58.32600 37.94400
H  7.16500 61.14900 40.58400
H  6.23800 59.76100 41.25000
H  5.78700 60.37000 39.66300
H  2.17100 58.10000 40.65800
H  1.40100 56.22100 42.63000
H  3.20200 59.29400 42.30600
H  3.83900 58.06600 43.30000
H  2.09200 58.48700 43.38500
H  0.07400 55.53600 40.07900
H  0.31700 57.22700 40.11900
H  -1.71700 56.00600 41.41200
H  -1.27700 57.69800 41.25000
H  -0.77200 56.89400 42.68700
H  0.72300 49.87300 42.23500
H  0.81500 51.48100 42.95400
H  1.80100 50.19900 43.61900
H  6.19300 48.77700 40.81700
H  5.94200 47.19100 36.58300
H  4.98300 46.24200 37.74900
H  6.66800 45.78900 37.33900

