79

Mg 8.02500 2.77300 27.51600
C  9.54600 1.09700 30.25100
C  6.32500 4.51700 29.59100
C  6.30500 3.56300 24.80300
C  9.93100 0.33300 25.43500
N  7.98500 2.71000 29.66600
C  8.71600 2.06700 30.62500
C  8.65900 2.81100 31.99500
C  7.47800 3.77400 31.76300
C  7.23300 3.65800 30.23400
C  6.20800 3.27200 32.56200
C  10.04400 3.52600 32.44300
C  10.75100 3.09300 33.71200
H  10.68000 4.05100 34.92400
N  6.55200 4.04000 27.20900
C  5.87900 4.68600 28.25000
C  4.83500 5.54500 27.68400
C  4.79200 5.19100 26.28100
C  5.95600 4.24500 25.98300
C  3.93200 6.52900 28.62000
C  3.79200 5.69300 25.30000
O  3.78600 5.39800 24.09400
C  2.63200 6.59900 25.82100
N  8.22700 2.11900 25.38200
C  7.32800 2.59800 24.50800
C  7.65600 1.96400 23.11500
C  9.00600 1.26400 23.25000
C  9.06400 1.23700 24.74600
C  6.40400 1.15500 22.70500
C  10.23800 2.06300 22.56100
C  11.41400 1.13800 22.20900
N  9.40900 1.05700 27.72500
C  10.05300 0.20000 26.84200
C  10.78000 -0.81400 27.53000
C  10.70200 -0.45300 28.87800
C  9.82700 0.63400 28.94100
C  11.69000 -1.92300 26.92100
C  11.20500 -0.80700 30.16900
O  11.94300 -1.64000 30.64900
C  10.47900 0.20300 31.15300
C  9.56200 -0.48800 32.12400
O  8.46000 -1.06000 31.89500
O  10.13200 -0.41400 33.39000
C  9.42200 -0.92100 34.66000
H  5.93700 5.34400 30.18900
H  5.71700 3.91900 23.95500
H  10.48200 -0.33800 24.77300
H  8.37200 2.00000 32.66400
H  7.72100 4.77800 32.11200
H  5.40200 2.83500 31.97400
H  5.83700 4.14200 33.10400
H  6.44800 2.61500 33.39900
H  9.77300 4.55400 32.68400
H  10.74500 3.50100 31.60800
H  11.78300 2.80700 33.51200
H  10.15900 2.22300 33.99700
H  4.03600 7.50500 28.14500
H  4.20200 6.60900 29.67300
H  2.90600 6.17100 28.54200
H  1.93200 6.71300 24.99300
H  2.96400 7.47000 26.38500
H  2.09100 5.94600 26.50600
H  7.80100 2.76500 22.38900
H  8.86400 0.22900 22.93800
H  5.66600 1.12400 23.50700
H  6.63700 0.12100 22.45000
H  5.92800 1.59700 21.83000
H  10.49600 2.83600 23.28400
H  9.88700 2.50900 21.63000
H  11.46600 0.98600 21.13000
H  11.33400 0.22200 22.79400
H  12.33400 1.70600 22.34600
H  11.19700 -2.33800 26.04200
H  11.73300 -2.68200 27.70300
H  12.68300 -1.52700 26.70600
H  11.14600 0.80400 31.77200
H  8.68500 -1.68100 34.39800
H  9.06800 0.01000 35.10200
H  10.15400 -1.31700 35.36300

