79

Mg 17.99900 -2.48100 27.14600
C  17.03400 -0.69100 29.91800
C  20.09500 -4.31100 29.23900
C  19.23500 -3.94800 24.35700
C  16.06600 -0.29300 25.16700
N  18.50100 -2.49700 29.32100
C  17.98100 -1.65000 30.20100
C  18.40600 -2.09000 31.60200
C  19.63400 -3.07900 31.39400
C  19.46900 -3.29800 29.89400
C  21.06500 -2.54700 31.77600
C  17.21300 -2.72300 32.38300
C  16.89000 -2.15500 33.74900
H  18.15900 -1.77400 34.51500
N  19.52400 -3.95400 26.89400
C  20.25000 -4.53900 27.86800
C  21.04400 -5.60000 27.22800
C  20.86500 -5.51200 25.79300
C  19.87400 -4.40800 25.61600
C  21.76000 -6.70800 28.02700
C  21.41000 -6.38500 24.58000
O  21.31400 -6.10300 23.39400
C  22.15000 -7.57600 24.95900
N  17.67600 -2.22700 25.08200
C  18.24900 -3.02700 24.13600
C  17.96200 -2.54900 22.67500
C  16.80100 -1.46500 22.99200
C  16.86100 -1.27700 24.48900
C  19.24900 -1.98000 21.97600
C  15.39300 -1.98800 22.44200
C  14.92500 -1.36900 21.08400
N  16.83800 -0.87400 27.45700
C  16.15200 -0.11200 26.55800
C  15.22500 0.75700 27.27700
C  15.59300 0.60000 28.60000
C  16.52500 -0.41200 28.65600
C  14.12300 1.74100 26.68400
C  15.25100 0.97300 29.96400
O  14.38900 1.71500 30.41500
C  16.23500 0.14200 30.88900
C  16.98800 1.15800 31.58500
O  18.02700 1.62300 31.22200
O  16.31100 1.49800 32.77700
C  17.10300 2.42700 33.59500
H  20.71600 -4.92100 29.89900
H  19.59300 -4.47700 23.47100
H  15.36500 0.30800 24.58600
H  18.80500 -1.19900 32.08800
H  19.44900 -4.00500 31.93800
H  21.05100 -1.45900 31.84100
H  21.68400 -2.81000 30.91900
H  21.51900 -2.84100 32.72200
H  17.34100 -3.80400 32.43700
H  16.41800 -2.76600 31.63800
H  16.24500 -2.86800 34.26200
H  16.36800 -1.21900 33.54800
H  21.84800 -7.66100 27.50600
H  21.25000 -6.84900 28.98000
H  22.74000 -6.26800 28.21200
H  22.24500 -8.11200 24.01500
H  21.41600 -8.15100 25.52300
H  23.05900 -7.24900 25.46500
H  17.48900 -3.35400 22.11200
H  16.97000 -0.45900 22.60800
H  19.18900 -0.89400 22.03900
H  19.20400 -2.14500 20.89900
H  20.25500 -2.25800 22.29100
H  14.65700 -1.78300 23.21900
H  15.49800 -3.04600 22.20300
H  15.74300 -0.80100 20.64000
H  14.06700 -0.70300 21.17600
H  14.54900 -2.17100 20.44900
H  13.77500 1.50900 25.67700
H  14.59600 2.72300 26.68800
H  13.32200 1.81700 27.41900
H  15.55500 -0.37200 31.56800
H  16.75500 3.41900 33.30700
H  18.18400 2.28800 33.59700
H  16.87200 2.21600 34.64000

