79

Mg 46.90500 16.71200 28.50100
C  44.63600 16.42800 31.22000
C  49.14700 18.35100 30.56100
C  48.42300 17.71500 25.81100
C  44.32700 15.20800 26.47700
N  46.82600 17.46000 30.63200
C  45.84600 17.12100 31.53400
C  46.28100 17.55600 32.97200
C  47.61600 18.36700 32.70500
C  47.92900 18.04900 31.24300
C  47.53900 19.83500 32.94800
C  46.47600 16.41600 33.90800
C  45.94800 16.61200 35.35900
H  45.51100 17.97800 35.83200
N  48.65000 17.74000 28.22200
C  49.42300 18.30200 29.15700
C  50.61300 18.82100 28.55400
C  50.36900 18.79800 27.15400
C  49.04700 18.11800 26.98700
C  51.76300 19.31800 29.34000
C  51.19600 19.32000 26.08600
O  50.78200 19.40200 24.94800
C  52.66800 19.63400 26.36200
N  46.45000 16.44500 26.47000
C  47.22800 16.99600 25.49300
C  46.77700 16.69400 24.09300
C  45.74100 15.58500 24.35100
C  45.44400 15.70700 25.83800
C  46.14900 17.96700 23.47500
C  46.29500 14.11700 24.13600
C  45.85500 13.53200 22.81000
N  44.87500 15.95300 28.72300
C  44.00700 15.42600 27.79500
C  42.86200 14.87000 28.50800
C  43.11200 15.21800 29.86400
C  44.28200 15.93600 29.90400
C  41.69800 14.08000 27.97600
C  42.48100 15.09100 31.18000
O  41.50400 14.49900 31.53600
C  43.48000 15.96000 32.19900
C  42.60100 17.02500 32.81300
O  42.25200 18.12600 32.31200
O  42.19400 16.58900 34.05300
C  41.18800 17.37000 34.78500
H  49.84000 18.79000 31.28200
H  48.85500 17.83000 24.81400
H  43.72900 14.66000 25.74500
H  45.46800 18.24100 33.21000
H  48.38200 18.05300 33.41500
H  47.30500 20.32500 32.00200
H  48.55100 20.16300 33.18500
H  46.79400 20.12900 33.68700
H  47.52500 16.12300 33.87000
H  45.86000 15.56500 33.61500
H  46.70500 16.34700 36.09700
H  45.17400 15.84900 35.44700
H  52.64400 18.68100 29.26000
H  51.63400 19.54700 30.39800
H  52.19600 20.27100 29.03800
H  53.19400 18.81200 26.84700
H  52.86200 20.55000 26.92000
H  53.13700 19.62500 25.37800
H  47.49500 16.30300 23.37300
H  44.82500 15.76600 23.78800
H  46.61900 18.18400 22.51600
H  46.41000 18.81800 24.10300
H  45.06700 17.85000 23.41400
H  45.90500 13.47600 24.92600
H  47.37500 14.09900 24.28500
H  45.58000 14.20900 22.00100
H  45.04200 12.87100 23.11000
H  46.58800 12.79600 22.48000
H  41.93900 14.10800 26.91300
H  40.71400 14.48200 28.22000
H  41.81300 13.04600 28.30200
H  43.87700 15.23600 32.91000
H  41.79800 18.09600 35.32300
H  40.73300 16.68600 35.50100
H  40.34700 17.75400 34.20700

