79

Mg 47.14400 34.59900 27.19300
C  45.54000 32.84100 29.87000
C  47.75300 37.09000 29.27600
C  47.87100 36.45500 24.52300
C  46.23500 31.84200 25.03300
N  46.71200 34.85300 29.35400
C  46.19800 34.01100 30.31900
C  46.51600 34.53100 31.72000
C  46.88100 36.04600 31.46500
C  47.12200 36.01400 29.92900
C  45.80700 37.05700 31.91700
C  47.67000 33.73000 32.40300
C  47.81700 33.90600 34.00300
H  46.82700 34.91000 34.63100
N  47.75200 36.56400 26.93700
C  48.04600 37.39700 27.94500
C  48.57600 38.60100 27.45800
C  48.67100 38.47200 26.04100
C  48.10800 37.13900 25.74700
C  48.83300 39.87600 28.31100
C  49.25300 39.43600 25.01700
O  49.33300 39.12800 23.83800
C  49.97800 40.76600 25.36200
N  47.10800 34.10400 25.13300
C  47.40200 35.12700 24.22800
C  47.18400 34.67700 22.85300
C  47.05100 33.18600 22.98000
C  46.70800 33.01600 24.47900
C  45.91000 35.30700 22.28500
C  48.36800 32.35900 22.72200
C  48.32700 30.97400 22.02900
N  46.16300 32.64000 27.36400
C  45.84700 31.69000 26.42300
C  45.21600 30.55000 27.03800
C  45.00800 31.00900 28.41100
C  45.61600 32.27800 28.53800
C  44.79100 29.29600 26.40200
C  44.49200 30.62100 29.67600
O  43.86800 29.62300 29.96000
C  44.68800 31.89700 30.60900
C  45.00100 31.55600 31.98300
O  45.89700 30.75500 32.34900
O  44.00500 32.16000 32.76900
C  44.16400 31.86600 34.22200
H  48.08400 37.84200 29.99600
H  48.10300 37.10000 23.67300
H  45.85400 31.00900 24.43800
H  45.56700 34.40100 32.24100
H  47.79500 36.40500 31.93800
H  44.82900 36.62700 32.13400
H  45.58300 37.69500 31.06100
H  46.18500 37.71000 32.70300
H  48.61100 33.96400 31.90600
H  47.60900 32.67900 32.12200
H  48.82800 34.13500 34.34100
H  47.42400 32.95000 34.34900
H  49.89100 39.97400 28.55000
H  48.36100 39.82900 29.29200
H  48.56400 40.82900 27.85400
H  49.38300 41.56600 25.80200
H  50.44200 41.08100 24.42700
H  50.83300 40.51500 25.99000
H  48.06800 34.89600 22.25300
H  46.19300 32.72600 22.49000
H  45.03600 34.65900 22.35900
H  46.12400 35.55500 21.24600
H  45.75200 36.21600 22.86600
H  48.92700 32.16000 23.63700
H  49.02900 32.88800 22.03600
H  48.88900 30.23600 22.60200
H  48.73200 31.07100 21.02200
H  47.27800 30.69400 21.92600
H  44.82900 29.34500 25.31300
H  43.73700 29.16900 26.64700
H  45.49700 28.59400 26.84700
H  43.66700 32.27800 30.58000
H  44.19300 30.80200 34.45900
H  43.26000 32.16400 34.75400
H  45.08400 32.15200 34.73100

