79

Mg 41.17500 40.78500 26.19700
C  40.40700 43.02500 28.77500
C  42.46100 38.64800 28.48700
C  42.07800 38.67000 23.62000
C  40.32600 43.18300 23.91000
N  41.52300 40.89500 28.41000
C  41.00500 41.82200 29.28200
C  41.22900 41.33800 30.72000
C  41.87500 39.93000 30.56300
C  41.99600 39.79800 29.03500
C  43.24100 39.66200 31.19900
C  39.79500 41.27300 31.40600
C  39.91000 40.73200 32.91600
H  39.46100 41.63900 34.02400
N  42.06100 38.89900 26.06500
C  42.52900 38.19600 27.11200
C  43.07200 36.92400 26.69500
C  42.89600 36.88600 25.24000
C  42.31900 38.22900 24.88800
C  43.82500 35.96000 27.62500
C  43.17400 35.72900 24.27800
O  43.26300 35.89400 23.04000
C  43.54100 34.36500 24.74700
N  41.21700 40.84800 24.04600
C  41.47100 39.85200 23.20400
C  41.41500 40.30900 21.75900
C  40.65500 41.67100 21.89700
C  40.77100 41.94900 23.39000
C  42.80800 40.45100 21.05700
C  39.27000 41.59700 21.47800
C  38.38000 40.46600 22.13300
N  40.42500 42.62200 26.23600
C  40.28100 43.55800 25.27500
C  39.98900 44.85100 25.82900
C  39.98300 44.69900 27.21700
C  40.27700 43.33000 27.41100
C  39.72200 46.12200 25.02000
C  39.73700 45.30800 28.54100
O  39.47800 46.43900 28.81300
C  39.90200 44.22400 29.58900
C  40.86800 44.65900 30.69700
O  42.04300 44.42800 30.65600
O  40.19800 45.27600 31.80500
C  41.02900 45.67100 32.96500
H  42.74700 37.87300 29.20200
H  42.25200 38.04800 22.74000
H  40.04700 43.97300 23.20900
H  41.82000 42.06400 31.27900
H  41.17300 39.16600 30.89700
H  43.28500 40.24300 32.12000
H  44.10000 39.97100 30.60300
H  43.40400 38.62000 31.47100
H  38.99300 40.72700 30.90900
H  39.37500 42.27800 31.40100
H  40.97100 40.49200 32.97100
H  39.30500 39.82600 32.95900
H  44.76900 35.84900 27.09100
H  43.38400 34.97000 27.74500
H  43.98200 36.32200 28.64100
H  43.32900 33.78900 23.84700
H  43.00900 34.00400 25.62700
H  44.60200 34.29000 24.98600
H  40.72700 39.64100 21.24200
H  41.16200 42.54400 21.48700
H  43.54800 40.24200 21.83000
H  42.92300 41.43500 20.60200
H  42.91500 39.57900 20.41200
H  39.13500 41.50200 20.40100
H  38.81000 42.55700 21.71000
H  38.92700 39.69500 22.67500
H  37.75200 39.98800 21.38100
H  37.72300 40.92100 22.87400
H  38.64600 46.28400 25.08000
H  40.00700 46.06300 23.97000
H  40.26200 46.96000 25.46000
H  38.91800 44.08700 30.03600
H  42.06100 45.98700 32.81300
H  40.95700 44.83900 33.66600
H  40.60800 46.52500 33.49600

