79

Mg 16.43300 -1.36000 28.53800
C  15.76400 0.93600 31.08300
C  18.39800 -3.12600 30.51900
C  17.50400 -3.02900 25.79300
C  14.94600 1.10600 26.25700
N  16.86800 -1.16200 30.55100
C  16.57000 -0.10000 31.46200
C  17.04600 -0.43600 32.86600
C  18.18000 -1.49900 32.55500
C  17.78200 -1.99700 31.12500
C  19.71500 -1.04800 32.63800
C  15.94400 -0.99900 33.81200
C  15.68800 -0.34200 35.14300
H  16.92700 0.35600 35.82800
N  17.61900 -2.99900 28.26200
C  18.28800 -3.67300 29.22400
C  18.89200 -4.90100 28.68000
C  18.72100 -4.79000 27.27800
C  17.87700 -3.56300 27.00800
C  19.80600 -5.77300 29.52500
C  19.37500 -5.64800 26.18200
O  19.26900 -5.47500 24.98600
C  20.20700 -6.81100 26.56700
N  16.15000 -1.11600 26.42000
C  16.81400 -1.84000 25.50900
C  16.54400 -1.35300 24.06900
C  15.46400 -0.26200 24.22500
C  15.48300 -0.05200 25.73700
C  17.82700 -0.84800 23.38000
C  14.13400 -0.65900 23.55200
C  13.50600 0.55900 22.79600
N  15.27900 0.53700 28.58200
C  14.80700 1.43300 27.68900
C  14.08700 2.42200 28.32900
C  14.44400 2.29300 29.66400
C  15.23900 1.11500 29.79000
C  13.18300 3.44500 27.58700
C  14.17000 2.82200 30.96000
O  13.46900 3.74800 31.31700
C  15.14200 2.05700 31.90300
C  16.14100 3.10300 32.37000
O  17.31100 3.16100 32.03200
O  15.52000 3.96500 33.32800
C  16.34100 5.04200 33.86400
H  19.00900 -3.67700 31.23700
H  17.83900 -3.59300 24.92000
H  14.53000 1.80900 25.53200
H  17.43800 0.53400 33.17100
H  18.01000 -2.30000 33.27400
H  19.97700 -0.90200 31.59000
H  20.24300 -1.82000 33.19800
H  19.79500 -0.01700 32.98300
H  16.01500 -2.07000 34.00300
H  15.09100 -0.81600 33.15900
H  15.09300 -0.96900 35.80700
H  15.02300 0.47600 34.86700
H  19.67300 -5.57800 30.59000
H  20.83000 -5.55800 29.22000
H  19.63400 -6.79600 29.19300
H  20.75000 -7.10300 25.66800
H  19.56200 -7.60400 26.94400
H  20.99400 -6.44700 27.22800
H  16.20900 -2.18600 23.45200
H  15.74100 0.68900 23.77100
H  17.84600 0.22100 23.16700
H  18.01100 -1.39300 22.45400
H  18.66400 -1.10700 24.02900
H  13.49800 -0.80500 24.42500
H  14.23700 -1.52600 22.89900
H  14.15700 1.31700 22.36000
H  12.84500 1.01600 23.53200
H  12.90600 0.21000 21.95600
H  13.36000 4.47800 27.88500
H  12.20100 3.26200 28.02400
H  13.23400 3.27100 26.51300
H  14.58200 1.72300 32.77600
H  16.46500 5.81500 33.10600
H  17.32400 4.62400 34.08400
H  16.05900 5.36200 34.86700

