79

Mg -10.57400 38.75900 40.82900
C  -9.55200 35.51700 39.96600
C  -7.66800 39.98400 39.47500
C  -11.90400 41.83900 40.50200
C  -13.66500 37.42100 41.76600
N  -8.77800 37.78100 39.89900
C  -8.55100 36.44100 39.72100
C  -7.16100 36.21600 39.17400
C  -6.55300 37.68400 39.11100
C  -7.67200 38.55800 39.59500
C  -5.30900 37.91300 39.99300
C  -7.17100 35.35200 37.89400
C  -6.75700 36.01100 36.56400
H  -7.90700 36.79100 35.77600
N  -9.80100 40.70600 40.20200
C  -8.57700 40.96700 39.72600
C  -8.36600 42.41000 39.51400
C  -9.58900 42.96700 39.95600
C  -10.59000 41.82800 40.20100
C  -7.12200 42.96300 38.97000
C  -9.83500 44.44700 40.06500
O  -8.93600 45.19100 39.73500
C  -11.12500 45.02800 40.49900
N  -12.52400 39.50300 41.01800
C  -12.86100 40.84800 40.89000
C  -14.39300 41.07000 41.12000
C  -14.84300 39.63900 41.59200
C  -13.59400 38.77600 41.41200
C  -15.04000 42.13100 41.96800
C  -16.12700 39.07700 40.86300
C  -15.84800 38.32400 39.61400
N  -11.39600 36.85800 41.15700
C  -12.64700 36.49800 41.50300
C  -12.69300 35.05900 41.57400
C  -11.53500 34.66400 40.89100
C  -10.81700 35.81700 40.62200
C  -13.86500 34.20200 42.14900
C  -10.76300 33.46100 40.46200
O  -11.00600 32.31200 40.38800
C  -9.49200 34.01500 39.77400
C  -8.28500 33.29800 40.28900
O  -7.93500 33.30600 41.46700
O  -7.61400 32.67000 39.30200
C  -6.53600 31.80300 39.72300
H  -6.63700 40.31000 39.32100
H  -12.39900 42.76300 40.19700
H  -14.61100 37.02200 42.13900
H  -6.68600 35.71400 40.01700
H  -6.42600 38.07400 38.10100
H  -5.55000 38.75100 40.64800
H  -4.40500 38.10700 39.41500
H  -5.28800 37.06900 40.68300
H  -8.10000 34.82800 37.67100
H  -6.41300 34.57700 38.00900
H  -6.45400 35.21800 35.88100
H  -5.85600 36.60400 36.72400
H  -6.64500 42.34100 38.21300
H  -6.43600 43.03600 39.81500
H  -7.32300 43.92500 38.49800
H  -11.41800 44.65800 41.48200
H  -11.85200 44.97700 39.68800
H  -10.89300 46.09200 40.54800
H  -14.76000 41.19900 40.10100
H  -14.97200 39.63200 42.67400
H  -15.92600 41.81100 42.51700
H  -15.39800 42.99900 41.41400
H  -14.25000 42.34700 42.68800
H  -16.64600 39.98300 40.55300
H  -16.79600 38.53600 41.53300
H  -16.42000 38.79700 38.81600
H  -16.03700 37.25900 39.75100
H  -14.86000 38.37500 39.15800
H  -13.60500 33.81600 43.13500
H  -14.09900 33.37600 41.47800
H  -14.77800 34.79200 42.22400
H  -9.68600 33.66400 38.76000
H  -6.16700 31.99500 40.73000
H  -5.76600 32.03800 38.98900
H  -6.78100 30.74300 39.64600

