79

Mg 55.41600 24.42800 45.35700
C  52.63900 26.38600 44.67400
C  53.62300 21.61400 44.50400
C  58.28500 22.66400 45.40500
C  57.10300 27.41300 46.24100
N  53.39100 24.03300 44.55400
C  52.42100 25.00100 44.41200
C  51.15600 24.35500 43.96100
C  51.32400 22.80400 44.25900
C  52.87100 22.77100 44.45200
C  50.73500 22.25500 45.64600
C  50.56900 24.64400 42.50400
C  49.00700 24.59900 42.29400
H  48.45500 24.12200 40.86800
N  55.97000 22.39800 44.92200
C  55.04600 21.37600 44.68200
C  55.75700 20.21700 44.33500
C  57.14600 20.43900 44.64600
C  57.22200 21.87100 45.01600
C  55.02100 19.06700 43.74400
C  58.17500 19.41300 44.69000
O  57.93100 18.23000 44.37400
C  59.58900 19.76000 45.11000
N  57.35800 24.89600 45.67700
C  58.38200 23.98400 45.73500
C  59.66900 24.65000 46.21800
C  59.31200 26.15700 46.24800
C  57.85700 26.20300 45.96000
C  60.27300 24.09700 47.51600
C  60.14200 27.11400 45.26200
C  61.38700 27.67200 45.82400
N  54.95600 26.48900 45.57500
C  55.71900 27.59000 45.92400
C  54.89400 28.81900 45.94000
C  53.67400 28.36600 45.41900
C  53.79600 26.98500 45.19500
C  55.37100 30.11600 46.52600
C  52.33700 28.82800 45.03700
O  51.74800 29.88200 45.16800
C  51.65100 27.54700 44.45800
C  51.45200 27.75800 43.01400
O  52.28600 27.70300 42.08400
O  50.12600 27.95000 42.78600
C  49.88500 28.92100 41.71000
H  53.04000 20.69900 44.38400
H  59.23000 22.13600 45.55400
H  57.56600 28.36500 46.50700
H  50.40400 24.78100 44.62600
H  50.86100 22.18000 43.49500
H  50.08400 23.04300 46.02700
H  51.47800 22.00300 46.40300
H  50.11600 21.37700 45.46400
H  50.88100 23.75100 41.96300
H  50.83700 25.52400 41.91900
H  48.73700 25.64700 42.42600
H  48.59100 23.98600 43.09400
H  54.47300 18.41400 44.42400
H  55.63000 18.38700 43.14900
H  54.27000 19.44300 43.04900
H  59.95600 20.39500 44.30300
H  60.24000 18.88600 45.07400
H  59.53000 20.16600 46.11900
H  60.30700 24.42800 45.36300
H  59.43300 26.49600 47.27700
H  59.91200 23.06900 47.48000
H  59.89000 24.62100 48.39200
H  61.35400 24.19200 47.41200
H  59.39500 27.84400 44.94900
H  60.47000 26.42800 44.48000
H  61.54400 27.32300 46.84500
H  61.35200 28.76100 45.78200
H  62.28300 27.33700 45.30200
H  56.28000 30.45000 46.02500
H  55.47700 29.91100 47.59100
H  54.57700 30.86300 46.52400
H  50.76000 27.29400 45.03300
H  50.59500 29.74200 41.80100
H  48.90600 29.39900 41.74900
H  49.95300 28.45700 40.72600

