79

Mg -2.16900 17.63300 27.06200
C  -2.39600 15.21700 29.74300
C  -2.72500 20.04400 29.47300
C  -2.46100 19.87400 24.52600
C  -1.99400 14.97800 24.86700
N  -2.76000 17.65500 29.40100
C  -2.63300 16.56600 30.26500
C  -2.71900 16.90200 31.71700
C  -2.73900 18.46900 31.54500
C  -2.79900 18.77800 30.05900
C  -3.82300 19.30800 32.37100
C  -1.59600 16.34600 32.69900
C  -1.18400 17.23800 33.94300
H  -1.01500 16.57200 35.36000
N  -2.38800 19.66300 26.97800
C  -2.54500 20.45700 28.08700
C  -2.49900 21.84500 27.66800
C  -2.39700 21.83600 26.26100
C  -2.44200 20.38100 25.88500
C  -2.40800 23.02900 28.65000
C  -2.36600 23.03500 25.21100
O  -2.22500 22.87400 24.01200
C  -2.06600 24.37600 25.75600
N  -2.22600 17.42400 24.95100
C  -2.26200 18.54300 24.08200
C  -2.12800 18.08600 22.60900
C  -1.74900 16.56200 22.76300
C  -2.00900 16.29400 24.23900
C  -3.44900 18.32900 21.77900
C  -0.30900 16.28500 22.39900
C  0.79000 16.60500 23.40600
N  -2.20900 15.48700 27.18000
C  -2.12200 14.55200 26.16400
C  -2.02900 13.22400 26.72400
C  -2.12200 13.41500 28.10800
C  -2.34400 14.80500 28.34600
C  -1.81800 11.98000 26.00400
C  -2.12000 12.77500 29.34200
O  -1.95100 11.56700 29.61000
C  -2.20400 13.86200 30.45100
C  -0.91800 13.65000 31.16400
O  0.17800 14.02600 30.87000
O  -1.18000 12.98600 32.35800
C  -0.08800 12.71600 33.27400
H  -2.69600 20.82200 30.23900
H  -2.50200 20.54200 23.66300
H  -1.83000 14.12900 24.20000
H  -3.64100 16.50900 32.14500
H  -1.76500 18.82200 31.88300
H  -3.16200 19.99200 32.90300
H  -4.23700 18.63900 33.12500
H  -4.48300 19.79000 31.64800
H  -0.75500 16.15900 32.03100
H  -1.84600 15.35900 33.08900
H  -2.07800 17.86000 33.99700
H  -0.33900 17.89500 33.73700
H  -2.35700 22.64500 29.66800
H  -3.30800 23.64000 28.57300
H  -1.50200 23.56900 28.37400
H  -1.09900 24.47300 26.25000
H  -2.86900 24.68000 26.42700
H  -1.98700 25.02500 24.88300
H  -1.19400 18.50300 22.23300
H  -2.38500 15.99000 22.08800
H  -3.80100 19.31500 22.08200
H  -4.22900 17.57400 21.87400
H  -3.28300 18.41100 20.70500
H  -0.16900 17.00300 21.59100
H  -0.20100 15.29800 21.95000
H  0.41700 16.96400 24.36600
H  1.54400 17.25100 22.95500
H  1.45400 15.77300 23.64000
H  -1.33200 12.30700 25.08500
H  -2.72400 11.41000 25.79800
H  -1.04800 11.46100 26.57600
H  -3.03600 13.60800 31.10700
H  0.72200 12.25900 32.70600
H  -0.56900 12.07400 34.01200
H  0.24000 13.59000 33.83700

