79

Mg -1.45600 33.85000 26.32600
C  -3.46700 32.21100 28.70300
C  -0.27900 35.77800 28.74500
C  0.21000 35.62800 23.93700
C  -2.87600 31.70800 23.86000
N  -1.88700 33.97400 28.45000
C  -2.73400 33.25500 29.29900
C  -2.52700 33.66100 30.76200
C  -1.63500 34.87000 30.66600
C  -1.25400 34.90600 29.20000
C  -2.27100 36.19600 31.08800
C  -1.92900 32.58500 31.64000
C  -2.80200 32.15700 32.83800
H  -2.28700 32.09900 34.24100
N  -0.20900 35.55100 26.32900
C  0.25300 36.07900 27.45100
C  1.19400 37.22300 27.11600
C  1.22200 37.23900 25.66500
C  0.31900 36.10700 25.20800
C  1.79400 38.08200 28.14100
C  2.03300 38.08400 24.80800
O  1.96900 38.13000 23.57300
C  3.16200 38.94600 25.37800
N  -1.41500 33.77600 24.16700
C  -0.48300 34.48300 23.53700
C  -0.56900 34.13400 22.07600
C  -1.54000 32.92500 22.00700
C  -2.02100 32.78800 23.39900
C  -1.05000 35.33100 21.20500
C  -0.96200 31.67600 21.35100
C  0.03000 30.90900 22.15500
N  -2.72100 32.25700 26.29500
C  -3.24100 31.46900 25.21700
C  -4.24900 30.55100 25.70500
C  -4.27900 30.81200 27.06900
C  -3.37500 31.81900 27.38200
C  -5.04500 29.62900 24.89400
C  -5.05200 30.39000 28.26200
O  -5.94600 29.58400 28.38400
C  -4.43000 31.34600 29.39900
C  -5.50600 32.01300 30.13200
O  -5.87500 33.21100 29.86200
O  -5.74900 31.32400 31.27300
C  -6.63500 31.88400 32.39400
H  0.21000 36.38100 29.51300
H  0.82500 36.11000 23.17400
H  -3.35700 31.10600 23.08700
H  -3.51400 33.92500 31.14200
H  -0.70900 34.85900 31.24000
H  -1.69900 36.73900 31.84000
H  -3.34300 36.18700 31.28700
H  -2.28400 36.85600 30.22100
H  -0.92600 32.78700 32.01500
H  -1.86200 31.72400 30.97500
H  -3.08000 31.11000 32.72200
H  -3.71200 32.75700 32.83800
H  2.79100 37.75100 28.43200
H  1.14600 38.13100 29.01600
H  1.85500 39.11800 27.80500
H  3.80800 38.37500 26.04400
H  2.68800 39.77300 25.90800
H  3.73800 39.32800 24.53500
H  0.43000 33.84800 21.74900
H  -2.44700 33.09900 21.42800
H  -0.30400 36.10100 21.00700
H  -1.72400 35.77700 21.93700
H  -1.61000 34.99900 20.33200
H  -0.32700 31.99300 20.52300
H  -1.83200 31.14500 20.96300
H  -0.62400 30.15400 22.59200
H  0.40700 31.42200 23.03900
H  0.86900 30.52700 21.57300
H  -4.35300 29.20100 24.16900
H  -5.66800 30.23100 24.23200
H  -5.61100 28.97800 25.56000
H  -3.97900 30.62700 30.08200
H  -7.61400 32.21600 32.04700
H  -6.16900 32.82700 32.68100
H  -6.72700 31.23500 33.26500

