79

Mg 10.13600 48.37700 25.57900
C  7.67300 48.49900 28.22600
C  12.37000 49.80400 27.84400
C  12.42800 48.42400 23.23900
C  7.65300 47.41500 23.49600
N  10.04500 49.11800 27.82000
C  8.89900 48.98300 28.68300
C  9.32000 49.37000 30.09000
C  10.66200 50.11000 29.89100
C  11.06900 49.74100 28.39000
C  10.63000 51.61200 30.14800
C  9.44800 48.06400 31.04900
C  10.50100 48.00700 32.19000
H  10.10000 47.14800 33.42600
N  12.09700 48.89700 25.59700
C  12.85700 49.37500 26.61300
C  14.28300 49.36000 26.14900
C  14.29900 48.74300 24.90200
C  12.90400 48.66400 24.53900
C  15.45100 49.90100 27.04600
C  15.47400 48.22200 24.04500
O  15.39500 47.79000 22.94200
C  16.79900 48.33300 24.65700
N  9.99000 48.14900 23.64000
C  11.10000 48.20800 22.79300
C  10.72800 47.71700 21.38800
C  9.25100 47.30400 21.52600
C  8.92700 47.64500 22.97100
C  11.04800 48.74900 20.23700
C  8.87300 45.88700 21.08600
C  8.87700 44.74100 22.16100
N  8.08100 47.97800 25.79500
C  7.17900 47.58200 24.80000
C  5.83300 47.48800 25.35400
C  6.03500 47.71700 26.71300
C  7.35600 48.03700 26.91300
C  4.43200 47.18100 24.61700
C  5.31500 47.84000 28.01600
O  4.09500 47.72000 28.28400
C  6.37700 48.30600 29.08700
C  6.62000 47.23200 30.02500
O  7.22700 46.14600 29.89500
O  5.99500 47.58500 31.20000
C  5.88300 46.50400 32.20200
H  13.11900 50.30400 28.46200
H  13.10400 48.23400 22.40300
H  6.93200 46.82900 22.92300
H  8.57200 49.92600 30.65600
H  11.40900 49.66200 30.54600
H  10.79800 52.03300 29.15700
H  11.43100 51.84800 30.84800
H  9.72500 52.04000 30.58000
H  9.65500 47.12300 30.53900
H  8.46800 48.09900 31.52500
H  10.94400 48.96700 32.45400
H  11.34500 47.35600 31.95900
H  15.11600 50.00400 28.07800
H  15.83500 50.85100 26.67500
H  16.23000 49.15600 27.20500
H  16.91500 47.68200 25.52400
H  17.00500 49.34700 25.00100
H  17.58700 48.13200 23.93200
H  11.24500 46.77000 21.24100
H  8.61600 47.99300 20.96700
H  11.99300 49.25800 20.42800
H  10.20600 49.44100 20.21800
H  11.05300 48.13900 19.33400
H  9.52100 45.52800 20.28600
H  7.95800 46.03800 20.51300
H  9.33800 44.99800 23.11500
H  9.46600 43.95300 21.69200
H  7.94800 44.27300 22.48800
H  4.09500 46.14600 24.68200
H  4.62000 47.42600 23.57200
H  3.55900 47.76800 24.90400
H  6.01600 49.16000 29.65900
H  6.78100 46.56700 32.81600
H  5.88200 45.53900 31.69300
H  5.01200 46.60000 32.84900

