79

Mg 25.69500 1.88900 28.70300
C  27.58700 1.45500 31.81700
C  22.92700 2.31400 30.60600
C  23.93800 1.88000 25.98300
C  28.66300 0.90700 26.97400
N  25.28000 1.85300 31.00200
C  26.20600 1.76700 32.10900
C  25.50900 2.01600 33.46400
C  23.97800 2.06300 33.01600
C  24.06300 2.09800 31.47800
C  22.83200 1.11000 33.61200
C  26.02100 3.30600 34.23700
C  26.84500 3.11100 35.53000
H  26.51300 3.84900 36.81800
N  23.66900 2.18000 28.30600
C  22.68300 2.37900 29.19900
C  21.45700 2.58200 28.47800
C  21.70300 2.52500 27.12000
C  23.16900 2.29800 27.04700
C  20.21400 2.87300 29.22200
C  20.81900 2.75000 25.97400
O  21.24300 2.88700 24.84700
C  19.32000 2.93400 26.18800
N  26.19100 1.36200 26.80100
C  25.22700 1.34100 25.82400
C  25.90800 1.16700 24.39400
C  27.35300 0.75400 24.77500
C  27.46800 0.99600 26.21900
C  25.16000 0.17300 23.39700
C  28.42100 1.27100 23.81500
C  29.07300 2.63600 24.08300
N  27.72200 1.43000 29.12300
C  28.81400 1.05000 28.34500
C  29.90200 0.72100 29.15900
C  29.52500 0.92800 30.51500
C  28.15600 1.30400 30.47200
C  31.05600 -0.04400 28.74100
C  29.96200 0.81400 31.86800
O  31.04000 0.35400 32.25600
C  28.74100 1.26700 32.79400
C  28.55500 0.16400 33.80900
O  28.27000 -0.94700 33.44000
O  28.81700 0.64100 35.12100
C  28.50400 -0.35400 36.14700
H  22.09400 2.57600 31.26200
H  23.30500 1.94300 25.09500
H  29.61600 0.64000 26.51300
H  25.61600 1.10100 34.04700
H  23.59700 3.04400 33.30000
H  23.16800 0.60900 34.51900
H  22.79800 0.34800 32.83400
H  21.85300 1.55700 33.78400
H  25.24400 4.03100 34.47900
H  26.76000 3.84100 33.64200
H  27.87000 3.43400 35.35000
H  26.86500 2.05300 35.79400
H  19.80000 1.96300 29.65700
H  19.38900 3.33900 28.68200
H  20.46500 3.67700 29.91500
H  18.88900 2.16900 26.83500
H  18.82300 2.99100 25.22000
H  19.25600 3.93700 26.61100
H  25.97800 2.15400 23.93700
H  27.48000 -0.32800 24.81000
H  24.22900 -0.25300 23.77100
H  25.69300 -0.73100 23.10400
H  24.99900 0.61500 22.41400
H  28.12500 1.23800 22.76600
H  29.28900 0.63200 23.97800
H  30.15100 2.66100 24.24200
H  28.58400 3.08900 24.94600
H  28.87000 3.30600 23.24800
H  31.54100 -0.39100 29.65300
H  31.77500 0.53600 28.16400
H  30.72300 -0.81000 28.04000
H  28.99600 2.21000 33.27800
H  27.45200 -0.55300 36.34800
H  28.99800 -0.07900 37.07800
H  28.84000 -1.34000 35.82600

