79

Mg 8.94900 47.01500 25.42600
C  6.80900 46.86000 28.07300
C  11.49800 48.21400 27.43100
C  10.90100 47.32600 22.71400
C  6.25200 46.36700 23.25100
N  9.10100 47.54400 27.43100
C  8.15000 47.17000 28.41200
C  8.65500 47.52200 29.82400
C  10.00200 48.27000 29.61600
C  10.21300 48.02600 28.09300
C  9.96200 49.76400 29.93900
C  8.69700 46.34900 30.85600
C  9.70300 46.41500 32.04400
H  9.38900 45.63200 33.35700
N  10.91300 47.64100 25.13500
C  11.82200 48.00200 26.12800
C  13.19800 48.02700 25.52000
C  13.04800 47.66500 24.19500
C  11.59300 47.56100 23.93300
C  14.41900 48.29200 26.42200
C  14.10900 47.19600 23.15300
O  13.75500 47.01100 21.97000
C  15.51800 46.97300 23.54800
N  8.55300 47.06200 23.23900
C  9.57100 47.21100 22.36800
C  9.09700 47.04700 20.91500
C  7.54200 46.82400 21.06200
C  7.42900 46.75300 22.59300
C  9.38100 48.16500 19.87200
C  6.97100 45.59100 20.27700
C  5.61500 45.88100 19.52700
N  6.92500 46.80700 25.60800
C  5.93400 46.48400 24.65900
C  4.64000 46.39700 25.35700
C  4.97200 46.50800 26.74700
C  6.34700 46.74700 26.81600
C  3.30100 46.05900 24.71500
C  4.37000 46.50800 28.09600
O  3.26300 46.36600 28.51800
C  5.60300 46.58200 28.98400
C  5.76500 45.23300 29.73900
O  6.34900 44.26500 29.33200
O  5.25700 45.31200 30.96000
C  5.35500 44.19800 31.88500
H  12.26000 48.47300 28.16900
H  11.44000 47.35400 21.76500
H  5.33700 46.41900 22.65700
H  7.86400 48.11800 30.27800
H  10.87900 47.84200 30.10300
H  9.52500 50.37200 29.14700
H  10.96200 50.16500 30.10300
H  9.42600 49.95000 30.87000
H  8.99700 45.56600 30.15900
H  7.70600 46.30000 31.30700
H  9.87500 47.44500 32.35600
H  10.67100 46.06000 31.69000
H  14.09900 48.62600 27.40900
H  15.05800 49.04800 25.96700
H  14.98700 47.38500 26.62900
H  15.39700 46.42000 24.48000
H  16.13200 47.82800 23.83100
H  16.05300 46.42100 22.77600
H  9.56800 46.12000 20.58600
H  6.99100 47.68100 20.67500
H  9.60100 49.09400 20.39800
H  8.57400 48.20000 19.14000
H  10.28300 47.96600 19.29300
H  6.68200 44.77600 20.94000
H  7.66900 45.20800 19.53200
H  5.54300 46.94800 19.31800
H  4.77600 45.63200 20.17700
H  5.52900 45.39400 18.55600
H  3.35700 46.23900 23.64200
H  2.52400 46.61400 25.24000
H  3.18200 44.98900 24.88500
H  5.51200 47.38500 29.71600
H  6.33900 43.74500 32.00400
H  4.62700 43.42600 31.63500
H  5.39800 44.59600 32.89800

