79

Mg 34.78500 2.85700 30.35600
C  32.46300 3.73300 33.04700
C  37.28100 2.90600 32.88100
C  36.89200 2.34300 28.08300
C  32.09900 3.44300 28.24400
N  34.76500 3.45600 32.67200
C  33.71200 3.54000 33.50600
C  34.18400 3.44200 34.94500
C  35.73900 3.61600 34.83500
C  35.99100 3.29200 33.36700
C  36.27900 5.00000 35.34100
C  33.72900 2.18800 35.76000
C  33.16500 2.53800 37.17900
H  33.83500 3.60300 38.06200
N  36.77500 2.53700 30.49100
C  37.62700 2.70000 31.59100
C  38.97100 2.32100 31.12600
C  38.94700 2.15000 29.72300
C  37.54700 2.32000 29.34100
C  40.17800 2.51100 32.06500
C  40.02700 1.73400 28.76700
O  39.83600 1.66000 27.53800
C  41.31200 1.24500 29.30400
N  34.51300 3.01400 28.40600
C  35.55200 2.61800 27.62200
C  35.02400 2.44800 26.21400
C  33.47600 2.58200 26.30800
C  33.36100 3.14600 27.70800
C  35.66800 3.51200 25.24000
C  32.69800 1.26800 26.14200
C  31.57400 1.34300 25.10600
N  32.69500 3.60200 30.56000
C  31.76600 3.66700 29.61000
C  30.44500 3.69500 30.21100
C  30.64600 3.79200 31.51000
C  32.06500 3.69400 31.71000
C  29.23200 3.75700 29.45900
C  30.07100 3.88000 32.78100
O  28.88800 3.89700 33.09100
C  31.19200 3.95300 33.84400
C  31.14400 5.24400 34.59700
O  31.28300 6.36000 34.08400
O  31.02900 5.09900 35.96700
C  30.98600 6.32300 36.77400
H  38.11900 2.89100 33.58000
H  37.56100 1.93800 27.32100
H  31.32700 3.44700 27.47100
H  33.81400 4.31700 35.47900
H  36.26700 2.86200 35.41900
H  36.62100 4.75600 36.34600
H  35.45000 5.69800 35.46000
H  37.18700 5.28300 34.80800
H  34.59900 1.55000 35.91600
H  33.00300 1.54400 35.26400
H  33.18600 1.70600 37.88200
H  32.10500 2.75000 37.03600
H  40.42000 1.54500 32.50800
H  40.09900 3.35500 32.75000
H  41.14100 2.66000 31.57700
H  41.15900 0.69100 30.23000
H  41.91000 2.13800 29.48800
H  41.64700 0.51300 28.56900
H  35.35600 1.49400 25.80300
H  33.15700 3.30500 25.55800
H  35.65500 4.55900 25.54100
H  35.18300 3.45400 24.26600
H  36.73500 3.28800 25.24100
H  32.38700 0.86400 27.10600
H  33.48700 0.54900 25.92100
H  30.67000 1.77900 25.53200
H  31.34500 0.30400 24.87100
H  31.88900 1.79500 24.16500
H  28.64000 2.86300 29.65400
H  29.41000 3.98300 28.40800
H  28.73400 4.68700 29.73300
H  31.05600 3.13600 34.55300
H  30.31700 7.04400 36.30600
H  31.95900 6.81500 36.81200
H  30.52800 5.94200 37.68700

