79

Mg -0.25500 43.98900 25.36300
C  1.76300 43.81200 27.93900
C  -2.99400 43.05300 27.39600
C  -2.47300 43.75000 22.54400
C  2.18500 44.67300 23.20900
N  -0.59200 43.34900 27.44400
C  0.42300 43.51600 28.33500
C  0.01500 43.28000 29.74700
C  -1.59200 43.07900 29.62300
C  -1.76900 43.21500 28.08100
C  -1.94800 41.70600 30.11300
C  0.24500 44.63300 30.66600
C  0.52900 44.48500 32.21100
H  0.37000 43.15000 32.92200
N  -2.44900 43.44700 25.04800
C  -3.37200 43.05200 26.03100
C  -4.61000 42.72800 25.40000
C  -4.49800 43.08800 24.02200
C  -3.08500 43.47900 23.83600
C  -5.64700 42.06800 26.26200
C  -5.52300 43.05700 22.92400
O  -5.39700 43.57400 21.81700
C  -6.81700 42.34800 23.16200
N  -0.19900 44.28900 23.21800
C  -1.18500 44.16100 22.30200
C  -0.66200 44.38700 20.86900
C  0.74000 45.01800 21.14500
C  0.97400 44.49200 22.62700
C  -0.52100 43.04000 20.11900
C  0.79600 46.56600 21.00600
C  -0.34400 47.41600 21.52700
N  1.69000 44.16800 25.49700
C  2.59500 44.40000 24.51000
C  3.89800 44.55100 25.19400
C  3.63500 44.19600 26.53400
C  2.29600 44.00700 26.67100
C  5.17400 44.89300 24.46400
C  4.15600 44.03500 27.76600
O  5.35800 44.02000 28.08300
C  2.95300 43.82200 28.74200
C  3.18300 42.67500 29.66200
O  3.04700 41.46800 29.37800
O  3.74800 43.18900 30.80300
C  4.24700 42.20400 31.82200
H  -3.89300 42.85900 27.98500
H  -3.07700 43.66900 21.63800
H  2.93000 45.06700 22.51500
H  0.50400 42.42800 30.22000
H  -2.09600 43.86900 30.17900
H  -2.85900 41.86700 30.69000
H  -1.21500 41.34600 30.83500
H  -2.11000 40.86200 29.44200
H  -0.70800 45.15500 30.75500
H  0.88400 45.38000 30.19700
H  -0.04200 45.22500 32.77200
H  1.57900 44.77600 32.21200
H  -5.16600 41.25300 26.80300
H  -6.43700 41.58400 25.68700
H  -5.97800 42.79500 27.00400
H  -7.45300 42.76900 23.94100
H  -6.64000 41.29600 23.38500
H  -7.38600 42.38000 22.23300
H  -1.34000 45.15300 20.49400
H  1.52900 44.53500 20.56700
H  0.51300 42.76000 20.31600
H  -0.84800 43.20300 19.09200
H  -1.15800 42.30700 20.61300
H  1.06100 46.89400 20.00000
H  1.59100 46.83700 21.70100
H  -0.71000 48.21500 20.88200
H  0.03900 47.91800 22.41500
H  -1.17900 46.90800 22.01000
H  5.19500 45.45200 23.52900
H  5.67100 43.95700 24.21100
H  5.87400 45.52900 25.00500
H  3.02800 44.70700 29.37400
H  4.51000 42.78300 32.70700
H  5.15000 41.63200 31.60900
H  3.43700 41.50000 32.01700

