79

Mg 45.15200 4.80200 46.62300
C  43.04400 7.73900 46.43100
C  42.24800 2.96400 46.69800
C  47.19800 2.34500 46.76500
C  47.92400 7.05600 46.63600
N  42.93800 5.36600 46.37300
C  42.26200 6.55800 46.38500
C  40.75100 6.46500 46.36400
C  40.56800 4.93000 46.53900
C  42.00100 4.36300 46.63500
C  39.58400 4.50400 47.63200
C  40.09100 7.07000 45.13000
C  40.94700 7.18900 43.85400
H  40.30900 7.18400 42.43500
N  44.75200 2.95600 46.79100
C  43.45700 2.31500 46.69100
C  43.73300 0.88700 46.64200
C  45.15400 0.69200 46.79000
C  45.77700 2.05100 46.76700
C  42.60200 -0.14300 46.66000
C  45.89200 -0.64100 46.85800
O  45.17500 -1.66300 46.77900
C  47.41200 -0.77100 46.97100
N  47.22500 4.72500 46.50700
C  47.84000 3.51800 46.68800
C  49.38300 3.61800 46.72200
C  49.59500 5.14800 46.69400
C  48.16600 5.65400 46.51400
C  49.98800 2.86900 47.98900
C  50.66900 5.69200 45.67300
C  51.77600 6.64300 46.20400
N  45.45000 6.90700 46.50900
C  46.63800 7.64500 46.61400
C  46.30200 9.09000 46.69800
C  44.96800 9.13700 46.54400
C  44.44700 7.82500 46.43900
C  47.27600 10.21900 46.80500
C  43.80600 9.96400 46.56400
O  43.66800 11.15400 46.61200
C  42.53100 9.07100 46.45200
C  41.60800 9.29200 47.72300
O  41.67600 8.66500 48.79800
O  40.79400 10.40800 47.54700
C  39.84200 10.76900 48.62400
H  41.31400 2.39800 46.69600
H  47.93000 1.53600 46.72800
H  48.75200 7.76300 46.71500
H  40.48500 7.02000 47.26300
H  40.23400 4.50100 45.59400
H  40.07600 3.80200 48.30500
H  38.70000 4.01600 47.22200
H  39.15800 5.35400 48.16700
H  39.68700 8.03300 45.44200
H  39.27000 6.47700 44.72600
H  41.74300 6.44800 43.92300
H  41.35700 8.19900 43.87400
H  42.55600 -0.72100 45.73700
H  41.58600 0.24200 46.75100
H  42.83300 -0.79100 47.50500
H  47.59600 -1.84500 46.95100
H  47.70000 -0.32300 47.92100
H  47.86900 -0.35200 46.07400
H  49.76300 3.22100 45.78100
H  49.88700 5.57300 47.65500
H  49.07100 2.69700 48.55300
H  50.61200 3.58600 48.52100
H  50.49200 1.91900 47.81000
H  50.11800 6.13000 44.84100
H  51.20800 4.83900 45.26100
H  52.72800 6.17400 45.95400
H  51.85200 6.87300 47.26700
H  51.76500 7.55700 45.61100
H  46.75900 11.14100 46.53800
H  48.03100 10.10100 46.02700
H  47.82900 10.15800 47.74200
H  41.96400 9.38800 45.57800
H  40.36500 11.37000 49.36700
H  39.45700 9.91100 49.17500
H  38.92600 11.26800 48.30600

