79

Mg -4.03500 25.21900 25.52100
C  -2.98500 26.69100 28.63400
C  -6.06700 23.12200 27.41900
C  -4.88400 23.71600 22.78000
C  -1.55300 27.13600 23.88000
N  -4.44600 24.89100 27.89000
C  -3.95900 25.64800 28.92100
C  -4.37400 25.14300 30.26400
C  -5.40400 24.04300 29.88300
C  -5.25400 23.96000 28.33000
C  -5.18800 22.56900 30.43200
C  -5.11800 26.26400 31.07300
C  -5.38600 26.10100 32.58100
H  -4.90300 24.82300 33.33000
N  -5.39400 23.77600 25.11600
C  -6.15700 23.04400 26.01800
C  -7.15900 22.32500 25.24300
C  -6.71900 22.37800 23.86200
C  -5.65500 23.35000 23.88100
C  -8.38600 21.65100 25.82200
C  -7.33400 21.73400 22.62900
O  -7.10000 22.11000 21.50300
C  -8.26000 20.58500 22.82400
N  -3.26700 25.37300 23.67700
C  -3.78800 24.59700 22.67900
C  -3.00100 24.62000 21.40300
C  -2.00600 25.81600 21.68400
C  -2.24500 26.14900 23.16000
C  -2.26900 23.26800 21.15100
C  -2.27500 27.07100 20.86000
C  -1.17500 27.47700 19.83800
N  -2.57600 26.59600 26.05700
C  -1.67500 27.33100 25.29600
C  -0.93000 28.26100 26.13800
C  -1.33900 28.05200 27.41900
C  -2.34000 26.99300 27.39800
C  0.05500 29.29500 25.62300
C  -1.23200 28.56300 28.81000
O  -0.53100 29.43300 29.29800
C  -2.28500 27.67800 29.57000
C  -1.45100 27.10700 30.66500
O  -0.52100 26.29400 30.61100
O  -1.87400 27.60900 31.86300
C  -1.24500 27.04100 33.09100
H  -6.69100 22.34100 27.85900
H  -5.19400 23.33100 21.80700
H  -0.82700 27.74400 23.33600
H  -3.55900 24.80000 30.90000
H  -6.45100 24.33900 29.82000
H  -4.88900 21.80100 29.71900
H  -6.09500 22.23300 30.93500
H  -4.46000 22.67500 31.23600
H  -6.03100 26.57800 30.56500
H  -4.47600 27.14400 31.02500
H  -6.45600 26.13100 32.78500
H  -4.87800 26.98100 32.97800
H  -9.23200 21.82900 25.15700
H  -8.80000 22.19700 26.66900
H  -8.26500 20.59800 26.07700
H  -9.23400 21.04300 22.99400
H  -8.10200 19.90700 23.66300
H  -8.16600 19.98700 21.91700
H  -3.73900 24.90000 20.65200
H  -0.98500 25.47200 21.52000
H  -2.78800 22.46400 21.67300
H  -1.19100 23.28700 21.30700
H  -2.34000 22.89500 20.12900
H  -2.38600 27.93800 21.51100
H  -3.26400 27.05000 20.40200
H  -0.63800 28.32300 20.26800
H  -1.46700 27.74900 18.82400
H  -0.46900 26.65400 19.72000
H  0.51800 28.90000 24.71900
H  0.87900 29.43200 26.32400
H  -0.55300 30.09200 25.19400
H  -3.10000 28.24000 30.02700
H  -1.75700 27.45800 33.95800
H  -0.19500 27.32400 33.16500
H  -1.34100 25.95700 33.02000

