79

Mg -11.57800 16.94300 42.56700
C  -8.17400 17.26200 42.60100
C  -11.77000 20.39200 41.92300
C  -14.87000 16.65800 41.95600
C  -11.14200 13.43900 42.35600
N  -10.07800 18.66200 42.32400
C  -8.76000 18.50900 42.43500
C  -8.11300 19.93400 42.23700
C  -9.26500 20.86800 42.27700
C  -10.48400 19.95300 42.21700
C  -9.35900 21.83000 43.49200
C  -7.25000 19.93200 40.96100
C  -5.90100 20.64100 41.10000
H  -5.40400 21.44000 39.88100
N  -13.05200 18.32000 42.18000
C  -12.94000 19.68400 42.02500
C  -14.26300 20.28900 41.82400
C  -15.18000 19.22400 41.87000
C  -14.38100 17.99500 42.05400
C  -14.58800 21.75800 41.78000
C  -16.70500 19.41500 41.85300
O  -17.26200 20.48300 41.63100
C  -17.57400 18.21900 41.95300
N  -12.81700 15.22100 42.20300
C  -14.16900 15.41500 42.08800
C  -14.87800 14.07100 42.13100
C  -13.67000 13.09400 41.95900
C  -12.44800 13.96400 42.22200
C  -16.00400 13.86200 43.29100
C  -13.57700 12.43900 40.50700
C  -13.73500 10.88700 40.48100
N  -10.05700 15.60100 42.56400
C  -10.03600 14.20900 42.50200
C  -8.62100 13.73300 42.70200
C  -7.90900 14.97900 42.73900
C  -8.83300 16.00600 42.66700
C  -8.21000 12.35300 42.62400
C  -6.53100 15.43200 42.87000
O  -5.44500 14.88600 43.02000
C  -6.71000 17.01400 42.95100
C  -6.33800 17.49200 44.35600
O  -6.98900 17.32100 45.38500
O  -5.08100 18.17100 44.27000
C  -4.61800 18.91100 45.44300
H  -11.89500 21.44900 41.67800
H  -15.89900 16.53400 41.61200
H  -10.90700 12.37300 42.37600
H  -7.38500 20.00700 43.04500
H  -9.27500 21.50500 41.39300
H  -9.95500 22.69500 43.20000
H  -8.35300 22.11600 43.79900
H  -9.95600 21.39000 44.29100
H  -7.88500 20.33000 40.17000
H  -6.94100 18.89700 40.81700
H  -5.10800 19.92800 41.32400
H  -5.81500 21.38900 41.88900
H  -15.22200 21.94900 40.91400
H  -13.72900 22.34800 41.46300
H  -14.94700 22.10700 42.74800
H  -18.59400 18.60200 41.93400
H  -17.43800 17.72000 42.91300
H  -17.52700 17.60300 41.05500
H  -15.53800 14.09600 41.26400
H  -13.59200 12.31400 42.71600
H  -16.31700 14.84400 43.64600
H  -15.61900 13.26800 44.12000
H  -16.84600 13.26900 42.93400
H  -12.60700 12.79400 40.16000
H  -14.40700 12.84000 39.92500
H  -14.28700 10.43200 41.30200
H  -12.88500 10.24800 40.23800
H  -14.33900 10.58400 39.62600
H  -8.80100 11.79100 41.90100
H  -8.21700 11.84100 43.58600
H  -7.22900 12.38000 42.15100
H  -5.94700 17.34500 42.24800
H  -5.11400 18.42500 46.28300
H  -4.76000 19.99100 45.46100
H  -3.55300 18.79000 45.64000

