79

Mg 46.95200 25.36300 28.37600
C  47.34400 27.52400 31.05300
C  46.17900 22.77100 30.71400
C  47.31200 23.25300 25.98300
C  48.40600 27.88000 26.42100
N  46.50300 25.25600 30.58300
C  46.69900 26.28500 31.44800
C  46.53000 25.75900 32.91200
C  46.12100 24.27300 32.72200
C  46.31800 24.03900 31.29100
C  46.92200 23.27200 33.50500
C  45.61500 26.66000 33.80900
C  46.03100 26.69400 35.29800
H  44.91600 26.61800 36.37000
N  46.43700 23.28400 28.29200
C  46.12800 22.40100 29.29600
C  45.96500 21.10300 28.68800
C  46.31300 21.22400 27.32400
C  46.65400 22.64000 27.12100
C  45.51700 19.88400 29.52200
C  46.58700 20.02500 26.31700
O  46.88600 20.23200 25.16800
C  46.22100 18.63500 26.63900
N  47.82800 25.48300 26.50400
C  47.75800 24.50300 25.58100
C  48.45500 24.88300 24.27400
C  48.42800 26.42700 24.36000
C  48.25200 26.65600 25.84600
C  49.86500 24.21500 24.04700
C  47.34300 27.12600 23.55800
C  47.79900 28.27500 22.68000
N  47.74100 27.38200 28.61200
C  48.25700 28.24000 27.73500
C  48.53200 29.49900 28.36900
C  48.23700 29.17800 29.72400
C  47.71000 27.94000 29.81600
C  49.16300 30.63100 27.74100
C  48.28000 29.82400 30.98700
O  48.85700 30.89600 31.27500
C  47.68400 28.70100 31.95600
C  48.66100 28.50000 33.00500
O  49.68300 27.96100 32.89700
O  48.24200 29.13100 34.17200
C  49.14000 29.16100 35.27100
H  45.85300 22.03100 31.44800
H  47.44100 22.47600 25.22700
H  48.66000 28.70400 25.75000
H  47.56900 25.84200 33.23300
H  45.05200 24.10300 32.85200
H  47.47700 22.64900 32.80300
H  46.27400 22.60800 34.07600
H  47.64100 23.68700 34.21100
H  44.60500 26.25000 33.80200
H  45.50600 27.66700 33.40600
H  46.46000 27.67800 35.48900
H  46.86900 26.00500 35.39800
H  44.83900 19.19000 29.02500
H  45.02500 20.24700 30.42500
H  46.46700 19.38500 29.70900
H  46.69200 18.26500 27.55000
H  46.58900 17.95100 25.87500
H  45.13700 18.64600 26.75600
H  47.78500 24.62900 23.45200
H  49.40600 26.80000 24.05800
H  49.86800 23.34100 23.39600
H  50.27500 23.85400 24.99000
H  50.64700 24.88700 23.69500
H  46.56200 27.47600 24.23200
H  46.86800 26.47700 22.82200
H  47.63500 27.93600 21.65700
H  48.84100 28.57900 22.78100
H  47.11300 29.08000 22.94500
H  48.40000 31.08900 27.11200
H  49.94400 30.40700 27.01400
H  49.58800 31.40300 28.38300
H  46.79300 29.12300 32.42100
H  48.95300 28.16900 35.68300
H  48.86200 29.98200 35.93200
H  50.20000 29.24000 35.03300

