79

Mg 6.22800 54.55000 41.33000
C  5.89700 51.10700 41.10200
C  9.31200 54.23100 39.99900
C  6.19900 57.76200 40.98400
C  2.81500 54.62800 42.51600
N  7.38900 52.77000 40.40500
C  7.07500 51.48500 40.43700
C  8.17000 50.69100 39.68600
C  9.38600 51.65400 39.91000
C  8.69900 52.99900 40.13500
C  10.24300 51.36600 41.16800
C  7.86000 50.28900 38.28200
C  6.91700 51.33100 37.54000
H  6.20300 50.91100 36.27800
N  7.55000 55.82000 40.63700
C  8.86000 55.54300 40.17500
C  9.67200 56.71400 40.06400
C  8.78700 57.82100 40.45100
C  7.46400 57.16700 40.70800
C  11.10200 56.77000 39.69900
C  9.13700 59.28500 40.51100
O  10.25600 59.65700 40.16300
C  8.28900 60.40200 41.09100
N  4.66400 55.98100 41.57400
C  5.02100 57.28800 41.55000
C  3.86900 58.16500 42.09600
C  2.79900 57.22100 42.55600
C  3.38100 55.86500 42.14900
C  4.33000 59.24300 43.17900
C  1.39400 57.51000 41.90000
C  1.21800 57.06000 40.45300
N  4.66600 53.24200 41.76200
C  3.44100 53.38300 42.36400
C  2.92500 52.13600 42.72500
C  3.88800 51.17900 42.28600
C  4.89500 51.89400 41.70100
C  1.53900 51.96000 43.28600
C  4.24200 49.81500 42.24000
O  3.61700 48.85200 42.73600
C  5.53700 49.73300 41.40400
C  5.12900 48.95700 40.23500
O  4.41900 49.36500 39.30300
O  5.72400 47.65700 40.37800
C  5.45800 46.71300 39.23900
H  10.33000 54.19100 39.60600
H  6.24500 58.84800 41.09800
H  1.80200 54.70600 42.91700
H  8.23300 49.75600 40.24200
H  10.06500 51.71000 39.05900
H  10.24200 52.15600 41.91900
H  11.30500 51.37200 40.92000
H  10.08900 50.37600 41.59900
H  7.42700 49.29000 38.33100
H  8.74200 50.30700 37.64200
H  7.50000 52.24800 37.45300
H  6.15600 51.74400 38.20200
H  11.42000 57.76300 39.38300
H  11.31600 56.05000 38.90900
H  11.72700 56.41200 40.51700
H  7.36700 60.66700 40.57300
H  8.90500 61.30100 41.11800
H  7.96900 60.10000 42.08800
H  3.47600 58.76100 41.27200
H  2.69700 57.29400 43.63900
H  3.97000 59.03600 44.18700
H  4.02200 60.24000 42.86600
H  5.39600 59.03100 43.25800
H  1.30900 58.59700 41.86900
H  0.61600 57.06000 42.51600
H  2.20300 57.00100 39.99000
H  0.62200 57.81100 39.93500
H  0.78700 56.06000 40.49900
H  1.57400 52.01900 44.37400
H  1.13300 50.97400 43.06500
H  0.85700 52.68300 42.83900
H  6.24700 49.17600 42.01500
H  5.88900 47.18400 38.35600
H  4.38700 46.51500 39.27800
H  5.98200 45.77600 39.43100

