79

Mg 16.87400 -1.33700 28.12600
C  15.62700 0.38700 30.83400
C  18.61100 -3.34000 30.25900
C  18.53100 -2.59100 25.63100
C  15.41800 1.01500 25.99300
N  17.19400 -1.31400 30.39200
C  16.45500 -0.61100 31.27900
C  16.85300 -0.99900 32.73100
C  18.02900 -2.03400 32.52200
C  17.96500 -2.29700 30.95500
C  19.42100 -1.46500 32.95500
C  15.59000 -1.44400 33.53400
C  15.26300 -0.58300 34.80400
H  16.44000 -0.63400 35.84200
N  18.05700 -2.96300 27.96100
C  18.68000 -3.69300 28.91900
C  19.39000 -4.82800 28.35200
C  19.38400 -4.66700 26.95100
C  18.57400 -3.40200 26.75100
C  20.11800 -5.87100 29.08700
C  19.98400 -5.55500 25.94700
O  19.80400 -5.28200 24.79700
C  20.90400 -6.74900 26.32800
N  16.94900 -0.84400 26.13000
C  17.87300 -1.44200 25.35000
C  17.99800 -0.77300 23.92500
C  16.79800 0.28500 23.99300
C  16.37400 0.18100 25.44400
C  19.39700 -0.30300 23.42200
C  15.67600 0.07900 23.06300
C  15.35000 1.20200 22.00800
N  15.75800 0.39200 28.35700
C  15.19400 1.22900 27.38000
C  14.43100 2.23500 28.06000
C  14.57300 1.93800 29.42800
C  15.36400 0.84000 29.56100
C  13.56500 3.19600 27.44800
C  14.21100 2.40500 30.72800
O  13.45900 3.33300 31.06900
C  14.99500 1.48500 31.68000
C  16.06500 2.26000 32.41100
O  17.10300 2.71100 31.93200
O  15.57100 2.69300 33.62400
C  16.11500 3.88200 34.28000
H  19.16000 -4.05800 30.87000
H  19.12700 -2.91000 24.77300
H  14.94700 1.66300 25.25000
H  17.26900 -0.08800 33.16100
H  17.81800 -2.98000 33.02000
H  19.32200 -0.52400 33.49500
H  20.17100 -1.38400 32.16800
H  19.79300 -2.17800 33.69100
H  15.68500 -2.50800 33.75100
H  14.70000 -1.29100 32.92400
H  14.29700 -0.87800 35.21500
H  15.18900 0.47600 34.56000
H  19.70700 -6.86100 28.89000
H  20.06300 -5.67000 30.15600
H  21.16600 -5.67600 28.85700
H  20.46600 -7.56300 26.90700
H  21.86400 -6.46600 26.76100
H  21.07500 -7.21000 25.35600
H  17.59100 -1.47800 23.19900
H  17.14500 1.31600 23.91500
H  19.47600 0.77900 23.31500
H  19.49000 -0.62300 22.38400
H  20.10800 -0.76500 24.10700
H  14.70800 -0.10000 23.53200
H  15.80800 -0.81000 22.44800
H  15.64200 2.22000 22.26700
H  14.27900 1.18100 21.80800
H  15.73800 0.91600 21.03000
H  14.05800 3.84300 26.72200
H  13.11900 3.94200 28.10600
H  12.73100 2.61000 27.06200
H  14.34500 1.06000 32.44500
H  15.94900 3.78300 35.35200
H  15.60500 4.73000 33.82300
H  17.19000 3.96000 34.11800

