79

Mg 35.34000 2.92100 30.23100
C  32.75500 3.86200 32.35400
C  37.41900 3.05200 32.99700
C  37.99700 2.56900 28.25600
C  33.23400 3.08400 27.59000
N  35.14500 3.48600 32.33300
C  33.99000 3.83900 32.97800
C  34.11600 3.90100 34.53800
C  35.65600 3.87500 34.66200
C  36.13100 3.39800 33.22000
C  36.06000 5.22600 35.09900
C  33.43900 2.65300 35.12500
C  33.11100 2.58700 36.65900
H  33.67900 3.68700 37.68800
N  37.42600 2.76100 30.55800
C  38.05900 2.72700 31.78300
C  39.44100 2.47100 31.61900
C  39.55200 2.20800 30.24600
C  38.31900 2.57700 29.63200
C  40.35300 2.40600 32.79500
C  40.76300 1.63500 29.40400
O  40.69300 1.34800 28.19700
C  42.07800 1.43900 30.13200
N  35.60700 3.00500 28.20400
C  36.80200 2.79400 27.57800
C  36.59900 2.46900 26.03900
C  35.03100 2.54100 25.91000
C  34.56200 2.87400 27.30500
C  37.32500 3.27400 24.93100
C  34.38800 1.26500 25.35500
C  34.15700 0.00300 26.26100
N  33.30700 3.36800 29.96700
C  32.57500 3.36200 28.82100
C  31.18200 3.65300 29.14400
C  31.22600 3.83700 30.57000
C  32.53000 3.69000 30.99700
C  30.20900 3.67900 28.14400
C  30.36400 4.17700 31.71100
O  29.22600 4.54800 31.77300
C  31.37500 4.24300 32.93400
C  31.41700 5.61400 33.42800
O  31.30400 6.62200 32.73100
O  31.41700 5.55800 34.80200
C  31.62600 6.81400 35.54900
H  38.05800 3.25300 33.86000
H  38.85700 2.60800 27.58600
H  32.55100 2.96800 26.74500
H  33.44000 4.68500 34.87900
H  35.98700 3.16800 35.42300
H  36.17100 5.14900 36.18000
H  35.38600 6.06100 34.90900
H  37.05600 5.53600 34.78200
H  33.99600 1.76200 34.83700
H  32.45000 2.39600 34.74300
H  33.49300 1.68500 37.13700
H  32.02900 2.47000 36.71700
H  40.20000 1.49400 33.37200
H  40.27900 3.35900 33.31800
H  41.39900 2.44700 32.49000
H  42.81800 1.28200 29.34600
H  42.04800 0.63100 30.86200
H  42.34200 2.40900 30.55200
H  36.90200 1.43300 25.89200
H  34.79400 3.37900 25.25500
H  38.27900 2.85400 24.61500
H  37.60200 4.23800 25.35900
H  36.64400 3.35000 24.08300
H  35.06500 0.92600 24.57100
H  33.51800 1.56400 24.77000
H  35.06700 -0.58500 26.14300
H  33.36200 -0.61800 25.84700
H  34.15500 0.30400 27.30800
H  30.12800 2.75300 27.57400
H  30.54700 4.48900 27.49800
H  29.26600 4.00200 28.58700
H  30.99100 3.62300 33.74400
H  30.64200 7.18000 35.84100
H  32.11200 7.60000 34.97000
H  32.26100 6.73600 36.43200

