79

Mg 43.15000 41.94500 26.19600
C  42.22100 44.30000 28.74000
C  44.40000 39.93400 28.71100
C  44.20400 39.94000 23.87400
C  42.41300 44.42400 23.82500
N  43.28400 42.13100 28.53100
C  42.78500 43.12900 29.33300
C  42.74700 42.79300 30.84300
C  43.68500 41.54600 30.75100
C  43.87400 41.17800 29.25100
C  45.04000 41.70500 31.49800
C  41.31100 42.58000 31.52700
C  40.94200 43.41900 32.80000
H  41.87500 43.62000 33.92600
N  44.00800 40.10400 26.27900
C  44.53300 39.44500 27.39800
C  45.11800 38.14300 26.95100
C  44.83900 38.06600 25.55000
C  44.31400 39.33900 25.18000
C  45.82100 37.29200 27.96000
C  44.92700 36.93400 24.64300
O  44.68900 36.97300 23.45500
C  45.33100 35.59900 25.20500
N  43.46000 42.29700 24.18400
C  43.71700 41.21100 23.43100
C  43.41500 41.37100 21.92500
C  42.90600 42.81400 21.92400
C  43.02900 43.27900 23.37100
C  44.68800 41.28500 20.97600
C  41.52100 42.95000 21.37100
C  40.51700 42.13500 22.07300
N  42.46800 44.00000 26.18500
C  42.25200 44.84400 25.14600
C  41.73500 46.11800 25.70300
C  41.60500 45.94500 27.10700
C  42.15700 44.64000 27.38000
C  41.49900 47.42900 24.82900
C  41.21500 46.56400 28.36100
O  40.73500 47.67200 28.56000
C  41.66600 45.53100 29.49400
C  42.63300 46.15400 30.42100
O  43.82300 46.21800 30.21800
O  42.02100 46.76100 31.45100
C  42.82100 47.57700 32.42800
H  44.65700 39.18700 29.46400
H  44.57700 39.25700 23.10800
H  42.38300 45.25900 23.12300
H  43.40900 43.48400 31.36500
H  43.26700 40.63100 31.16900
H  44.74200 41.97800 32.51100
H  45.64800 42.48500 31.04100
H  45.70800 40.84600 31.44000
H  41.25600 41.52400 31.79000
H  40.61100 42.72800 30.70400
H  40.01200 42.93300 33.09900
H  40.72400 44.42400 32.43800
H  45.09800 36.63600 28.44500
H  46.33200 37.82300 28.76400
H  46.59000 36.65300 27.52700
H  46.39200 35.58300 25.45500
H  45.14700 34.80600 24.48000
H  44.69100 35.36000 26.05500
H  42.74200 40.57200 21.61600
H  43.66100 43.41200 21.41400
H  44.61600 41.72300 19.98100
H  44.92900 40.22600 20.88200
H  45.61700 41.71500 21.35100
H  41.55200 42.55100 20.35700
H  41.14600 43.96700 21.25400
H  40.93500 41.69200 22.97700
H  40.26800 41.33600 21.37500
H  39.62300 42.69600 22.34300
H  41.37700 47.10500 23.79600
H  42.37600 48.07600 24.84800
H  40.58000 47.91600 25.15600
H  40.76400 45.26000 30.04200
H  43.16200 47.00500 33.29100
H  42.19200 48.30900 32.93600
H  43.66700 48.07900 31.96100

