79

Mg 9.94200 48.39000 26.33200
C  7.88800 48.20900 29.16100
C  12.47200 49.30400 28.16900
C  11.64900 48.23500 23.49700
C  6.89600 47.70500 24.39000
N  10.10800 48.75500 28.41700
C  9.21100 48.68600 29.44600
C  9.90100 48.96700 30.73400
C  11.11300 49.87100 30.34600
C  11.26700 49.33000 28.84300
C  10.89700 51.36200 30.55400
C  10.14400 47.80000 31.70100
C  9.41100 47.92100 33.07600
H  9.57400 46.75800 34.05700
N  11.83700 48.68200 25.94500
C  12.79200 48.99900 26.83000
C  14.11200 48.88500 26.27700
C  13.91000 48.41900 24.94000
C  12.45000 48.46900 24.69900
C  15.40900 49.10000 27.07000
C  14.89700 47.90300 23.95300
O  14.57600 47.41800 22.86800
C  16.34300 47.84900 24.41800
N  9.31400 48.22200 24.23200
C  10.30300 48.11500 23.33600
C  9.66400 47.84000 21.91800
C  8.14200 47.69600 22.18400
C  8.10600 47.81200 23.69700
C  10.13000 48.76500 20.72900
C  7.39900 46.48900 21.61400
C  7.50200 46.31400 20.08100
N  7.80900 48.10900 26.63700
C  6.74300 47.82100 25.78100
C  5.59600 47.51300 26.58400
C  6.10100 47.50800 27.88000
C  7.36500 47.90900 27.85100
C  4.27900 47.06600 26.12400
C  5.56300 47.38300 29.23700
O  4.47000 47.06800 29.65400
C  6.82300 47.76000 30.12400
C  7.09600 46.55800 30.90700
O  7.83800 45.61200 30.62400
O  6.26200 46.66700 32.01700
C  6.41400 45.48800 32.92800
H  13.31900 49.55200 28.81100
H  12.21900 47.99900 22.59600
H  6.04500 47.29900 23.83900
H  9.15800 49.68100 31.09300
H  11.98500 49.54900 30.91500
H  10.29700 51.72600 29.72000
H  11.84300 51.89400 30.45300
H  10.56400 51.55800 31.57300
H  11.22700 47.72000 31.79400
H  9.77600 46.93600 31.14700
H  8.34300 48.11100 32.96800
H  9.76900 48.78000 33.64300
H  15.16000 49.02900 28.12900
H  15.80200 50.07900 26.79700
H  16.23700 48.43200 26.83400
H  16.48100 47.18600 25.27200
H  16.71700 48.86600 24.53500
H  16.89700 47.40400 23.59200
H  10.05100 46.83500 21.75100
H  7.64000 48.64000 21.97400
H  9.26100 49.31200 20.36300
H  10.65600 48.16000 19.99200
H  10.83800 49.50000 21.11300
H  6.34100 46.67900 21.79300
H  7.74400 45.57700 22.10200
H  6.64200 46.85000 19.68100
H  7.50800 45.23400 19.93000
H  8.46700 46.69600 19.74800
H  3.71600 47.87400 25.65600
H  3.70300 46.57600 26.90900
H  4.47600 46.21900 25.46700
H  6.42600 48.54000 30.77400
H  6.96900 45.63900 33.85300
H  6.89700 44.62900 32.46100
H  5.39200 45.24400 33.21800

