79

Mg 27.31200 49.99200 26.71700
C  25.07600 50.73500 29.25100
C  29.89600 49.57000 28.96000
C  29.38700 49.45200 24.15900
C  24.78600 50.90400 24.27700
N  27.42800 50.18400 28.83300
C  26.37400 50.32200 29.68100
C  26.83100 50.13400 31.15600
C  28.43300 49.91700 31.10400
C  28.60600 50.03500 29.53800
C  29.30700 50.89800 31.86900
C  26.12700 48.88500 31.77500
C  25.45600 49.05100 33.18300
H  26.36400 49.08700 34.40100
N  29.34600 49.58000 26.49900
C  30.20600 49.37200 27.57300
C  31.47900 49.01200 27.08500
C  31.34000 48.91800 25.68300
C  30.01100 49.33200 25.37000
C  32.61900 48.68100 27.98800
C  32.32400 48.48700 24.60400
O  32.06900 48.43200 23.39800
C  33.78300 48.30900 24.93200
N  27.07600 50.24200 24.47000
C  28.09100 49.83300 23.68100
C  27.65200 49.73100 22.22200
C  26.13800 50.05000 22.33400
C  25.97700 50.42400 23.82500
C  28.40100 50.66400 21.16300
C  25.19600 48.84500 21.90200
C  24.65800 47.88700 23.00300
N  25.37600 50.82400 26.67200
C  24.50000 51.16800 25.66900
C  23.24700 51.63100 26.30000
C  23.45300 51.55100 27.68500
C  24.71400 50.98200 27.84100
C  22.07200 52.08000 25.49500
C  22.83800 51.72600 28.97600
O  21.78400 52.25100 29.30200
C  23.87200 51.18600 29.99400
C  24.16100 52.36900 30.97800
O  24.60200 53.40600 30.50800
O  23.96000 52.03100 32.24200
C  24.35100 53.03400 33.19800
H  30.68600 49.50900 29.71100
H  30.01900 49.19800 23.30600
H  23.97800 50.95600 23.54500
H  26.45600 51.03100 31.64900
H  28.76700 48.90800 31.34700
H  29.54500 50.60800 32.89200
H  28.79500 51.85700 31.94600
H  30.30000 51.00200 31.43200
H  26.86700 48.09500 31.90300
H  25.29900 48.61500 31.11900
H  24.70500 48.28000 33.35700
H  24.87400 49.97200 33.13900
H  32.50500 47.79500 28.61100
H  32.87400 49.54500 28.60100
H  33.54100 48.61000 27.41100
H  34.35800 48.06300 24.03900
H  33.81300 47.48600 25.64500
H  34.32900 49.13200 25.39500
H  27.85900 48.69800 21.94100
H  25.76100 50.79100 21.62900
H  29.29500 51.06600 21.63900
H  27.78300 51.43000 20.69400
H  28.84400 49.98800 20.43200
H  25.76800 48.28800 21.16000
H  24.33100 49.26200 21.38700
H  25.35000 47.87900 23.84500
H  24.77500 46.85100 22.68400
H  23.59900 48.05400 23.20200
H  22.03000 51.46600 24.59600
H  22.13800 53.13300 25.21900
H  21.18800 51.94700 26.12000
H  23.49200 50.37200 30.61200
H  25.05400 53.77500 32.82000
H  24.87700 52.64000 34.06800
H  23.53100 53.64400 33.57800

