79

Mg -0.27200 7.26400 27.17600
C  0.69100 9.75900 29.57200
C  -0.11600 4.94400 29.53800
C  -1.07000 5.30600 24.75700
C  0.44200 9.91000 24.65600
N  0.22400 7.40200 29.29500
C  0.44600 8.48200 30.04700
C  0.39800 8.10700 31.53000
C  0.32600 6.51500 31.52700
C  0.14100 6.24100 30.06200
C  1.63200 5.81500 32.07800
C  -0.90200 8.67000 32.22500
C  -0.81200 8.69700 33.75400
H  0.54400 8.42600 34.47600
N  -0.58300 5.35500 27.21200
C  -0.43500 4.47100 28.26500
C  -0.60500 3.11400 27.79300
C  -0.79700 3.22600 26.35500
C  -0.82700 4.68300 26.01100
C  -0.48500 1.86700 28.62900
C  -0.98300 2.10200 25.37000
O  -1.01600 2.26800 24.17400
C  -1.03700 0.67100 25.80800
N  -0.26100 7.56300 25.03000
C  -0.89100 6.59000 24.30000
C  -1.19300 7.07000 22.82000
C  -0.79100 8.61100 22.93500
C  -0.15300 8.71600 24.27600
C  -0.42500 6.34000 21.66400
C  -2.07000 9.48100 22.93400
C  -2.22700 10.45600 21.82700
N  0.44800 9.40600 27.06400
C  0.78700 10.21200 26.00100
C  1.34000 11.42700 26.49900
C  1.28200 11.35600 27.85900
C  0.72800 10.14500 28.15400
C  1.85800 12.63300 25.69700
C  1.64300 11.97400 29.09900
O  2.25100 13.06400 29.19500
C  1.21300 11.01200 30.23600
C  2.46700 10.84600 31.04500
O  3.44500 10.15100 30.70400
O  2.46100 11.62900 32.14800
C  3.72500 11.73100 32.89100
H  0.00100 4.17500 30.30300
H  -1.52100 4.79500 23.90400
H  0.60900 10.68100 23.90200
H  1.32500 8.43900 31.99700
H  -0.45800 6.06500 32.13700
H  1.34200 4.97800 32.71300
H  2.15200 6.58900 32.64300
H  2.18200 5.40100 31.23200
H  -1.79200 8.19300 31.81600
H  -0.95800 9.73100 31.98000
H  -1.55900 8.02000 34.16800
H  -1.08500 9.71900 34.01500
H  0.42800 1.31500 28.40600
H  -1.45900 1.38300 28.70500
H  -0.34000 2.08500 29.68700
H  -1.19600 0.03800 24.93500
H  -1.82100 0.39800 26.51400
H  -0.02000 0.40200 26.09300
H  -2.24800 6.91700 22.58900
H  -0.11900 8.93100 22.13900
H  -0.11700 7.04400 20.89000
H  -0.99500 5.62500 21.07100
H  0.47900 5.86400 22.04300
H  -2.09300 10.05200 23.86200
H  -3.05200 9.01000 22.96400
H  -1.52500 11.28500 21.91700
H  -3.23200 10.87700 21.80800
H  -1.99300 10.05000 20.84300
H  2.52300 12.26400 24.91600
H  2.42700 13.28700 26.35800
H  1.16800 13.21100 25.08100
H  0.37200 11.43900 30.78200
H  3.65400 12.34600 33.78800
H  4.55600 12.18200 32.34800
H  3.93200 10.69600 33.16400

