79

Mg 16.12700 -1.90300 28.28100
C  15.37600 0.09000 30.96500
C  18.23500 -3.73000 30.29300
C  16.96900 -3.76100 25.53400
C  14.04800 0.12400 26.23500
N  16.79200 -1.79000 30.36800
C  16.31700 -0.93100 31.27700
C  16.84600 -1.18400 32.63700
C  18.03700 -2.27100 32.35800
C  17.67600 -2.66200 30.93400
C  19.46300 -1.77900 32.45500
C  15.85300 -1.71900 33.72600
C  16.18600 -1.25700 35.20000
H  17.60300 -0.70300 35.53000
N  17.42000 -3.51900 27.96500
C  18.15700 -4.17300 28.93400
C  18.71900 -5.36800 28.32500
C  18.40900 -5.36400 26.89400
C  17.51300 -4.16000 26.74700
C  19.50600 -6.37800 29.13100
C  18.88000 -6.20900 25.75000
O  18.60500 -6.13200 24.58600
C  19.82200 -7.29600 26.06000
N  15.72300 -1.71400 26.17200
C  16.16700 -2.67800 25.23100
C  15.77500 -2.19100 23.81500
C  14.54400 -1.21200 24.18000
C  14.71300 -0.91900 25.59800
C  16.86800 -1.44600 23.05400
C  13.13000 -1.69900 23.69700
C  12.18300 -2.56400 24.49500
N  14.89100 -0.25400 28.51500
C  14.14400 0.52500 27.58900
C  13.48800 1.56300 28.33700
C  13.92500 1.44900 29.64400
C  14.81200 0.33100 29.73800
C  12.58000 2.59800 27.70100
C  13.81200 2.01900 30.97100
O  13.23300 2.99500 31.41200
C  14.75100 1.11400 31.86500
C  15.61000 2.06800 32.52400
O  16.62400 2.53100 32.00600
O  15.17900 2.28200 33.84400
C  15.96500 3.33700 34.53300
H  18.91100 -4.41400 30.81000
H  17.13800 -4.41400 24.67500
H  13.33000 0.71800 25.66500
H  17.25600 -0.20400 32.88100
H  18.01700 -3.15300 32.99800
H  19.40200 -0.82300 32.97400
H  19.88800 -1.61300 31.46600
H  20.09700 -2.46300 33.02100
H  15.66500 -2.79100 33.66400
H  14.87900 -1.28500 33.49900
H  15.85900 -2.15200 35.72800
H  15.52400 -0.46800 35.55600
H  19.40600 -7.38800 28.73400
H  19.08700 -6.49300 30.13000
H  20.53100 -6.03200 29.26300
H  20.57900 -6.83200 26.69300
H  20.27900 -7.71200 25.16200
H  19.36400 -8.14400 26.57000
H  15.37500 -3.03700 23.25600
H  14.67700 -0.27200 23.64300
H  16.53900 -0.56100 22.50900
H  17.27200 -2.21000 22.39100
H  17.64900 -1.07600 23.71800
H  13.25400 -2.30000 22.79700
H  12.63800 -0.76000 23.44200
H  11.25200 -2.01800 24.64500
H  12.53800 -2.66100 25.52100
H  12.11800 -3.57400 24.09000
H  12.37600 3.41400 28.39300
H  11.66800 2.09700 27.37500
H  13.29200 2.85600 26.91700
H  14.15400 0.61200 32.62700
H  16.96800 3.67500 34.27100
H  16.02900 3.09800 35.59400
H  15.23700 4.14300 34.44200

