79

Mg 9.73400 49.07600 26.56200
C  7.95200 48.80400 29.57400
C  12.42300 50.34600 28.31100
C  11.25800 49.83800 23.62600
C  6.72100 48.45900 24.86900
N  10.08700 49.53800 28.66700
C  9.30400 49.22100 29.72600
C  10.00700 49.57700 31.09000
C  11.31100 50.34800 30.59900
C  11.29500 50.10500 29.09400
C  11.27600 51.85300 30.98600
C  10.07200 48.38800 32.11900
C  9.50100 48.65700 33.53200
H  9.41800 47.44400 34.44400
N  11.61300 49.85900 26.04100
C  12.57500 50.19200 26.90000
C  13.82700 50.25300 26.19600
C  13.50800 50.29000 24.81400
C  12.03900 50.02000 24.75100
C  15.16400 50.49700 26.91300
C  14.47100 50.48600 23.66500
O  14.09000 50.58600 22.50800
C  15.94100 50.41300 23.91000
N  8.92700 49.43600 24.57800
C  9.84400 49.48300 23.52100
C  9.19500 48.96800 22.25800
C  7.85500 48.38700 22.70700
C  7.84600 48.79600 24.10600
C  9.08100 49.96500 21.02500
C  7.68700 46.81300 22.49400
C  8.30600 45.84500 23.47900
N  7.70600 48.74900 27.04600
C  6.62300 48.56800 26.26500
C  5.45000 48.35000 27.15800
C  5.91700 48.39600 28.47500
C  7.31100 48.64400 28.36400
C  4.00000 48.21300 26.59800
C  5.52800 48.36700 29.88200
O  4.39400 48.17900 30.39400
C  6.84500 48.34000 30.61600
C  7.13600 46.97600 31.12900
O  7.60600 46.08300 30.46500
O  6.77300 46.90500 32.47200
C  7.16000 45.62000 33.16000
H  13.34900 50.74800 28.72900
H  11.70200 50.19800 22.69600
H  5.82300 48.16800 24.32000
H  9.37000 50.29200 31.61100
H  12.18000 49.88400 31.06600
H  10.36600 52.16200 31.49900
H  11.39000 52.31500 30.00500
H  12.15900 52.07200 31.58700
H  11.14400 48.27400 32.27800
H  9.67400 47.47200 31.68300
H  8.55500 49.19700 33.54300
H  10.26500 49.31100 33.95300
H  15.85600 49.74200 26.53800
H  15.10700 50.50600 28.00100
H  15.62400 51.40300 26.52100
H  16.32900 51.18900 24.57000
H  16.25400 50.62700 22.88800
H  16.29900 49.42200 24.19200
H  9.78300 48.09600 21.97000
H  7.05700 48.93600 22.20800
H  9.88000 50.70200 20.94300
H  8.23900 50.65600 20.99600
H  8.91100 49.38000 20.12100
H  8.28400 46.65300 21.59600
H  6.61800 46.66000 22.34800
H  8.45500 46.38900 24.41200
H  9.23800 45.47100 23.05500
H  7.65500 45.01700 23.76200
H  3.24300 48.36000 27.36800
H  3.81000 47.22300 26.18200
H  3.61800 48.87800 25.82400
H  6.86500 49.00800 31.47700
H  6.67800 44.72300 32.77100
H  6.83300 45.58700 34.20000
H  8.23900 45.48500 33.09700

