79

Mg 2.59300 -2.04300 44.65400
C  5.52900 -0.68600 43.52600
C  0.83600 0.02100 42.58700
C  -0.26100 -3.85000 45.37900
C  4.50500 -4.48500 46.38900
N  3.12700 -0.62600 43.13100
C  4.44200 -0.17700 42.82800
C  4.42900 0.98800 41.82300
C  2.88000 1.36100 41.80200
C  2.24900 0.23200 42.61200
C  2.57800 2.80600 42.32300
C  5.02000 0.63300 40.43500
C  6.28400 1.37000 40.09100
H  6.59600 1.94100 38.66700
N  0.53500 -1.84600 44.08900
C  0.00100 -0.93500 43.18800
C  -1.32900 -1.19500 43.03900
C  -1.72800 -2.22200 43.93800
C  -0.43900 -2.71700 44.52600
C  -2.32000 -0.37400 42.14800
C  -3.13000 -2.68300 44.21400
O  -4.01000 -2.33100 43.42000
C  -3.55900 -3.77400 45.18800
N  2.23900 -3.93400 45.76100
C  0.96100 -4.37100 45.96000
C  0.92500 -5.66600 46.84700
C  2.44300 -5.99300 46.94500
C  3.10500 -4.76600 46.30700
C  0.27300 -5.65000 48.25200
C  2.93500 -7.27800 46.19600
C  3.22300 -8.40000 47.16400
N  4.64700 -2.49700 44.97600
C  5.23900 -3.44700 45.76700
C  6.66900 -3.20800 45.79000
C  6.82800 -2.14300 44.93400
C  5.55600 -1.73600 44.49700
C  7.76500 -3.94700 46.56100
C  7.84000 -1.28300 44.39700
O  9.03600 -1.21300 44.60300
C  7.06100 -0.31300 43.50500
C  7.22700 1.04600 44.07400
O  8.09100 1.79300 43.66300
O  6.38300 1.34500 45.07000
C  6.65300 2.55200 45.87600
H  0.27000 0.65400 41.90000
H  -1.15200 -4.45000 45.57400
H  5.05600 -5.17600 47.03000
H  4.95000 1.81200 42.30900
H  2.38000 1.32400 40.83400
H  2.67500 3.47900 41.47200
H  3.13900 3.16800 43.18400
H  1.53400 2.82300 42.63500
H  4.32700 0.65600 39.59400
H  5.35900 -0.39900 40.52500
H  7.14500 0.76500 40.37500
H  6.24400 2.22900 40.76100
H  -1.99800 0.66700 42.17300
H  -3.27400 -0.06800 42.57800
H  -2.52500 -0.77500 41.15600
H  -3.03500 -3.63100 46.13200
H  -3.32700 -4.71000 44.68000
H  -4.63100 -3.71700 45.37600
H  0.40800 -6.37400 46.19900
H  2.61100 -6.01000 48.02200
H  -0.81400 -5.62400 48.17300
H  0.55000 -4.73700 48.77900
H  0.50900 -6.54400 48.83000
H  3.90700 -7.09500 45.73900
H  2.20000 -7.52000 45.42800
H  2.46100 -9.17900 47.15000
H  3.23300 -8.02200 48.18600
H  4.18300 -8.85800 46.92300
H  8.29200 -4.58800 45.85300
H  7.27300 -4.49600 47.36400
H  8.41300 -3.23200 47.06800
H  7.59300 -0.33400 42.55400
H  7.68100 2.66600 46.22100
H  5.92100 2.66000 46.67600
H  6.50600 3.33500 45.13200

