79

Mg 52.51500 24.03800 44.68500
C  50.18100 26.39000 44.05000
C  50.46100 21.64700 43.13000
C  55.16200 21.80700 44.72200
C  54.69400 26.45400 45.90300
N  50.64800 24.13000 43.51800
C  49.82100 25.19300 43.42700
C  48.51900 24.94100 42.61100
C  48.52800 23.35500 42.80000
C  50.00100 22.99300 43.15900
C  47.49200 22.89300 43.89200
C  48.64400 25.22700 41.02600
C  50.06100 25.26300 40.40800
H  50.23400 25.94000 39.07900
N  52.64900 21.90200 44.22300
C  51.73600 21.12600 43.54100
C  52.30600 19.79100 43.54200
C  53.63400 19.84300 44.04600
C  53.87900 21.24000 44.34200
C  51.47800 18.56500 43.07500
C  54.51600 18.61400 44.26500
O  54.16600 17.51000 43.86000
C  55.69100 18.69700 45.12100
N  54.67500 24.12400 45.08000
C  55.54200 23.10600 45.08400
C  56.92400 23.38600 45.48500
C  56.76700 24.88200 45.91600
C  55.25500 25.17500 45.63500
C  57.52600 22.39200 46.50300
C  57.72500 25.86400 45.11800
C  57.21800 26.40000 43.71200
N  52.54000 26.00300 44.93100
C  53.45600 26.88200 45.55100
C  52.81500 28.12200 45.72500
C  51.55100 27.96100 45.17600
C  51.44400 26.66600 44.69100
C  53.48500 29.40500 46.35400
C  50.26600 28.64300 44.93500
O  49.86600 29.79700 45.21600
C  49.39800 27.62200 44.21600
C  48.70600 28.11300 42.94600
O  49.30000 28.53200 41.97200
O  47.38100 27.99000 43.12600
C  46.55200 28.49800 42.05000
H  49.79200 20.87100 42.75400
H  55.94700 21.05100 44.65300
H  55.47400 27.14000 46.23800
H  47.60500 25.38600 43.00400
H  48.17600 22.90900 41.87000
H  46.71900 22.20400 43.55000
H  47.06200 23.78600 44.34500
H  48.07600 22.38000 44.65600
H  48.05300 26.12400 40.83900
H  48.11700 24.44900 40.47300
H  50.38300 24.22600 40.30800
H  50.75500 25.79000 41.06200
H  50.55700 18.92400 42.61500
H  51.19600 17.93700 43.92000
H  52.04500 17.87900 42.44600
H  55.67500 19.46000 45.90000
H  56.56800 18.87000 44.49800
H  55.81100 17.74000 45.62700
H  57.41700 23.26600 44.52000
H  56.86600 25.08800 46.98200
H  56.92000 21.52400 46.76400
H  57.73300 22.88100 47.45400
H  58.39800 21.98600 45.98900
H  58.68500 25.37100 44.96900
H  57.85300 26.69900 45.80800
H  57.94700 26.02700 42.99200
H  57.21100 27.48500 43.60600
H  56.25100 26.03300 43.36800
H  52.77700 30.08300 46.83200
H  54.16200 29.97500 45.71800
H  54.10900 29.09900 47.19400
H  48.59100 27.42200 44.92100
H  46.11900 27.68300 41.46900
H  47.07900 29.26000 41.47600
H  45.73200 29.09900 42.44400

