79

Mg 10.14300 47.75900 26.03300
C  7.79600 48.09200 28.75100
C  12.32300 49.39700 27.95000
C  12.07200 47.94200 23.41500
C  7.36600 46.93700 23.88100
N  10.05500 48.42500 28.10900
C  9.10500 48.42400 29.08700
C  9.63300 48.93800 30.48200
C  10.86000 49.74000 29.94500
C  11.09900 49.17900 28.55600
C  10.70600 51.28500 29.91200
C  9.98900 47.80000 31.47400
C  10.01800 48.08800 33.00100
H  9.47500 47.12000 34.07400
N  12.02800 48.34200 25.84000
C  12.83500 48.94000 26.72000
C  14.16400 49.02200 26.21700
C  14.10800 48.60000 24.85800
C  12.67900 48.27600 24.64000
C  15.24900 49.48000 27.16300
C  15.15500 48.50700 23.84700
O  14.90600 48.10900 22.71000
C  16.61500 48.82000 24.14200
N  9.78300 47.63800 23.88200
C  10.78100 47.56600 23.06300
C  10.41600 47.19000 21.59700
C  9.00700 46.60100 21.82900
C  8.71000 47.04300 23.30000
C  10.31400 48.42300 20.68900
C  8.87100 45.01100 21.60200
C  9.24800 44.13000 22.78000
N  8.03300 47.53000 26.24800
C  7.07500 47.10700 25.27700
C  5.78600 47.28400 25.88000
C  6.03500 47.63300 27.24000
C  7.42800 47.79300 27.39200
C  4.51400 47.06200 25.22700
C  5.39400 47.84900 28.47700
O  4.19100 47.73700 28.65400
C  6.51900 48.31400 29.53600
C  6.38600 47.46700 30.71500
O  6.82200 46.34500 30.88400
O  5.66500 48.15300 31.64300
C  5.52000 47.50800 32.95400
H  12.89200 50.10500 28.55700
H  12.71400 47.99300 22.53400
H  6.52100 46.68100 23.23800
H  8.90100 49.58600 30.96300
H  11.67600 49.71900 30.66800
H  9.74500 51.62700 30.29600
H  10.81900 51.65700 28.89400
H  11.58800 51.76700 30.33300
H  10.96700 47.43400 31.16200
H  9.32200 46.95300 31.31200
H  9.52600 49.05700 33.08500
H  11.07700 48.23600 33.20800
H  15.05500 49.35900 28.22900
H  15.43600 50.53200 26.94800
H  16.18500 48.96600 26.94600
H  16.96700 48.09500 24.87600
H  16.56400 49.82600 24.55800
H  17.19100 48.78100 23.21800
H  11.10400 46.47400 21.14800
H  8.28900 47.12900 21.20100
H  11.12400 48.22400 19.98700
H  10.59100 49.25100 21.34200
H  9.42800 48.58100 20.07400
H  9.68200 44.73500 20.92900
H  7.90800 44.88600 21.10500
H  8.83100 44.43600 23.74000
H  10.30700 43.98800 22.99800
H  8.88300 43.13800 22.51200
H  3.95600 47.99400 25.13200
H  3.99000 46.38800 25.90500
H  4.57500 46.52900 24.27900
H  6.39700 49.39000 29.65700
H  5.46700 46.41900 32.95400
H  4.52800 47.75300 33.33300
H  6.32700 47.81700 33.61800

