79

Mg -1.82200 34.26600 26.53800
C  -3.50600 32.60300 29.18600
C  -0.27800 36.30700 28.84600
C  -0.59800 36.15900 23.96800
C  -3.62300 32.46500 24.20600
N  -1.80800 34.39800 28.75300
C  -2.58600 33.61700 29.67100
C  -2.30400 33.95300 31.10500
C  -1.27300 35.25700 31.01800
C  -1.07500 35.36800 29.47400
C  -1.63600 36.49200 31.86200
C  -1.73800 32.69700 31.79400
C  -2.53900 32.10700 32.95500
H  -1.80400 31.91000 34.31800
N  -0.51300 35.89300 26.46000
C  0.00700 36.58900 27.54000
C  0.90600 37.55200 27.03500
C  0.70700 37.57700 25.59600
C  -0.13900 36.48900 25.28200
C  1.70800 38.50400 27.99800
C  1.30200 38.54500 24.55100
O  1.17500 38.58200 23.34200
C  2.26100 39.66200 25.08200
N  -2.22600 34.44400 24.39600
C  -1.53400 35.24100 23.54900
C  -1.81400 35.03400 22.00100
C  -2.75500 33.78400 22.14600
C  -2.90800 33.58000 23.65400
C  -2.45000 36.22600 21.33500
C  -2.19500 32.54500 21.30400
C  -0.99600 31.94100 21.92100
N  -3.25000 32.83600 26.65000
C  -3.87500 32.15300 25.64000
C  -4.83900 31.23900 26.14300
C  -4.75700 31.36300 27.54000
C  -3.76500 32.34400 27.76600
C  -5.58300 30.17500 25.35200
C  -5.23700 30.79300 28.77600
O  -6.07800 29.93900 28.96500
C  -4.47900 31.59500 29.93200
C  -5.46100 32.22300 30.85400
O  -6.15300 33.20500 30.55600
O  -5.59800 31.60000 32.06500
C  -6.69300 32.12600 32.87300
H  0.12100 36.90400 29.66800
H  -0.14500 36.69900 23.13400
H  -4.08600 31.77000 23.50200
H  -3.31300 34.14900 31.46900
H  -0.32300 34.95200 31.45600
H  -1.59600 37.42700 31.30400
H  -1.00700 36.57300 32.75000
H  -2.68500 36.33500 32.11300
H  -0.72800 32.97900 32.09300
H  -1.74000 31.88000 31.07200
H  -2.94200 31.12500 32.71100
H  -3.40700 32.73700 33.15200
H  1.31800 38.55000 29.01400
H  1.75700 39.51000 27.58000
H  2.75200 38.26500 28.20400
H  2.62200 40.34800 24.31500
H  3.12400 39.29900 25.64100
H  1.77100 40.33300 25.78700
H  -0.86000 34.75000 21.55800
H  -3.76500 34.00000 21.79800
H  -2.19400 36.22100 20.27600
H  -2.21000 37.07200 21.97900
H  -3.52600 36.07500 21.42100
H  -2.02800 32.87000 20.27800
H  -2.91300 31.73600 21.16800
H  -1.20600 30.88800 22.10800
H  -0.74500 32.25700 22.93400
H  -0.15500 32.01300 21.23100
H  -4.81900 29.63000 24.79800
H  -6.37100 30.66100 24.77700
H  -6.04700 29.47600 26.04800
H  -3.81600 30.89200 30.43500
H  -7.54700 32.44000 32.27300
H  -6.32900 33.05700 33.30700
H  -6.98600 31.47500 33.69600

