79

Mg -4.89600 25.35400 26.26300
C  -3.40400 27.14000 28.90800
C  -6.45100 23.41300 28.60300
C  -6.40300 23.85200 23.68300
C  -3.05700 27.39500 24.11700
N  -4.95400 25.36900 28.46300
C  -4.25500 26.14600 29.33400
C  -4.67500 25.93000 30.77400
C  -5.43700 24.52400 30.64100
C  -5.67500 24.42000 29.12500
C  -4.83700 23.25200 31.29700
C  -5.60200 27.10000 31.29500
C  -5.39400 27.33900 32.78500
H  -4.98600 26.18500 33.64800
N  -6.25200 23.79100 26.14300
C  -6.78300 23.15200 27.22000
C  -7.57600 22.07500 26.65400
C  -7.60700 22.14800 25.25500
C  -6.80400 23.36700 24.94600
C  -8.15800 20.94500 27.48000
C  -8.24500 21.21800 24.17700
O  -8.18400 21.37800 23.00200
C  -9.07800 20.06000 24.61700
N  -4.73900 25.56700 24.36500
C  -5.52300 24.92700 23.44100
C  -5.12100 25.15200 21.87100
C  -4.02000 26.25300 22.15500
C  -4.00600 26.48500 23.68400
C  -4.48600 23.92200 21.13800
C  -4.40900 27.52500 21.27900
C  -3.20300 28.36100 20.76600
N  -3.40300 26.90700 26.38900
C  -2.77800 27.60200 25.46200
C  -1.86100 28.55000 26.08400
C  -2.12600 28.39900 27.45700
C  -3.02300 27.38200 27.59500
C  -0.88800 29.49300 25.38800
C  -1.71100 28.81100 28.78000
O  -0.89300 29.69000 29.11800
C  -2.64900 28.04600 29.81300
C  -1.66100 27.33700 30.74200
O  -1.28500 26.22600 30.57200
O  -1.46600 28.07800 31.91600
C  -1.02700 27.45900 33.10900
H  -7.00500 22.78700 29.30600
H  -6.87700 23.33000 22.85000
H  -2.59600 28.05600 23.38000
H  -3.79100 25.70000 31.36900
H  -6.46200 24.60100 31.00500
H  -4.05900 22.82900 30.66100
H  -5.62200 22.51600 31.47000
H  -4.36100 23.45500 32.25600
H  -6.65200 26.82400 31.19700
H  -5.51200 28.02400 30.72500
H  -6.33200 27.71500 33.19400
H  -4.59200 28.07300 32.86900
H  -7.86200 21.04500 28.52400
H  -7.80400 20.00200 27.06300
H  -9.24300 20.93700 27.58000
H  -9.69400 20.33000 25.47400
H  -8.41600 19.27900 24.99200
H  -9.61900 19.61400 23.78200
H  -5.91900 25.47900 21.20600
H  -3.01700 25.96800 21.83700
H  -5.08500 23.73800 20.24600
H  -4.43300 23.01000 21.73300
H  -3.47100 24.08000 20.77400
H  -5.09400 28.21800 21.76800
H  -4.97800 27.27900 20.38200
H  -3.41700 28.52600 19.71000
H  -2.33000 27.73200 20.94000
H  -3.18100 29.33800 21.25100
H  -0.52200 30.19500 26.13800
H  -1.40600 30.08000 24.63000
H  -0.06900 28.95800 24.90800
H  -3.20900 28.78600 30.38500
H  -0.03200 27.86200 33.29900
H  -1.11100 26.37300 33.15000
H  -1.59800 27.86900 33.94300

