79

Mg 6.09300 54.84800 42.03400
C  3.07500 52.89400 41.60700
C  7.81800 52.28800 40.55600
C  8.44800 56.87900 41.47000
C  3.87700 57.40100 42.97800
N  5.47900 52.92600 41.04300
C  4.25200 52.31400 41.06400
C  4.36800 50.88800 40.48400
C  5.89800 50.62800 40.48700
C  6.46500 52.00500 40.76700
C  6.41700 49.57100 41.53400
C  3.78600 50.91200 38.99000
C  3.23800 49.58100 38.41200
H  3.98000 48.84400 37.31100
N  7.91100 54.64900 41.11700
C  8.48400 53.50000 40.70100
C  9.89500 53.71700 40.37500
C  10.08000 55.15000 40.47400
C  8.84100 55.64200 40.99600
C  10.69200 52.65100 39.79700
C  11.41500 55.94700 40.12700
O  12.40200 55.32400 39.70900
C  11.40500 57.45900 40.14400
N  6.06200 56.85300 42.03900
C  7.25500 57.40800 42.00800
C  7.30100 58.74100 42.82200
C  5.79800 59.07700 43.00000
C  5.17400 57.70300 42.69900
C  8.06500 58.68200 44.15600
C  5.13100 60.19100 42.08700
C  4.40000 61.32500 42.86300
N  3.90800 55.09400 42.40500
C  3.22300 56.15600 42.89100
C  1.77400 55.81000 43.09500
C  1.70500 54.51900 42.57500
C  3.00500 54.13100 42.20400
C  0.71400 56.68600 43.67400
C  0.74900 53.42700 42.35600
O  -0.44000 53.32200 42.66300
C  1.70200 52.23000 41.83600
C  1.01700 51.48800 40.77100
O  0.57800 51.92600 39.69000
O  0.77500 50.24700 41.28000
C  -0.01800 49.37900 40.45600
H  8.36100 51.40000 40.22700
H  9.33800 57.42400 41.79100
H  3.23700 58.21700 43.32100
H  3.94100 50.16400 41.17800
H  6.27500 50.33900 39.50600
H  7.06900 48.86200 41.02400
H  5.58700 49.06800 42.02900
H  7.09400 49.95300 42.29900
H  4.53700 51.32400 38.31600
H  2.94400 51.60400 39.00700
H  2.20300 49.69800 38.09100
H  3.35500 48.84500 39.20800
H  11.71400 53.01700 39.69900
H  10.32900 52.44700 38.79000
H  10.56400 51.76400 40.41700
H  10.50100 57.83600 39.66500
H  12.22000 57.90800 39.57600
H  11.33400 57.71000 41.20200
H  7.70300 59.51100 42.16400
H  5.61500 59.45900 44.00500
H  9.00900 59.20000 43.99000
H  8.42500 57.73000 44.54500
H  7.40700 59.11200 44.91100
H  4.39900 59.77400 41.39500
H  5.97700 60.57900 41.52200
H  4.38400 61.14800 43.93800
H  3.33000 61.39200 42.66400
H  4.80600 62.31900 42.67400
H  1.17300 57.15600 44.54400
H  -0.12900 56.02000 43.85800
H  0.32700 57.43600 42.98400
H  1.80100 51.61800 42.73200
H  -0.36300 49.70900 39.47600
H  -0.94900 49.12600 40.96400
H  0.51800 48.43700 40.34000

