79

Mg -1.54700 34.26000 26.70800
C  -3.32200 32.52800 29.15800
C  -0.24000 36.31600 29.12600
C  -0.17200 36.00100 24.27900
C  -3.32800 32.31000 24.25400
N  -1.95800 34.59000 28.88000
C  -2.46600 33.55500 29.65000
C  -2.26600 33.87300 31.15800
C  -1.33400 35.18600 31.05600
C  -1.22000 35.46400 29.62800
C  -1.74900 36.46000 31.84500
C  -1.69300 32.60300 31.83300
C  -2.53000 31.95700 32.99800
H  -1.72800 31.89500 34.38400
N  -0.17100 35.89300 26.74700
C  0.26000 36.58800 27.79500
C  1.19400 37.62900 27.36900
C  1.10700 37.55300 25.93600
C  0.16900 36.49400 25.58900
C  1.97100 38.51600 28.34900
C  1.83400 38.44600 24.88800
O  1.79900 38.32100 23.63000
C  2.64700 39.55200 25.45900
N  -1.86000 34.26500 24.60100
C  -1.03100 35.03600 23.80600
C  -1.23000 34.74100 22.27900
C  -1.83300 33.31400 22.40800
C  -2.46700 33.32700 23.84200
C  -2.09400 35.81500 21.52800
C  -0.87400 32.14600 21.99900
C  -0.05200 31.45600 23.09700
N  -2.99400 32.68700 26.66000
C  -3.56300 31.96600 25.60700
C  -4.30800 30.83200 26.15100
C  -4.27500 31.05200 27.54800
C  -3.46900 32.22400 27.81900
C  -5.07700 29.80100 25.43500
C  -4.73900 30.50300 28.75800
O  -5.42500 29.49600 28.95700
C  -4.11400 31.39400 29.89100
C  -5.17100 31.88600 30.75000
O  -5.92700 32.81600 30.34400
O  -5.43200 31.06000 31.80800
C  -6.48600 31.51900 32.71500
H  0.32000 36.73600 29.96400
H  0.14900 36.60300 23.42600
H  -3.68200 31.60600 23.49800
H  -3.26400 34.05200 31.55800
H  -0.34800 34.99900 31.48000
H  -2.65800 36.29300 32.42400
H  -1.88100 37.29400 31.15600
H  -0.98100 36.78700 32.54500
H  -0.67900 32.77800 32.19300
H  -1.49200 31.77100 31.15800
H  -2.74400 30.91400 32.76800
H  -3.40800 32.54700 33.26400
H  1.91100 39.57100 28.08300
H  3.03100 38.27000 28.29200
H  1.73800 38.32400 29.39700
H  1.96200 40.24400 25.94800
H  3.23800 39.97000 24.64400
H  3.32200 39.04200 26.14700
H  -0.28300 34.65200 21.74600
H  -2.78400 33.21200 21.88400
H  -2.12900 36.62700 22.25400
H  -3.05800 35.44500 21.18000
H  -1.60800 36.13100 20.60500
H  -0.14700 32.58400 21.31400
H  -1.38100 31.34400 21.46200
H  -0.35400 31.59700 24.13500
H  0.98800 31.76100 22.97700
H  -0.06300 30.38200 22.91200
H  -6.15400 29.96500 25.42400
H  -4.93900 28.79500 25.83100
H  -4.64400 29.74400 24.43600
H  -3.64700 30.67400 30.56400
H  -6.21800 32.50900 33.08500
H  -6.60800 30.90900 33.61000
H  -7.42300 31.71700 32.19500

