79

Mg 47.38800 25.43600 28.84600
C  48.68800 27.51200 31.42000
C  46.79000 22.93200 31.19500
C  46.53600 23.38700 26.34500
C  48.70700 27.64400 26.58500
N  47.73100 25.25100 31.05800
C  48.07800 26.32200 31.94200
C  47.91400 25.91900 33.42100
C  47.43400 24.39400 33.33100
C  47.33100 24.13400 31.75700
C  48.55200 23.33200 33.92500
C  46.88600 26.81400 34.09000
C  46.67400 26.28100 35.52400
H  46.53200 27.25500 36.76200
N  46.79100 23.35000 28.75300
C  46.52200 22.53100 29.83300
C  45.98600 21.30000 29.30700
C  45.88800 21.45100 27.89000
C  46.46900 22.76900 27.60300
C  45.68100 20.07000 30.11000
C  45.29500 20.53100 26.92400
O  45.45600 20.69700 25.70500
C  44.57800 19.34100 27.32700
N  47.61600 25.46300 26.73400
C  47.06500 24.56300 25.85900
C  46.99800 25.11000 24.40100
C  47.60700 26.52500 24.57100
C  48.02100 26.52400 26.02600
C  47.55700 24.21100 23.26700
C  46.70800 27.70300 24.11500
C  46.46100 27.78400 22.57600
N  48.45700 27.23600 28.87100
C  49.00300 28.04600 27.89500
C  49.74600 29.20600 28.36700
C  49.60700 28.98600 29.78000
C  48.83100 27.85400 30.00400
C  50.33600 30.27000 27.59300
C  49.96500 29.61900 31.08100
O  50.53700 30.65800 31.37600
C  49.17800 28.71100 32.16800
C  50.12600 28.37200 33.24600
O  51.04900 27.60300 33.23600
O  49.84500 29.19400 34.35400
C  50.81000 29.10600 35.46600
H  46.44300 22.14100 31.86300
H  46.03600 22.92400 25.49100
H  49.18500 28.29900 25.85300
H  48.82600 26.09500 33.99200
H  46.56400 24.33600 33.98400
H  49.47800 23.89000 34.06900
H  48.61300 22.40800 33.35000
H  48.28100 23.03900 34.94000
H  45.92300 26.81800 33.58000
H  47.35600 27.79300 34.18700
H  47.46200 25.59300 35.83000
H  45.73100 25.73600 35.49900
H  44.61000 19.90800 29.99100
H  45.98300 20.10600 31.15700
H  46.28200 19.33200 29.57800
H  43.67000 19.53700 27.89800
H  45.27700 18.68700 27.84800
H  44.28200 18.76100 26.45300
H  45.92300 25.27800 24.32800
H  48.55200 26.52500 24.02800
H  48.32500 23.54200 23.65400
H  47.82400 24.74400 22.35500
H  46.71400 23.56000 23.03800
H  47.17900 28.64300 24.40300
H  45.85900 27.48700 24.76300
H  47.33700 27.40100 22.05100
H  46.33000 28.84000 22.34300
H  45.56500 27.27400 22.22300
H  49.95800 31.22000 27.97100
H  50.09700 30.13300 26.53800
H  51.40300 30.33800 27.80500
H  48.43600 29.37500 32.61200
H  51.77200 29.49200 35.12900
H  50.77900 28.10500 35.89800
H  50.46200 29.79800 36.23300

