79

Mg -1.93800 17.82300 26.89600
C  -2.55900 15.72100 29.77200
C  -2.52200 20.54600 28.81200
C  -1.66400 19.54500 24.17300
C  -2.31700 14.85200 25.00700
N  -2.48000 18.07400 29.00900
C  -2.53800 17.12100 30.03700
C  -2.62200 17.96800 31.31400
C  -3.31000 19.30600 30.89400
C  -2.76200 19.37400 29.44500
C  -4.86200 19.09300 30.81900
C  -1.32000 18.02900 32.15900
C  -1.48300 18.27600 33.66400
H  -0.91900 17.29000 34.65800
N  -1.85800 19.79800 26.57000
C  -2.03600 20.81900 27.50000
C  -1.85900 22.06500 26.96000
C  -1.57700 21.82900 25.56200
C  -1.63400 20.28400 25.38000
C  -2.14500 23.34700 27.63200
C  -1.22700 22.73900 24.45200
O  -1.06200 22.35400 23.29600
C  -1.10000 24.23600 24.76300
N  -2.00800 17.25300 24.90800
C  -1.86700 18.17900 23.93000
C  -2.16300 17.70300 22.47700
C  -2.11500 16.19900 22.75500
C  -2.14600 16.06100 24.30600
C  -3.56200 18.30300 21.97200
C  -0.87400 15.40100 22.23600
C  0.46900 15.50700 22.99300
N  -2.29800 15.69200 27.27300
C  -2.32700 14.64200 26.40300
C  -2.55500 13.39500 27.14200
C  -2.63800 13.81000 28.43000
C  -2.46800 15.20200 28.48700
C  -2.62800 11.97000 26.59600
C  -2.75700 13.32100 29.80800
O  -2.87700 12.18700 30.25000
C  -2.74500 14.55500 30.70900
C  -1.58900 14.37700 31.67200
O  -0.42100 14.54100 31.45100
O  -2.11400 13.91100 32.83700
C  -1.17500 13.40200 33.87400
H  -2.76400 21.36300 29.49500
H  -1.68400 20.10300 23.23500
H  -2.28900 13.93500 24.41400
H  -3.26500 17.49700 32.05800
H  -3.01400 20.10800 31.57000
H  -5.24600 19.33600 29.82800
H  -5.25900 19.87700 31.46400
H  -5.29000 18.13400 31.11200
H  -0.73400 18.80300 31.66400
H  -0.72500 17.15100 31.90500
H  -2.49900 18.42600 34.02800
H  -1.01400 19.25200 33.79300
H  -2.23000 23.28200 28.71700
H  -3.07100 23.69600 27.17600
H  -1.37300 24.05500 27.32900
H  -0.48200 24.54000 25.60800
H  -2.14300 24.39600 25.03600
H  -0.70400 24.76300 23.89500
H  -1.36400 17.84300 21.74900
H  -3.01600 15.71600 22.37800
H  -3.38600 18.97000 21.12900
H  -4.04400 18.87700 22.76400
H  -4.22800 17.54600 21.55500
H  -0.63400 15.91200 21.30400
H  -0.97500 14.34400 21.98900
H  0.85100 14.49000 23.09100
H  0.38100 15.85400 24.02200
H  1.15800 16.15600 22.45300
H  -2.81300 12.12400 25.53200
H  -3.49300 11.52100 27.08400
H  -1.71200 11.38100 26.65200
H  -3.63600 14.58300 31.33600
H  -0.80400 12.40100 33.65300
H  -1.62100 13.38600 34.86800
H  -0.29100 14.03600 33.92800

