79

Mg 35.39600 47.86500 24.88200
C  35.58900 46.15000 27.95600
C  33.74600 50.54000 26.52100
C  34.77000 49.38800 21.85400
C  36.64400 45.09800 23.36800
N  34.68900 48.22800 26.98800
C  35.00200 47.42300 28.10300
C  34.70100 48.24300 29.36400
C  33.94600 49.48300 28.86500
C  34.15200 49.47900 27.35500
C  32.48000 49.61700 29.38600
C  36.01400 48.50600 30.11900
C  36.10300 47.89200 31.50700
H  35.79700 48.80300 32.76400
N  34.52000 49.82400 24.28500
C  33.94700 50.75800 25.12600
C  33.50700 51.91600 24.33300
C  33.83700 51.62100 22.92300
C  34.40300 50.22700 22.93700
C  32.83600 53.15800 24.95500
C  33.56200 52.42200 21.61200
O  33.80100 52.06800 20.44200
C  33.00200 53.79900 21.72000
N  35.55700 47.24400 22.85800
C  35.31300 48.05900 21.83100
C  35.66800 47.37700 20.52500
C  36.36000 46.06000 21.02700
C  36.16600 46.08900 22.49600
C  34.41600 47.15800 19.66800
C  37.86800 45.95000 20.67600
C  38.80000 46.95400 21.28000
N  36.13000 46.01600 25.49600
C  36.61900 45.03200 24.74300
C  37.19100 43.94600 25.60600
C  36.75500 44.33300 26.87200
C  36.05800 45.56800 26.75500
C  37.80400 42.57600 25.08600
C  36.66600 43.88900 28.25300
O  37.15100 43.00000 28.93400
C  36.06000 45.20700 29.06000
C  34.95900 44.61300 29.79400
O  33.85100 44.31100 29.41300
O  35.37400 44.36200 31.05700
C  34.52200 43.48400 31.86200
H  33.16300 51.33500 26.99000
H  34.57800 49.90000 20.90800
H  37.28600 44.33800 22.91900
H  34.03400 47.59500 29.93100
H  34.38300 50.40100 29.25900
H  31.77200 49.26400 28.63600
H  32.26700 50.66400 29.60500
H  32.32300 49.10900 30.33800
H  36.02900 49.59500 30.12700
H  36.94500 48.16800 29.66500
H  37.00500 47.30300 31.67300
H  35.39100 47.06600 31.50500
H  31.82200 53.25000 24.56500
H  33.35600 54.11300 24.88700
H  32.81700 53.17400 26.04500
H  32.95000 54.31900 20.76400
H  33.69100 54.43000 22.28100
H  32.08900 53.78500 22.31500
H  36.30600 48.02200 19.92100
H  35.88400 45.14500 20.67500
H  34.49000 46.15200 19.25400
H  34.43400 47.80700 18.79300
H  33.49100 47.31800 20.22000
H  37.91300 46.11300 19.59900
H  38.27500 44.96000 20.87700
H  39.67800 47.15700 20.66700
H  39.15300 46.44100 22.17500
H  38.29400 47.89100 21.51000
H  38.70300 42.35400 25.66200
H  37.86900 42.56500 23.99800
H  36.94900 41.96000 25.36400
H  36.83600 45.59800 29.71700
H  33.80600 44.04400 32.46200
H  35.09400 43.02000 32.66500
H  34.05500 42.68800 31.28200

