79

Mg 40.35000 9.53300 29.63800
C  42.66400 10.57200 32.14400
C  38.17300 8.59000 32.06600
C  38.26700 8.47600 27.19000
C  42.92900 9.88000 27.28900
N  40.48500 9.43600 31.79300
C  41.44100 10.12500 32.63900
C  40.92400 10.14600 34.11700
C  39.63300 9.16500 34.11700
C  39.43000 9.06100 32.56400
C  39.77100 7.83900 34.88700
C  40.77300 11.61300 34.70600
C  40.00800 11.74200 36.03600
H  40.34700 12.79100 37.09100
N  38.51400 8.49200 29.64200
C  37.77800 8.22000 30.73600
C  36.58100 7.57800 30.34900
C  36.67900 7.37500 28.93500
C  37.84600 8.15900 28.49200
C  35.41300 7.14900 31.29700
C  35.82800 6.61400 28.03900
O  36.15000 6.41600 26.88700
C  34.64200 5.99100 28.62000
N  40.57700 9.17600 27.53400
C  39.55000 8.90600 26.75500
C  39.94600 8.96400 25.24600
C  41.51300 9.10700 25.29200
C  41.71800 9.34900 26.78400
C  39.56900 7.67400 24.37300
C  42.05800 10.20400 24.34800
C  42.11000 11.68800 24.85900
N  42.31600 10.22000 29.61000
C  43.24300 10.35500 28.61300
C  44.43600 10.97100 29.09700
C  44.16900 11.11700 30.46900
C  42.91400 10.64200 30.76700
C  45.60200 11.38200 28.30000
C  44.77200 11.69800 31.61100
O  45.87200 12.28600 31.77600
C  43.78500 11.36400 32.76600
C  44.49700 10.53000 33.76700
O  44.72500 9.34900 33.76200
O  44.78000 11.37200 34.80200
C  45.36100 10.73600 35.99600
H  37.43800 8.36100 32.84100
H  37.57700 8.22700 26.38100
H  43.73000 9.86900 26.54700
H  41.63000 9.73300 34.83800
H  38.87500 9.80600 34.56800
H  40.80800 7.56500 35.08100
H  39.27800 7.11600 34.23700
H  39.17100 7.76800 35.79400
H  40.29800 12.23500 33.94700
H  41.70300 12.14100 34.91800
H  39.93100 10.80400 36.58700
H  38.96800 11.96900 35.80300
H  35.66800 7.75300 32.16800
H  35.48900 6.09300 31.55900
H  34.38500 7.42500 31.06600
H  34.86700 5.43500 29.53000
H  34.20700 5.28200 27.91500
H  33.84400 6.67900 28.90000
H  39.45700 9.72700 24.64100
H  42.02800 8.18200 25.03200
H  39.54700 6.78800 25.00700
H  40.30700 7.48600 23.59400
H  38.60700 7.96200 23.94900
H  41.68400 10.21000 23.32400
H  43.13400 10.03200 24.37200
H  41.26200 11.86800 25.51900
H  41.99200 12.33900 23.99300
H  43.05500 11.89100 25.36400
H  45.49000 12.30900 27.73800
H  46.09700 10.70200 27.60700
H  46.40300 11.59600 29.00900
H  43.41000 12.31500 33.14500
H  44.75700 9.88700 36.31500
H  45.61000 11.44400 36.78600
H  46.31900 10.26900 35.76900

