79

Mg 28.23500 55.84800 39.98900
C  25.95500 53.33200 39.24600
C  30.69400 53.61900 39.02300
C  30.41900 58.34700 39.84700
C  25.61600 58.03300 40.19200
N  28.31300 53.72400 39.19500
C  27.25600 52.88000 39.03100
C  27.66700 51.46100 38.69500
C  29.24800 51.54100 38.90500
C  29.45200 53.02900 39.12700
C  29.90100 50.74000 40.11700
C  27.19300 51.10700 37.29300
C  27.92500 51.68800 36.11000
H  27.10300 52.33000 34.91200
N  30.29500 55.94500 39.68600
C  31.13300 54.89200 39.37200
C  32.47500 55.31700 39.41700
C  32.45900 56.69100 39.70000
C  31.06100 57.06300 39.71900
C  33.70600 54.41300 39.20600
C  33.60400 57.56000 39.88500
O  34.79000 57.17100 39.71400
C  33.50000 59.09000 40.20600
N  28.05100 57.94300 39.86700
C  29.06700 58.76600 40.03000
C  28.58800 60.24600 40.18400
C  27.06300 60.10900 40.48400
C  26.84600 58.64100 40.07700
C  29.39200 61.15100 41.15000
C  26.17100 61.11300 39.70900
C  25.27300 62.06500 40.53900
N  26.21600 55.77900 39.87900
C  25.28300 56.78100 39.88700
C  23.95100 56.22100 39.86100
C  24.15800 54.88000 39.62700
C  25.58200 54.68300 39.46100
C  22.64200 56.98100 40.22600
C  23.54500 53.58900 39.50100
O  22.36900 53.22000 39.60000
C  24.68100 52.52600 39.23100
C  24.65200 51.50900 40.27300
O  24.13900 50.39500 40.08200
O  25.51500 51.79200 41.34000
C  25.92300 50.68000 42.19000
H  31.49700 52.91400 38.79600
H  31.16500 59.14100 39.92300
H  24.79200 58.70900 40.42700
H  27.16200 50.82800 39.42400
H  29.62300 51.12800 37.96900
H  29.14700 49.95400 40.15100
H  29.80500 51.38500 40.99000
H  30.91100 50.42500 39.85500
H  26.11700 51.13000 37.12200
H  27.49300 50.06300 37.21400
H  28.55600 50.86500 35.77400
H  28.57200 52.51300 36.40600
H  33.90700 54.39600 38.13500
H  33.41900 53.45600 39.64300
H  34.47400 54.78500 39.88400
H  32.81000 59.36500 41.00300
H  33.24900 59.69000 39.33100
H  34.50600 59.37700 40.51500
H  28.66300 60.60600 39.15800
H  26.98100 60.20400 41.56700
H  30.27000 60.64600 41.55300
H  28.81300 61.55700 41.98000
H  29.71700 62.04400 40.61600
H  25.55300 60.58200 38.98400
H  26.86200 61.65100 39.06000
H  25.93100 62.74800 41.07700
H  24.64800 61.52700 41.25100
H  24.68700 62.62500 39.81000
H  22.33000 57.59600 39.38200
H  22.91700 57.59000 41.08700
H  21.84100 56.30000 40.51500
H  24.46100 52.15800 38.22900
H  27.00400 50.67700 42.32400
H  25.73600 49.65900 41.86000
H  25.48900 50.69800 43.19000

