79

Mg 29.78700 58.48800 39.52600
C  27.12700 56.30800 38.46500
C  32.00500 56.06700 38.63700
C  32.25700 60.78400 39.59700
C  27.40900 60.90900 40.12100
N  29.50700 56.48000 38.64900
C  28.40400 55.71600 38.34800
C  28.70000 54.22900 38.14600
C  30.23100 54.12800 38.43600
C  30.66100 55.66000 38.67300
C  30.59700 53.20400 39.63500
C  28.36200 53.76900 36.68800
C  29.01500 54.46100 35.45000
H  28.20100 55.05600 34.37200
N  31.91900 58.46300 39.18600
C  32.62200 57.28500 38.85500
C  33.99100 57.61000 38.84400
C  34.11700 59.02600 39.24200
C  32.75100 59.51200 39.33400
C  35.10300 56.52300 38.61400
C  35.42600 59.61300 39.53600
O  36.44400 58.93800 39.40300
C  35.46300 60.99400 39.86600
N  29.83500 60.55900 39.71300
C  30.95800 61.28100 39.84000
C  30.74400 62.70900 40.33300
C  29.19000 62.77800 40.37200
C  28.78700 61.28700 40.08400
C  31.50100 63.00500 41.62500
C  28.48200 63.75000 39.39300
C  27.42400 64.73200 39.92400
N  27.66000 58.68600 39.49100
C  26.85700 59.71200 39.80400
C  25.56000 59.33200 39.54600
C  25.60600 58.00100 39.03600
C  26.86400 57.63800 38.98200
C  24.31300 60.20500 39.60500
C  24.77200 56.89300 38.56800
O  23.59800 56.86200 38.50400
C  25.73200 55.71200 38.25100
C  25.34300 54.51300 39.08200
O  25.14700 54.39600 40.28300
O  25.18300 53.50300 38.18300
C  24.49600 52.37300 38.75500
H  32.64800 55.19200 38.52100
H  32.96800 61.61000 39.52400
H  26.75600 61.73100 40.42000
H  28.07300 53.61700 38.79300
H  30.87700 53.76500 37.63700
H  29.69800 52.86900 40.15300
H  31.06400 53.84200 40.38600
H  31.28800 52.44100 39.27800
H  27.29100 53.77000 36.48700
H  28.74900 52.75000 36.71600
H  29.82700 53.80300 35.13900
H  29.53400 55.34500 35.81800
H  34.72600 55.53000 38.37000
H  35.72200 56.39400 39.50200
H  35.68900 56.94500 37.79800
H  34.84300 61.13000 40.75200
H  35.10300 61.56400 39.01000
H  36.44100 61.41600 40.09600
H  30.99700 63.45900 39.58400
H  28.88400 63.08400 41.37300
H  32.04000 63.94700 41.52600
H  32.15800 62.17200 41.87400
H  30.91400 63.25500 42.50900
H  27.94900 63.11000 38.68900
H  29.21800 64.34900 38.85600
H  26.40500 64.53400 39.59100
H  27.64300 65.77100 39.67700
H  27.38700 64.71500 41.01300
H  23.80500 60.10100 38.64700
H  24.49300 61.26600 39.77900
H  23.69000 59.91800 40.45200
H  25.70400 55.32000 37.23400
H  25.14500 51.60600 39.17700
H  23.89200 52.04300 37.91000
H  23.78100 52.51300 39.56600

