79

Mg -2.19400 35.66400 27.21500
C  -3.54900 33.45800 29.51400
C  -0.62700 37.30900 29.64200
C  -1.11100 37.77900 24.85000
C  -3.99400 33.84600 24.71000
N  -2.29800 35.55900 29.34000
C  -2.79700 34.50000 30.09200
C  -2.59500 34.65600 31.59300
C  -1.64300 35.95000 31.61200
C  -1.60700 36.38900 30.18100
C  -2.01700 37.10700 32.69800
C  -1.89500 33.39100 32.20700
C  -2.63600 32.76100 33.40800
H  -1.75100 32.75700 34.67100
N  -1.03400 37.30400 27.20100
C  -0.42700 37.79000 28.32200
C  0.50200 38.87000 27.96500
C  0.52500 38.84900 26.57500
C  -0.58500 38.01800 26.16700
C  1.18800 39.63400 29.03500
C  1.26100 39.67900 25.63400
O  1.16800 39.67000 24.44600
C  2.39100 40.58100 26.20600
N  -2.61600 35.81700 25.12400
C  -2.04800 36.83600 24.36300
C  -2.32500 36.68900 22.85600
C  -3.20700 35.42200 22.78300
C  -3.32600 34.98900 24.31300
C  -2.93300 37.92300 22.16100
C  -2.61300 34.26700 21.93300
C  -1.45400 33.47000 22.52200
N  -3.66600 34.14400 27.12300
C  -4.24300 33.47200 26.07100
C  -4.98400 32.30900 26.58900
C  -4.79000 32.26800 27.97200
C  -3.85700 33.37300 28.23300
C  -5.83000 31.51100 25.66600
C  -4.97900 31.52800 29.19800
O  -5.43000 30.39900 29.39300
C  -4.35800 32.41300 30.25900
C  -5.50200 33.00600 31.05000
O  -6.26600 33.88400 30.64900
O  -5.58000 32.31800 32.23400
C  -6.52300 32.83200 33.17400
H  -0.04700 37.69800 30.48200
H  -0.70100 38.40900 24.05800
H  -4.58300 33.33000 23.94900
H  -3.56600 34.78000 32.07200
H  -0.59200 35.70200 31.76400
H  -2.23400 36.71500 33.69100
H  -2.83000 37.68600 32.26000
H  -1.09400 37.67500 32.81200
H  -0.94300 33.76900 32.58200
H  -1.55300 32.57100 31.57600
H  -2.91400 31.71500 33.27400
H  -3.52700 33.35200 33.61900
H  1.10500 39.20400 30.03400
H  0.75100 40.63000 28.97100
H  2.25600 39.81200 28.90600
H  2.86000 41.07800 25.35700
H  3.17700 40.10300 26.78900
H  1.91700 41.25400 26.92100
H  -1.41600 36.32400 22.37800
H  -4.26200 35.52900 22.52900
H  -3.80600 37.73700 21.53500
H  -2.19100 38.47400 21.58400
H  -3.23900 38.63900 22.92300
H  -2.22300 34.62600 20.98100
H  -3.42700 33.59600 21.65900
H  -0.65800 33.26500 21.80700
H  -1.82100 32.53800 22.95200
H  -1.02600 33.99000 23.37900
H  -5.39600 31.38200 24.67400
H  -6.62900 32.19000 25.36700
H  -6.32100 30.64900 26.11600
H  -3.73600 31.79500 30.90600
H  -7.35500 33.41200 32.77500
H  -6.04600 33.41700 33.96000
H  -7.16600 32.04100 33.56100

