79

Mg 47.62100 33.95500 26.39000
C  45.82900 32.53000 29.07100
C  48.14800 36.80100 28.45100
C  49.10200 35.42700 23.80500
C  46.67700 31.18900 24.39700
N  46.98400 34.56500 28.44000
C  46.45300 33.73000 29.43300
C  46.58100 34.34300 30.80300
C  46.93100 35.83000 30.48500
C  47.35700 35.77000 29.04300
C  45.76800 36.82700 30.66700
C  47.70000 33.58700 31.65400
C  47.28700 33.38600 33.07600
H  46.26000 34.34600 33.69500
N  48.42800 35.87500 26.14400
C  48.67100 36.83800 27.09500
C  49.64200 37.79600 26.56000
C  49.70600 37.51900 25.17500
C  49.09800 36.20200 24.94500
C  50.24200 38.95800 27.37000
C  50.45900 38.28300 24.07500
O  50.62800 37.86200 22.94400
C  51.09300 39.61600 24.28900
N  47.83100 33.47100 24.34600
C  48.49900 34.25500 23.49900
C  48.46300 33.54600 22.07200
C  48.16500 32.16000 22.57400
C  47.47300 32.26100 23.83000
C  47.37600 34.12100 21.06900
C  49.34300 31.26700 22.80700
C  49.41800 29.96700 21.92400
N  46.39500 32.34000 26.56200
C  46.08100 31.28000 25.66300
C  45.28700 30.31100 26.34200
C  45.11700 30.81000 27.62600
C  45.81000 32.01200 27.72800
C  44.89800 28.97000 25.79700
C  44.50700 30.53400 28.87700
O  43.75100 29.61000 29.14200
C  44.95300 31.59600 29.87800
C  45.54900 30.86800 31.00800
O  46.25300 29.92000 30.94500
O  44.87300 31.18600 32.18500
C  45.18000 30.34500 33.29000
H  48.24900 37.70500 29.05500
H  49.51900 35.88000 22.90400
H  46.50000 30.36700 23.70100
H  45.59100 34.21500 31.24200
H  47.77500 36.18800 31.07300
H  45.24200 37.25600 29.81400
H  46.00500 37.58500 31.41400
H  44.94800 36.30800 31.16400
H  48.65600 34.08800 31.50700
H  47.81800 32.58000 31.25200
H  48.26800 33.40600 33.55100
H  47.06200 32.33500 33.25600
H  50.10200 38.72400 28.42500
H  49.80900 39.88100 26.98500
H  51.30100 39.15000 27.19400
H  51.52800 39.89600 23.32900
H  51.86800 39.41800 25.03000
H  50.33500 40.29600 24.67700
H  49.45100 33.66500 21.62800
H  47.54600 31.71800 21.79300
H  47.32700 35.18900 21.27800
H  46.41600 33.61800 21.18900
H  47.68700 34.05400 20.02700
H  49.49200 31.04000 23.86300
H  50.18800 31.92200 22.59500
H  50.43000 29.73900 21.59000
H  48.74300 30.07800 21.07500
H  49.11000 29.12400 22.54300
H  45.88100 28.50500 25.71900
H  44.24500 28.98200 24.92400
H  44.52200 28.33300 26.59800
H  44.05600 32.11600 30.21400
H  44.86900 29.34500 32.98800
H  44.78400 30.64300 34.26000
H  46.25900 30.30400 33.43600

