79

Mg 48.77000 35.61800 28.36200
C  46.48900 34.08900 30.71100
C  48.84400 38.31900 30.48500
C  50.34900 37.36300 25.97300
C  48.37400 32.99800 26.33500
N  47.77800 36.08100 30.36800
C  46.99300 35.36300 31.18500
C  46.63800 36.06000 32.49300
C  47.24500 37.47900 32.32400
C  47.99900 37.29400 30.96100
C  46.22000 38.63800 32.30600
C  47.18200 35.41400 33.78100
C  48.59400 34.81500 33.70500
H  49.79300 35.70100 34.11200
N  49.43900 37.55900 28.28400
C  49.47800 38.51400 29.26700
C  50.17800 39.70700 28.84700
C  50.53400 39.44000 27.48800
C  50.10800 38.06700 27.18900
C  50.38300 40.92900 29.67200
C  51.34100 40.28000 26.58300
O  51.69800 39.97900 25.42600
C  51.91900 41.62200 27.05300
N  49.23000 35.31700 26.40800
C  49.92700 36.13300 25.58600
C  50.38500 35.37200 24.37700
C  49.97800 33.90100 24.61800
C  49.15400 34.04400 25.88700
C  49.91100 35.87600 23.05400
C  51.23500 33.00400 24.76500
C  51.67000 32.17000 23.57700
N  47.75000 33.80100 28.49100
C  47.61400 32.84300 27.52700
C  46.74200 31.78400 28.00500
C  46.23400 32.25000 29.23800
C  46.94000 33.42200 29.53000
C  46.49300 30.51800 27.31800
C  45.26700 31.99800 30.26200
O  44.40400 31.10400 30.35600
C  45.40800 33.19500 31.26000
C  45.71000 32.66100 32.61600
O  46.77500 32.17500 32.92500
O  44.65100 32.88000 33.40700
C  44.83500 32.68000 34.81400
H  49.04500 39.19000 31.11400
H  51.01500 37.77600 25.21200
H  48.35200 32.11100 25.69900
H  45.55200 36.03800 32.58100
H  48.05700 37.67700 33.02300
H  45.83600 38.79500 31.29800
H  46.67100 39.53400 32.73500
H  45.36500 38.17500 32.79700
H  46.52500 34.57100 33.99400
H  47.20500 36.15200 34.58300
H  48.72000 34.41400 32.70000
H  48.70600 33.96000 34.37200
H  50.22900 41.83000 29.07900
H  51.32600 40.90200 30.21900
H  49.56300 40.99900 30.38700
H  51.21100 42.44700 26.97400
H  52.73200 41.75800 26.34000
H  52.41200 41.42000 28.00400
H  51.46700 35.48400 24.43700
H  49.30300 33.40400 23.92100
H  50.79200 36.26900 22.54700
H  49.11900 36.60800 23.21100
H  49.58800 35.11500 22.34400
H  51.11300 32.39300 25.66000
H  52.12400 33.59200 24.99300
H  52.54200 32.63500 23.11900
H  50.91400 32.23900 22.79400
H  51.73000 31.09900 23.77000
H  47.42100 30.20900 26.83500
H  45.67500 30.51500 26.59800
H  46.25300 29.78400 28.08700
H  44.48800 33.77900 31.24100
H  44.33800 33.51300 35.31200
H  45.87500 32.82300 35.10900
H  44.43700 31.70400 35.09000

