79

Mg 2.35000 -0.77300 44.38800
C  5.89200 -0.23700 44.06600
C  1.99700 2.08200 42.59900
C  -0.91700 -1.63800 43.98000
C  2.97700 -3.83500 45.86500
N  3.86800 0.58400 43.17300
C  5.23800 0.69200 43.35700
C  5.82000 2.01300 42.69300
C  4.49600 2.83500 42.36800
C  3.39200 1.78300 42.80700
C  4.45800 4.31600 42.90900
C  6.59100 1.72600 41.41200
C  7.66600 2.77300 40.96100
H  7.24300 3.49600 39.75400
N  0.76700 0.12800 43.42800
C  0.80900 1.34300 42.78200
C  -0.54200 1.68000 42.28400
C  -1.42000 0.65100 42.66900
C  -0.52900 -0.36300 43.36300
C  -0.77900 3.00300 41.50600
C  -2.90500 0.63200 42.41000
O  -3.42200 1.58100 41.82500
C  -3.76600 -0.43800 42.81800
N  1.21100 -2.62300 44.61200
C  -0.17000 -2.60600 44.58900
C  -0.69800 -3.95600 45.02100
C  0.53900 -4.58900 45.78700
C  1.72000 -3.64900 45.37300
C  -2.00700 -3.86700 45.87500
C  0.79000 -6.08000 45.48600
C  0.64000 -7.10200 46.65000
N  4.10900 -1.92000 44.88100
C  4.15000 -3.10700 45.54200
C  5.50400 -3.32900 45.87800
C  6.25400 -2.27900 45.30700
C  5.30500 -1.41600 44.70500
C  6.14200 -4.50200 46.59700
C  7.55200 -1.68000 45.20800
O  8.62500 -2.12000 45.66600
C  7.39500 -0.40400 44.27300
C  7.95900 0.81100 44.96600
O  7.71100 1.27600 46.06900
O  8.95300 1.32400 44.10700
C  9.51700 2.59600 44.57700
H  1.99500 3.09800 42.19900
H  -1.99000 -1.83800 43.95400
H  3.17200 -4.70000 46.50300
H  6.50300 2.49000 43.39600
H  4.39500 2.99000 41.29400
H  4.25700 5.15000 42.23600
H  5.38800 4.58500 43.41000
H  3.80400 4.21000 43.77500
H  5.94300 1.48400 40.57000
H  7.18600 0.81300 41.45200
H  8.68600 2.44600 40.75700
H  7.81800 3.52000 41.74000
H  0.11900 3.61500 41.42100
H  -1.52900 3.61800 42.00200
H  -1.07000 2.80200 40.47500
H  -4.80000 -0.23700 42.53600
H  -3.68300 -0.52300 43.90200
H  -3.43800 -1.32900 42.28200
H  -0.99600 -4.50100 44.12500
H  0.42900 -4.46500 46.86400
H  -2.62900 -4.75200 45.74300
H  -2.62500 -3.00400 45.62600
H  -1.77900 -3.84400 46.94100
H  1.77300 -6.11800 45.01500
H  0.09900 -6.40900 44.71000
H  1.52700 -7.72600 46.54100
H  -0.24900 -7.72300 46.54100
H  0.62700 -6.66100 47.64700
H  5.99500 -4.34400 47.66500
H  7.22900 -4.56200 46.53200
H  5.67700 -5.41600 46.22900
H  7.93700 -0.57000 43.34200
H  10.52500 2.75000 44.19200
H  9.63000 2.51100 45.65800
H  8.89900 3.48400 44.45300

