79

Mg 36.06400 1.36200 29.82800
C  33.63700 2.01700 32.35500
C  38.43300 1.50400 32.32900
C  38.22000 0.49100 27.46700
C  33.51000 1.48700 27.46300
N  36.01500 1.71900 32.05700
C  34.93900 1.86400 32.86400
C  35.39600 2.00100 34.32600
C  36.88300 1.97100 34.24900
C  37.14400 1.82100 32.77400
C  37.53600 3.18900 34.82700
C  34.61200 0.89600 35.18400
C  34.33000 1.16500 36.72000
H  34.95400 2.41600 37.34500
N  38.06000 0.95200 29.90300
C  38.79700 1.09700 31.02600
C  40.14900 0.75900 30.64500
C  40.18200 0.47100 29.23100
C  38.77100 0.59400 28.78400
C  41.25800 0.64900 31.68400
C  41.39600 0.13700 28.32100
O  41.26100 -0.03700 27.07600
C  42.81700 -0.09000 28.83300
N  35.87800 0.99300 27.82400
C  36.91100 0.53500 27.02500
C  36.54500 0.22600 25.53100
C  35.07300 0.70300 25.55900
C  34.77000 1.04800 27.08200
C  37.38700 1.01700 24.45100
C  34.10200 -0.30300 24.78300
C  33.42700 -1.49400 25.58600
N  33.97700 1.97000 29.76300
C  33.05600 1.78900 28.78100
C  31.78500 2.13600 29.22300
C  31.93000 2.11200 30.62800
C  33.28400 2.06400 30.95600
C  30.50700 2.15400 28.47600
C  31.25900 2.22100 31.90400
O  30.09100 2.43500 32.03100
C  32.28200 2.12500 33.04700
C  32.15300 3.39000 33.90300
O  32.35400 4.54400 33.53100
O  31.69700 2.98700 35.09700
C  31.19700 4.03800 35.93900
H  39.23300 1.45200 33.07100
H  38.84200 0.11600 26.65100
H  32.77900 1.61700 26.66200
H  35.00800 2.97500 34.62200
H  37.30000 1.14000 34.81800
H  36.80800 3.98900 34.68900
H  38.44100 3.32900 34.23600
H  37.83300 2.92500 35.84200
H  35.22300 -0.00000 35.08000
H  33.68700 0.46900 34.79600
H  34.74100 0.36500 37.33500
H  33.25900 1.14400 36.92300
H  41.66300 -0.36300 31.71800
H  41.04100 0.88500 32.72600
H  42.08600 1.31100 31.43500
H  42.85600 -1.08400 29.28000
H  43.12100 0.68400 29.53700
H  43.56700 -0.00400 28.04600
H  36.60400 -0.86300 25.54400
H  34.92900 1.62800 25.00100
H  38.07700 1.76100 24.84800
H  36.82800 1.54000 23.67400
H  37.79400 0.23400 23.81200
H  34.66400 -0.76900 23.97400
H  33.23500 0.15200 24.30600
H  32.35300 -1.37200 25.72900
H  33.76900 -1.57900 26.61700
H  33.60300 -2.44600 25.08400
H  29.84200 1.29800 28.59100
H  30.64500 2.44300 27.43400
H  29.95800 3.03000 28.82300
H  32.03000 1.27200 33.67600
H  31.14500 5.00200 35.43300
H  31.73200 4.15900 36.88100
H  30.16500 3.74500 36.13200

