79

Mg 36.22600 49.59400 24.76400
C  36.33200 47.98700 27.95500
C  34.91000 52.37100 26.38700
C  35.97500 50.97000 21.83700
C  37.17900 46.54300 23.33200
N  35.55100 50.08600 26.88400
C  35.86800 49.30200 28.03200
C  35.57000 50.11200 29.28500
C  34.87900 51.42800 28.66500
C  35.00800 51.22800 27.19500
C  33.35000 51.61900 29.16000
C  36.83500 50.18800 30.26000
C  36.64300 49.64500 31.66200
H  36.66300 50.68200 32.78500
N  35.74100 51.47300 24.21200
C  35.20300 52.47200 24.96700
C  35.02500 53.64000 24.16200
C  35.37700 53.26900 22.80900
C  35.78700 51.85200 22.86500
C  34.35000 54.91000 24.67000
C  35.30400 54.06900 21.51600
O  35.57600 53.67800 20.40300
C  34.87500 55.49500 21.45900
N  36.40600 48.78300 22.87300
C  36.20400 49.53200 21.79900
C  36.58600 48.87500 20.51500
C  37.27500 47.53200 21.00200
C  36.92600 47.58700 22.50400
C  35.33300 48.71200 19.59100
C  38.75100 47.43600 20.72500
C  39.15900 46.19500 19.77000
N  36.50700 47.61200 25.41100
C  37.03000 46.55300 24.73200
C  37.18600 45.45300 25.67000
C  36.96100 45.96600 26.89600
C  36.52400 47.28500 26.72600
C  37.61600 44.08900 25.27400
C  36.99700 45.62400 28.30700
O  37.39500 44.62500 28.86400
C  36.52900 46.89000 29.06300
C  35.21700 46.54800 29.71600
O  34.16400 46.44100 29.15400
O  35.41200 46.31200 31.03100
C  34.23000 45.81800 31.70800
H  34.53000 53.23900 26.93100
H  35.99900 51.43000 20.84700
H  37.52700 45.62000 22.86500
H  34.77100 49.54000 29.75600
H  35.47900 52.30000 28.92900
H  33.00600 50.87600 29.88000
H  32.59200 51.57700 28.37800
H  33.27800 52.62700 29.56900
H  37.16800 51.21900 30.37800
H  37.66300 49.59700 29.86700
H  37.49600 48.98800 31.82700
H  35.72800 49.05400 31.71000
H  34.68100 55.73900 24.04400
H  34.56500 55.14500 25.71300
H  33.27300 54.82800 24.52600
H  35.02800 55.94600 20.47900
H  35.46900 56.11000 22.13500
H  33.79900 55.53200 21.62700
H  37.23300 49.59900 20.01900
H  36.66600 46.69800 20.65400
H  34.37600 48.53700 20.08200
H  35.46800 47.77800 19.04600
H  35.19000 49.50200 18.85300
H  39.13500 47.26800 21.73100
H  39.12200 48.37300 20.30900
H  39.87300 46.61400 19.06100
H  38.20200 45.82000 19.40600
H  39.68600 45.40300 20.30100
H  37.00900 43.86900 24.39500
H  37.45400 43.42200 26.12100
H  38.68000 44.07100 25.04000
H  37.27400 47.16900 29.80800
H  34.46200 45.94700 32.76500
H  34.03800 44.76700 31.48900
H  33.33100 46.37900 31.45400

