79

Mg 42.99300 42.11800 25.76600
C  42.55600 44.11000 28.69700
C  44.50600 39.81800 27.95200
C  43.93200 40.33300 23.15300
C  41.94300 44.77100 23.83100
N  43.39300 41.99800 28.09800
C  43.11100 42.85300 29.04700
C  43.56900 42.46100 30.48100
C  44.43800 41.24900 30.13200
C  44.13400 40.96800 28.66600
C  45.93800 41.42100 30.45100
C  42.34700 42.14300 31.38300
C  42.24000 42.96100 32.70400
H  40.83100 43.43200 33.14400
N  43.88800 40.16400 25.57600
C  44.33900 39.40700 26.61500
C  44.85200 38.15200 26.12600
C  44.71600 38.20800 24.65600
C  44.22400 39.59300 24.35400
C  45.22000 36.95500 27.00200
C  44.88200 37.17100 23.63000
O  44.60800 37.40300 22.45400
C  45.40900 35.72900 23.92400
N  42.95200 42.50200 23.88700
C  43.40400 41.61100 22.93800
C  43.19700 42.01100 21.46800
C  42.30800 43.21400 21.68300
C  42.39200 43.56700 23.25100
C  44.44700 42.21000 20.62700
C  40.85400 43.04000 21.18600
C  39.92200 42.08900 21.97600
N  42.27800 44.03400 26.15900
C  41.93700 45.02900 25.18900
C  41.46400 46.22900 25.94700
C  41.78300 45.92200 27.31500
C  42.22800 44.53800 27.35500
C  41.22800 47.58000 25.43600
C  41.58600 46.39900 28.65800
O  41.12900 47.44900 29.09200
C  42.05200 45.29700 29.60200
C  43.10900 45.76400 30.47500
O  44.28700 45.63700 30.24600
O  42.64200 46.22400 31.67000
C  43.65500 46.67500 32.63400
H  44.98700 39.11400 28.63400
H  44.20800 39.80700 22.23700
H  41.62300 45.53700 23.12300
H  44.08300 43.27100 31.00100
H  44.14400 40.43800 30.79800
H  46.39500 40.45100 30.64200
H  46.05200 42.01500 31.35800
H  46.49900 41.84400 29.61700
H  42.34000 41.10900 31.72700
H  41.37900 42.22300 30.88800
H  42.97700 43.76400 32.69200
H  42.53600 42.33700 33.54800
H  46.30600 36.86500 27.00700
H  44.64800 36.09900 26.64300
H  44.96900 37.01000 28.06200
H  45.63100 35.11400 23.05200
H  44.53500 35.25800 24.37500
H  46.27400 35.77500 24.58600
H  42.59900 41.27700 20.92800
H  42.74300 44.11900 21.25900
H  45.28600 41.85300 21.22400
H  44.78000 43.22300 20.40200
H  44.35800 41.66600 19.68700
H  40.92700 42.67900 20.16000
H  40.42900 44.04400 21.15600
H  39.15400 41.65000 21.33900
H  39.53900 42.66900 22.81500
H  40.52000 41.31300 22.45500
H  40.97000 47.52600 24.37900
H  42.05300 48.27500 25.59400
H  40.30400 47.90900 25.91200
H  41.26800 44.88200 30.23500
H  44.00300 45.84100 33.24300
H  43.07700 47.34700 33.27000
H  44.39100 47.40100 32.28800

