79

Mg 1.84900 -1.32500 44.32600
C  5.19300 -0.19600 44.16900
C  0.89800 1.79000 43.25500
C  -1.28700 -2.40500 44.22500
C  2.92000 -4.51600 45.21500
N  2.94900 0.51400 43.70000
C  4.31700 0.82500 43.78700
C  4.59400 2.22100 43.16300
C  3.20900 2.94200 43.08600
C  2.32000 1.69100 43.33300
C  2.93900 4.07400 44.20000
C  5.24100 2.02700 41.79200
C  6.48500 2.93200 41.55900
H  7.55700 2.21100 40.79500
N  0.06500 -0.48000 43.64900
C  -0.14800 0.83200 43.33700
C  -1.52600 1.05100 43.10100
C  -2.20800 -0.17600 43.29100
C  -1.11800 -1.10000 43.76300
C  -2.03500 2.35700 42.68600
C  -3.66900 -0.51400 43.05000
O  -4.41100 0.35300 42.65900
C  -4.21100 -1.84700 43.29200
N  0.96600 -3.20300 44.50500
C  -0.40400 -3.32300 44.67500
C  -0.76600 -4.72400 44.96000
C  0.54300 -5.23800 45.58500
C  1.59900 -4.29500 45.02000
C  -2.11000 -4.98300 45.72900
C  0.76400 -6.73600 45.30900
C  1.16300 -7.70300 46.45000
N  3.63400 -2.19500 44.75300
C  3.89700 -3.54900 44.95200
C  5.30700 -3.59900 45.21600
C  5.86900 -2.38000 44.87400
C  4.81600 -1.55400 44.52800
C  5.99100 -4.77700 45.80300
C  7.18800 -1.58000 44.87100
O  8.34500 -1.94300 45.08300
C  6.68000 -0.09000 44.32900
C  7.17900 0.85000 45.37600
O  6.63500 1.05000 46.43800
O  8.24100 1.49000 44.84600
C  8.45700 2.77900 45.37300
H  0.52500 2.79500 43.04900
H  -2.25200 -2.91500 44.19100
H  3.18100 -5.50800 45.58800
H  5.18600 2.83100 43.84500
H  2.94900 3.41300 42.13800
H  3.79200 4.34300 44.82300
H  2.06600 3.75900 44.77200
H  2.54400 4.93200 43.65500
H  4.54400 2.17500 40.96700
H  5.52500 0.97700 41.72500
H  6.79900 3.36100 42.51100
H  6.21000 3.80700 40.97000
H  -3.06300 2.54500 42.99400
H  -1.86000 2.62700 41.64500
H  -1.61400 3.18500 43.25800
H  -3.78600 -2.68300 42.73700
H  -5.28200 -1.96300 43.12400
H  -4.12200 -2.11500 44.34500
H  -0.84000 -5.09900 43.93900
H  0.29700 -5.09200 46.63700
H  -2.70500 -4.11800 46.02000
H  -1.96700 -5.56600 46.63900
H  -2.81800 -5.37600 45.00000
H  1.60300 -6.89000 44.63000
H  -0.21400 -7.08100 44.97300
H  1.00200 -7.15800 47.38000
H  2.23500 -7.89900 46.43700
H  0.76500 -8.71700 46.39900
H  6.49300 -5.30300 44.99100
H  5.32800 -5.47600 46.31200
H  6.81400 -4.58600 46.49100
H  7.15900 0.16400 43.38300
H  7.49100 3.22800 45.60500
H  8.93600 3.43000 44.64200
H  8.93000 2.79000 46.35500

