79

Mg 48.95500 35.36100 27.40800
C  46.87300 33.66700 29.87600
C  49.11100 38.02800 29.72800
C  50.26800 36.99000 24.98400
C  48.33300 32.51400 25.44400
N  48.09800 35.75400 29.61700
C  47.37000 34.92800 30.40700
C  47.22900 35.47000 31.87200
C  47.60300 36.97200 31.70700
C  48.37900 36.99000 30.31400
C  46.37800 37.84600 31.71900
C  48.29300 34.60000 32.73800
C  47.94900 34.54000 34.27800
H  47.25700 35.69600 34.99400
N  49.69400 37.17100 27.40900
C  49.68800 38.13600 28.40300
C  50.39000 39.29200 27.93700
C  50.77900 39.01800 26.59900
C  50.32500 37.63500 26.26400
C  50.52800 40.53900 28.73700
C  51.46400 39.97700 25.55900
O  51.64600 39.72300 24.38100
C  51.93900 41.37600 25.95000
N  49.05300 34.91900 25.42600
C  49.66700 35.78700 24.59900
C  49.93900 35.16000 23.26300
C  49.60800 33.65000 23.48400
C  48.96500 33.66000 24.87700
C  49.15300 35.75800 22.09000
C  50.81300 32.65500 23.36400
C  51.32800 32.19600 21.97500
N  47.83300 33.51300 27.55600
C  47.75300 32.49200 26.66900
C  46.91400 31.40900 27.18200
C  46.53500 31.86600 28.40100
C  47.09600 33.13700 28.62900
C  46.45400 30.12600 26.45200
C  45.61100 31.60900 29.58600
O  44.90100 30.68300 29.88800
C  45.81500 32.77700 30.45600
C  45.89000 32.38400 31.89600
O  46.82800 31.67200 32.33000
O  44.89700 32.89100 32.60200
C  44.86900 32.62300 34.03300
H  49.19200 38.95900 30.29500
H  50.48400 37.55700 24.07600
H  48.21100 31.68300 24.74600
H  46.27800 35.44500 32.40500
H  48.26800 37.19000 32.54200
H  46.51800 38.69700 31.05300
H  46.12500 38.20600 32.71600
H  45.46800 37.33800 31.40000
H  49.22100 35.17200 32.71800
H  48.33600 33.59100 32.32900
H  48.81000 34.32200 34.91100
H  47.44100 33.58300 34.39200
H  51.42100 40.74500 29.32700
H  49.73800 40.58700 29.48700
H  50.25600 41.33000 28.03900
H  51.12300 42.07500 26.13000
H  52.72500 41.70900 25.27100
H  52.43000 41.07800 26.87600
H  50.99100 35.26700 22.99700
H  48.81700 33.33900 22.80100
H  48.07700 35.82600 22.25000
H  49.38700 35.14900 21.21700
H  49.60200 36.74100 21.94700
H  50.51600 31.82100 24.00000
H  51.70300 32.94500 23.92300
H  52.28300 32.68300 21.78000
H  50.59700 32.41800 21.19700
H  51.58600 31.13800 21.92900
H  46.58300 29.19300 27.00100
H  46.99500 29.93200 25.52600
H  45.40800 30.37600 26.27700
H  44.94300 33.41900 30.33600
H  44.60700 33.60500 34.42800
H  45.81200 32.27800 34.45700
H  44.03100 31.99200 34.32900

