79

Mg 47.48400 24.03500 28.21000
C  48.45600 26.32600 30.64900
C  46.65700 21.88200 30.56900
C  46.86800 21.90100 25.67100
C  48.89800 26.35000 25.73600
N  47.82300 24.13500 30.39900
C  47.87700 25.19800 31.21600
C  47.60700 24.85600 32.68700
C  47.10600 23.38200 32.54900
C  47.18800 23.10900 31.03300
C  47.72300 22.36300 33.48700
C  46.55700 25.72300 33.43600
C  47.11600 26.59500 34.59400
H  46.12900 26.82200 35.80100
N  46.87400 22.11400 28.15000
C  46.56700 21.34700 29.25700
C  46.10700 20.10300 28.80200
C  46.23300 20.15500 27.31400
C  46.76300 21.42600 26.98300
C  45.43900 19.07800 29.63900
C  45.84800 19.08200 26.37000
O  46.07600 19.12600 25.17100
C  45.23300 17.81100 26.93400
N  47.95000 24.09400 26.00500
C  47.32700 23.15000 25.19200
C  47.51700 23.47100 23.66300
C  48.10500 24.92500 23.68800
C  48.34100 25.16300 25.23300
C  48.45000 22.47500 22.92200
C  47.10600 25.97200 23.19300
C  47.62700 27.16400 22.38400
N  48.45300 25.96800 28.14000
C  48.97000 26.75700 27.10700
C  49.52600 28.03600 27.66500
C  49.25100 27.95100 29.06000
C  48.71100 26.62700 29.30900
C  49.95200 29.14600 26.87700
C  49.34400 28.67000 30.31900
O  49.75100 29.81800 30.55700
C  48.81100 27.63600 31.39200
C  49.86700 27.45800 32.40100
O  50.59500 26.45700 32.44300
O  49.90500 28.48300 33.29900
C  50.39600 28.10300 34.56000
H  46.23100 21.34200 31.41700
H  46.84600 21.23700 24.80500
H  49.14800 27.02500 24.91500
H  48.61000 24.77100 33.10600
H  46.02700 23.30700 32.69000
H  48.23200 21.60600 32.89000
H  47.00800 21.83700 34.12000
H  48.40800 22.89600 34.14700
H  45.81400 25.10100 33.93400
H  46.01700 26.35800 32.73300
H  47.42900 27.57600 34.23500
H  47.97400 26.14100 35.08900
H  45.49700 19.45300 30.66100
H  46.08600 18.20800 29.53200
H  44.40100 18.78000 29.49300
H  45.75100 17.30500 27.74900
H  45.28300 17.06900 26.13800
H  44.21400 17.96700 27.28800
H  46.51800 23.40800 23.23100
H  49.04000 25.02100 23.13700
H  49.14800 21.96200 23.58300
H  48.95600 22.97200 22.09400
H  47.85400 21.65400 22.52300
H  46.49500 26.30000 24.03400
H  46.44300 25.51400 22.45800
H  47.54500 27.02200 21.30600
H  48.68000 27.25400 22.65000
H  47.19000 28.14600 22.56100
H  49.09600 29.38700 26.24700
H  50.75800 28.86200 26.20000
H  50.20800 29.99900 27.50600
H  47.97500 28.09000 31.92400
H  51.40200 27.69100 34.47300
H  49.68200 27.44800 35.05900
H  50.44700 28.98400 35.19900

