79

Mg 50.44300 46.04700 42.30700
C  47.36800 46.75400 40.59200
C  50.40400 42.89800 40.92800
C  53.74200 45.67000 43.12800
C  50.85800 49.54800 42.69800
N  48.94400 44.92200 40.99800
C  47.78500 45.41700 40.45000
C  47.03600 44.29600 39.61600
C  47.96600 43.05700 39.93000
C  49.21400 43.65300 40.68300
C  47.37500 41.95300 40.76800
C  46.81000 44.57900 38.14200
C  45.40900 44.70200 37.57400
H  44.83400 43.73800 36.55100
N  51.92300 44.50000 42.06100
C  51.64500 43.21600 41.57300
C  52.77800 42.38300 41.88700
C  53.80200 43.08400 42.62200
C  53.16900 44.49900 42.67000
C  52.82000 40.86400 41.49800
C  55.10300 42.59900 43.21800
O  55.50100 41.45900 43.05300
C  55.80200 43.43100 44.16600
N  52.17300 47.46000 42.68800
C  53.35200 47.05400 43.11600
C  54.28500 48.21300 43.53800
C  53.33100 49.41700 43.51000
C  52.03900 48.79000 42.94500
C  55.10200 48.04500 44.89600
C  53.84900 50.74600 42.80600
C  53.40200 52.03700 43.46400
N  49.28400 47.77700 42.05800
C  49.54100 49.11900 42.30000
C  48.41900 49.95200 41.98500
C  47.53600 49.06200 41.33000
C  48.13100 47.74400 41.29600
C  48.28100 51.46100 42.11700
C  46.27900 48.89200 40.63200
O  45.42300 49.79100 40.46700
C  46.10100 47.42100 40.11500
C  44.85500 46.85100 40.60900
O  44.78200 46.16800 41.62700
O  43.82000 47.18500 39.72300
C  42.62700 46.35200 40.05400
H  50.37500 41.85400 40.60900
H  54.77000 45.60500 43.49000
H  50.90100 50.60900 42.95100
H  46.08400 44.13900 40.12200
H  48.28800 42.69000 38.95600
H  48.00700 41.55600 41.56300
H  47.10400 41.11300 40.12800
H  46.48900 42.40400 41.21600
H  47.37400 43.80300 37.62400
H  47.46100 45.44700 38.04400
H  45.30800 45.71800 37.19400
H  44.61800 44.64400 38.32100
H  53.76500 40.54700 41.05600
H  52.02400 40.66600 40.78100
H  52.68400 40.23800 42.38000
H  55.28300 44.02000 44.92300
H  56.38800 44.09100 43.52700
H  56.48000 42.75500 44.68800
H  54.94300 48.31700 42.67500
H  53.02900 49.67100 44.52600
H  54.74600 47.18800 45.46700
H  55.10800 48.97400 45.46600
H  56.10300 47.75000 44.58300
H  53.44400 50.72000 41.79400
H  54.93700 50.68200 42.80600
H  52.47500 52.29400 42.95200
H  54.14600 52.82900 43.38600
H  53.09300 51.72900 44.46300
H  48.65600 51.80000 43.08300
H  47.23600 51.69100 41.91300
H  48.78100 51.99400 41.30900
H  46.13300 47.53500 39.03200
H  41.91500 46.49500 39.24100
H  42.05700 46.65000 40.93400
H  42.70200 45.26900 39.96300

