79

Mg 41.06900 9.57600 29.31400
C  42.93500 10.84300 31.88400
C  38.91400 8.32900 31.62500
C  39.33100 8.36300 26.71000
C  43.50700 10.85100 27.04300
N  41.09600 9.37200 31.55600
C  41.81400 10.22900 32.40500
C  41.15700 10.21300 33.78200
C  40.04600 9.15000 33.69400
C  40.03900 8.84900 32.22900
C  40.40100 7.88400 34.60600
C  40.71500 11.61700 34.35400
C  40.07400 11.70500 35.65200
H  40.58200 12.68300 36.73300
N  39.43500 8.46100 29.17300
C  38.60900 8.03200 30.27500
C  37.42500 7.33800 29.69500
C  37.57100 7.35100 28.28100
C  38.79500 8.07900 27.98700
C  36.27500 6.74200 30.49400
C  36.60600 6.76600 27.19900
O  36.75000 6.81100 25.97700
C  35.40100 6.03100 27.64200
N  41.37100 9.60100 27.20000
C  40.44500 9.06300 26.34700
C  40.88600 9.29300 24.91400
C  42.15800 10.06200 25.01800
C  42.36500 10.25300 26.52300
C  41.05000 7.93300 24.18500
C  42.11600 11.45000 24.32500
C  41.31700 12.56600 24.98700
N  42.79900 10.65900 29.38100
C  43.71700 11.01500 28.46700
C  44.80600 11.77000 29.02600
C  44.47000 11.72300 30.33100
C  43.30500 11.02300 30.54500
C  45.85400 12.47100 28.35200
C  44.89700 12.17900 31.64000
O  45.87500 12.86000 31.90100
C  43.83200 11.76100 32.63700
C  44.32800 11.10500 33.93500
O  44.92900 10.05600 33.95900
O  44.07700 11.88100 35.07000
C  44.49600 11.44900 36.42200
H  38.15000 8.00800 32.33600
H  38.85700 7.98700 25.80100
H  44.15500 11.23300 26.25200
H  41.98000 9.99100 34.46000
H  39.06800 9.53600 33.98000
H  40.26300 7.01500 33.96400
H  39.71900 7.77100 35.44900
H  41.44600 7.87000 34.91600
H  39.98000 12.00800 33.65100
H  41.60900 12.23800 34.41100
H  40.12800 10.69400 36.05700
H  39.02200 11.84000 35.39900
H  35.26400 7.12900 30.36800
H  36.56900 6.91400 31.52900
H  36.18200 5.67100 30.31300
H  35.71300 5.11700 28.14600
H  34.85500 5.77200 26.73500
H  34.69600 6.62300 28.22700
H  40.20000 9.89900 24.32200
H  43.05400 9.59300 24.61200
H  40.62000 7.07700 24.70600
H  42.12200 7.73300 24.17400
H  40.62100 7.91500 23.18400
H  41.71700 11.43900 23.31100
H  43.18300 11.64800 24.22400
H  42.03600 13.24200 25.44900
H  40.55600 12.19500 25.67300
H  40.75200 13.11100 24.23200
H  45.54700 12.67300 27.32600
H  46.84600 12.05400 28.52700
H  45.97700 13.40000 28.90900
H  43.15000 12.59400 32.81100
H  44.27800 10.45000 36.80100
H  43.99400 12.16800 37.06900
H  45.57700 11.54600 36.51800

