79

Mg -0.80900 7.75000 26.69200
C  0.08400 9.55600 29.45900
C  -0.97500 4.81000 28.75700
C  -1.08600 5.82200 23.92300
C  0.04600 10.43100 24.59600
N  -0.56400 7.26200 28.84100
C  -0.39700 8.23200 29.78800
C  -0.52600 7.66700 31.24800
C  -0.39700 6.13500 31.01500
C  -0.75800 6.03200 29.50500
C  1.04400 5.50200 31.26800
C  -1.87700 7.96600 31.84400
C  -2.05000 8.06300 33.33200
H  -0.88800 7.67500 34.25200
N  -1.04200 5.63500 26.34600
C  -1.15400 4.63800 27.35000
C  -1.46500 3.40100 26.64800
C  -1.56900 3.66900 25.31400
C  -1.16100 5.09300 25.09200
C  -1.80000 2.23900 27.48600
C  -1.97100 2.75700 24.21900
O  -2.14900 3.16500 23.00600
C  -2.04700 1.25000 24.45500
N  -0.70100 8.07300 24.48900
C  -0.92000 7.15000 23.56400
C  -0.84700 7.69800 22.09800
C  -0.41300 9.19000 22.34000
C  -0.28500 9.22600 23.90700
C  0.04400 6.84900 21.17700
C  -1.43800 10.18800 21.83500
C  -2.75700 10.11900 22.51000
N  -0.07500 9.62400 26.93500
C  0.19300 10.64200 25.97600
C  0.64900 11.80100 26.63700
C  0.62800 11.38100 28.02100
C  0.12400 10.09900 28.16100
C  1.01900 13.07900 26.10800
C  1.02300 11.80500 29.36600
O  1.55100 12.82700 29.66800
C  0.65100 10.68200 30.35000
C  1.84100 10.23000 31.15000
O  2.57900 9.30200 30.77300
O  2.00400 11.09600 32.25900
C  3.23800 10.83600 32.97300
H  -0.97700 3.94900 29.42900
H  -1.19300 5.23200 23.01100
H  0.30900 11.29900 23.98900
H  0.28400 8.04500 31.87300
H  -1.16200 5.64400 31.61800
H  1.06000 5.02100 32.24600
H  1.78900 6.29700 31.25800
H  1.21600 4.70200 30.54800
H  -2.60200 7.20200 31.56100
H  -2.15300 8.90100 31.35700
H  -3.00100 7.63500 33.64600
H  -2.37200 9.09300 33.49000
H  -0.98300 1.51700 27.45500
H  -2.68500 1.77000 27.05500
H  -2.05500 2.45000 28.52500
H  -2.14200 0.73300 23.50000
H  -2.90900 1.01500 25.07900
H  -1.13200 0.92500 24.95100
H  -1.81500 7.75300 21.60100
H  0.52900 9.35800 21.81700
H  0.05400 5.77600 21.37200
H  1.12800 6.94400 21.10500
H  -0.34200 7.00700 20.17100
H  -1.57800 9.96600 20.77800
H  -0.99700 11.17300 21.98900
H  -3.46300 9.93800 21.69900
H  -3.09900 11.01800 23.02400
H  -2.80900 9.32400 23.25400
H  0.11900 13.69100 26.17000
H  1.49700 13.05400 25.12900
H  1.80200 13.41900 26.78600
H  -0.11600 11.14700 30.97000
H  4.15000 10.58600 32.43100
H  3.07000 10.06000 33.72000
H  3.52200 11.68100 33.60000

