79

Mg 47.98900 16.45900 28.69200
C  45.74600 15.90600 31.34400
C  50.26900 17.77000 30.85300
C  49.95000 16.99800 26.06400
C  45.48400 15.16500 26.44100
N  47.92400 16.88500 30.78400
C  47.02000 16.40800 31.74400
C  47.41500 16.86700 33.14900
C  48.74700 17.75200 32.94100
C  49.05600 17.42300 31.46300
C  48.64900 19.30200 33.16200
C  47.61800 15.68600 34.18400
C  47.30500 15.74500 35.61200
H  47.24200 17.08000 36.31300
N  49.83200 17.37300 28.49000
C  50.69500 17.76600 29.53000
C  51.98100 18.08400 28.91000
C  51.88800 17.87600 27.49400
C  50.50900 17.48000 27.27000
C  53.09500 18.54700 29.75600
C  52.94600 18.16700 26.34900
O  52.65900 18.12400 25.17300
C  54.25000 18.50700 26.72400
N  47.75900 16.16300 26.56300
C  48.73900 16.46700 25.65600
C  48.33600 16.27800 24.24900
C  46.97500 15.46300 24.37800
C  46.70400 15.62400 25.87700
C  48.22800 17.55800 23.40000
C  47.13300 13.89100 24.01700
C  45.97800 13.43900 23.07900
N  45.99600 15.81000 28.78800
C  45.11300 15.31900 27.83800
C  43.83900 14.93700 28.44800
C  44.03300 15.11700 29.82700
C  45.36400 15.65300 29.98800
C  42.71800 14.25500 27.78200
C  43.46200 14.95200 31.17300
O  42.33200 14.58300 31.55700
C  44.53400 15.52000 32.16600
C  43.95900 16.73900 32.82100
O  43.63700 17.75800 32.22900
O  43.83900 16.53100 34.18300
C  43.33100 17.69900 34.93900
H  51.00400 17.95100 31.64000
H  50.70900 16.98300 25.27900
H  44.83500 14.59000 25.77800
H  46.67200 17.53000 33.59200
H  49.51900 17.41000 33.63200
H  47.59500 19.51400 33.34200
H  49.01200 19.76800 32.24600
H  49.29800 19.69100 33.94600
H  48.66500 15.49100 33.95200
H  47.19500 14.79100 33.72600
H  48.02400 15.08000 36.09000
H  46.33300 15.28500 35.78500
H  53.65600 19.28100 29.17800
H  53.73100 17.81200 30.25000
H  52.71800 19.20700 30.53700
H  54.61400 17.76800 27.43800
H  54.34600 19.53800 27.06400
H  54.93900 18.33200 25.89700
H  49.17200 15.66300 23.91700
H  46.20500 15.92800 23.76300
H  47.66100 17.34500 22.49300
H  49.23500 17.81000 23.06900
H  47.75400 18.35800 23.96900
H  46.95800 13.31400 24.92500
H  48.13300 13.64500 23.66100
H  46.39800 13.46000 22.07300
H  45.13300 14.12400 23.02100
H  45.70800 12.39400 23.23200
H  43.07800 13.35800 27.27900
H  42.10000 14.87300 27.13000
H  42.04100 13.83500 28.52600
H  44.73400 14.77600 32.93700
H  43.86300 17.67800 35.89000
H  42.25800 17.56200 35.07200
H  43.43900 18.60700 34.34600

