79

Mg 46.87600 24.61600 29.33700
C  47.49700 27.18300 31.66900
C  45.75800 22.65100 31.93700
C  46.72700 22.05400 27.19400
C  48.37300 26.61900 26.88000
N  46.68900 24.93700 31.59800
C  46.99400 26.07900 32.34300
C  46.37000 25.91800 33.79700
C  45.94000 24.39800 33.84200
C  46.07000 23.96800 32.36800
C  46.91800 23.52400 34.70000
C  45.29800 26.93700 34.29200
C  45.64200 27.61900 35.63400
H  46.35400 26.83300 36.70100
N  46.51000 22.60600 29.58500
C  45.99100 22.00100 30.73200
C  45.49400 20.65900 30.34400
C  45.64000 20.53000 28.98500
C  46.38200 21.71400 28.53400
C  44.78400 19.67900 31.34600
C  45.33700 19.30800 28.03300
O  45.64300 19.26300 26.87100
C  44.62200 18.11500 28.51900
N  47.60100 24.30700 27.29800
C  47.30500 23.17200 26.62800
C  47.89100 23.19600 25.20900
C  48.28700 24.73400 25.02000
C  48.06500 25.28600 26.50400
C  48.95600 22.08900 24.90500
C  47.48000 25.54300 23.91500
C  46.21700 26.22800 24.33500
N  47.67700 26.50900 29.20700
C  48.30500 27.13300 28.15800
C  48.79000 28.47500 28.60700
C  48.39500 28.52500 29.94600
C  47.78900 27.28600 30.27400
C  49.47100 29.47300 27.84300
C  48.56300 29.34500 31.12700
O  48.97400 30.46600 31.27100
C  47.86000 28.51700 32.29800
C  48.77800 28.26100 33.41500
O  49.62900 27.39100 33.40000
O  48.64100 29.17700 34.41600
C  49.58000 29.08800 35.53700
H  45.20100 22.06800 32.67400
H  46.74500 21.20100 26.51200
H  48.67300 27.25500 26.04400
H  47.29100 26.15400 34.33000
H  44.91000 24.25400 34.16800
H  47.52100 24.17900 35.32800
H  47.62400 22.89900 34.15200
H  46.37800 22.84500 35.35900
H  44.41000 26.36800 34.56500
H  45.18400 27.67300 33.49600
H  44.71800 27.82100 36.17500
H  45.98700 28.62200 35.38100
H  45.21300 18.70600 31.10700
H  43.73100 19.85500 31.12800
H  44.93800 19.90800 32.40000
H  45.32200 17.58000 29.16200
H  44.36700 17.45500 27.69000
H  43.66300 18.43300 28.92700
H  46.96800 22.88700 24.71800
H  49.36000 24.82800 24.85800
H  49.23000 21.49200 25.77500
H  49.79900 22.62500 24.47000
H  48.48600 21.34200 24.26600
H  47.37600 24.89800 23.04300
H  48.25000 26.28900 23.72000
H  45.37000 25.66200 23.94800
H  46.14100 27.27800 24.05100
H  46.08900 26.20800 25.41700
H  48.71200 29.75400 27.11300
H  50.31300 29.00400 27.33500
H  49.91500 30.31400 28.37600
H  46.91600 28.98400 32.57600
H  49.15000 28.50700 36.35200
H  49.70900 30.09000 35.94600
H  50.59000 28.74800 35.30800

