79

Mg 26.09300 1.59900 29.63300
C  28.09800 0.85000 32.51700
C  23.44700 1.70200 31.76600
C  24.25600 1.44500 26.98800
C  28.91700 0.78400 27.72400
N  25.83200 1.36900 31.93900
C  26.76800 1.11700 32.87200
C  26.17300 1.31200 34.25800
C  24.60600 1.32400 34.02400
C  24.58700 1.42000 32.46600
C  23.80900 0.07700 34.61600
C  26.76600 2.50100 35.05200
C  27.45000 2.09400 36.36900
H  27.13700 3.07500 37.53700
N  24.12600 1.72100 29.37800
C  23.18200 1.81800 30.34300
C  21.87300 1.90900 29.69700
C  22.07700 1.83700 28.29400
C  23.50500 1.66400 28.17500
C  20.52600 1.95300 30.47500
C  21.04600 1.74200 27.19000
O  21.36500 1.47900 26.03500
C  19.59500 1.89600 27.44300
N  26.60400 1.27300 27.54700
C  25.57600 1.24900 26.65500
C  26.11800 1.05000 25.19300
C  27.68800 0.96900 25.42100
C  27.75200 0.99100 27.01200
C  25.48000 -0.09800 24.40300
C  28.50500 2.15700 24.90800
C  29.86000 1.84900 24.26100
N  28.14300 1.06200 30.01300
C  29.13400 0.71300 29.12100
C  30.34300 0.26800 29.84900
C  29.97800 0.42600 31.18600
C  28.62700 0.78500 31.24300
C  31.67000 -0.22900 29.29800
C  30.43700 0.17000 32.52900
O  31.53200 -0.14500 32.94400
C  29.28900 0.53200 33.49100
C  29.09700 -0.64600 34.38500
O  28.43400 -1.65500 34.11000
O  29.61900 -0.37800 35.61000
C  29.39800 -1.35100 36.65900
H  22.62200 1.89500 32.45500
H  23.62400 1.28000 26.11300
H  29.79400 0.51000 27.13400
H  26.50500 0.44400 34.82700
H  24.19500 2.19500 34.53300
H  23.15100 -0.29300 33.82900
H  23.15400 0.50400 35.37600
H  24.49400 -0.65500 35.04300
H  25.88300 3.08800 35.30900
H  27.55100 2.97900 34.46600
H  28.53400 2.20100 36.32200
H  27.31100 1.08400 36.75400
H  20.71100 2.09500 31.54000
H  19.94900 1.04500 30.30100
H  19.99500 2.83100 30.10600
H  19.35100 2.86100 27.88800
H  19.23600 1.06600 28.05100
H  19.02800 1.82900 26.51500
H  25.93200 1.98900 24.67200
H  28.03400 -0.01800 25.11600
H  25.52500 -1.00000 25.01300
H  25.92900 -0.25900 23.42400
H  24.44200 0.22300 24.31800
H  28.72600 2.93300 25.64100
H  27.96600 2.56500 24.05300
H  30.65100 2.48300 24.66200
H  29.84200 2.09100 23.19800
H  30.12500 0.79500 24.34400
H  31.97800 0.31800 28.40700
H  31.67100 -1.29900 29.08800
H  32.46700 0.01300 30.00100
H  29.59200 1.29000 34.21300
H  30.31700 -1.37900 37.24400
H  29.24400 -2.38200 36.34100
H  28.57300 -1.02400 37.29200

