79

Mg 30.37200 58.72000 40.11100
C  27.45800 57.05000 39.07900
C  32.19200 56.08300 38.98500
C  33.04200 60.80600 40.32700
C  28.28500 61.43600 41.02600
N  29.82400 56.84800 38.97000
C  28.61400 56.36300 38.78700
C  28.64500 54.93300 38.28200
C  30.12800 54.46100 38.60100
C  30.81000 55.87800 38.87400
C  30.34100 53.40900 39.77300
C  28.25400 54.94300 36.77800
C  26.91900 54.28500 36.24600
H  26.00500 55.06100 35.29200
N  32.38700 58.48600 39.72500
C  32.90800 57.29600 39.33700
C  34.35700 57.44700 39.35500
C  34.68700 58.80100 39.68800
C  33.35000 59.42500 40.01700
C  35.39900 56.35900 39.13500
C  36.04600 59.38500 39.71200
O  37.03700 58.76700 39.28900
C  36.37400 60.68300 40.34100
N  30.63900 60.78700 40.53300
C  31.82900 61.39000 40.66100
C  31.64900 62.91800 40.96400
C  30.16400 63.04200 41.48500
C  29.62700 61.66600 40.98700
C  32.69200 63.77900 41.78100
C  29.47000 64.25400 41.00000
C  28.73100 64.96500 42.11900
N  28.27600 59.13900 40.11700
C  27.58600 60.25500 40.63800
C  26.13800 60.00400 40.52900
C  26.05700 58.77300 39.87500
C  27.39600 58.35400 39.63900
C  25.09000 60.90100 40.98900
C  25.14100 57.78900 39.43000
O  23.90300 57.75900 39.37500
C  26.02200 56.63000 39.02800
C  25.60800 55.52300 39.94400
O  25.94600 55.50100 41.11400
O  25.05700 54.53300 39.22800
C  25.13300 53.13600 39.64400
H  32.73900 55.18800 38.67900
H  33.90200 61.47700 40.35200
H  27.64300 62.16200 41.53000
H  28.02800 54.32200 38.94100
H  30.64300 54.09400 37.71300
H  29.36100 53.05600 40.09600
H  30.97000 53.82500 40.56000
H  30.93600 52.52900 39.52900
H  29.04800 54.50200 36.17500
H  28.11600 55.98300 36.48200
H  26.23000 54.03200 37.05200
H  27.16800 53.37900 35.69400
H  36.23700 56.41000 39.83100
H  35.86200 56.46400 38.15400
H  35.10500 55.32000 38.98500
H  36.02100 61.47000 39.67500
H  37.46400 60.70200 40.33400
H  35.98500 60.70800 41.35800
H  31.64400 63.30600 39.94500
H  30.09900 62.88800 42.56200
H  33.09200 64.59900 41.18400
H  33.51800 63.13400 42.08300
H  32.40500 64.21200 42.73900
H  28.82000 63.94600 40.18100
H  30.15400 64.89000 40.43700
H  27.66700 64.73500 42.17300
H  28.69600 66.05000 42.02400
H  29.20500 64.74000 43.07400
H  24.19100 60.29500 41.09600
H  25.02500 61.68700 40.23600
H  25.38400 61.22900 41.98600
H  25.75900 56.20900 38.05700
H  26.08100 52.97100 40.15700
H  25.04400 52.64500 38.67500
H  24.42600 52.85900 40.42500

