79

Mg -11.56100 38.71900 40.68600
C  -9.26500 35.98000 40.15000
C  -9.31300 40.72800 39.17900
C  -13.74900 41.15300 41.02500
C  -13.81000 36.31800 41.81600
N  -9.55000 38.31000 39.72600
C  -8.92100 37.14300 39.52900
C  -7.58400 37.45600 38.66900
C  -7.57900 38.99500 38.51800
C  -8.83300 39.40200 39.26700
C  -6.21200 39.70100 38.87200
C  -7.67100 36.68500 37.23700
C  -6.53900 35.67300 36.97900
H  -5.47600 36.14700 36.06700
N  -11.53700 40.68200 40.18400
C  -10.54100 41.33200 39.57600
C  -10.90200 42.71000 39.38300
C  -12.23500 42.89600 39.82900
C  -12.59100 41.53600 40.36100
C  -9.92700 43.73300 38.89200
C  -12.95400 44.24000 39.85800
O  -12.39700 45.21100 39.47100
C  -14.33700 44.43500 40.35000
N  -13.48200 38.75500 41.26100
C  -14.14300 39.89500 41.42200
C  -15.59900 39.55600 41.99800
C  -15.61600 38.01100 42.16700
C  -14.21400 37.65200 41.73600
C  -16.11000 40.43500 43.17100
C  -16.60300 37.18200 41.31100
C  -17.49500 36.13400 42.10900
N  -11.49200 36.58400 41.15400
C  -12.57600 35.80000 41.56200
C  -12.07700 34.37700 41.62400
C  -10.75300 34.42100 41.15400
C  -10.50200 35.73500 40.78400
C  -12.88100 33.25500 42.13100
C  -9.63200 33.63800 40.78600
O  -9.49600 32.43100 40.83300
C  -8.56100 34.60000 40.24200
C  -7.27300 34.51800 41.11100
O  -6.62600 33.48400 41.22000
O  -6.89700 35.77500 41.51500
C  -5.82600 35.91800 42.49500
H  -8.65900 41.38900 38.60600
H  -14.44300 41.99000 41.12300
H  -14.55800 35.65000 42.24900
H  -6.71300 37.06500 39.19500
H  -7.71200 39.36300 37.50000
H  -5.81900 40.07400 37.92700
H  -5.57200 38.97700 39.37700
H  -6.54300 40.47900 39.56000
H  -7.64100 37.31900 36.35100
H  -8.59800 36.11600 37.17600
H  -6.94000 34.68900 36.73400
H  -6.01800 35.49400 37.92000
H  -10.39700 44.13900 37.99600
H  -8.89100 43.43700 38.72600
H  -10.02200 44.54200 39.61500
H  -14.78500 45.41500 40.18600
H  -14.42300 44.28600 41.42700
H  -15.00200 43.75100 39.82200
H  -16.24000 39.81500 41.15600
H  -15.77500 37.75400 43.21400
H  -15.31600 41.03900 43.60700
H  -16.54800 39.77900 43.92400
H  -16.80700 41.20800 42.84600
H  -16.12500 36.69200 40.46200
H  -17.27000 37.90600 40.84400
H  -17.69400 35.22200 41.54700
H  -18.36100 36.68900 42.47000
H  -16.97800 35.73300 42.98000
H  -12.41800 32.98800 43.08000
H  -12.73200 32.49100 41.36700
H  -13.93400 33.44800 42.33900
H  -8.35900 34.16600 39.26300
H  -6.25100 36.57700 43.25200
H  -4.91100 36.40100 42.15300
H  -5.74400 34.93200 42.95100

