79

Mg 46.95600 35.31600 28.35100
C  45.53900 33.52800 31.05700
C  47.43200 37.94200 30.50400
C  48.04000 37.19800 25.74100
C  46.23900 32.78900 26.22800
N  46.85000 35.53700 30.64200
C  46.10200 34.73800 31.45800
C  46.21400 35.33600 32.86700
C  46.37500 36.85200 32.57900
C  46.90000 36.81500 31.15600
C  45.11300 37.71600 32.81900
C  47.49600 34.72100 33.55300
C  47.46900 34.54800 35.03600
H  46.50100 35.29900 35.87100
N  47.68200 37.21400 28.15400
C  47.93100 38.10500 29.18200
C  48.64700 39.23600 28.68900
C  48.67600 39.13700 27.25300
C  48.13400 37.78700 27.00800
C  49.12100 40.42700 29.60500
C  49.20900 40.14200 26.23600
O  49.22200 39.91700 24.99700
C  49.60600 41.49000 26.74900
N  46.84200 35.19200 26.17100
C  47.44300 36.01700 25.32300
C  47.43900 35.54300 23.86600
C  47.10400 34.03900 24.17100
C  46.67800 33.98300 25.56500
C  46.51700 36.36600 22.82100
C  48.36900 33.12700 23.90700
C  48.59800 32.70300 22.50200
N  46.04800 33.57400 28.49900
C  45.92600 32.61100 27.57500
C  45.37100 31.39000 28.15900
C  45.07800 31.82800 29.43500
C  45.62300 33.05200 29.67000
C  44.94000 30.11700 27.40500
C  44.47800 31.36600 30.71600
O  43.93100 30.37200 30.99400
C  44.54000 32.57800 31.68400
C  44.92400 32.06200 33.00800
O  46.07600 31.95400 33.44700
O  43.85800 31.82000 33.78400
C  44.18500 31.54800 35.15000
H  47.51500 38.76500 31.21700
H  48.18800 37.87500 24.89700
H  46.01000 31.92000 25.60800
H  45.31400 35.01700 33.39200
H  47.12000 37.31100 33.22900
H  44.83800 38.22700 31.89600
H  45.41000 38.41800 33.59800
H  44.28300 37.12600 33.20700
H  48.33500 35.38400 33.34100
H  47.58400 33.69200 33.20400
H  48.40900 34.95200 35.41200
H  47.45900 33.51300 35.38000
H  49.17800 40.16100 30.66100
H  48.35800 41.19900 29.51100
H  50.14600 40.72300 29.38100
H  50.49200 41.64300 27.36500
H  48.77500 42.05800 27.16800
H  49.80600 42.15100 25.90600
H  48.43000 35.57500 23.41400
H  46.25100 33.66300 23.60500
H  45.44900 36.15000 22.82400
H  46.85700 36.31300 21.78700
H  46.52800 37.37700 23.22800
H  48.17200 32.19400 24.43500
H  49.28600 33.56900 24.29700
H  49.66000 32.91400 22.37200
H  48.04300 33.33800 21.81100
H  48.40100 31.64300 22.33900
H  44.07700 30.50300 26.86300
H  44.67700 29.41300 28.19500
H  45.72500 29.86900 26.69100
H  43.62000 33.10900 31.92800
H  43.29900 31.19900 35.68100
H  44.49900 32.49400 35.59200
H  44.90000 30.72500 35.16900

