79

Mg 0.57200 7.44700 25.69900
C  1.25100 9.67400 28.27500
C  0.88400 4.89500 27.92700
C  0.01300 5.20300 23.09500
C  1.00700 9.96000 23.39300
N  1.18900 7.29600 27.82400
C  1.22000 8.35500 28.69900
C  1.35300 7.89900 30.12100
C  1.53300 6.33000 29.96800
C  1.14100 6.16200 28.49300
C  2.90900 5.69600 30.33400
C  0.01000 8.31500 30.84800
C  0.16700 8.61500 32.36000
H  1.29800 8.01600 33.08300
N  0.47000 5.38800 25.54300
C  0.57900 4.50700 26.59800
C  0.13300 3.22100 26.15900
C  -0.00500 3.17000 24.76600
C  0.21900 4.66800 24.40800
C  -0.03900 2.09800 27.11400
C  -0.31200 2.06400 23.86100
O  -0.54000 2.30900 22.67600
C  -0.34600 0.56900 24.47100
N  0.76300 7.56000 23.51400
C  0.33800 6.51700 22.70400
C  0.06200 7.05300 21.28900
C  0.41800 8.53900 21.43600
C  0.70300 8.71200 22.87800
C  0.76700 6.29700 20.10100
C  -0.46100 9.58400 20.74800
C  -1.80000 9.88600 21.47200
N  0.99100 9.48700 25.74600
C  1.16900 10.37200 24.74600
C  1.60600 11.66400 25.35600
C  1.60900 11.42000 26.75000
C  1.12900 10.11800 26.95900
C  1.84300 12.98100 24.54400
C  1.89900 11.99500 28.01300
O  2.24500 13.12700 28.29800
C  1.69500 10.87600 29.08600
C  2.93100 10.72400 29.89200
O  3.98600 10.17400 29.53600
O  2.67600 11.20400 31.15200
C  3.80700 11.15100 32.12100
H  1.01500 4.04800 28.60300
H  -0.15400 4.60100 22.19900
H  0.98400 10.82100 22.72200
H  2.22800 8.28700 30.64400
H  0.81600 5.81000 30.60200
H  3.54000 6.53800 30.61800
H  3.40400 5.17200 29.51600
H  2.71600 5.06200 31.19900
H  -0.82500 7.67500 30.56300
H  -0.36300 9.24400 30.41700
H  -0.76100 8.36200 32.87200
H  0.21300 9.70400 32.38300
H  -0.30800 2.42500 28.11800
H  0.84400 1.46100 27.14300
H  -0.88200 1.48400 26.79500
H  -1.21500 0.30600 25.07400
H  0.59100 0.41900 25.00600
H  -0.36000 -0.16500 23.66500
H  -1.01900 6.97100 21.18300
H  1.36100 8.74100 20.92800
H  1.36000 5.61800 20.71500
H  1.53700 6.78900 19.50700
H  0.01800 5.74900 19.52900
H  -0.71700 9.50700 19.69100
H  0.10600 10.50900 20.85100
H  -1.84400 10.74600 22.14000
H  -2.08700 9.04300 22.10100
H  -2.55400 10.09900 20.71400
H  1.50100 13.80600 25.17000
H  1.38200 13.14300 23.57000
H  2.92600 13.04700 24.44400
H  0.93300 11.13800 29.82000
H  3.71300 11.69600 33.06000
H  4.79700 11.28300 31.68500
H  4.00300 10.14900 32.50100

