79

Mg -5.08800 25.10700 26.18300
C  -3.37900 26.57300 28.83900
C  -6.53700 22.98800 28.54000
C  -6.60700 23.47100 23.60200
C  -3.03900 26.80100 23.86000
N  -4.93800 24.86600 28.37900
C  -4.30900 25.64700 29.26000
C  -4.74100 25.42100 30.70600
C  -5.39200 24.07000 30.65100
C  -5.66000 24.02200 29.10300
C  -4.51600 22.85700 31.24100
C  -5.64800 26.58300 31.33400
C  -5.55500 26.81800 32.83600
H  -4.72300 25.85900 33.73000
N  -6.38500 23.43100 26.07400
C  -6.89700 22.74000 27.16000
C  -7.70500 21.60900 26.62500
C  -7.77300 21.78200 25.18900
C  -6.83600 22.89300 24.87100
C  -8.54700 20.57900 27.50400
C  -8.49400 21.00800 24.07700
O  -8.22800 21.05100 22.89400
C  -9.55900 19.95600 24.35700
N  -5.06500 25.30900 24.00000
C  -5.71200 24.49200 23.15400
C  -5.69500 24.95200 21.74300
C  -4.38700 25.84100 21.78700
C  -4.06800 25.97600 23.28800
C  -5.64700 23.76900 20.76300
C  -4.41300 27.23800 21.11600
C  -3.34900 27.66100 20.06100
N  -3.65500 26.47900 26.35900
C  -2.92500 27.12400 25.29100
C  -2.06000 28.08700 25.91700
C  -2.17000 27.86000 27.30600
C  -3.19000 26.86700 27.54200
C  -1.12000 29.03800 25.29900
C  -1.52500 28.22000 28.54600
O  -0.65400 28.96900 28.86400
C  -2.45400 27.50100 29.63300
C  -1.59100 26.73600 30.57400
O  -0.82200 25.87100 30.25500
O  -1.66300 27.30300 31.80900
C  -0.80400 26.70200 32.84100
H  -7.04900 22.25200 29.16300
H  -7.27400 23.07800 22.83100
H  -2.32600 27.33100 23.22600
H  -3.80200 25.39800 31.25900
H  -6.42700 24.00800 30.98800
H  -5.19100 22.41000 31.97000
H  -3.61000 23.06300 31.81000
H  -4.28200 22.22100 30.38700
H  -6.70700 26.33400 31.26300
H  -5.38000 27.52700 30.85900
H  -6.53400 26.90100 33.30900
H  -5.06000 27.77700 32.98500
H  -8.36700 20.58000 28.57900
H  -8.37600 19.53800 27.23100
H  -9.61500 20.72100 27.34200
H  -10.02500 19.78100 23.38700
H  -10.25800 20.51400 24.98000
H  -9.26700 18.97100 24.72200
H  -6.66200 25.44100 21.62200
H  -3.57600 25.25700 21.35300
H  -5.87700 22.78300 21.16600
H  -4.64900 23.66100 20.33800
H  -6.16400 23.98300 19.82800
H  -4.64600 27.98400 21.87600
H  -5.41300 27.32700 20.69300
H  -2.58400 26.91700 19.83500
H  -2.87900 28.57600 20.42000
H  -3.96400 27.85100 19.18100
H  -0.22500 28.45800 25.07500
H  -1.12800 29.90100 25.96500
H  -1.51600 29.45000 24.37000
H  -3.10600 28.13700 30.23200
H  -1.12200 26.82100 33.87700
H  0.11400 27.24200 32.60800
H  -0.57900 25.65100 32.65900

