79

Mg 48.88200 34.55000 26.62600
C  46.68800 33.28700 29.03200
C  49.09800 37.51700 28.46300
C  50.42700 35.94300 24.04600
C  48.01100 31.69600 24.65800
N  47.95800 35.28900 28.50600
C  47.24900 34.47800 29.39200
C  47.42000 35.03600 30.75100
C  47.77000 36.58000 30.39200
C  48.39200 36.49500 29.06800
C  46.53400 37.60600 30.39000
C  48.62800 34.44500 31.60100
C  48.52000 34.20400 33.08000
H  47.31900 34.94200 33.75200
N  49.84200 36.42200 26.39200
C  49.78300 37.52200 27.22900
C  50.72300 38.51100 26.73200
C  51.14800 38.05800 25.46100
C  50.44900 36.75000 25.27400
C  50.96900 39.70100 27.45900
C  52.11100 38.73300 24.57900
O  52.25900 38.47300 23.36300
C  52.81500 39.97600 25.11000
N  49.04300 33.88900 24.62700
C  49.76500 34.67100 23.78400
C  49.78300 34.01000 22.36400
C  49.36900 32.56000 22.69400
C  48.78000 32.71100 24.08800
C  48.76200 34.76100 21.38800
C  50.63500 31.55400 22.59700
C  50.68200 30.39900 21.57900
N  47.54200 32.79100 26.79800
C  47.36000 31.76100 25.92700
C  46.62100 30.74100 26.53600
C  46.21300 31.34100 27.74700
C  46.80400 32.56000 27.84200
C  46.28100 29.42100 25.97900
C  45.46800 31.16900 28.94000
O  44.67300 30.26900 29.19000
C  45.83400 32.34300 29.92100
C  46.53000 31.73400 31.08300
O  47.62000 31.19600 31.06700
O  45.76400 31.81400 32.18600
C  46.21000 31.15200 33.43100
H  49.09800 38.31800 29.20600
H  50.94300 36.37600 23.18600
H  48.10500 30.76300 24.10000
H  46.49300 34.98700 31.32300
H  48.50000 37.00400 31.08200
H  46.86600 38.41100 31.04700
H  45.67800 37.00200 30.69200
H  46.34900 37.97800 29.38300
H  49.41600 35.18800 31.47400
H  48.93500 33.51300 31.12700
H  49.33900 34.70700 33.59500
H  48.46100 33.14800 33.34200
H  50.65400 39.52900 28.48800
H  50.32600 40.50100 27.09100
H  51.95800 40.14300 27.57800
H  52.06500 40.72800 25.35900
H  53.38400 40.24200 24.21900
H  53.39600 39.72400 25.99700
H  50.76100 34.00400 21.88200
H  48.53500 32.32400 22.03400
H  47.75600 34.60200 21.77500
H  48.83300 34.27100 20.41600
H  48.97900 35.82700 21.45500
H  50.85400 31.02900 23.52700
H  51.52700 32.17400 22.51300
H  50.77900 29.42700 22.06400
H  51.53200 30.43600 20.89700
H  49.81000 30.45000 20.92700
H  46.40300 28.79400 26.86200
H  46.99000 29.17400 25.18900
H  45.28400 29.46100 25.54100
H  44.89400 32.78900 30.24600
H  47.28400 31.14200 33.61500
H  45.86500 30.11900 33.48100
H  45.71800 31.81700 34.14000

