79

Mg -11.12800 38.83700 41.72800
C  -9.62400 35.77800 40.86100
C  -8.42300 40.49400 40.35500
C  -12.80200 41.64900 42.07100
C  -13.81000 36.97900 43.05800
N  -9.35400 38.12700 40.57200
C  -8.91900 36.85000 40.39600
C  -7.56800 36.85400 39.64400
C  -7.04600 38.31600 39.86600
C  -8.31000 39.04100 40.27500
C  -5.87000 38.44000 40.91000
C  -7.88900 36.45500 38.17500
C  -7.42300 35.14100 37.74600
H  -6.42300 35.26700 36.57300
N  -10.58900 40.81300 41.34900
C  -9.46200 41.30800 40.72200
C  -9.57600 42.76200 40.72000
C  -10.84600 43.08900 41.20100
C  -11.49600 41.84800 41.54700
C  -8.39700 43.61100 40.28700
C  -11.40600 44.57700 41.33400
O  -10.70900 45.51700 40.94400
C  -12.72100 44.90500 41.95900
N  -13.01800 39.26000 42.40100
C  -13.52900 40.47400 42.44500
C  -14.89600 40.63300 43.16400
C  -15.21100 39.06500 43.27800
C  -13.95200 38.38800 42.87400
C  -14.90400 41.42400 44.49500
C  -16.48100 38.45700 42.63100
C  -17.37000 37.41700 43.36200
N  -11.66000 36.79900 41.87000
C  -12.72600 36.16400 42.55200
C  -12.49600 34.75800 42.73600
C  -11.35800 34.53300 41.95900
C  -10.85600 35.80700 41.55600
C  -13.33300 33.76500 43.50200
C  -10.51100 33.54100 41.51400
O  -10.57300 32.35200 41.67900
C  -9.35300 34.29000 40.73400
C  -8.02000 33.77100 41.20900
O  -7.53700 32.74900 40.86000
O  -7.57000 34.51800 42.23800
C  -6.39800 34.15300 43.05800
H  -7.55200 40.99200 39.92300
H  -13.37500 42.56000 42.25600
H  -14.59200 36.47200 43.62700
H  -6.91400 36.08200 40.04800
H  -6.72200 38.77100 38.93000
H  -4.97600 38.41800 40.28700
H  -5.81700 37.50700 41.47200
H  -5.92200 39.39600 41.43000
H  -7.61700 37.17200 37.40000
H  -8.97000 36.35100 38.08600
H  -8.27400 34.53800 37.43000
H  -6.89900 34.53100 38.48200
H  -7.44300 43.12300 40.48500
H  -8.46200 44.55300 40.83200
H  -8.37000 43.74100 39.20500
H  -13.60400 44.44700 41.51300
H  -12.70700 45.98300 41.79600
H  -12.67000 44.54900 42.98800
H  -15.58700 41.14300 42.49300
H  -15.33600 38.87500 44.34400
H  -15.14900 42.47400 44.33700
H  -13.91100 41.30700 44.93000
H  -15.63900 41.04900 45.20700
H  -16.13400 37.96100 41.72400
H  -17.11700 39.32600 42.46100
H  -18.39300 37.78800 43.30500
H  -17.03800 37.36000 44.39900
H  -17.18300 36.41800 42.96800
H  -13.78400 34.12600 44.42600
H  -12.72700 32.87100 43.65200
H  -14.17400 33.48800 42.86600
H  -9.32300 34.07800 39.66500
H  -5.64000 34.81200 42.63500
H  -6.10500 33.13300 42.81000
H  -6.66800 34.37200 44.09100

