79

Mg 1.54300 -2.91900 45.56700
C  4.77800 -2.11300 44.57400
C  0.33000 -0.61100 43.37700
C  -1.47000 -4.38700 45.94800
C  2.92800 -5.62700 47.29400
N  2.46100 -1.62600 43.99900
C  3.74200 -1.37600 43.88000
C  4.02800 -0.19700 42.90000
C  2.61500 0.36800 42.57300
C  1.70700 -0.62700 43.41000
C  2.28900 1.83000 42.75800
C  4.79000 -0.81500 41.70000
C  6.16200 -0.19500 41.30700
H  6.09100 0.78300 40.04000
N  -0.31900 -2.60600 44.72400
C  -0.59100 -1.55700 43.88800
C  -1.99300 -1.59700 43.49500
C  -2.52100 -2.65000 44.26000
C  -1.42400 -3.31800 44.98900
C  -2.69100 -0.56600 42.61700
C  -4.05300 -2.91900 44.18600
O  -4.75700 -2.29300 43.45600
C  -4.53700 -3.95600 45.12100
N  0.82700 -4.80400 46.44800
C  -0.45400 -5.10600 46.54800
C  -0.69900 -6.45300 47.26800
C  0.73400 -6.85000 47.74900
C  1.55000 -5.69000 47.18700
C  -1.70800 -6.50900 48.46500
C  1.16900 -8.28000 47.42900
C  1.57500 -8.56100 46.03500
N  3.49200 -3.70400 46.00300
C  3.87500 -4.76200 46.74300
C  5.31300 -4.70100 46.91500
C  5.76500 -3.60100 46.14600
C  4.57200 -3.11900 45.54700
C  6.12700 -5.64000 47.67000
C  6.89700 -2.82200 45.66100
O  8.07000 -2.89200 45.94400
C  6.25400 -1.82200 44.62300
C  6.52800 -0.50900 45.32100
O  6.04600 -0.03200 46.36100
O  7.39700 0.09500 44.56600
C  7.69900 1.47700 44.78600
H  -0.00000 0.11700 42.63400
H  -2.39700 -4.93400 46.12900
H  3.40400 -6.44300 47.84100
H  4.62500 0.51700 43.46800
H  2.28400 0.00400 41.60000
H  1.69700 2.16300 41.90600
H  3.18300 2.42200 42.95400
H  1.74700 1.95500 43.69600
H  4.15200 -0.87900 40.81800
H  5.13600 -1.83800 41.84700
H  6.88500 -0.99600 41.14800
H  6.56400 0.33000 42.17300
H  -3.08200 -0.98400 41.68900
H  -1.95700 0.14600 42.24100
H  -3.43500 0.00500 43.17200
H  -4.14000 -4.92000 44.80600
H  -5.62300 -3.94100 45.02500
H  -4.21500 -3.73300 46.13800
H  -1.07800 -7.15300 46.52400
H  0.79200 -6.73900 48.83100
H  -2.68700 -6.77200 48.06500
H  -1.92500 -5.55200 48.94000
H  -1.44000 -7.18600 49.27600
H  0.42300 -9.00000 47.76700
H  2.03400 -8.49500 48.05800
H  1.81100 -7.61900 45.53900
H  0.72100 -8.97400 45.49900
H  2.50500 -9.11700 45.91800
H  7.14800 -5.28100 47.80100
H  6.18100 -6.62900 47.21600
H  5.67300 -5.74300 48.65600
H  6.80000 -1.83500 43.68000
H  6.80800 2.10500 44.78300
H  8.27000 1.82000 43.92400
H  8.37700 1.71200 45.60700

