79

Mg 30.14800 59.09700 40.87600
C  27.23100 57.50300 39.73200
C  32.02500 56.54200 39.94000
C  32.90300 61.07900 41.28200
C  28.20700 61.93200 41.66300
N  29.69200 57.24300 39.82100
C  28.40400 56.82300 39.41900
C  28.53000 55.46000 38.71300
C  30.02300 54.97200 39.03200
C  30.64100 56.27300 39.59800
C  30.06500 53.81300 40.15300
C  28.29900 55.40600 37.17500
C  27.29200 54.37400 36.75700
H  26.28800 54.73400 35.59400
N  32.14000 58.78400 40.75800
C  32.74000 57.60700 40.48800
C  34.12400 57.64200 40.76400
C  34.42200 58.90900 41.22400
C  33.11400 59.66900 41.11800
C  35.06100 56.55300 40.25900
C  35.77900 59.40400 41.61500
O  36.78100 58.72100 41.38500
C  35.94000 60.75800 42.16300
N  30.54300 61.17900 41.47800
C  31.74800 61.80700 41.39500
C  31.73700 63.37300 41.45900
C  30.24000 63.56800 41.90200
C  29.58200 62.16000 41.70400
C  32.90000 64.00900 42.36500
C  29.51900 64.78100 41.24100
C  29.31600 66.05200 42.07600
N  28.13000 59.59200 40.90200
C  27.48600 60.76500 41.26300
C  26.05300 60.64300 40.93500
C  25.87500 59.35400 40.39500
C  27.17100 58.78300 40.42700
C  25.04000 61.69700 41.27600
C  24.94100 58.40500 39.82900
O  23.73000 58.50900 39.69300
C  25.74400 57.16800 39.49700
C  25.45300 56.06700 40.36900
O  25.84400 55.95300 41.51400
O  24.55500 55.22500 39.72400
C  23.92400 54.22500 40.61800
H  32.63200 55.65200 39.76300
H  33.85200 61.60800 41.39100
H  27.68200 62.86800 41.86800
H  27.89200 54.74900 39.23800
H  30.48200 54.52200 38.15200
H  30.50700 54.16900 41.08300
H  30.71300 53.07800 39.67600
H  29.11900 53.31900 40.37600
H  29.20700 55.27900 36.58600
H  27.85700 56.39100 37.02700
H  26.70800 54.04200 37.61600
H  27.89100 53.53600 36.40100
H  34.65000 55.84400 39.54000
H  35.27200 55.93700 41.13300
H  35.95100 56.90500 39.73900
H  36.86600 60.75100 42.73600
H  35.19500 61.16400 42.84800
H  36.09500 61.51000 41.38900
H  31.85800 63.69000 40.42400
H  30.24500 63.69100 42.98500
H  33.54800 64.52600 41.65700
H  33.48400 63.28900 42.93800
H  32.51000 64.70900 43.10400
H  28.57700 64.52100 40.75800
H  30.12100 65.08900 40.38700
H  29.54300 65.94100 43.13700
H  28.31900 66.48000 41.97200
H  30.05400 66.77400 41.72400
H  24.14700 61.09700 41.45000
H  24.86900 62.35300 40.42200
H  25.25700 62.38700 42.09100
H  25.66700 56.91100 38.44000
H  24.70300 53.54200 40.95600
H  23.21800 53.53500 40.15600
H  23.40900 54.69300 41.45700

