79

Mg -8.91100 41.05500 42.19700
C  -7.98200 37.88800 41.15400
C  -6.00600 42.18900 40.51600
C  -10.10700 44.34700 42.24200
C  -12.07400 39.96100 43.13600
N  -7.29700 40.09300 40.85000
C  -7.04400 38.79200 40.72500
C  -5.70000 38.46600 40.09900
C  -4.97800 39.84800 40.06800
C  -6.16100 40.76700 40.46100
C  -3.84000 39.97700 41.02000
C  -5.95300 37.82500 38.65800
C  -5.15300 36.59900 38.32900
H  -3.94800 36.66400 37.36800
N  -8.17500 42.92600 41.49800
C  -6.95900 43.15000 40.94700
C  -6.78300 44.58000 40.73800
C  -7.96900 45.29300 41.09200
C  -8.88400 44.19600 41.56900
C  -5.48400 45.12600 40.12400
C  -8.17400 46.79400 40.90800
O  -7.25400 47.47900 40.42000
C  -9.49700 47.46200 41.36400
N  -10.83800 41.99200 42.64900
C  -10.97200 43.36200 42.77900
C  -12.49600 43.63400 43.20200
C  -13.02900 42.26700 43.67700
C  -11.89300 41.32500 43.22300
C  -12.65100 44.72200 44.23000
C  -14.44900 41.81900 43.12300
C  -15.53500 41.60100 44.22100
N  -9.81400 39.32500 42.27900
C  -11.14300 39.02300 42.68800
C  -11.33600 37.57500 42.60200
C  -10.06900 37.12700 42.12600
C  -9.28100 38.21300 41.78300
C  -12.55600 36.72700 43.02800
C  -9.36500 35.98600 41.84800
O  -9.67800 34.81000 42.10600
C  -8.01200 36.35600 41.07400
C  -6.90100 35.72800 41.79500
O  -6.21200 36.24100 42.72900
O  -6.92600 34.45800 41.37300
C  -6.41400 33.52400 42.32800
H  -5.07500 42.49900 40.03700
H  -10.35700 45.41000 42.27800
H  -13.00600 39.56200 43.54300
H  -5.11500 37.77900 40.71000
H  -4.70200 40.19400 39.07200
H  -2.94800 39.60800 40.51300
H  -3.88000 39.24400 41.82600
H  -3.73000 40.92300 41.54900
H  -5.62800 38.59700 37.96100
H  -7.01700 37.69300 38.45700
H  -5.86300 35.81100 38.07500
H  -4.80600 36.19800 39.28100
H  -4.61500 44.46800 40.11900
H  -5.16300 45.91200 40.80800
H  -5.49000 45.74200 39.22500
H  -10.34600 47.11200 40.77600
H  -9.46500 48.52700 41.13300
H  -9.64000 47.25900 42.42500
H  -13.06700 43.94000 42.32500
H  -13.07700 42.24200 44.76500
H  -11.65200 45.08700 44.47100
H  -13.21100 44.35900 45.09100
H  -13.15400 45.59600 43.81800
H  -14.38500 41.00500 42.40100
H  -14.71700 42.70700 42.54900
H  -16.33600 42.33500 44.13900
H  -15.11200 41.42300 45.21000
H  -15.89000 40.59900 43.97900
H  -12.25200 35.68600 43.13100
H  -13.16400 36.81100 42.12800
H  -13.01900 37.06300 43.95600
H  -8.04000 35.97300 40.05400
H  -5.37000 33.71500 42.57800
H  -6.51800 32.65700 41.67500
H  -6.96900 33.49900 43.26600

