79

Mg 7.99300 2.95000 27.11800
C  9.15600 1.74400 30.19200
C  6.01900 5.15000 28.91300
C  6.80100 4.05800 24.17800
C  9.45100 0.28200 25.55900
N  7.50100 3.30000 29.30100
C  8.19400 2.73900 30.31200
C  7.87200 3.51100 31.63600
C  6.72800 4.47300 31.21100
C  6.73700 4.26600 29.73500
C  5.32000 4.15300 31.87700
C  9.03400 4.26900 32.36500
C  8.69700 5.09500 33.56800
H  9.28100 4.57300 34.91500
N  6.48600 4.37200 26.64700
C  5.87400 5.19700 27.53400
C  5.19000 6.17500 26.76800
C  5.36600 5.88000 25.37700
C  6.25900 4.67700 25.34500
C  4.35800 7.31200 27.38700
C  4.88300 6.70400 24.08700
O  5.39400 6.48900 22.97200
C  3.98100 7.87000 24.17200
N  8.07100 2.11700 25.10300
C  7.57400 2.79100 24.08100
C  7.68800 1.93100 22.78200
C  8.64400 0.81400 23.21900
C  8.62800 1.03500 24.71700
C  6.28200 1.44200 22.18700
C  10.04100 0.87900 22.58000
C  11.01900 1.78600 23.38200
N  9.19100 1.44700 27.64800
C  9.80900 0.44500 26.92600
C  10.62100 -0.41900 27.75400
C  10.41000 0.08500 29.01100
C  9.50600 1.20700 28.95200
C  11.43900 -1.58300 27.33100
C  10.81400 -0.11700 30.37900
O  11.63700 -0.93200 30.80400
C  10.14500 1.04900 31.19100
C  9.51000 0.48100 32.41500
O  8.54100 -0.27700 32.47600
O  10.21200 1.00000 33.47800
C  9.55500 0.58900 34.72000
H  5.55900 5.96500 29.47700
H  6.54900 4.36500 23.16000
H  9.94700 -0.53100 25.02400
H  7.51500 2.78900 32.37000
H  7.07700 5.49800 31.33600
H  4.53600 3.99900 31.13600
H  5.17500 5.07000 32.44700
H  5.36900 3.36100 32.62500
H  9.54000 4.86500 31.60500
H  9.72600 3.54100 32.78900
H  7.62700 5.26000 33.69200
H  9.15800 6.07700 33.45800
H  4.39500 7.48000 28.46400
H  3.31000 7.28300 27.08800
H  4.68400 8.22400 26.88800
H  3.54600 8.16100 23.21500
H  4.60200 8.72200 24.45000
H  3.17900 7.73300 24.89700
H  8.21600 2.51800 22.03000
H  8.19700 -0.12500 22.89200
H  6.15100 1.82100 21.17400
H  5.48900 1.71900 22.88300
H  6.12000 0.36700 22.11700
H  10.04000 1.17800 21.53200
H  10.51500 -0.10200 22.56600
H  11.72200 1.12700 23.89200
H  10.54800 2.51100 24.04500
H  11.58500 2.43900 22.71700
H  12.51200 -1.39500 27.37100
H  11.34500 -1.79400 26.26500
H  11.13600 -2.44300 27.92800
H  10.84600 1.85200 31.41500
H  8.50400 0.88000 34.71400
H  10.17700 0.96500 35.53200
H  9.49800 -0.49700 34.78400

