79

Mg 49.19800 35.66200 28.46800
C  47.05500 34.16400 30.73000
C  49.44800 38.44100 30.63700
C  50.86400 37.29900 26.18200
C  48.63500 33.04100 26.24400
N  48.37500 36.16600 30.46900
C  47.61800 35.35800 31.30300
C  47.46900 36.01400 32.63900
C  47.79900 37.52900 32.41400
C  48.59300 37.38500 31.07200
C  46.58600 38.43300 32.33600
C  48.11200 35.18600 33.72100
C  49.51600 35.62400 34.33700
H  49.64700 36.38400 35.60900
N  50.26900 37.52300 28.45600
C  50.20400 38.48600 29.47800
C  50.99400 39.61800 29.01000
C  51.55600 39.27800 27.73300
C  50.86100 38.03000 27.37800
C  51.17100 40.80600 29.85800
C  52.57200 39.99300 26.79800
O  52.86800 39.54000 25.73400
C  53.27400 41.35000 27.24800
N  49.54700 35.28300 26.43400
C  50.33400 36.10700 25.68500
C  50.50200 35.55400 24.26300
C  49.83300 34.14600 24.31400
C  49.39600 34.11300 25.76100
C  49.88600 36.47100 23.15300
C  50.68500 32.86500 23.97800
C  51.38500 32.60200 22.64700
N  48.13400 33.89900 28.46500
C  48.04100 32.93300 27.50700
C  47.16100 31.87400 28.03400
C  46.66100 32.38400 29.28100
C  47.34600 33.58400 29.49100
C  46.73000 30.59100 27.45300
C  45.75200 32.06000 30.36800
O  45.06700 31.09100 30.58300
C  45.97000 33.23000 31.35500
C  46.23500 32.74500 32.72200
O  47.14300 32.05100 33.04800
O  45.18900 33.04300 33.51500
C  45.19700 32.61800 34.92700
H  49.56200 39.30100 31.30000
H  51.52800 37.64000 25.38500
H  48.37100 32.26600 25.52200
H  46.41400 35.90300 32.88800
H  48.52800 37.96400 33.09800
H  45.72700 37.80800 32.09700
H  46.77200 39.14800 31.53400
H  46.36800 38.86900 33.31100
H  48.33200 34.22700 33.25200
H  47.47600 35.03100 34.59200
H  50.00200 36.26900 33.60500
H  50.13700 34.72800 34.31900
H  52.18400 40.70800 30.24900
H  50.60900 40.89600 30.78700
H  51.11500 41.68800 29.22000
H  53.42800 41.17300 28.31300
H  52.58100 42.18400 27.13900
H  54.26400 41.44900 26.80400
H  51.56800 35.42600 24.07900
H  48.84000 34.12000 23.86500
H  50.71200 36.86300 22.56000
H  49.21100 37.23700 23.53500
H  49.26400 35.96800 22.41300
H  49.97600 32.04500 24.09000
H  51.51300 32.66800 24.66000
H  52.46100 32.59000 22.82300
H  51.24600 33.46800 22.00100
H  51.08300 31.69600 22.12200
H  47.68100 30.06000 27.40900
H  46.38700 30.77900 26.43500
H  45.99300 30.12500 28.10700
H  45.00800 33.73400 31.44600
H  44.25200 32.87000 35.40900
H  46.04800 33.05300 35.45100
H  45.27000 31.53100 34.94800

