79

Mg 47.28000 17.02400 28.18100
C  45.39500 16.69800 31.19300
C  49.66800 18.39200 30.01700
C  48.92900 17.27500 25.36900
C  44.58000 15.72800 26.44300
N  47.50400 17.45900 30.33300
C  46.65000 17.32700 31.40000
C  47.30600 17.80400 32.71200
C  48.54400 18.63000 32.21200
C  48.51900 18.18300 30.76300
C  48.38800 20.18300 32.36200
C  47.72900 16.63300 33.57300
C  48.19100 16.92700 35.06200
H  47.78500 18.26300 35.78400
N  49.06100 17.65500 27.81900
C  49.97000 18.08600 28.65600
C  51.23700 18.39300 27.92300
C  51.03600 18.03200 26.57000
C  49.65100 17.56900 26.57500
C  52.39100 18.87300 28.69800
C  51.96700 18.03700 25.44600
O  51.67400 17.67300 24.30000
C  53.40600 18.56300 25.59800
N  46.92400 16.21900 26.22000
C  47.72400 16.63500 25.22000
C  47.00700 16.49100 23.81800
C  45.56900 15.95300 24.28200
C  45.68200 16.04600 25.71600
C  46.79400 17.84600 23.04800
C  45.14000 14.54500 23.86400
C  45.55500 14.24200 22.45000
N  45.45900 16.30600 28.70100
C  44.47500 15.71100 27.87300
C  43.37800 15.32500 28.70700
C  43.67300 15.66600 30.01100
C  44.94300 16.28800 29.95500
C  42.10800 14.68500 28.13000
C  43.18500 15.54800 31.39500
O  42.10300 15.15100 31.89200
C  44.32900 16.17700 32.23700
C  43.63100 17.24500 33.05700
O  43.51700 18.47500 32.79400
O  43.15700 16.57200 34.18400
C  42.71300 17.58500 35.15100
H  50.41100 18.91200 30.62700
H  49.40000 17.50800 24.41100
H  43.69000 15.40500 25.89900
H  46.63400 18.50000 33.21400
H  49.45600 18.37400 32.75200
H  49.32000 20.47800 32.84400
H  47.63300 20.48900 33.08600
H  48.15900 20.58200 31.37300
H  48.68300 16.30300 33.16200
H  47.04900 15.78400 33.63700
H  49.27800 16.87100 35.12300
H  47.81500 16.12400 35.69500
H  52.13700 18.70500 29.74500
H  52.68400 19.91700 28.58200
H  53.29600 18.34200 28.40200
H  54.02200 17.82700 26.11300
H  53.42200 19.52500 26.11000
H  53.79800 18.66900 24.58600
H  47.56400 15.84900 23.13500
H  44.71800 16.61800 24.13700
H  45.73800 18.09700 22.94800
H  47.23200 17.90800 22.05200
H  47.14100 18.70900 23.61700
H  44.09500 14.24600 23.77900
H  45.63600 13.79600 24.48100
H  46.47600 13.69600 22.65300
H  45.63900 15.08900 21.76900
H  44.94800 13.49900 21.93200
H  41.34000 15.44600 28.26800
H  41.82900 13.75800 28.63100
H  42.28900 14.28900 27.13100
H  44.64100 15.44700 32.98300
H  43.47600 18.33900 35.34900
H  42.56800 17.07400 36.10300
H  41.74400 17.97100 34.83600

