79

Mg -1.22700 35.08800 26.68700
C  -3.07800 33.28800 29.08800
C  -0.28500 37.36100 29.01900
C  0.55600 36.73000 24.28600
C  -2.56400 32.92000 24.15400
N  -1.77700 35.31700 28.76400
C  -2.45700 34.44100 29.62600
C  -2.41000 34.95400 31.04800
C  -1.53400 36.25500 30.93200
C  -1.20100 36.32700 29.46000
C  -2.22400 37.53400 31.55200
C  -1.99600 33.88200 32.05500
C  -1.50900 34.42600 33.49500
H  -2.28300 33.74600 34.68800
N  -0.02900 36.87400 26.67500
C  0.28700 37.62700 27.74300
C  1.26400 38.62000 27.32800
C  1.54100 38.36000 25.97700
C  0.64100 37.25900 25.58000
C  1.91100 39.66000 28.28700
C  2.63500 38.96300 25.18000
O  2.88700 38.53500 24.05200
C  3.55400 39.98300 25.79600
N  -1.00600 34.83500 24.52000
C  -0.14900 35.61600 23.82700
C  0.01100 35.13600 22.38500
C  -0.91300 33.88400 22.35000
C  -1.50400 33.84400 23.77500
C  -0.22300 36.24100 21.39000
C  -0.18400 32.55100 21.99900
C  -1.12600 31.53600 21.21500
N  -2.53200 33.47800 26.50800
C  -3.03200 32.75300 25.42800
C  -3.94000 31.74200 25.88200
C  -3.93200 31.91600 27.32600
C  -3.06700 33.03500 27.63700
C  -4.74600 30.78800 24.96600
C  -4.45500 31.39700 28.57500
O  -5.11400 30.40700 28.90900
C  -4.02600 32.33200 29.70700
C  -5.25700 32.91900 30.23300
O  -6.06900 33.49200 29.54300
O  -5.33800 32.70100 31.58000
C  -6.43400 33.37800 32.18200
H  0.00200 38.00200 29.85500
H  1.16900 37.22300 23.52800
H  -2.99600 32.27000 23.39100
H  -3.45800 35.21700 31.18900
H  -0.60100 36.14800 31.48400
H  -2.49200 38.17700 30.71400
H  -1.45800 38.01300 32.16100
H  -3.07900 37.31800 32.19300
H  -1.16100 33.33500 31.61700
H  -2.74000 33.11600 32.27400
H  -1.78600 35.48000 33.51600
H  -0.43100 34.27400 33.54300
H  2.93800 39.41200 28.55800
H  1.35200 39.55900 29.21700
H  1.92500 40.68200 27.90900
H  4.36600 40.11800 25.08100
H  4.08500 39.63000 26.68000
H  3.19000 41.01000 25.81100
H  1.03800 34.78000 22.29800
H  -1.68500 34.10400 21.61300
H  -0.77100 37.01400 21.92700
H  -0.87800 35.89900 20.58900
H  0.67300 36.65600 20.92900
H  0.21700 32.06500 22.88900
H  0.67500 32.72500 21.35100
H  -2.02100 31.89400 20.70600
H  -1.44600 30.78800 21.94000
H  -0.41600 31.11300 20.50300
H  -4.06800 30.35300 24.23200
H  -5.44300 31.36800 24.36200
H  -5.28300 30.06700 25.58400
H  -3.47900 31.84000 30.51200
H  -7.02300 32.56300 32.60300
H  -6.90400 34.09300 31.50600
H  -6.18900 33.83000 33.14300

