79

Mg 35.08600 3.47500 30.40000
C  32.70700 4.55400 32.71600
C  37.40100 3.59500 32.98800
C  37.29900 2.74500 28.16600
C  32.58800 3.73600 27.90500
N  35.00800 4.03500 32.59000
C  33.92200 4.35900 33.31300
C  34.25600 4.25300 34.86600
C  35.85800 4.29900 34.88100
C  36.08800 3.90400 33.38200
C  36.39500 5.72300 35.13900
C  33.72200 2.95700 35.59200
C  34.01300 2.76000 37.08900
H  34.44900 3.98100 37.91300
N  37.10400 3.12200 30.60500
C  37.93600 3.14500 31.72600
C  39.28900 2.72800 31.36600
C  39.30700 2.76200 29.92000
C  37.86800 2.85900 29.50500
C  40.41400 2.66200 32.46200
C  40.39800 2.61300 28.94100
O  40.15500 2.83300 27.76500
C  41.73300 2.08800 29.38700
N  34.94300 3.37000 28.29900
C  35.99400 2.99300 27.61300
C  35.77400 3.06600 26.01400
C  34.23100 3.29200 25.98600
C  33.86700 3.47200 27.48700
C  36.55200 4.18800 25.19300
C  33.50700 2.13900 25.26500
C  33.10700 0.94400 26.07200
N  33.07100 4.11900 30.27700
C  32.18800 4.08900 29.17400
C  30.84000 4.27000 29.66900
C  31.02100 4.50900 31.05300
C  32.41000 4.41000 31.38800
C  29.61900 4.28900 28.78200
C  30.37300 4.75500 32.29700
O  29.18700 4.93300 32.47900
C  31.39100 4.74600 33.46000
C  31.21100 6.02800 34.12100
O  30.98400 7.13200 33.56100
O  31.27900 5.81700 35.46600
C  31.49600 7.08400 36.14100
H  38.12100 3.70500 33.80200
H  38.03200 2.45200 27.41100
H  31.78400 3.67100 27.16900
H  33.78900 5.11300 35.34600
H  36.20400 3.64300 35.68000
H  36.91600 5.71400 36.09600
H  35.65900 6.52100 35.22400
H  37.15800 5.86900 34.37400
H  34.12400 2.05600 35.12900
H  32.63500 2.93400 35.51100
H  34.64300 1.87000 37.10700
H  33.15100 2.33600 37.60400
H  40.13700 3.22000 33.35600
H  41.23900 3.20800 32.00400
H  40.85700 1.70800 32.74900
H  41.50000 1.28700 30.08800
H  42.28500 2.94700 29.76800
H  42.36500 1.73800 28.57100
H  36.16700 2.13800 25.59700
H  34.01000 4.18800 25.40700
H  37.12200 4.71900 25.95600
H  35.81600 4.84100 24.72500
H  37.17700 3.63200 24.49400
H  34.18700 1.77600 24.49500
H  32.66200 2.58600 24.74200
H  33.63700 0.88000 27.02300
H  33.20300 0.08800 25.40500
H  32.04600 0.98700 26.32200
H  29.00200 3.39200 28.81300
H  29.88300 4.35100 27.72600
H  28.95300 5.11400 29.03400
H  31.06800 3.99000 34.17500
H  32.27800 7.61900 35.60100
H  31.96000 6.83200 37.09400
H  30.63200 7.74900 36.12800

