79

Mg 35.65300 49.02100 24.84300
C  35.90100 47.15400 27.72600
C  34.24300 51.63700 26.58400
C  34.83000 50.60600 21.90800
C  36.96900 46.26600 22.97300
N  34.99100 49.28300 26.92200
C  35.25200 48.36400 27.96300
C  34.94100 48.99000 29.38700
C  34.41000 50.43100 28.97700
C  34.60400 50.50900 27.44600
C  32.94000 50.58400 29.45000
C  36.12700 49.21200 30.31300
C  35.96300 49.14100 31.91500
H  34.66700 48.92800 32.62900
N  34.52000 50.85100 24.33500
C  34.16600 51.78100 25.20000
C  33.68900 52.92200 24.43500
C  33.84300 52.64200 23.06500
C  34.48300 51.32100 23.02800
C  33.18300 54.19200 25.09500
C  33.49600 53.49000 21.94700
O  33.97000 53.24600 20.85800
C  32.72300 54.82300 22.14400
N  35.89100 48.52400 22.76600
C  35.48800 49.37100 21.76300
C  35.76500 48.69600 20.33800
C  36.61400 47.41700 20.82400
C  36.46500 47.42500 22.27100
C  34.42000 48.42600 19.60500
C  38.14200 47.38300 20.31400
C  38.92400 48.72300 20.63100
N  36.25900 47.06300 25.20400
C  36.84600 46.08800 24.39400
C  37.16800 44.92900 25.23500
C  36.86100 45.40100 26.56600
C  36.26200 46.60600 26.46700
C  37.82300 43.62200 24.82100
C  36.94200 44.95600 27.95500
O  37.27200 43.89000 28.44300
C  36.28400 46.13300 28.77800
C  35.08300 45.64600 29.45000
O  34.05900 45.33800 28.89000
O  35.27900 45.35900 30.77700
C  34.22000 44.55400 31.44600
H  33.76000 52.50600 27.03500
H  34.79200 51.04300 20.90800
H  37.29600 45.41900 22.36600
H  34.18600 48.44600 29.95400
H  34.89500 51.29000 29.44100
H  32.38000 50.98500 28.60500
H  32.83200 51.44900 30.10400
H  32.42400 49.75900 29.94000
H  36.66700 50.11100 30.01500
H  36.93200 48.55900 29.97700
H  36.34700 50.05100 32.37500
H  36.67300 48.34600 32.14600
H  33.83500 55.00700 24.78300
H  33.13500 54.16400 26.18300
H  32.15700 54.36200 24.76800
H  31.85500 54.60000 22.76400
H  32.38100 55.20300 21.18200
H  33.37700 55.55300 22.62000
H  36.27700 49.36900 19.65100
H  36.20400 46.44500 20.55100
H  34.42500 48.82900 18.59200
H  33.61400 48.78100 20.24700
H  34.34900 47.34000 19.55000
H  38.01100 47.26700 19.23800
H  38.57000 46.48100 20.75100
H  39.86900 48.63000 21.16600
H  38.40200 49.45600 21.24500
H  39.26100 49.21600 19.71900
H  37.02700 42.88500 24.92200
H  38.63500 43.43100 25.52400
H  38.16900 43.59200 23.78800
H  36.90300 46.50300 29.59600
H  33.50500 45.11800 32.04500
H  34.69200 43.90100 32.17900
H  33.57000 44.02200 30.75000

