79

Mg 24.06600 -4.00900 46.30900
C  26.37800 -1.68600 44.93000
C  21.62800 -2.66800 44.41300
C  22.31300 -6.80100 46.76100
C  26.84900 -5.50900 47.92800
N  24.10800 -2.46400 44.76300
C  25.04700 -1.54600 44.41900
C  24.39400 -0.54000 43.51700
C  22.88500 -0.53700 43.77100
C  22.85600 -1.97000 44.33500
C  22.27800 0.52000 44.70400
C  24.73900 -0.89400 42.07000
C  24.99000 0.31400 41.14300
H  24.61500 0.07500 39.68300
N  22.15200 -4.65700 45.69700
C  21.34800 -3.97100 44.86400
C  20.17100 -4.77200 44.61400
C  20.31400 -5.94000 45.37600
C  21.63600 -5.84900 46.01700
C  19.06600 -4.38900 43.64600
C  19.30800 -7.01100 45.43300
O  18.25100 -6.81800 44.86300
C  19.35900 -8.23700 46.19300
N  24.48900 -5.91600 47.28600
C  23.58600 -6.89800 47.34900
C  24.19000 -8.14900 48.00100
C  25.63100 -7.65100 48.44800
C  25.66600 -6.25800 47.84100
C  23.41900 -8.80300 49.14500
C  26.83200 -8.61400 47.95200
C  27.53400 -8.18000 46.62200
N  26.08500 -3.56300 46.67000
C  27.09700 -4.25300 47.33200
C  28.42400 -3.61600 47.17200
C  28.13500 -2.59300 46.25100
C  26.74100 -2.60900 45.91000
C  29.72100 -3.94100 47.92700
C  28.75200 -1.50900 45.49800
O  29.91800 -1.14100 45.56400
C  27.55700 -0.81800 44.62100
C  27.47200 0.67500 44.88200
O  26.62600 1.25300 45.54900
O  28.48100 1.26700 44.14300
C  28.69100 2.73800 44.21300
H  20.76400 -2.12000 44.03100
H  21.78900 -7.75100 46.89000
H  27.68500 -5.89200 48.51900
H  24.79500 0.46400 43.65800
H  22.32600 -0.49100 42.83700
H  22.95600 1.37300 44.68300
H  22.21300 0.20900 45.74700
H  21.34300 0.87600 44.27100
H  23.91000 -1.51700 41.73400
H  25.58000 -1.58100 41.97600
H  26.04100 0.55100 41.31000
H  24.41400 1.11300 41.61000
H  19.01600 -5.17100 42.88900
H  19.12400 -3.37200 43.25900
H  18.19000 -4.43400 44.29300
H  18.46700 -8.81100 45.94200
H  19.35800 -7.98000 47.25200
H  20.22100 -8.85000 45.92900
H  24.40700 -8.95100 47.29500
H  25.69300 -7.51600 49.52800
H  22.44800 -8.34000 49.32200
H  23.96300 -8.86700 50.08700
H  23.19900 -9.78900 48.73600
H  26.52200 -9.62700 47.69800
H  27.52100 -8.76800 48.78200
H  26.81800 -7.78600 45.90000
H  27.99400 -9.06600 46.18300
H  28.32000 -7.44700 46.80000
H  29.66000 -4.92100 48.40000
H  30.02500 -3.19300 48.65900
H  30.45200 -4.00700 47.12200
H  27.87200 -0.89300 43.58100
H  27.72100 3.19500 44.01800
H  29.40200 3.03700 43.44300
H  29.06300 3.03800 45.19200

