79

Mg 24.68300 -5.32500 46.33500
C  26.73500 -2.78400 45.00000
C  22.20500 -4.43200 43.96800
C  22.98600 -8.03500 47.11200
C  27.52500 -6.65800 47.79800
N  24.60000 -3.87100 44.56800
C  25.54500 -2.90100 44.23400
C  25.07500 -1.94200 43.23600
C  23.59400 -2.52200 42.96100
C  23.40500 -3.61200 43.95100
C  22.36000 -1.49600 42.97400
C  26.01000 -1.94900 42.00500
C  26.07100 -0.61700 41.27700
H  25.53600 -0.45400 39.84600
N  22.78200 -5.92100 45.83800
C  21.96800 -5.46700 44.86400
C  20.78200 -6.21100 44.80000
C  21.02600 -7.34700 45.66400
C  22.32900 -7.12700 46.24400
C  19.54800 -5.86100 43.94200
C  20.03400 -8.41700 45.86400
O  18.99900 -8.43800 45.23200
C  20.09400 -9.53400 46.99800
N  25.18400 -7.00400 47.38500
C  24.25500 -8.01800 47.67000
C  24.89300 -9.24600 48.27600
C  26.40900 -8.81500 48.50300
C  26.43700 -7.43100 47.84800
C  24.19800 -9.70400 49.60600
C  27.53300 -9.89000 48.10800
C  28.53400 -10.38200 49.12400
N  26.67700 -4.82500 46.52400
C  27.72900 -5.40800 47.20200
C  28.90500 -4.65500 47.11500
C  28.55200 -3.59100 46.28800
C  27.20000 -3.71400 45.92200
C  30.11500 -4.79400 47.95400
C  29.09400 -2.35300 45.72100
O  30.23800 -1.95400 45.73800
C  27.91100 -1.78200 44.81800
C  27.63000 -0.40600 45.29500
O  26.93900 -0.11400 46.29500
O  28.10700 0.49800 44.41100
C  27.89800 1.91000 44.85400
H  21.33200 -4.14900 43.37700
H  22.40200 -8.95800 47.13800
H  28.37500 -7.16800 48.25700
H  24.97300 -0.90900 43.57000
H  23.58400 -3.00000 41.98200
H  21.57600 -1.85700 43.64000
H  21.98900 -1.42300 41.95200
H  22.65800 -0.46600 43.16900
H  25.55000 -2.64800 41.30600
H  27.02400 -2.25400 42.26500
H  27.11600 -0.31100 41.32800
H  25.51800 0.14300 41.82900
H  19.48300 -6.48700 43.05300
H  19.49300 -4.79200 43.73300
H  18.69800 -6.12800 44.56900
H  19.10900 -9.99500 47.07300
H  20.40500 -9.14100 47.96600
H  20.75600 -10.32100 46.63600
H  24.86200 -10.03200 47.52100
H  26.51000 -8.54100 49.55300
H  24.69500 -9.44800 50.54200
H  24.05500 -10.78100 49.52100
H  23.22600 -9.24200 49.78400
H  28.09700 -9.38000 47.32600
H  27.06400 -10.72400 47.58600
H  29.51600 -10.20300 48.68600
H  28.30700 -11.41900 49.37000
H  28.40400 -9.78900 50.02900
H  29.98400 -4.23600 48.88100
H  30.99700 -4.32700 47.51800
H  30.22700 -5.84800 48.20900
H  28.23100 -1.76800 43.77700
H  27.92700 2.01900 45.93800
H  26.96100 2.32100 44.47700
H  28.66600 2.50900 44.36600

