79

Mg 47.32600 25.20600 27.93800
C  48.45400 27.40200 30.43100
C  46.39300 22.99800 30.45100
C  46.63800 23.00700 25.50600
C  48.53500 27.48100 25.56900
N  47.57800 25.13400 30.17400
C  47.93200 26.22600 30.94000
C  47.55500 26.02200 32.39800
C  47.03400 24.50900 32.37200
C  47.00700 24.19900 30.90200
C  47.90400 23.57200 33.30800
C  46.36900 27.00000 32.88500
C  46.55300 27.75000 34.18300
H  47.27600 27.04400 35.36600
N  46.66500 23.27400 27.94700
C  46.24800 22.52000 29.06700
C  45.84200 21.19300 28.63200
C  45.76400 21.21400 27.22900
C  46.41400 22.49900 26.81900
C  45.58700 20.09800 29.62400
C  45.20400 20.19000 26.34000
O  45.26000 20.25500 25.11100
C  44.41400 19.06300 26.92900
N  47.59500 25.22600 25.90900
C  47.14900 24.20900 25.11100
C  47.42200 24.55700 23.62300
C  47.89700 26.03200 23.62300
C  48.04400 26.26500 25.12100
C  48.40600 23.50600 22.99500
C  46.75800 27.00400 22.98600
C  47.17300 28.28000 22.20300
N  48.12900 27.10900 27.90000
C  48.59200 27.91600 26.90800
C  49.01400 29.15900 27.34500
C  48.95400 29.01900 28.71500
C  48.51400 27.74900 29.02200
C  49.57100 30.33100 26.47600
C  49.24100 29.63500 29.91400
O  49.72600 30.69500 30.10800
C  48.87500 28.71800 31.09200
C  50.06000 28.55000 31.93100
O  51.19100 28.14600 31.65400
O  49.63600 28.61600 33.20900
C  50.73600 28.58400 34.17400
H  46.05800 22.33600 31.25300
H  46.33300 22.34900 24.69000
H  48.87800 28.25400 24.87900
H  48.48400 26.13400 32.95700
H  45.99600 24.54000 32.70300
H  48.52000 23.04700 32.57800
H  47.23200 23.02800 33.97100
H  48.54700 24.17400 33.95000
H  45.38400 26.54400 32.78500
H  46.35700 27.74900 32.09400
H  45.61600 28.11000 34.60800
H  47.12700 28.63800 33.92000
H  45.83600 19.08100 29.32100
H  44.56900 20.09100 30.01300
H  46.20100 20.36500 30.48300
H  43.78100 19.26300 27.79400
H  45.19700 18.31400 27.05100
H  43.85200 18.52600 26.16500
H  46.48500 24.46700 23.07300
H  48.90000 26.19600 23.23000
H  48.70000 22.76500 23.73900
H  49.29900 24.09900 22.79800
H  47.97300 22.99200 22.13700
H  46.14700 27.34600 23.82100
H  46.10100 26.35400 22.40800
H  48.24700 28.23400 22.02100
H  46.77100 29.18800 22.65300
H  46.50200 28.19500 21.34800
H  48.90100 30.30100 25.61600
H  50.64000 30.14200 26.38000
H  49.40000 31.31600 26.91100
H  48.07600 29.21000 31.64800
H  50.33400 29.08000 35.05700
H  51.65200 29.13400 33.95800
H  50.92400 27.55200 34.47000

