79

Mg 37.03700 50.14500 25.46400
C  37.07000 48.06600 28.27700
C  35.09700 52.37200 27.27200
C  36.39600 51.79800 22.61300
C  37.88600 47.35300 23.52200
N  36.26000 50.17700 27.50500
C  36.63800 49.33800 28.54000
C  36.34300 49.94400 29.88700
C  35.38600 51.18600 29.51200
C  35.56400 51.26600 28.01600
C  33.93400 51.15800 30.05200
C  37.67200 50.16000 30.65100
C  37.58700 49.75600 32.07600
H  36.20300 49.64500 32.74000
N  35.97300 51.91400 25.02400
C  35.26100 52.69300 25.87300
C  34.73600 53.84400 25.24100
C  35.11400 53.69600 23.84000
C  35.91300 52.39200 23.77100
C  33.84600 54.90500 25.94500
C  34.85800 54.62200 22.69900
O  35.07900 54.27200 21.55500
C  34.38900 56.04000 22.95900
N  37.39300 49.74000 23.37500
C  36.93800 50.52400 22.36100
C  37.19800 49.98300 20.99500
C  37.91600 48.63100 21.37300
C  37.64400 48.51800 22.86300
C  35.92400 49.88500 20.11100
C  39.36100 48.43300 20.81500
C  40.39600 49.55300 21.05500
N  37.57500 48.10500 25.79300
C  37.85400 47.05500 24.90500
C  38.11500 45.83600 25.65700
C  37.81200 46.19700 27.00400
C  37.51300 47.56900 27.02400
C  38.58300 44.53000 25.06100
C  37.67100 45.62400 28.32200
O  37.74900 44.45500 28.72700
C  37.27600 46.84800 29.21500
C  36.05400 46.40800 29.92800
O  34.96800 46.26100 29.46200
O  36.35400 46.06400 31.25200
C  35.27900 45.37000 32.06100
H  34.45700 53.10100 27.77400
H  36.36300 52.45200 21.73900
H  38.08300 46.59300 22.76300
H  35.58400 49.32500 30.36700
H  35.83400 52.10000 29.90100
H  33.83700 50.21400 30.58800
H  33.27900 51.25900 29.18600
H  33.87800 51.92700 30.82200
H  38.02700 51.18000 30.50300
H  38.49900 49.55900 30.27100
H  38.08600 50.53900 32.64700
H  38.10500 48.81500 32.25800
H  34.59800 55.60600 26.30800
H  33.32300 54.43400 26.77800
H  33.08500 55.31800 25.28300
H  34.74300 56.46300 23.89900
H  33.36700 56.21300 22.62200
H  34.93800 56.59800 22.20000
H  37.97200 50.58300 20.51600
H  37.33800 47.82800 20.91600
H  35.62400 50.89900 19.84700
H  35.14900 49.46600 20.75300
H  36.07400 49.33800 19.18000
H  39.13400 48.28700 19.75900
H  39.87900 47.58500 21.26300
H  40.68300 50.05600 20.13200
H  41.36000 49.14000 21.35100
H  40.05300 50.28000 21.79200
H  38.82500 44.74100 24.02000
H  37.94600 43.67700 25.29400
H  39.59700 44.25300 25.34900
H  38.01200 46.92500 30.01600
H  35.34500 45.60800 33.12300
H  35.56000 44.31900 31.98000
H  34.28600 45.52200 31.63900

