79

Mg 36.04500 50.32100 25.44600
C  35.95000 48.43800 28.53000
C  34.74700 52.95300 27.26800
C  35.99200 52.03400 22.58800
C  37.06700 47.47000 23.76000
N  35.46400 50.73800 27.69800
C  35.60500 49.82100 28.72000
C  35.19200 50.48300 30.06100
C  34.75900 51.89900 29.61300
C  34.97800 51.94200 28.10600
C  33.33300 52.32000 30.05900
C  36.28100 50.42700 31.15900
C  35.88600 49.71600 32.47000
H  34.47000 49.83600 33.04200
N  35.64500 52.27200 25.02400
C  34.99900 53.20600 25.84500
C  34.60200 54.40100 25.09400
C  35.01300 54.21700 23.76500
C  35.62000 52.82900 23.74800
C  33.89800 55.54100 25.74500
C  34.83000 55.07500 22.54400
O  35.29900 54.90800 21.42200
C  34.17600 56.41100 22.80800
N  36.26300 49.77900 23.47200
C  36.25200 50.66000 22.42200
C  36.67000 49.99300 21.09200
C  37.29200 48.66700 21.50200
C  36.80300 48.63500 23.01400
C  35.46500 49.98300 20.07500
C  38.84000 48.57100 21.37300
C  39.72300 49.29100 22.41500
N  36.34500 48.40100 25.94000
C  36.84100 47.32700 25.15900
C  37.01300 46.11500 25.97500
C  36.63000 46.50700 27.23700
C  36.23200 47.91700 27.20600
C  37.50900 44.81500 25.43700
C  36.50600 46.04800 28.61800
O  36.77000 44.95100 29.10400
C  36.17400 47.29000 29.48500
C  35.01500 46.82900 30.29800
O  33.81000 47.05700 29.96800
O  35.33100 46.12000 31.41900
C  34.24000 45.50600 32.23400
H  34.19700 53.80900 27.66400
H  35.95900 52.61400 21.66400
H  37.44900 46.58900 23.24100
H  34.31200 49.95900 30.43400
H  35.44700 52.65600 29.99300
H  32.79800 52.73400 29.20400
H  33.36700 53.15200 30.76200
H  32.67900 51.49900 30.35300
H  36.72200 51.40600 31.34900
H  37.07900 49.85000 30.69200
H  36.54200 50.05500 33.27100
H  36.15000 48.68400 32.23400
H  33.79600 55.61100 26.82800
H  32.94100 55.65200 25.23400
H  34.29900 56.53800 25.56500
H  33.12300 56.32500 23.07800
H  34.30200 57.05200 21.93600
H  34.75400 56.93400 23.56900
H  37.37000 50.63900 20.56200
H  36.78500 47.82300 21.03500
H  34.57900 50.11000 20.69700
H  35.41900 49.00300 19.60000
H  35.47700 50.87700 19.45200
H  39.09100 49.03600 20.41900
H  39.07200 47.51200 21.25900
H  39.10800 49.86700 23.10700
H  40.48000 49.85600 21.87100
H  40.27500 48.55700 23.00100
H  38.17300 45.13800 24.63500
H  36.60200 44.32700 25.07900
H  37.97500 44.13600 26.15100
H  37.00100 47.55500 30.14300
H  33.62200 44.90200 31.57000
H  33.71000 46.38400 32.60200
H  34.58700 44.82200 33.00800

