79

Mg 17.67900 -1.36400 27.93100
C  16.51800 0.37500 30.68000
C  19.77100 -3.10300 30.00000
C  19.26400 -2.65100 25.16000
C  15.77900 0.68600 25.89700
N  18.24800 -1.24100 30.14300
C  17.43400 -0.56500 31.10800
C  17.91300 -0.93800 32.46800
C  19.16200 -1.85700 32.18400
C  19.08500 -2.09600 30.71100
C  20.56100 -1.37200 32.62100
C  16.74900 -1.44300 33.42100
C  16.83900 -0.84000 34.90200
H  18.18000 -0.36900 35.52400
N  19.04700 -2.82000 27.64500
C  19.68200 -3.49300 28.66000
C  20.40600 -4.51900 28.06900
C  20.20700 -4.45800 26.68200
C  19.54000 -3.22500 26.43300
C  21.43700 -5.43000 28.75200
C  20.75600 -5.42800 25.55100
O  20.50800 -5.23900 24.39500
C  21.59200 -6.67000 25.90700
N  17.57500 -1.00300 25.79000
C  18.37000 -1.64300 24.88800
C  18.00200 -1.16200 23.45000
C  16.91400 -0.12500 23.75300
C  16.69000 -0.15700 25.24700
C  19.11900 -0.55200 22.71700
C  15.56700 -0.34800 22.90700
C  15.31500 0.80500 21.93700
N  16.42000 0.12800 28.18500
C  15.70300 0.89300 27.29300
C  14.86400 1.78000 27.89900
C  15.09000 1.68100 29.25400
C  16.06000 0.62900 29.40200
C  13.86700 2.75300 27.23000
C  14.82000 2.16400 30.55200
O  14.06200 3.08100 30.98900
C  15.64400 1.25900 31.49000
C  16.40300 2.23300 32.34300
O  17.36200 2.89200 31.93500
O  15.80500 2.30500 33.59200
C  16.38700 3.26100 34.60200
H  20.29800 -3.74700 30.70700
H  19.68100 -3.13000 24.27100
H  15.06300 1.25500 25.30100
H  18.22400 0.02900 32.86100
H  19.08600 -2.70100 32.87100
H  21.03100 -2.08300 33.30100
H  20.49000 -0.41200 33.13100
H  21.20100 -1.16700 31.76300
H  16.71800 -2.52900 33.50800
H  15.78700 -1.28100 32.93400
H  16.51000 -1.65900 35.54200
H  16.13100 -0.01200 34.86200
H  20.98800 -6.37000 29.07000
H  21.78900 -4.90800 29.64200
H  22.38000 -5.56700 28.22300
H  21.03000 -7.23500 26.65100
H  22.55600 -6.39800 26.33700
H  21.74600 -7.37900 25.09300
H  17.74900 -2.00800 22.81200
H  17.30000 0.88600 23.61800
H  19.79500 -0.08400 23.43300
H  18.83400 0.23700 22.02100
H  19.71400 -1.26700 22.14900
H  14.67600 -0.43800 23.52900
H  15.70700 -1.25700 22.32200
H  16.28600 1.25600 21.73800
H  14.59700 1.52100 22.33600
H  15.03800 0.32300 20.99900
H  13.08700 2.84000 27.98600
H  13.42600 2.39100 26.30100
H  14.25600 3.75700 27.05900
H  14.95900 0.75200 32.17000
H  16.20400 2.86500 35.60100
H  15.80700 4.18200 34.54200
H  17.46300 3.42100 34.54000

