79

Mg 7.45800 52.92200 41.84400
C  7.43900 49.43600 41.79100
C  10.70000 52.77200 40.48400
C  7.10500 56.14000 41.04400
C  3.98700 52.67700 42.64100
N  8.84000 51.34500 41.20500
C  8.64500 49.96200 41.31500
C  9.94900 49.20000 40.90600
C  10.96500 50.26700 41.08600
C  10.14300 51.55700 40.88800
C  11.74500 50.29400 42.41000
C  9.95800 48.50700 39.49700
C  9.59900 49.26800 38.17500
H  8.25300 48.98000 37.47400
N  8.80100 54.29200 40.94400
C  10.05200 54.04600 40.49200
C  10.56200 55.26900 39.96600
C  9.59800 56.36800 40.23900
C  8.43400 55.66400 40.78200
C  11.99400 55.37700 39.44300
C  9.95800 57.83700 40.10900
O  10.98900 58.15600 39.56800
C  8.95800 58.88300 40.54900
N  5.84100 54.14600 41.80100
C  5.92300 55.45100 41.41300
C  4.42200 56.06600 41.44800
C  3.56700 55.00700 42.10500
C  4.53500 53.88700 42.26000
C  4.41700 57.53200 42.00300
C  2.25500 54.69700 41.37400
C  1.02900 54.55100 42.33400
N  6.11200 51.37100 42.34100
C  4.78700 51.47800 42.75000
C  4.31600 50.15400 43.09700
C  5.31900 49.31500 42.81400
C  6.35900 50.10100 42.27500
C  2.96400 49.86600 43.71500
C  5.68400 47.90100 42.82900
O  5.08700 46.89800 43.24100
C  7.08900 47.91700 42.12900
C  7.00200 46.88700 41.01800
O  6.30200 46.94500 39.97700
O  7.71400 45.71000 41.44900
C  7.59500 44.55300 40.58700
H  11.76700 52.67600 40.27200
H  7.05500 57.17900 40.71200
H  2.92200 52.59500 42.87000
H  10.06900 48.40600 41.64200
H  11.62900 50.28800 40.22200
H  11.37200 49.55000 43.11400
H  11.54000 51.24500 42.90100
H  12.82300 50.20500 42.27100
H  9.41300 47.56500 39.55100
H  10.99100 48.16400 39.43900
H  10.40000 49.07900 37.46000
H  9.45900 50.32900 38.37800
H  11.88200 55.62200 38.38700
H  12.67000 54.53600 39.60300
H  12.48000 56.27100 39.83500
H  8.24400 58.92800 39.72600
H  9.43300 59.86300 40.60500
H  8.47900 58.76200 41.52100
H  4.29400 56.16600 40.37000
H  3.50300 55.47600 43.08700
H  4.45500 58.24200 41.17700
H  5.24800 57.71200 42.68500
H  3.41900 57.73500 42.39000
H  2.28300 53.79200 40.76700
H  2.06200 55.60100 40.79700
H  0.39500 55.42900 42.20600
H  1.46600 54.51900 43.33200
H  0.37600 53.69300 42.17200
H  2.70900 48.81000 43.80500
H  2.21500 50.24900 43.02100
H  2.78500 50.46900 44.60500
H  7.90800 47.53300 42.73700
H  7.72300 44.73900 39.52000
H  6.58600 44.16600 40.73100
H  8.27700 43.76600 40.90900

