79

Mg -11.15700 17.22700 42.35800
C  -7.60400 18.24500 42.36500
C  -11.92500 20.59900 42.34000
C  -14.25600 16.32400 41.75100
C  -10.04800 13.89200 42.03700
N  -9.93400 19.21200 42.15100
C  -8.52800 19.34200 42.35700
C  -8.17100 20.75000 42.23600
C  -9.42200 21.48600 42.58500
C  -10.51500 20.41400 42.33300
C  -9.47300 22.06500 44.05200
C  -7.61000 20.98100 40.79100
C  -6.19800 21.61100 40.74900
H  -5.21500 21.04400 39.72700
N  -12.86400 18.33600 41.96600
C  -12.97800 19.68300 42.06500
C  -14.43900 19.96900 41.90600
C  -15.16000 18.74300 41.78400
C  -14.09600 17.74200 41.82500
C  -14.98500 21.41200 41.96200
C  -16.70000 18.54000 41.71200
O  -17.41600 19.54300 41.89700
C  -17.38200 17.24700 41.43500
N  -11.95700 15.35300 42.01300
C  -13.31500 15.27800 41.85400
C  -13.81400 13.83300 41.99800
C  -12.48700 13.00600 42.06600
C  -11.41700 14.14000 41.95700
C  -14.84000 13.60300 43.14900
C  -12.43400 11.86000 40.96200
C  -11.97400 10.53500 41.50500
N  -9.26600 16.23000 42.27200
C  -9.06200 14.86000 42.14600
C  -7.57900 14.60700 42.30400
C  -7.06900 15.96100 42.29100
C  -8.07800 16.90100 42.33200
C  -6.78400 13.38500 42.26000
C  -5.78700 16.61800 42.38800
O  -4.70400 16.12500 42.44300
C  -6.07400 18.20000 42.31600
C  -5.51400 18.75400 43.51300
O  -5.76600 18.38900 44.64100
O  -4.60600 19.71700 43.14800
C  -3.73000 20.29300 44.21800
H  -12.20100 21.65100 42.43100
H  -15.26700 15.91200 41.73100
H  -9.69200 12.86900 41.89600
H  -7.35400 21.00100 42.91100
H  -9.55700 22.35500 41.94200
H  -10.15500 21.40200 44.58400
H  -9.87300 23.08000 44.06200
H  -8.51600 21.94800 44.56000
H  -8.24100 21.76200 40.36700
H  -7.63300 20.04800 40.22800
H  -5.85000 21.73800 41.77400
H  -6.34500 22.63000 40.39200
H  -15.35700 21.76100 40.99800
H  -14.27100 22.05100 42.48100
H  -15.90100 21.31600 42.54500
H  -18.44300 17.49100 41.48400
H  -17.09200 16.67800 42.31800
H  -17.04800 16.70900 40.54700
H  -14.36400 13.70000 41.06600
H  -12.41100 12.64500 43.09200
H  -14.48600 12.77900 43.76800
H  -15.74700 13.23400 42.67100
H  -14.97400 14.53700 43.69600
H  -11.77800 12.14400 40.14000
H  -13.38600 11.69800 40.45600
H  -11.17900 10.09200 40.90500
H  -12.80400 9.84200 41.37200
H  -11.73800 10.63000 42.56500
H  -7.46600 12.66000 42.70400
H  -5.94800 13.50000 42.95000
H  -6.29100 13.18200 41.30900
H  -5.59300 18.60300 41.42500
H  -2.95700 19.57900 44.50200
H  -4.36100 20.47800 45.08700
H  -3.21400 21.16800 43.82300

