79

Mg 27.36100 52.03000 25.50700
C  25.50600 52.91400 28.37700
C  29.91700 51.15000 27.64300
C  29.30100 51.64400 22.79600
C  24.84700 53.42200 23.52100
N  27.64200 52.02900 27.83800
C  26.75700 52.31600 28.76200
C  27.25500 51.91600 30.15600
C  28.75500 51.49200 29.92400
C  28.83900 51.60500 28.34800
C  29.73100 52.41800 30.69400
C  26.30100 50.78500 30.70600
C  25.50900 51.03100 32.05800
H  25.75600 50.08300 33.28500
N  29.30200 51.21100 25.24700
C  30.19700 50.94100 26.23200
C  31.33800 50.25100 25.58600
C  31.18000 50.43300 24.18000
C  29.88900 51.13100 24.02000
C  32.43500 49.64200 26.35500
C  32.13400 49.98600 23.08600
O  31.84500 50.11900 21.90100
C  33.58700 49.58000 23.31600
N  27.10300 52.57100 23.49200
C  28.05600 52.29800 22.57100
C  27.46300 52.35300 21.19000
C  25.94800 52.69900 21.34800
C  25.93100 52.95500 22.88100
C  28.34400 53.31400 20.27600
C  24.95200 51.58700 20.97300
C  24.66600 51.60100 19.45400
N  25.57400 53.02300 25.78500
C  24.64700 53.45400 24.87500
C  23.49600 53.97900 25.55400
C  23.82700 53.81000 26.90100
C  25.01800 53.12800 26.97500
C  22.28800 54.65200 25.06500
C  23.29100 54.03000 28.19400
O  22.25700 54.64300 28.48400
C  24.23800 53.19800 29.15300
C  24.49400 54.12900 30.30000
O  25.20400 55.10200 30.34300
O  23.89200 53.52200 31.37100
C  23.80000 54.26100 32.60600
H  30.72700 50.70100 28.22200
H  29.83200 51.45500 21.86100
H  23.97000 53.58900 22.89200
H  27.21600 52.80800 30.78000
H  28.89500 50.42000 30.06200
H  29.34400 53.11100 31.44100
H  30.22400 53.03000 29.93900
H  30.44100 51.74500 31.17600
H  26.87600 49.86300 30.78300
H  25.67700 50.63500 29.82500
H  24.47600 51.03200 31.71200
H  25.75000 52.03100 32.42100
H  32.44400 50.05800 27.36300
H  33.40400 49.70200 25.86000
H  32.21300 48.58500 26.50400
H  33.47000 48.53800 23.61500
H  33.90100 50.31100 24.06000
H  34.28100 49.68100 22.48200
H  27.65900 51.36800 20.76500
H  25.62500 53.63600 20.89400
H  29.21400 53.68000 20.82000
H  27.86000 54.24300 19.97500
H  28.49200 52.84400 19.30400
H  23.99600 51.85400 21.42400
H  25.21400 50.59100 21.33100
H  25.06600 50.73700 18.92500
H  25.07200 52.52100 19.03400
H  23.58500 51.58800 19.31200
H  22.47000 55.72100 25.18000
H  21.40200 54.63000 25.69900
H  22.03000 54.45800 24.02400
H  23.68100 52.33900 29.52500
H  23.82100 55.34400 32.48700
H  24.57700 53.85000 33.25000
H  22.82400 54.03500 33.03400

