79

Mg -8.46100 40.86600 42.81200
C  -7.58900 37.59100 42.04200
C  -5.78400 41.94500 40.79200
C  -9.69500 43.86900 43.04600
C  -11.67500 39.59000 43.98700
N  -6.90700 39.88400 41.55700
C  -6.75500 38.53700 41.48500
C  -5.60400 38.23500 40.57200
C  -4.91900 39.59200 40.25000
C  -5.92500 40.54000 40.88900
C  -3.46200 39.76000 40.82700
C  -6.02700 37.48700 39.27500
C  -5.15000 36.31200 38.92000
H  -4.29200 36.63700 37.72700
N  -7.65100 42.66200 42.18800
C  -6.69900 42.92300 41.29500
C  -6.63400 44.37900 41.07700
C  -7.68800 44.99600 41.78000
C  -8.43100 43.82200 42.37800
C  -5.42100 44.96900 40.36900
C  -7.95300 46.52300 41.72900
O  -7.29700 47.30400 41.06400
C  -9.09700 47.10600 42.45600
N  -10.38300 41.60300 43.49400
C  -10.55600 42.94800 43.53800
C  -11.91400 43.36500 44.09600
C  -12.53800 42.00100 44.51500
C  -11.47000 40.97500 43.94000
C  -11.89300 44.37500 45.23000
C  -14.00300 41.78500 44.04500
C  -15.10100 41.30900 45.02600
N  -9.44200 38.99900 43.03400
C  -10.68000 38.63100 43.56900
C  -10.78200 37.18000 43.61000
C  -9.55500 36.77500 43.06300
C  -8.77600 37.90300 42.71700
C  -11.96800 36.38700 44.02700
C  -8.91900 35.57600 42.64200
O  -9.25800 34.39400 42.67400
C  -7.60100 36.09700 41.91600
C  -6.47200 35.46600 42.74400
O  -6.43800 35.53100 43.94900
O  -5.61400 34.74700 41.89400
C  -4.40700 34.11800 42.49300
H  -4.89600 42.25800 40.24000
H  -10.12500 44.87100 43.10900
H  -12.63400 39.21700 44.35000
H  -4.87200 37.62200 41.09800
H  -4.88700 39.69800 39.16500
H  -2.73300 39.51700 40.05300
H  -3.23300 38.92100 41.48300
H  -3.29300 40.67400 41.39600
H  -6.07100 38.19000 38.44300
H  -7.08700 37.24600 39.35000
H  -5.70700 35.38800 38.76800
H  -4.46000 36.04800 39.72100
H  -4.53200 44.52400 40.81500
H  -5.25100 46.03500 40.52400
H  -5.40000 44.74900 39.30200
H  -9.05700 48.19300 42.38700
H  -8.89100 46.83800 43.49200
H  -10.01900 46.75800 41.99000
H  -12.47900 43.88600 43.32400
H  -12.51900 41.84100 45.59300
H  -12.16100 43.96300 46.20300
H  -12.56400 45.22200 45.08900
H  -10.90500 44.83300 45.25600
H  -14.09100 41.24600 43.10200
H  -14.43800 42.73700 43.74100
H  -14.80900 41.22400 46.07300
H  -15.50700 40.38800 44.60800
H  -16.04000 41.86100 44.97700
H  -11.61500 35.49900 44.55100
H  -12.38100 36.11900 43.05400
H  -12.65800 36.91700 44.68400
H  -7.47400 35.74000 40.89400
H  -4.70700 33.50100 43.34100
H  -3.83900 34.91700 42.97100
H  -3.92300 33.50400 41.73400

