79

Mg 17.61000 -1.03700 28.25500
C  16.02000 1.03100 30.65400
C  19.27900 -2.55700 30.90100
C  19.52400 -2.42500 26.08500
C  16.13400 1.06000 25.75900
N  17.89300 -0.54400 30.44600
C  16.95500 0.14400 31.22200
C  17.22400 -0.05900 32.77900
C  18.37400 -1.12400 32.69000
C  18.55800 -1.43500 31.27300
C  19.62100 -0.75200 33.51600
C  16.04300 -0.58800 33.57200
C  15.63800 0.03500 34.90100
H  16.75600 0.17800 35.92900
N  19.06500 -2.42400 28.46000
C  19.56200 -3.03400 29.61500
C  20.53200 -4.12700 29.22800
C  20.60800 -4.04500 27.79600
C  19.74700 -2.83200 27.40700
C  21.18400 -5.05700 30.28900
C  21.55400 -4.85200 26.83200
O  21.61100 -4.65200 25.62900
C  22.56100 -5.76800 27.38800
N  17.76800 -0.76200 26.20300
C  18.75900 -1.38500 25.51500
C  18.78500 -1.01000 24.01700
C  17.68000 0.06900 23.94200
C  17.13000 0.13100 25.36200
C  20.09700 -0.51300 23.44100
C  16.64700 -0.12500 22.74700
C  16.77100 0.81000 21.50900
N  16.30000 0.71100 28.11800
C  15.70900 1.37700 27.03700
C  14.87900 2.52100 27.48400
C  14.93700 2.36500 28.90500
C  15.73600 1.24600 29.24800
C  14.14100 3.44200 26.54500
C  14.35700 2.88900 30.20200
O  13.47500 3.63900 30.48600
C  15.14600 2.05200 31.34000
C  16.03100 3.00700 32.07400
O  17.15200 3.33200 31.78100
O  15.29900 3.48700 33.13100
C  15.93800 4.18800 34.23400
H  19.62000 -3.12300 31.77000
H  20.17800 -2.83100 25.31100
H  15.72100 1.56400 24.88300
H  17.60100 0.87600 33.19400
H  18.12500 -2.10100 33.10300
H  19.38600 0.05200 34.21300
H  20.34800 -0.56500 32.72600
H  19.90200 -1.61700 34.11500
H  16.12400 -1.65600 33.77200
H  15.22600 -0.39200 32.87700
H  14.83400 -0.55900 35.33600
H  15.14000 0.98500 34.70600
H  22.22100 -4.79200 30.49800
H  21.17700 -6.09800 29.96700
H  20.79800 -4.88000 31.29300
H  22.18300 -6.33700 28.23700
H  23.44100 -5.20400 27.69900
H  22.73100 -6.40600 26.52100
H  18.52900 -1.94700 23.52200
H  18.19300 1.02900 23.87600
H  20.05700 0.54500 23.18200
H  20.37600 -1.05400 22.53700
H  20.84000 -0.57200 24.23600
H  15.61200 -0.01000 23.07100
H  16.81600 -1.13200 22.36700
H  17.66300 1.43600 21.49500
H  15.86500 1.40600 21.39900
H  16.79800 0.14000 20.64900
H  13.34000 2.79600 26.18900
H  14.94600 3.64300 25.83800
H  13.62700 4.29300 26.99300
H  14.43800 1.74000 32.10700
H  16.94200 4.53700 33.99000
H  15.89500 3.43900 35.02500
H  15.29600 4.93300 34.70400

