79

Mg 1.49800 -2.93300 45.07300
C  4.90600 -1.98200 44.28700
C  0.49900 -0.35400 42.90700
C  -1.55800 -4.04100 45.39500
C  2.78600 -5.42100 46.96300
N  2.57300 -1.48600 43.55900
C  3.88800 -1.21000 43.53400
C  4.14300 -0.01800 42.65500
C  2.72400 0.56800 42.35300
C  1.88500 -0.49000 43.00900
C  2.59100 1.98400 42.94000
C  5.01000 -0.43300 41.42400
C  6.10000 0.54300 40.99900
H  5.88500 1.39200 39.71900
N  -0.22700 -2.27300 44.23700
C  -0.47500 -1.21600 43.37800
C  -1.89900 -1.11800 43.17000
C  -2.49200 -2.24500 43.79900
C  -1.41800 -2.93700 44.49800
C  -2.65000 -0.10300 42.37600
C  -4.01500 -2.51800 43.75400
O  -4.86700 -1.79800 43.24200
C  -4.60200 -3.75800 44.40000
N  0.78900 -4.53600 45.87500
C  -0.52200 -4.80400 45.96500
C  -0.78300 -6.09200 46.76100
C  0.57800 -6.46200 47.42300
C  1.45600 -5.43000 46.69400
C  -1.93800 -6.04200 47.83100
C  1.03700 -7.97500 47.16200
C  1.44700 -8.66700 48.46300
N  3.41800 -3.68800 45.53500
C  3.78900 -4.63900 46.42900
C  5.22000 -4.77300 46.50900
C  5.67800 -3.69800 45.80800
C  4.56600 -3.10700 45.12600
C  6.00300 -5.87400 47.23900
C  6.83600 -2.99400 45.35500
O  8.00200 -3.13100 45.67100
C  6.40000 -1.74600 44.54500
C  6.51500 -0.50200 45.43400
O  5.76300 -0.35900 46.37800
O  7.47500 0.37500 44.97700
C  7.50200 1.71900 45.61300
H  0.14700 0.50100 42.32500
H  -2.54700 -4.43600 45.63800
H  3.24100 -6.12700 47.66100
H  4.80400 0.61600 43.24700
H  2.59800 0.54300 41.27100
H  3.52400 2.36600 43.35400
H  1.79000 2.13500 43.66400
H  2.46100 2.74100 42.16600
H  4.33700 -0.29600 40.57700
H  5.47200 -1.39300 41.65400
H  6.98300 -0.05000 40.76400
H  6.43500 1.21500 41.79000
H  -3.25700 0.45700 43.08800
H  -3.30500 -0.42700 41.56800
H  -2.02500 0.62300 41.85600
H  -4.55700 -3.58300 45.47500
H  -3.96100 -4.56800 44.05200
H  -5.58900 -3.90000 43.96000
H  -1.04800 -6.70800 45.90200
H  0.57500 -6.34400 48.50600
H  -2.32200 -5.02900 47.95200
H  -1.63600 -6.47600 48.78500
H  -2.67200 -6.66300 47.31600
H  1.77700 -7.98900 46.36100
H  0.25500 -8.58800 46.71400
H  1.54300 -7.94500 49.27400
H  2.36200 -9.19700 48.19800
H  0.79400 -9.47600 48.79000
H  5.66900 -5.69800 48.26200
H  7.07300 -5.75200 47.07500
H  5.75900 -6.89400 46.94200
H  6.94700 -1.56600 43.61900
H  7.76700 2.46800 44.86700
H  8.16200 1.69600 46.48100
H  6.52300 1.93300 46.04100

