79

Mg 48.38500 35.26000 27.43900
C  46.40500 33.98400 30.07400
C  49.02200 38.03100 29.39700
C  49.47200 36.83200 24.71400
C  47.60600 32.42500 25.61600
N  47.84100 35.84300 29.52000
C  47.11000 35.13700 30.36000
C  47.38700 35.66700 31.82000
C  47.72700 37.19100 31.52600
C  48.26800 37.04600 30.06200
C  46.55000 38.12400 31.79200
C  48.62900 34.94600 32.51800
C  48.68300 35.18000 34.02000
H  47.60500 36.09600 34.65000
N  49.17800 37.18000 27.08900
C  49.32700 38.10500 27.97300
C  49.85900 39.27200 27.37100
C  50.05400 38.95700 25.98600
C  49.55700 37.63600 25.86100
C  50.19800 40.53200 28.11100
C  50.74200 39.69900 24.93000
O  50.82000 39.25900 23.77600
C  51.29900 40.99100 25.29000
N  48.67500 34.66000 25.55200
C  49.10900 35.46300 24.54000
C  49.44400 34.51800 23.31300
C  49.11400 33.05200 23.75700
C  48.36400 33.38600 25.03600
C  48.82800 34.96000 21.99500
C  50.37400 32.08200 24.08500
C  50.14000 30.64600 23.54400
N  47.29000 33.61300 27.70600
C  47.06600 32.52400 26.90700
C  46.20900 31.57000 27.52200
C  45.91200 32.08700 28.76600
C  46.58600 33.31300 28.79500
C  45.85100 30.23600 27.01400
C  45.18600 31.89800 29.95500
O  44.48200 30.96000 30.27500
C  45.39700 33.10200 30.88100
C  45.67200 32.76600 32.30700
O  46.76300 32.30300 32.72800
O  44.60200 32.97700 33.07800
C  44.65000 32.58300 34.49700
H  49.25300 38.90000 30.01700
H  49.87700 37.21500 23.77500
H  47.43100 31.51700 25.03400
H  46.45200 35.50700 32.35700
H  48.55400 37.50000 32.16500
H  45.87000 37.64600 32.49600
H  46.02200 38.40000 30.87900
H  47.02600 38.96700 32.29400
H  49.56000 35.35700 32.12600
H  48.67300 33.86900 32.35600
H  49.71700 35.45100 34.23300
H  48.56400 34.21200 34.50800
H  51.26700 40.73400 28.04400
H  49.85400 40.52200 29.14500
H  49.75700 41.40200 27.62600
H  50.59200 41.67700 25.75700
H  51.62800 41.45900 24.36200
H  52.16300 40.77700 25.91900
H  50.51900 34.67800 23.23300
H  48.39800 32.56500 23.09400
H  49.64700 34.90300 21.27800
H  48.27900 35.90200 22.01000
H  48.18100 34.29300 21.42500
H  50.80300 32.19000 25.08100
H  51.03400 32.51400 23.33400
H  49.12800 30.52800 23.15800
H  50.18500 29.94000 24.37300
H  50.88600 30.33000 22.81400
H  45.74800 30.14900 25.93200
H  44.87600 30.07700 27.47500
H  46.53700 29.49800 27.43000
H  44.46400 33.66400 30.90300
H  44.28800 33.35600 35.17500
H  45.67300 32.49100 34.86000
H  44.08200 31.66300 34.63200

