79

Mg -1.67600 17.76500 27.94000
C  -2.00100 15.62700 30.64300
C  -2.19900 20.44600 30.05900
C  -1.26900 19.89000 25.34700
C  -1.47000 15.03900 25.82200
N  -2.10100 17.96200 30.08500
C  -2.15600 16.94200 30.98700
C  -2.52800 17.41800 32.42500
C  -2.57100 18.97900 32.18500
C  -2.37800 19.15100 30.62400
C  -3.84600 19.66400 32.76900
C  -1.57300 17.01100 33.65800
C  -1.53800 17.82700 34.99300
H  -0.39000 17.40800 35.99000
N  -1.77000 19.86100 27.63600
C  -1.91700 20.78300 28.72300
C  -1.84300 22.09600 28.19400
C  -1.75000 21.98800 26.78400
C  -1.57600 20.54300 26.51800
C  -2.09800 23.36400 29.01500
C  -1.81800 23.10000 25.70500
O  -1.64000 22.87900 24.47500
C  -2.13800 24.51600 26.19600
N  -1.42500 17.48800 25.87000
C  -1.33900 18.51300 24.97100
C  -1.20200 17.96600 23.53300
C  -0.98600 16.39800 23.75100
C  -1.30100 16.26100 25.21800
C  -2.46400 18.41900 22.70500
C  0.27800 15.72200 23.29900
C  1.49500 15.85100 24.22500
N  -1.83200 15.77500 28.14300
C  -1.68300 14.77600 27.17900
C  -1.66900 13.58900 27.86300
C  -1.74200 13.81800 29.22100
C  -1.88400 15.20100 29.33000
C  -1.42500 12.27600 27.24800
C  -1.78900 13.19100 30.55200
O  -1.72400 11.97900 30.91200
C  -2.00400 14.37200 31.52100
C  -0.80200 14.30200 32.45600
O  0.27800 14.75100 32.25400
O  -1.29100 13.58900 33.57600
C  -0.23800 13.08700 34.54100
H  -2.46900 21.21300 30.78800
H  -1.00700 20.45700 24.45100
H  -1.27600 14.18900 25.16500
H  -3.52900 17.06200 32.67000
H  -1.69400 19.34300 32.71900
H  -3.72800 20.63700 33.24700
H  -4.43800 18.97900 33.37500
H  -4.47100 19.84200 31.89400
H  -0.58200 16.92900 33.21000
H  -1.76400 16.03600 34.10700
H  -2.40400 17.42300 35.51600
H  -1.76900 18.89200 35.01200
H  -2.33800 23.08800 30.04100
H  -2.92300 23.89500 28.54000
H  -1.20200 23.98400 28.99400
H  -3.18500 24.47300 26.49400
H  -2.13400 25.22800 25.37100
H  -1.36600 24.88300 26.87300
H  -0.35300 18.33800 22.96100
H  -1.71900 15.83900 23.16900
H  -2.94800 19.27900 23.16900
H  -3.17100 17.58900 22.70200
H  -2.07000 18.64800 21.71500
H  0.49000 15.98300 22.26200
H  -0.00800 14.68100 23.15100
H  1.38900 16.21200 25.24800
H  1.98200 16.62400 23.63200
H  2.15800 14.99100 24.12300
H  -0.73400 12.31600 26.40500
H  -2.41700 12.02300 26.87400
H  -1.01500 11.53700 27.93600
H  -2.98000 14.33500 32.00400
H  -0.24800 11.99800 34.51500
H  -0.49300 13.37900 35.56000
H  0.71700 13.57100 34.33600

