79

Mg -5.52300 25.87100 25.61800
C  -4.61200 27.27900 28.62500
C  -7.16800 23.47200 27.40300
C  -5.76400 24.21200 22.78800
C  -3.16000 28.13500 24.19900
N  -5.75800 25.36000 27.79000
C  -5.38300 26.12700 28.80800
C  -5.78700 25.57700 30.23400
C  -6.44900 24.22300 29.79300
C  -6.43300 24.30300 28.26000
C  -5.69500 22.92200 30.28200
C  -6.77300 26.51400 31.13600
C  -6.80300 26.17800 32.69000
H  -5.90400 24.98900 33.29200
N  -6.53300 24.20600 25.16300
C  -7.22800 23.38800 25.94900
C  -7.92400 22.43400 25.18500
C  -7.55500 22.61200 23.85000
C  -6.60000 23.75600 23.86000
C  -8.89600 21.50100 25.73000
C  -8.02200 21.85100 22.59100
O  -7.54800 22.20000 21.50900
C  -9.14900 20.81200 22.69000
N  -4.64300 26.22000 23.76300
C  -4.88300 25.37400 22.70500
C  -3.95100 25.70200 21.49200
C  -3.55800 27.18200 21.89700
C  -3.69100 27.12200 23.42000
C  -2.72300 24.73900 21.33200
C  -4.43300 28.25700 21.34100
C  -3.70700 29.46700 20.53100
N  -4.26700 27.48400 26.21500
C  -3.39900 28.27600 25.51200
C  -2.85700 29.27600 26.36800
C  -3.33700 28.87300 27.64900
C  -4.16800 27.78800 27.44900
C  -1.82800 30.33900 26.04600
C  -3.22500 29.18400 29.04600
O  -2.68700 30.19600 29.58800
C  -4.03000 28.19400 29.71800
C  -3.10800 27.59000 30.70000
O  -2.26400 26.73600 30.42500
O  -3.24200 28.13600 31.99700
C  -2.23200 27.76000 33.06100
H  -7.74700 22.74200 27.97200
H  -5.84700 23.59600 21.89000
H  -2.39400 28.80200 23.79700
H  -4.87800 25.37300 30.80100
H  -7.42900 24.12200 30.26000
H  -4.84600 23.06900 30.95000
H  -5.28300 22.44800 29.39100
H  -6.41000 22.28300 30.80000
H  -7.72900 26.21900 30.70300
H  -6.65200 27.57200 30.90300
H  -7.85500 26.18600 32.97600
H  -6.39200 27.03200 33.22800
H  -8.70600 20.46900 25.43500
H  -9.90000 21.80800 25.43800
H  -8.81900 21.36800 26.80900
H  -9.46200 20.53300 21.68400
H  -9.91500 21.45300 23.12500
H  -8.96700 19.89800 23.25600
H  -4.50700 25.74300 20.55600
H  -2.49000 27.26200 21.69400
H  -1.85300 25.31100 21.01100
H  -2.90900 24.03200 20.52400
H  -2.50700 24.10200 22.18900
H  -4.97400 28.78000 22.13000
H  -5.25000 27.94900 20.69000
H  -3.97100 29.40600 19.47600
H  -2.66100 29.31000 20.79800
H  -4.04900 30.44100 20.88200
H  -2.36600 31.28000 26.16700
H  -1.40100 30.25000 25.04800
H  -1.15800 30.28300 26.90400
H  -4.82400 28.67100 30.29200
H  -1.25800 27.59600 32.60000
H  -2.64400 26.79200 33.34600
H  -2.25500 28.53600 33.82700

