79

Mg 1.46600 7.99100 25.68800
C  2.23800 10.14700 28.35300
C  1.30500 5.41100 27.92200
C  0.52900 6.13900 23.22000
C  1.67600 10.67600 23.47600
N  1.77200 7.86200 27.91500
C  2.04400 8.84300 28.84700
C  1.97000 8.26600 30.23500
C  1.99600 6.64900 30.01000
C  1.69000 6.65400 28.53500
C  3.28600 5.88700 30.46400
C  0.70500 8.62500 30.96700
C  0.87100 8.92300 32.44700
H  2.10700 8.53000 33.28000
N  1.00200 5.99800 25.58900
C  0.86100 5.13800 26.67600
C  0.38700 3.88500 26.09300
C  0.23000 4.04300 24.67200
C  0.55200 5.46600 24.40300
C  0.17600 2.68100 26.94500
C  -0.15000 3.02400 23.59500
O  -0.06600 3.33500 22.39100
C  -0.69700 1.68300 24.03100
N  1.39900 8.28700 23.56600
C  0.90200 7.37900 22.78700
C  0.95800 7.79700 21.30900
C  1.12800 9.35400 21.35400
C  1.39000 9.46300 22.89500
C  2.25300 7.17700 20.65500
C  -0.16400 10.13600 20.96400
C  0.03900 11.52900 20.26100
N  1.81800 10.00600 25.84700
C  1.91300 10.99300 24.85600
C  2.20100 12.31000 25.47600
C  2.34900 12.00400 26.86900
C  2.15600 10.59200 26.98000
C  2.24600 13.66400 24.79400
C  2.55300 12.52700 28.17800
O  2.80300 13.65000 28.48300
C  2.38300 11.39200 29.16900
C  3.49800 11.36100 30.16000
O  4.58100 10.91600 29.90200
O  3.16900 11.92400 31.39800
C  4.23800 12.06600 32.41700
H  1.41100 4.57400 28.61600
H  0.21200 5.52400 22.37500
H  1.68500 11.58900 22.87600
H  2.89600 8.42500 30.78800
H  1.22300 6.11300 30.56200
H  3.91400 5.52900 29.64800
H  3.07500 4.95300 30.98500
H  3.89300 6.47900 31.14900
H  -0.14600 7.97100 30.77800
H  0.31700 9.56400 30.57200
H  0.07300 8.28100 32.81900
H  0.61400 9.95300 32.69700
H  0.18000 2.80400 28.02800
H  0.87400 1.87600 26.71400
H  -0.79100 2.23100 26.72500
H  0.15600 1.31900 24.60400
H  -0.92200 1.03800 23.18200
H  -1.54800 1.86700 24.68600
H  -0.00900 7.47200 20.92500
H  1.93500 9.69300 20.70400
H  1.81700 6.23200 20.33000
H  2.97200 7.05500 21.46500
H  2.63900 7.67600 19.76600
H  -0.69600 10.38200 21.88300
H  -0.77000 9.48700 20.33200
H  -0.50000 11.64400 19.32100
H  1.09500 11.77700 20.15200
H  -0.52000 12.25800 20.84800
H  2.48600 13.49300 23.74500
H  2.90500 14.28400 25.40300
H  1.23700 14.07600 24.82600
H  1.42800 11.56100 29.66600
H  4.38500 13.10900 32.69900
H  5.21200 11.64600 32.16500
H  3.83400 11.49900 33.25600

