79

Mg 53.59500 24.16400 44.19300
C  50.89200 26.46900 43.38300
C  51.73200 21.69800 42.63100
C  56.28600 22.39600 44.26900
C  55.42400 26.95600 45.46900
N  51.65000 24.22300 43.00200
C  50.67400 25.17000 42.86100
C  49.50700 24.62500 42.07500
C  49.66900 23.05400 42.38800
C  51.13500 22.94500 42.62100
C  48.79000 22.47600 43.51600
C  49.56300 24.95600 40.52200
C  50.67300 25.82200 39.87500
H  51.71800 25.11600 39.03300
N  53.96600 22.23400 43.57100
C  53.04600 21.34500 43.02500
C  53.65900 20.00300 43.09000
C  54.96800 20.18400 43.62700
C  55.13500 21.69200 43.79500
C  52.96800 18.73100 42.65000
C  55.88100 19.13600 44.02400
O  55.62300 17.98700 43.66400
C  57.17500 19.27400 44.82200
N  55.66500 24.61100 44.68100
C  56.59000 23.72200 44.49000
C  57.95600 24.31500 45.00300
C  57.72200 25.82800 45.25700
C  56.18400 25.79800 45.22900
C  58.55000 23.70100 46.27600
C  58.20800 26.88700 44.25400
C  58.86200 28.24700 44.78500
N  53.21300 26.25100 44.53600
C  54.02900 27.22800 45.10800
C  53.23900 28.45400 45.23800
C  52.02600 28.16600 44.56500
C  52.09000 26.85700 44.03100
C  53.74500 29.63900 45.97700
C  50.73000 28.77800 44.23400
O  50.26000 29.88300 44.49300
C  49.96500 27.67600 43.37200
C  49.68500 28.26900 42.08000
O  50.53600 28.70400 41.34300
O  48.35600 28.21400 41.75300
C  47.75400 28.74500 40.48700
H  51.17300 20.84600 42.23900
H  57.20900 21.81900 44.35000
H  55.89200 27.89300 45.77900
H  48.57500 25.08800 42.39600
H  49.40500 22.59200 41.43600
H  47.98000 23.13700 43.82300
H  49.40900 22.11800 44.33900
H  48.21700 21.63900 43.11500
H  48.69800 25.56000 40.24600
H  49.40800 23.98200 40.05700
H  51.19700 26.46000 40.58600
H  50.23600 26.64400 39.30700
H  52.83300 18.32400 43.65200
H  53.57600 18.02700 42.08100
H  52.03700 18.87900 42.10200
H  57.32700 18.35700 45.39100
H  57.02700 20.10300 45.51400
H  57.93200 19.51700 44.07500
H  58.68700 24.18100 44.20500
H  58.02900 26.20600 46.23200
H  59.63300 23.61100 46.18600
H  58.15000 22.71600 46.51700
H  58.37500 24.24900 47.20200
H  57.40000 26.97500 43.52700
H  59.01900 26.41500 43.70000
H  58.68900 28.36600 45.85400
H  58.41000 29.08500 44.25500
H  59.91300 28.34300 44.51100
H  54.57200 30.05600 45.40100
H  54.00800 29.36000 46.99700
H  52.86800 30.26800 46.12900
H  49.02100 27.44100 43.86400
H  48.38100 28.48200 39.63500
H  47.53800 29.81200 40.52000
H  46.73100 28.37200 40.45100

