79

Mg -11.63600 39.22900 42.16500
C  -10.10300 36.09200 41.44200
C  -9.07200 40.73900 40.37100
C  -13.53000 41.94600 41.98800
C  -14.40400 37.26200 43.27000
N  -9.86900 38.45300 40.98900
C  -9.39000 37.16400 40.85300
C  -8.16400 37.15200 39.92700
C  -7.76800 38.63800 39.89000
C  -9.00000 39.36500 40.49900
C  -6.42800 38.87600 40.62600
C  -8.44000 36.41500 38.61300
C  -7.37700 35.29600 38.19700
H  -6.47200 35.47400 37.00200
N  -11.22300 41.13200 41.49000
C  -10.13000 41.58000 40.78400
C  -10.29500 43.02600 40.55000
C  -11.57900 43.38100 41.15500
C  -12.20300 42.10900 41.53600
C  -9.35500 43.81900 39.75700
C  -12.11300 44.85700 41.07800
O  -11.32800 45.73900 40.68900
C  -13.43900 45.28300 41.49700
N  -13.75200 39.58900 42.59200
C  -14.24300 40.81700 42.59100
C  -15.69500 40.80200 43.10300
C  -16.01800 39.23200 43.35500
C  -14.70900 38.63400 43.06100
C  -15.98700 41.80800 44.24100
C  -17.17300 38.59300 42.65600
C  -18.25600 38.00000 43.57500
N  -12.15500 37.12400 42.38400
C  -13.24200 36.54300 42.96000
C  -13.07000 35.06100 43.10200
C  -11.85300 34.87200 42.56300
C  -11.33800 36.13000 42.13400
C  -13.99000 34.03900 43.73300
C  -10.87400 33.90500 42.23100
O  -10.78300 32.68500 42.36000
C  -9.73300 34.62600 41.44100
C  -8.43700 34.31100 42.04800
O  -7.72300 33.44600 41.72800
O  -8.02000 35.36700 42.80800
C  -6.63500 35.47700 43.20400
H  -8.14800 41.12800 39.94000
H  -14.15200 42.84400 42.01100
H  -15.22000 36.68800 43.71300
H  -7.29800 36.65200 40.35900
H  -7.62900 39.00400 38.87300
H  -6.63700 38.88400 41.69600
H  -6.12600 39.85500 40.25300
H  -5.73700 38.04300 40.50100
H  -8.25700 37.11500 37.79700
H  -9.47200 36.10500 38.45000
H  -7.92400 34.39300 37.92700
H  -6.71900 35.06800 39.03600
H  -8.64400 43.29400 39.12000
H  -8.88200 44.39400 40.55400
H  -9.91800 44.45000 39.06900
H  -14.10300 44.57400 41.00300
H  -13.50500 46.26900 41.03500
H  -13.54300 45.39500 42.57600
H  -16.22500 41.18100 42.23000
H  -16.14500 39.12800 44.43300
H  -15.14000 42.49000 44.32400
H  -16.10600 41.28100 45.18700
H  -16.90900 42.36400 44.07100
H  -16.70800 37.91500 41.94100
H  -17.66700 39.31200 42.00300
H  -19.26900 38.39400 43.48800
H  -18.00100 38.09600 44.63000
H  -18.15100 36.95900 43.27000
H  -13.47000 33.08300 43.79500
H  -14.92000 33.97600 43.16800
H  -14.16500 34.37300 44.75500
H  -9.72000 34.34900 40.38700
H  -5.83600 35.18200 42.52400
H  -6.44400 34.94700 44.13700
H  -6.32300 36.47700 43.50400

