79

Mg 1.20000 8.05300 25.41700
C  2.02200 9.75900 28.36500
C  1.74300 5.01200 27.27400
C  0.40500 6.37100 22.80400
C  1.47800 11.04800 23.71700
N  1.94900 7.42100 27.53400
C  1.95900 8.32700 28.59400
C  2.10800 7.67700 29.99300
C  2.13700 6.14500 29.59500
C  1.91700 6.16500 28.02800
C  3.42200 5.25900 30.03100
C  0.96200 8.08200 30.96200
C  1.40600 8.26500 32.47100
H  2.55300 7.56200 33.01800
N  1.19100 6.01700 25.04800
C  1.49600 4.92300 25.91000
C  1.23800 3.69200 25.19000
C  0.70100 4.02800 23.91800
C  0.73000 5.56400 23.89000
C  1.52600 2.33700 25.80600
C  0.25000 3.17200 22.75800
O  -0.11800 3.62300 21.66700
C  0.04500 1.67100 22.93600
N  1.14100 8.61800 23.45100
C  0.60100 7.74400 22.57300
C  0.35300 8.46100 21.19900
C  0.63600 10.00800 21.54800
C  1.18600 9.90100 22.97100
C  1.19700 7.83400 20.06300
C  -0.68500 10.87500 21.42700
C  -1.82400 10.29900 22.23600
N  1.68200 10.02600 25.89200
C  1.73300 11.13200 25.13100
C  1.99100 12.29500 25.87900
C  2.14300 11.82200 27.15900
C  1.90000 10.42700 27.12100
C  2.16000 13.71900 25.37300
C  2.43400 12.21800 28.53500
O  2.78900 13.29500 28.91700
C  2.11300 10.91800 29.40300
C  3.29900 10.81400 30.29400
O  4.39700 10.24000 30.14500
O  3.03100 11.46200 31.45800
C  4.12700 11.41400 32.43300
H  1.74100 4.03000 27.75400
H  -0.01200 5.88300 21.92000
H  1.45400 12.01800 23.21800
H  3.12700 7.87200 30.32900
H  1.20000 5.74000 29.97800
H  2.92100 4.37600 30.42800
H  3.95400 5.77300 30.83100
H  4.15000 4.89600 29.30500
H  0.06500 7.47100 30.85900
H  0.69500 9.08900 30.64100
H  0.52400 7.97600 33.04300
H  1.47900 9.32900 32.69700
H  1.21200 1.53200 25.14100
H  0.68600 2.32900 26.50100
H  2.50300 2.19900 26.27000
H  -0.47800 1.43400 23.86300
H  1.05400 1.26600 22.86700
H  -0.62900 1.27000 22.18000
H  -0.63800 8.34100 20.76200
H  1.41500 10.46600 20.93800
H  1.73500 8.60000 19.50600
H  0.55500 7.41000 19.29100
H  1.89000 7.07300 20.42100
H  -0.99000 11.04100 20.39400
H  -0.49100 11.92000 21.66900
H  -2.23300 11.16500 22.75700
H  -1.60900 9.48300 22.92500
H  -2.56600 9.91900 21.53400
H  2.76900 13.84400 24.47800
H  2.69000 14.46100 25.96900
H  1.17700 14.14600 25.17100
H  1.23600 11.13400 30.01300
H  5.09900 11.55800 31.96200
H  4.02600 10.44100 32.91600
H  3.95800 12.08400 33.27500

