79

Mg 40.37800 9.53300 29.63600
C  42.44800 10.66800 32.10800
C  38.16500 8.46700 31.99000
C  38.53200 8.38200 27.14200
C  42.93400 10.38900 27.26300
N  40.43800 9.37700 31.81400
C  41.25100 10.13900 32.61300
C  40.74000 10.26700 34.03700
C  39.50600 9.30500 33.99600
C  39.33800 9.06100 32.50300
C  39.69300 7.91100 34.75600
C  40.46000 11.64900 34.65100
C  41.03600 12.05800 36.03200
H  40.02600 12.55900 37.04100
N  38.59400 8.47900 29.60600
C  37.75000 8.24400 30.63400
C  36.54000 7.66900 30.18600
C  36.57800 7.71100 28.72700
C  37.98100 8.16100 28.41300
C  35.50500 7.11000 30.99200
C  35.51200 7.32600 27.71700
O  35.54200 7.50600 26.48100
C  34.27800 6.63100 28.22300
N  40.79800 9.24900 27.44800
C  39.74100 8.86700 26.63300
C  40.07300 8.97600 25.15800
C  41.58100 9.50000 25.19000
C  41.81000 9.70900 26.72100
C  40.01600 7.56600 24.38500
C  41.88000 10.71800 24.27800
C  41.41900 12.08800 24.70600
N  42.34900 10.39200 29.66600
C  43.20800 10.73300 28.63300
C  44.41500 11.37100 29.20400
C  44.12800 11.44400 30.58200
C  42.91800 10.81400 30.76800
C  45.62100 11.79300 28.46300
C  44.70700 11.84300 31.89000
O  45.76200 12.35400 32.20400
C  43.53600 11.36100 32.93000
C  44.19300 10.47300 33.88300
O  44.81800 9.43600 33.58800
O  44.13300 11.03200 35.11700
C  44.84700 10.15700 36.12600
H  37.40600 8.22100 32.73500
H  37.78900 8.22600 26.35700
H  43.72000 10.64600 26.55000
H  41.49800 9.87100 34.71300
H  38.63600 9.81700 34.40500
H  38.93100 7.82000 35.53000
H  40.71300 7.78900 35.11900
H  39.48500 7.07500 34.08800
H  39.40600 11.76200 34.90800
H  40.71700 12.33300 33.84200
H  41.59000 12.91300 35.64500
H  41.75700 11.36000 36.45800
H  34.53200 7.56500 30.81000
H  35.55300 7.21900 32.07500
H  35.30500 6.04000 30.92700
H  34.50300 5.74000 28.81000
H  33.71300 6.39900 27.32000
H  33.62700 7.27900 28.80900
H  39.47400 9.71900 24.63200
H  42.18300 8.64500 24.87900
H  40.95200 7.20200 23.96200
H  39.25400 7.56000 23.60600
H  39.91200 6.74200 25.09100
H  41.33800 10.51300 23.35600
H  42.95600 10.70900 24.10200
H  42.23500 12.73800 25.02100
H  40.78300 11.97100 25.58400
H  40.95100 12.54200 23.83200
H  46.35400 12.11000 29.20600
H  45.45000 12.59300 27.74300
H  46.09000 10.98900 27.89700
H  43.15600 12.27000 33.39700
H  45.91300 10.19100 35.90000
H  44.49000 9.12800 36.09000
H  44.71700 10.52900 37.14200

