79

Mg -2.51000 35.05200 27.09600
C  -4.33200 33.29800 29.60000
C  -1.45600 37.23200 29.70100
C  -0.79200 36.81700 24.76000
C  -3.86500 32.96600 24.70700
N  -2.93100 35.28300 29.43000
C  -3.65200 34.38100 30.18700
C  -3.62700 34.76000 31.65300
C  -2.73100 36.15900 31.67000
C  -2.39900 36.28300 30.18100
C  -3.58700 37.43400 32.13700
C  -3.05500 33.49400 32.52300
C  -3.98200 32.78900 33.48200
H  -3.92400 33.20000 34.99800
N  -1.25700 36.65100 27.20400
C  -0.96600 37.47200 28.37400
C  -0.09700 38.56300 28.03200
C  0.00400 38.51900 26.61500
C  -0.63400 37.24400 26.11500
C  0.40400 39.49400 29.06800
C  0.54400 39.68700 25.79800
O  0.50900 39.72000 24.57100
C  1.02600 40.95600 26.39000
N  -2.44300 34.99600 24.89800
C  -1.62100 35.76000 24.21800
C  -1.52400 35.29300 22.78500
C  -2.38500 34.04000 22.78000
C  -2.96100 33.96200 24.23100
C  -1.89900 36.42500 21.69000
C  -1.60100 32.79500 22.33400
C  -2.43300 31.83400 21.53000
N  -3.87700 33.53800 27.07800
C  -4.29000 32.78400 26.02800
C  -5.24800 31.83100 26.51100
C  -5.19800 31.88800 27.87500
C  -4.44000 33.00300 28.14900
C  -6.14100 30.86200 25.63900
C  -5.70900 31.34900 29.05700
O  -6.46700 30.37800 29.21200
C  -5.27900 32.23700 30.27300
C  -6.55100 32.83000 30.81600
O  -6.99600 33.87000 30.40800
O  -6.99100 32.22700 31.97800
C  -8.00100 32.86600 32.85500
H  -0.92000 37.70100 30.52800
H  -0.16700 37.33700 24.03100
H  -4.29400 32.31700 23.94100
H  -4.59500 34.94700 32.11900
H  -1.93200 35.96100 32.38500
H  -3.96800 37.98500 31.27700
H  -2.84900 38.01100 32.69300
H  -4.38600 37.33900 32.87200
H  -2.18200 33.97400 32.96600
H  -2.58200 32.78500 31.84400
H  -3.86200 31.70600 33.51400
H  -5.02100 33.00900 33.23600
H  0.66400 38.93700 29.96800
H  -0.35700 40.20500 29.39200
H  1.27900 40.09700 28.82800
H  0.18200 41.45100 26.87100
H  1.25400 41.53900 25.49800
H  1.92100 40.78600 26.98900
H  -0.49200 35.03400 22.54700
H  -3.26300 34.10200 22.13800
H  -1.75700 37.44300 22.05200
H  -2.95200 36.34600 21.42100
H  -1.15800 36.27000 20.90600
H  -1.11700 32.38600 23.22000
H  -0.74100 33.07100 21.72400
H  -1.88900 30.93600 21.23700
H  -2.81100 32.34100 20.64200
H  -3.28500 31.52500 22.13500
H  -6.66800 31.41300 24.86100
H  -6.81600 30.42900 26.37800
H  -5.59400 30.02000 25.21400
H  -4.76100 31.65400 31.03500
H  -7.44200 33.50100 33.54200
H  -8.64400 32.14300 33.35700
H  -8.70400 33.54100 32.36600

