79

Mg 2.20800 -1.18800 43.93800
C  5.35300 -0.19000 43.44300
C  0.98000 1.43200 42.02700
C  -1.02000 -2.64000 44.14300
C  3.49500 -4.42900 44.93300
N  3.12300 0.26900 42.68600
C  4.42300 0.62100 42.76100
C  4.77900 1.81600 41.82800
C  3.32200 2.50400 41.85700
C  2.36100 1.35800 42.22500
C  3.18800 3.69100 42.81800
C  5.27500 1.36200 40.40100
C  6.42800 2.15800 39.80100
H  6.25400 2.87400 38.47300
N  0.26600 -0.66600 43.23400
C  -0.01300 0.46700 42.47500
C  -1.43900 0.53100 42.21700
C  -1.99600 -0.65600 42.78300
C  -0.89700 -1.41800 43.47200
C  -2.13300 1.57200 41.42500
C  -3.50000 -0.94800 42.68100
O  -4.33800 -0.10000 42.29700
C  -4.04200 -2.21300 43.20400
N  1.40800 -3.18100 44.22300
C  0.04800 -3.41600 44.49100
C  -0.12100 -4.80400 45.30100
C  1.23100 -5.49300 45.03600
C  2.10400 -4.28200 44.63200
C  -0.58600 -4.48900 46.76100
C  1.20500 -6.66100 43.91900
C  1.49500 -8.04900 44.50500
N  4.08800 -2.17400 44.24600
C  4.46300 -3.40600 44.76400
C  5.89400 -3.41500 44.96300
C  6.28000 -2.08600 44.48300
C  5.13800 -1.42600 44.07000
C  6.79400 -4.41500 45.54700
C  7.45900 -1.26100 44.29200
O  8.63400 -1.47700 44.64000
C  6.86800 0.02300 43.60500
C  7.07800 1.23600 44.46400
O  6.21700 1.79500 45.15000
O  8.43900 1.56700 44.41000
C  8.80300 2.71900 45.22500
H  0.66600 2.33000 41.49100
H  -1.98900 -3.09900 44.35400
H  3.86500 -5.41300 45.23000
H  5.39900 2.40100 42.50600
H  3.07900 2.83900 40.84800
H  3.96800 3.63400 43.57700
H  2.18900 3.73100 43.25400
H  3.39600 4.62400 42.29600
H  4.43900 1.24100 39.71100
H  5.63000 0.33200 40.42000
H  7.32000 1.53400 39.74500
H  6.67300 2.93200 40.52800
H  -3.07600 1.17200 41.05200
H  -1.47300 1.66000 40.56300
H  -2.27900 2.54700 41.89100
H  -3.38900 -3.04000 42.92600
H  -5.03500 -2.36200 42.77800
H  -4.16300 -2.15300 44.28500
H  -0.93500 -5.21600 44.70500
H  1.68900 -5.88500 45.94400
H  -1.63800 -4.74300 46.89300
H  -0.57000 -3.42100 46.97400
H  0.08500 -5.03600 47.42300
H  1.90900 -6.48100 43.10700
H  0.21800 -6.70000 43.45800
H  1.30200 -8.13400 45.57400
H  2.47400 -8.42900 44.21400
H  0.84000 -8.67600 43.90100
H  6.98900 -5.35500 45.03100
H  6.44900 -4.67300 46.54900
H  7.71900 -3.86600 45.72600
H  7.46600 0.03600 42.69300
H  8.40200 3.61200 44.74700
H  9.87900 2.89000 45.26600
H  8.44700 2.55100 46.24100

