79

Mg 48.28000 34.98000 27.36100
C  46.49400 33.45200 30.06600
C  49.08100 37.47600 29.35200
C  49.88500 36.28800 24.73400
C  46.96800 32.46000 25.31900
N  47.78500 35.30200 29.47000
C  47.15900 34.57300 30.45200
C  47.38800 35.14100 31.86200
C  47.89200 36.57600 31.49100
C  48.25200 36.48000 29.94700
C  46.85200 37.78600 31.85600
C  48.31900 34.24100 32.70300
C  47.87100 33.94100 34.13700
H  46.98900 35.00700 34.85000
N  49.43000 36.56900 27.14000
C  49.69300 37.53200 28.05900
C  50.63100 38.50900 27.52700
C  50.95200 38.15900 26.17500
C  50.11100 36.97400 25.95600
C  51.10500 39.70700 28.38700
C  51.74100 38.92900 25.14700
O  51.91300 38.61700 23.94000
C  52.31100 40.20300 25.64700
N  48.44000 34.35000 25.34200
C  49.10500 35.09200 24.41200
C  49.03100 34.47200 22.96800
C  48.29300 33.16100 23.26600
C  47.84500 33.29500 24.73100
C  48.29600 35.32500 21.88000
C  49.22600 32.01500 23.07700
C  48.72200 30.75000 22.39600
N  46.95600 33.35700 27.55500
C  46.59900 32.36300 26.67100
C  45.92200 31.20300 27.38400
C  45.80000 31.72400 28.66600
C  46.49900 32.94900 28.76200
C  45.38100 29.93600 26.69300
C  45.25800 31.46300 29.95200
O  44.55000 30.55400 30.27200
C  45.60700 32.62600 30.90300
C  46.16500 31.87400 32.03100
O  47.36200 31.49100 32.03300
O  45.15800 31.53700 32.96700
C  45.58000 30.52000 33.85800
H  49.52100 38.10800 30.12600
H  50.37600 36.75100 23.87500
H  46.75400 31.55600 24.74600
H  46.45400 35.08300 32.42100
H  48.85900 36.75500 31.96200
H  47.37100 38.35300 32.62900
H  45.90600 37.36500 32.19600
H  46.57800 38.32600 30.95000
H  49.26000 34.72900 32.95800
H  48.54300 33.43800 32.00200
H  48.78300 33.79600 34.71700
H  47.41100 32.97300 34.33500
H  50.86500 39.52600 29.43400
H  50.48400 40.55500 28.09900
H  52.11900 40.05700 28.18900
H  53.06600 39.98400 26.40300
H  51.55300 40.92200 25.95800
H  52.77300 40.64600 24.76500
H  50.05900 34.37300 22.61700
H  47.51900 33.05700 22.50500
H  48.98300 35.68300 21.11300
H  47.64300 36.06600 22.34100
H  47.59800 34.75200 21.26800
H  49.66400 31.67800 24.01700
H  50.08500 32.36700 22.50700
H  49.31600 30.43900 21.53600
H  47.66500 30.84500 22.14600
H  48.84000 29.99000 23.16800
H  44.58400 30.19800 25.99700
H  45.16700 29.21100 27.47700
H  46.18400 29.55800 26.06000
H  44.70500 33.15500 31.21100
H  45.63500 29.54900 33.36700
H  44.87400 30.32200 34.66400
H  46.55300 30.64700 34.33300

