79

Mg 8.78700 47.86600 26.99100
C  7.28800 47.54500 30.16000
C  11.76400 48.41500 28.52700
C  9.89900 48.85200 24.09000
C  5.46800 47.64300 25.65900
N  9.43700 47.97700 29.16300
C  8.68600 47.68900 30.22800
C  9.55000 47.80200 31.52300
C  10.95900 48.35200 30.98900
C  10.72300 48.26100 29.47500
C  11.42800 49.82300 31.44300
C  9.68800 46.53100 32.43400
C  9.48300 46.90300 33.91300
H  9.64100 45.84300 34.94800
N  10.56700 48.33900 26.35400
C  11.69400 48.58600 27.16200
C  12.79700 48.75100 26.24600
C  12.32400 48.79100 24.95200
C  10.89600 48.76000 25.04400
C  14.23700 48.69000 26.74700
C  13.09700 48.82600 23.55200
O  12.51400 48.90300 22.45900
C  14.58700 48.83000 23.59100
N  7.86000 48.03200 25.10200
C  8.54700 48.60500 24.07300
C  7.63100 48.92000 22.86500
C  6.23100 48.44600 23.35300
C  6.52400 47.96400 24.79900
C  7.74700 50.39000 22.34400
C  5.63800 47.37200 22.36800
C  5.12000 47.83700 21.03700
N  6.78800 47.62900 27.68600
C  5.61300 47.53900 27.04000
C  4.55300 47.49800 28.04300
C  5.20200 47.52900 29.24100
C  6.56900 47.64400 28.97700
C  3.07800 47.33700 27.76100
C  4.90900 47.56300 30.63000
O  3.85600 47.48000 31.19800
C  6.29900 47.43900 31.27600
C  6.33400 46.11100 31.95100
O  6.64400 45.01800 31.46400
O  5.96000 46.32800 33.17900
C  6.14300 45.23100 34.12700
H  12.73700 48.60000 28.98500
H  10.27000 49.19900 23.12400
H  4.45700 47.76600 25.26500
H  9.14400 48.60200 32.14100
H  11.75300 47.61800 31.12600
H  12.48700 49.79900 31.69900
H  10.89200 50.13800 32.33700
H  11.18300 50.60600 30.72500
H  10.67600 46.08300 32.32800
H  8.91600 45.83000 32.11400
H  8.49000 47.33500 34.03800
H  10.26500 47.63100 34.12700
H  14.59800 49.64300 26.36000
H  14.83600 47.82500 26.46400
H  14.25100 48.65800 27.83600
H  14.99300 49.58000 24.27000
H  15.03500 48.98000 22.60800
H  14.86600 47.83300 23.93100
H  7.94200 48.29100 22.03100
H  5.59400 49.32600 23.45100
H  8.32100 51.06000 22.98500
H  6.76200 50.73200 22.02600
H  8.17000 50.39400 21.33900
H  4.76900 46.96900 22.88800
H  6.28600 46.51300 22.19700
H  5.39300 48.88700 20.92700
H  4.03100 47.79200 21.01100
H  5.63800 47.30000 20.24200
H  2.64300 46.71900 28.54600
H  2.90400 46.76300 26.85100
H  2.76000 48.38000 27.75600
H  6.42400 48.27800 31.96100
H  6.27500 45.64900 35.12500
H  7.02500 44.63100 33.90600
H  5.30600 44.55600 34.30800

