79

Mg 24.85900 -7.31100 47.99400
C  27.02800 -4.82000 46.86100
C  22.54200 -6.06900 45.67400
C  22.94700 -9.85200 48.75600
C  27.30400 -8.51600 50.24000
N  24.92100 -5.74500 46.18900
C  25.87000 -4.78900 46.11700
C  25.54900 -3.89300 44.83900
C  23.99000 -4.10100 44.71300
C  23.79000 -5.38000 45.57600
C  23.09700 -2.90500 45.04300
C  26.47300 -4.17000 43.60900
C  27.03000 -2.98900 42.83300
H  27.07600 -3.06500 41.31600
N  23.08200 -7.90500 47.22800
C  22.21000 -7.29700 46.38900
C  20.99500 -8.12800 46.25900
C  21.14100 -9.28600 47.08400
C  22.40700 -9.04900 47.71900
C  19.82800 -7.63500 45.26700
C  20.10300 -10.40000 47.22600
O  18.95300 -10.26800 46.78400
C  20.47000 -11.68000 47.93800
N  25.11000 -8.97000 49.31700
C  24.11600 -9.85800 49.46100
C  24.34500 -10.84900 50.61500
C  25.89400 -10.62500 50.79200
C  26.10800 -9.26000 50.14900
C  23.41700 -10.63400 51.84700
C  26.82200 -11.66900 50.07600
C  27.82100 -12.43900 50.98400
N  26.79800 -6.79000 48.44000
C  27.64400 -7.33400 49.46400
C  28.87500 -6.54500 49.40900
C  28.56000 -5.49900 48.45200
C  27.38000 -5.72400 47.87100
C  30.13100 -6.80900 50.20500
C  29.03800 -4.31900 47.83300
O  30.11100 -3.76700 48.09500
C  28.06100 -3.79400 46.80200
C  27.54200 -2.46100 47.18900
O  27.16900 -2.11600 48.32200
O  27.65000 -1.62500 46.12300
C  27.03800 -0.22900 46.21000
H  21.70500 -5.57200 45.18100
H  22.29300 -10.63800 49.14200
H  28.10700 -8.91600 50.86200
H  25.80800 -2.88500 45.16400
H  23.75700 -4.28000 43.66300
H  23.54900 -1.95400 44.76000
H  22.82600 -2.88900 46.09900
H  22.21800 -3.08400 44.42400
H  25.82100 -4.78200 42.98600
H  27.28100 -4.84300 43.89700
H  28.01300 -2.84200 43.28100
H  26.31200 -2.19200 43.02900
H  19.73900 -6.56300 45.09500
H  18.85400 -8.01600 45.57400
H  20.07700 -7.94500 44.25200
H  21.42800 -12.13500 47.68200
H  19.66400 -12.34700 47.63200
H  20.46300 -11.46300 49.00600
H  24.13600 -11.82200 50.16900
H  26.15500 -10.47000 51.83900
H  22.45200 -10.19400 51.59300
H  23.88800 -10.16400 52.71100
H  23.11200 -11.62500 52.18600
H  27.21400 -11.24400 49.15200
H  26.11300 -12.41900 49.72700
H  28.75200 -12.53900 50.42600
H  27.59000 -13.48900 51.16700
H  28.03700 -11.81800 51.85300
H  29.95200 -7.49600 51.03200
H  30.47700 -5.85300 50.59700
H  30.90100 -7.21100 49.54700
H  28.37700 -3.67100 45.76600
H  26.14700 -0.02900 45.61400
H  27.85300 0.43300 45.91800
H  26.72700 -0.00500 47.23100

