79

Mg 26.27800 -0.61500 30.11500
C  28.31300 -0.58300 33.02200
C  23.57600 0.07800 32.13900
C  24.45400 -0.90500 27.36600
C  29.03300 -1.75100 28.37200
N  26.01700 -0.43300 32.28200
C  26.95100 -0.42100 33.30800
C  26.34600 -0.01100 34.69500
C  24.84000 -0.06700 34.40700
C  24.76500 -0.16200 32.87800
C  24.20200 -1.31300 34.98700
C  26.75900 1.46700 35.09100
C  27.35200 1.72600 36.47100
H  26.78200 0.89900 37.63400
N  24.30700 -0.52400 29.77800
C  23.31700 -0.06300 30.75100
C  22.06300 0.21400 30.04400
C  22.25400 -0.13200 28.62600
C  23.74900 -0.53900 28.52300
C  20.80300 0.80100 30.74000
C  21.21300 -0.09500 27.46700
O  21.50400 -0.68200 26.40400
C  19.80200 0.40800 27.72700
N  26.69000 -1.46300 28.19900
C  25.75700 -1.28600 27.22500
C  26.32500 -1.95200 25.89500
C  27.81000 -1.81200 26.13200
C  27.92700 -1.70400 27.63400
C  25.85400 -3.34300 25.54000
C  28.37300 -0.54300 25.37300
C  29.16500 -0.78400 24.00100
N  28.28400 -1.06500 30.56000
C  29.26400 -1.49100 29.78000
C  30.53300 -1.60800 30.56000
C  30.20900 -1.16300 31.83200
C  28.81200 -0.86500 31.81400
C  31.86100 -2.27400 30.16700
C  30.69300 -0.88200 33.19400
O  31.84200 -0.89400 33.62600
C  29.42300 -0.58100 34.03800
C  29.34000 -1.61000 35.12900
O  28.84700 -2.68500 34.96600
O  29.97500 -1.15700 36.28900
C  30.10300 -2.12600 37.42300
H  22.75300 0.41900 32.77100
H  23.78900 -0.84000 26.50200
H  29.95500 -2.09900 27.90200
H  26.67900 -0.69100 35.47900
H  24.29900 0.82200 34.72900
H  23.70400 -1.92700 34.23600
H  23.39700 -1.06200 35.67700
H  24.92800 -1.88300 35.56700
H  25.92700 2.15700 34.94800
H  27.55800 1.71200 34.39200
H  27.18200 2.78500 36.66300
H  28.43000 1.56700 36.44800
H  19.93000 0.17000 30.57100
H  20.69400 1.83800 30.42300
H  20.88700 0.74300 31.82500
H  19.33100 -0.08200 28.58000
H  19.32000 0.14500 26.78600
H  19.72500 1.49400 27.78300
H  25.88800 -1.31200 25.12900
H  28.27200 -2.74800 25.81800
H  25.37700 -3.70300 26.45100
H  26.62000 -4.05600 25.23400
H  25.08300 -3.28800 24.77100
H  28.99000 0.00800 26.08200
H  27.50900 0.10600 25.23000
H  28.90700 0.05100 23.34900
H  28.76500 -1.69900 23.56400
H  30.24300 -0.81100 24.16000
H  32.42900 -1.55900 29.57300
H  31.65000 -3.17300 29.58700
H  32.33200 -2.66100 31.07100
H  29.47000 0.45100 34.38600
H  31.06500 -2.62900 37.51900
H  29.43400 -2.97700 37.28800
H  29.86800 -1.56300 38.32700

