79

Mg 50.73000 46.12900 43.25200
C  47.91200 47.44800 41.67900
C  49.94500 43.14400 41.66900
C  53.83600 45.04200 43.95300
C  51.52100 49.37800 44.31300
N  49.10000 45.39700 41.84700
C  47.99800 46.09000 41.42700
C  47.09100 45.21700 40.58200
C  47.62000 43.76000 40.98000
C  48.93900 44.06200 41.58400
C  46.63600 42.98800 41.87500
C  47.23200 45.55500 39.05300
C  46.01500 46.04400 38.22900
H  45.47200 45.03300 37.20500
N  51.77700 44.30300 42.91000
C  51.21500 43.14000 42.27100
C  52.20200 42.04100 42.38200
C  53.39100 42.63500 42.95100
C  53.05500 44.07200 43.25400
C  51.92900 40.53700 42.05700
C  54.73700 41.88600 43.24000
O  54.84700 40.70300 42.88300
C  55.92200 42.53900 43.86200
N  52.42000 47.05500 43.96200
C  53.55900 46.33500 44.29000
C  54.60000 47.33800 44.84600
C  53.86200 48.68800 45.04100
C  52.52400 48.36400 44.34800
C  55.47300 46.83600 46.06800
C  54.67000 49.88000 44.47200
C  54.92200 51.00700 45.52200
N  49.91200 48.09500 43.04000
C  50.29200 49.29800 43.57800
C  49.34300 50.27900 43.16800
C  48.35400 49.63600 42.50100
C  48.82800 48.30400 42.37600
C  49.52600 51.79600 43.40800
C  47.05200 49.78600 41.86000
O  46.25900 50.71200 41.80100
C  46.72600 48.38000 41.31100
C  45.36100 47.92600 41.76000
O  45.03500 47.49000 42.85500
O  44.51600 48.07300 40.67800
C  43.16400 47.48700 40.98900
H  49.59100 42.25200 41.14700
H  54.86700 44.75300 44.17000
H  51.76600 50.29900 44.84600
H  46.05600 45.31000 40.91200
H  47.78300 43.12500 40.10900
H  45.72700 43.56900 42.03000
H  47.00900 42.93100 42.89700
H  46.53900 42.00700 41.40900
H  47.73200 44.82000 38.42200
H  48.00000 46.31900 38.94000
H  46.15400 46.94300 37.62900
H  45.26800 46.31200 38.97700
H  51.11400 40.38300 41.35000
H  51.71600 39.94000 42.94400
H  52.74100 40.01100 41.55300
H  55.54600 42.90700 44.81700
H  56.37700 43.31500 43.24700
H  56.78000 41.87500 43.96900
H  55.33600 47.54900 44.07100
H  53.60000 48.93100 46.07100
H  55.30300 45.76300 46.15600
H  55.31600 47.27800 47.05200
H  56.52300 46.90300 45.78400
H  54.06800 50.27100 43.65200
H  55.66300 49.54900 44.16900
H  55.99800 51.04700 45.69400
H  54.29700 50.88200 46.40600
H  54.64900 51.97400 45.10000
H  50.05700 52.26300 42.57800
H  49.90600 52.02600 44.40400
H  48.53400 52.24300 43.34800
H  46.68900 48.47200 40.22500
H  43.21600 46.39900 40.94700
H  42.51000 47.80500 40.17800
H  42.83800 47.86700 41.95800

