79

Mg 9.75000 47.82000 26.51700
C  8.08500 47.61200 29.48300
C  12.45000 48.99200 28.37400
C  11.30100 48.24800 23.54900
C  6.60700 47.45500 24.74800
N  10.20600 48.23400 28.70800
C  9.32400 48.15000 29.71500
C  9.93500 48.67800 31.03400
C  11.09300 49.59400 30.56900
C  11.30100 48.89200 29.12700
C  10.84100 51.22000 30.58900
C  10.35500 47.49200 31.93300
C  9.88600 47.55500 33.38600
H  9.98400 46.19200 34.11800
N  11.68400 48.32100 26.07900
C  12.60800 48.76900 27.00600
C  13.82100 48.74400 26.31700
C  13.51200 48.51200 24.92600
C  12.07600 48.37300 24.76700
C  15.17400 48.97800 27.03200
C  14.47900 48.50600 23.73100
O  14.17900 48.19600 22.60700
C  15.91300 48.66900 23.92400
N  9.01300 47.90100 24.39200
C  9.87400 48.03000 23.40800
C  9.21300 48.06700 22.01000
C  7.68200 47.79400 22.42200
C  7.74400 47.61800 23.97600
C  9.45500 49.30900 21.03700
C  7.01200 46.62100 21.65900
C  6.57300 46.99000 20.20200
N  7.74700 47.46700 26.99600
C  6.64500 47.37300 26.22900
C  5.51900 47.19600 27.09700
C  5.99400 47.27600 28.39400
C  7.38500 47.46400 28.22700
C  4.14800 46.97000 26.58300
C  5.71100 47.17700 29.80500
O  4.69800 46.99300 30.43600
C  7.06000 47.43100 30.50900
C  7.27800 46.18500 31.28300
O  7.73500 45.11700 30.92400
O  6.75900 46.31200 32.51400
C  6.42100 45.07800 33.28200
H  13.32700 49.33700 28.92700
H  11.81800 48.34000 22.59200
H  5.63600 47.30500 24.27200
H  9.18200 49.24600 31.58000
H  11.94400 49.51700 31.24600
H  10.98800 51.40000 29.52400
H  11.76600 51.53600 31.07300
H  9.93300 51.56900 31.08100
H  11.44300 47.46200 31.97800
H  10.18400 46.51300 31.48400
H  8.85500 47.90200 33.32900
H  10.33900 48.40300 33.90000
H  15.27300 48.77400 28.09800
H  15.46500 49.95400 26.64300
H  15.84200 48.18100 26.70300
H  16.43100 48.77800 22.97100
H  16.19600 47.74700 24.43100
H  16.29800 49.49800 24.51900
H  9.52800 47.21600 21.40600
H  7.07500 48.69000 22.29300
H  8.52300 49.72400 20.65400
H  10.02300 49.03300 20.14900
H  10.00800 50.06800 21.59100
H  6.09800 46.37600 22.19900
H  7.65200 45.74400 21.76000
H  6.71700 48.05200 20.00200
H  5.54000 46.75900 19.94100
H  7.13800 46.37500 19.50200
H  4.07000 46.36400 25.68100
H  3.61700 47.91100 26.43800
H  3.48600 46.48600 27.30000
H  6.93800 48.21600 31.25500
H  6.87300 45.13200 34.27200
H  6.65000 44.11100 32.83400
H  5.34500 45.12600 33.44500

