79

Mg 47.80200 24.69100 27.92100
C  48.17800 27.19900 30.48800
C  46.24400 22.76700 30.30700
C  47.63800 22.22500 25.64300
C  49.55700 26.68400 25.71500
N  47.42500 24.98700 30.14000
C  47.59100 26.06300 30.95900
C  46.82900 25.89500 32.28900
C  46.47200 24.38100 32.29700
C  46.79700 23.94600 30.83400
C  47.22800 23.56000 33.34000
C  45.75400 26.87300 32.59800
C  45.75800 27.48900 34.01100
H  46.51500 26.87400 35.24500
N  46.92200 22.80400 27.92800
C  46.20600 22.24000 28.98500
C  45.82000 20.86100 28.53100
C  45.99600 20.81500 27.10900
C  46.85800 21.97000 26.83100
C  45.18900 19.87300 29.43400
C  45.53200 19.79400 26.02300
O  45.93800 19.85400 24.90500
C  44.74700 18.64800 26.51000
N  48.65500 24.38600 26.07700
C  48.43200 23.30600 25.30500
C  49.19500 23.38500 24.00200
C  49.58300 24.90300 23.98500
C  49.22500 25.37800 25.33900
C  50.39800 22.40700 24.01900
C  48.89700 25.63400 22.85300
C  49.72500 26.71400 22.20900
N  48.72600 26.54600 27.97700
C  49.35800 27.23800 26.99200
C  49.60200 28.61500 27.43000
C  49.14500 28.62400 28.75300
C  48.65900 27.31500 29.09400
C  50.19500 29.74400 26.63100
C  48.93000 29.48100 29.91700
O  49.19000 30.65200 30.05500
C  48.51500 28.55300 31.14100
C  49.73800 28.25800 31.98100
O  50.74600 27.81800 31.50800
O  49.58400 28.64100 33.26400
C  50.85200 28.49700 34.07200
H  45.75400 22.19700 31.10000
H  47.52300 21.43800 24.89400
H  50.16300 27.24800 25.00300
H  47.55600 26.06400 33.08300
H  45.43300 24.18500 32.56100
H  47.86100 24.17100 33.98400
H  47.86300 22.82100 32.85100
H  46.55200 23.00700 33.99200
H  44.77100 26.42900 32.44100
H  45.84200 27.70500 31.90000
H  44.68400 27.47800 34.19700
H  46.06600 28.53100 33.91900
H  45.27000 20.19000 30.47400
H  45.57800 18.86300 29.30500
H  44.16300 19.83500 29.06900
H  43.74800 18.93400 26.83800
H  45.25700 18.19700 27.36200
H  44.65300 17.93400 25.69100
H  48.51300 23.03900 23.22500
H  50.66100 24.92600 23.82600
H  50.28900 21.63900 23.25300
H  50.52300 21.89400 24.97200
H  51.34800 22.90800 23.83100
H  47.94600 26.09500 23.11900
H  48.63000 24.94200 22.05500
H  50.17200 26.29700 21.30600
H  50.56800 27.05900 22.80700
H  49.15400 27.63400 22.08400
H  51.04500 29.32700 26.09300
H  50.50600 30.40700 27.43900
H  49.58800 30.26200 25.88900
H  47.63100 28.81100 31.72400
H  50.77000 27.64500 34.74700
H  50.99400 29.36200 34.72000
H  51.79600 28.49500 33.52700

