79

Mg 8.07600 2.91000 27.45300
C  9.49200 1.35500 30.26500
C  6.27100 5.01900 29.45900
C  6.73800 4.11100 24.71900
C  9.70400 0.34000 25.49500
N  7.66200 2.96600 29.70900
C  8.59500 2.42900 30.58700
C  8.37100 3.08800 32.00000
C  7.01000 3.95900 31.77300
C  7.00800 4.06300 30.19500
C  5.72700 3.53700 32.48100
C  9.51200 3.84800 32.67500
C  9.93100 3.36300 34.09900
H  10.40900 4.39000 35.17800
N  6.80800 4.50700 27.11000
C  6.15000 5.30600 28.07900
C  5.42800 6.35300 27.42100
C  5.44100 6.03100 26.05800
C  6.40100 4.86700 25.88900
C  4.80200 7.57000 28.11100
C  4.80600 6.67100 24.91300
O  4.92900 6.19200 23.80900
C  4.00800 7.95700 25.06600
N  8.09700 2.13400 25.48400
C  7.43900 2.90300 24.51300
C  7.68600 2.40300 23.10600
C  8.86000 1.30200 23.36500
C  8.88000 1.29000 24.89800
C  6.38300 1.88800 22.47100
C  10.24500 1.60700 22.73200
C  10.85700 0.51400 21.84400
N  9.11800 1.01700 27.78000
C  9.79800 0.18500 26.88200
C  10.65900 -0.74800 27.66000
C  10.59400 -0.28700 28.97400
C  9.61400 0.73500 28.98900
C  11.53400 -1.79000 27.14200
C  11.12600 -0.35700 30.32400
O  12.01400 -1.07300 30.69900
C  10.43400 0.70800 31.23700
C  9.78100 -0.16700 32.29400
O  9.09200 -1.13700 32.00900
O  10.29500 0.23600 33.50400
C  9.86000 -0.56200 34.71000
H  5.79900 5.74600 30.12300
H  6.38000 4.42200 23.73500
H  10.37200 -0.30300 24.91800
H  8.14800 2.24600 32.65500
H  7.19600 4.99800 32.04400
H  5.24100 4.40300 32.93100
H  5.96800 2.72200 33.16300
H  4.97300 3.21500 31.76200
H  9.31300 4.91400 32.78300
H  10.36000 3.74500 31.99700
H  10.78600 2.70200 33.95500
H  9.09300 2.87400 34.59400
H  5.38800 8.39300 27.70300
H  4.85000 7.46700 29.19600
H  3.73700 7.55900 27.87900
H  3.51800 8.04700 24.09600
H  4.75300 8.71500 25.30900
H  3.27600 7.75000 25.84600
H  7.92200 3.29500 22.52600
H  8.50900 0.33100 23.01500
H  6.38800 2.32100 21.47100
H  5.48400 2.27300 22.95200
H  6.55100 0.81200 22.42700
H  10.93800 1.82200 23.54500
H  10.23700 2.51100 22.12300
H  11.93300 0.39900 21.97700
H  10.63700 0.70400 20.79300
H  10.40200 -0.45000 22.07000
H  12.60000 -1.69900 27.35100
H  11.49200 -1.90900 26.06000
H  11.22700 -2.74500 27.56700
H  11.25900 1.31600 31.60900
H  9.45800 -1.56400 34.55600
H  9.44700 0.21500 35.35300
H  10.80900 -0.76800 35.20500

