79

Mg 1.09600 6.84800 26.21600
C  1.32900 8.99900 29.08400
C  1.47300 4.17400 28.39400
C  0.78200 4.84400 23.61200
C  1.20100 9.70600 24.19500
N  1.39600 6.63200 28.49700
C  1.26400 7.61700 29.38500
C  1.31000 7.08300 30.82500
C  1.54600 5.55500 30.63300
C  1.53200 5.43200 29.07100
C  2.86100 5.01700 31.28100
C  -0.01200 7.38500 31.61200
C  -0.04900 7.46000 33.17000
H  1.25200 7.19800 33.92800
N  1.06400 4.79600 26.00800
C  1.28900 3.82200 27.02900
C  1.15700 2.50300 26.45700
C  0.89500 2.68500 25.08100
C  0.92200 4.15200 24.82400
C  1.29800 1.17500 27.22400
C  0.57300 1.61400 24.04900
O  0.34000 1.86300 22.88300
C  0.55500 0.12300 24.44100
N  1.02800 7.23400 24.21500
C  0.79600 6.23200 23.36300
C  0.62300 6.80900 21.89900
C  0.47200 8.35800 22.05100
C  0.89100 8.44500 23.60400
C  1.72500 6.31500 20.98700
C  -0.99100 8.82200 21.88200
C  -1.17300 10.00000 20.84200
N  1.32500 8.93600 26.47800
C  1.32700 9.93900 25.54000
C  1.57300 11.21500 26.18100
C  1.55700 10.86700 27.55000
C  1.43000 9.50200 27.71100
C  1.61200 12.61100 25.52600
C  1.56200 11.46700 28.92400
O  1.63700 12.67000 29.28500
C  1.38600 10.32500 29.86000
C  2.55300 10.32200 30.80900
O  3.68500 9.92000 30.68200
O  2.15900 11.04800 31.91200
C  3.16800 11.22500 32.98300
H  1.43400 3.35700 29.11700
H  0.64100 4.30000 22.67600
H  1.07300 10.55600 23.52100
H  2.14600 7.53000 31.36200
H  0.68100 5.05000 31.06300
H  3.44100 5.79300 31.78000
H  3.57500 4.42900 30.70400
H  2.42700 4.30700 31.98500
H  -0.77500 6.67200 31.30100
H  -0.35700 8.36000 31.26900
H  -0.68200 6.63500 33.49700
H  -0.33900 8.48600 33.40000
H  0.31100 0.72300 27.12700
H  1.39000 1.39500 28.28700
H  2.20800 0.67600 26.89000
H  -0.30900 -0.04800 25.08400
H  1.46000 -0.24100 24.92700
H  0.45600 -0.44100 23.51300
H  -0.34600 6.43100 21.57300
H  1.25200 8.89400 21.51000
H  2.53000 5.81200 21.52300
H  2.19100 7.13300 20.43900
H  1.28600 5.60300 20.28800
H  -1.41800 9.18900 22.81600
H  -1.64800 8.02500 21.53400
H  -0.15200 10.32400 20.64000
H  -1.68700 10.88200 21.22600
H  -1.76700 9.74200 19.96500
H  1.13400 13.27700 26.24500
H  0.93400 12.64300 24.67300
H  2.60900 13.01100 25.34200
H  0.42500 10.31000 30.37400
H  3.98500 11.89500 32.71600
H  3.62500 10.26000 33.20500
H  2.78100 11.63100 33.91800

