79

Mg 36.38800 49.72000 24.54800
C  36.73100 47.87300 27.60000
C  35.43200 52.28500 26.35600
C  35.26400 50.98300 21.60400
C  37.35100 46.72500 22.82500
N  36.03300 50.02300 26.74600
C  36.34600 49.23300 27.78900
C  36.23300 49.92600 29.17900
C  35.89300 51.35500 28.73200
C  35.78600 51.23300 27.19500
C  34.54700 52.04300 29.38200
C  37.54800 49.87200 30.07100
C  37.32200 49.34600 31.53000
H  35.89200 49.38200 32.07700
N  35.64900 51.47000 24.04800
C  35.23700 52.43900 24.94000
C  34.70100 53.53800 24.23800
C  34.81500 53.23400 22.78400
C  35.23000 51.84300 22.79900
C  34.01500 54.73300 24.85700
C  34.54500 54.10900 21.62300
O  34.40700 53.69500 20.46300
C  34.56800 55.59900 21.86300
N  36.37900 48.99000 22.44900
C  35.78300 49.65800 21.42300
C  35.92800 48.95300 20.05200
C  36.78500 47.72900 20.55200
C  36.83000 47.82400 22.06100
C  34.57800 48.50800 19.50100
C  38.30000 47.75200 20.01400
C  38.72100 46.64000 19.00900
N  36.96800 47.72500 25.04900
C  37.35500 46.67500 24.25000
C  37.72300 45.49500 25.09500
C  37.49000 45.91000 26.38400
C  37.03200 47.27200 26.30000
C  38.32700 44.16300 24.70300
C  37.44600 45.47500 27.81600
O  37.58600 44.37500 28.31300
C  37.00800 46.79600 28.66600
C  35.89300 46.32600 29.43900
O  34.78400 46.07600 28.99800
O  36.40500 45.97100 30.65200
C  35.50400 45.16900 31.47100
H  35.19000 53.20800 26.88800
H  35.00400 51.45600 20.65500
H  37.62700 45.76100 22.39200
H  35.39800 49.35100 29.57800
H  36.78600 51.90600 29.02800
H  34.78800 53.02600 29.78900
H  34.16800 51.46700 30.22500
H  33.75400 52.28000 28.67300
H  37.94800 50.86400 30.27900
H  38.26400 49.19900 29.60000
H  38.02700 49.88400 32.16400
H  37.67700 48.31500 31.51500
H  33.04100 54.89300 24.39300
H  34.57300 55.66500 24.77200
H  33.86400 54.55500 25.92200
H  33.66600 55.93600 22.37400
H  34.60700 56.13900 20.91700
H  35.36000 55.89800 22.55000
H  36.51400 49.46200 19.28700
H  36.35500 46.79200 20.19900
H  33.80200 48.75100 20.22700
H  34.54600 47.44100 19.28100
H  34.29500 49.07500 18.61400
H  38.98000 47.71400 20.86500
H  38.44800 48.71200 19.52000
H  38.91100 47.22300 18.10800
H  38.05600 45.78400 18.89000
H  39.74200 46.40000 19.30600
H  37.59600 43.35600 24.75100
H  39.08200 43.87900 25.43600
H  38.58800 44.08900 23.64700
H  37.89000 47.07800 29.24100
H  35.12200 44.32400 30.89900
H  34.62100 45.76000 31.71200
H  36.10400 44.77000 32.28900

