79

Mg -1.80900 33.17700 27.45600
C  -3.45300 31.49900 29.92900
C  -0.38600 35.07100 29.87700
C  -0.30700 34.78900 25.08900
C  -3.77500 31.60200 25.03300
N  -1.84500 33.11600 29.70700
C  -2.64000 32.44900 30.51600
C  -2.46000 32.80000 32.00900
C  -1.58100 34.04100 31.89200
C  -1.29200 34.14700 30.38600
C  -2.13900 35.36600 32.48100
C  -1.81400 31.56400 32.68600
C  -1.14000 31.68600 34.05600
H  -1.55500 30.72600 35.14200
N  -0.46000 34.73500 27.52200
C  0.03700 35.33800 28.58400
C  1.08200 36.24700 28.13300
C  1.18000 36.19700 26.67600
C  0.13900 35.20900 26.39100
C  1.75000 37.16600 29.08000
C  2.02600 37.10000 25.73900
O  2.04000 36.97100 24.49600
C  2.93200 38.12400 26.34300
N  -2.01800 33.20800 25.34300
C  -1.25600 33.97000 24.53200
C  -1.53500 33.83600 23.03200
C  -2.68600 32.81200 23.03700
C  -2.82700 32.51800 24.53100
C  -1.65600 35.09500 22.11100
C  -2.53500 31.51600 22.09700
C  -1.79600 30.38900 22.62400
N  -3.26300 31.77100 27.45000
C  -4.01700 31.27900 26.39700
C  -4.89500 30.19900 26.93000
C  -4.70800 30.27500 28.31100
C  -3.71300 31.25100 28.53400
C  -5.81500 29.37100 26.16600
C  -5.14500 29.81900 29.54400
O  -5.93900 28.93300 29.79900
C  -4.43600 30.58000 30.63000
C  -5.45900 31.36200 31.41600
O  -6.15900 32.20500 30.95200
O  -5.48800 31.01400 32.73800
C  -6.39800 31.60000 33.69400
H  -0.09400 35.77300 30.66100
H  0.27300 35.24900 24.28500
H  -4.46700 31.09300 24.35900
H  -3.41400 33.01500 32.49100
H  -0.64100 33.75400 32.36300
H  -2.91300 35.08000 33.19300
H  -2.50300 36.03700 31.70300
H  -1.37400 35.84200 33.09500
H  -1.17100 30.88500 32.12600
H  -2.67200 30.95700 32.97400
H  -1.25600 32.69200 34.46000
H  -0.05200 31.66400 34.00300
H  2.81300 37.30600 28.88300
H  1.79100 36.81700 30.11200
H  1.29500 38.15400 29.01700
H  3.64200 37.61600 26.99500
H  2.35600 38.82700 26.94400
H  3.56700 38.63700 25.62000
H  -0.62800 33.31700 22.72300
H  -3.58800 33.34000 22.72700
H  -2.41700 35.04500 21.33300
H  -0.72600 34.99300 21.55100
H  -1.83300 36.07800 22.54800
H  -2.06300 31.87800 21.18400
H  -3.48300 31.14500 21.70600
H  -1.05400 30.14900 21.86300
H  -2.48400 29.54500 22.67300
H  -1.29300 30.60400 23.56600
H  -5.54800 28.35800 26.46600
H  -5.66300 29.51100 25.09600
H  -6.81200 29.70600 26.45300
H  -3.91400 29.93300 31.33600
H  -7.01800 32.41600 33.32200
H  -5.88500 31.87100 34.61600
H  -7.11200 30.84100 34.01600

