79

Mg -2.40600 34.92400 26.86000
C  -3.78400 32.94100 29.47400
C  -1.01900 36.93800 29.22800
C  -1.48000 37.10300 24.39100
C  -4.26600 33.21900 24.63500
N  -2.32200 34.86700 29.09700
C  -2.97100 33.97300 29.96600
C  -2.59500 34.25500 31.44000
C  -1.88500 35.62100 31.32300
C  -1.78200 35.87200 29.80900
C  -2.49500 36.77300 32.14900
C  -1.78500 33.19500 32.07600
C  -2.35300 32.25100 33.13400
H  -1.41100 32.13100 34.39800
N  -1.32400 36.66000 26.82200
C  -0.78700 37.31000 27.88900
C  -0.10600 38.47300 27.42100
C  -0.19400 38.49900 26.06800
C  -1.03600 37.35900 25.70300
C  0.64200 39.37700 28.41700
C  0.51600 39.41500 25.11900
O  0.53600 39.27900 23.92300
C  1.07400 40.77000 25.62800
N  -2.66800 35.02600 24.75900
C  -2.28900 36.02000 23.93200
C  -2.65600 35.78400 22.44700
C  -3.33700 34.40000 22.53300
C  -3.42700 34.15800 24.07000
C  -3.46700 36.93100 21.83100
C  -2.65500 33.19800 21.81300
C  -1.52200 32.41500 22.56500
N  -3.73500 33.43900 26.88900
C  -4.35600 32.77800 25.93900
C  -5.24000 31.70100 26.49300
C  -4.98900 31.73700 27.83300
C  -4.14700 32.85000 28.06700
C  -6.02300 30.69600 25.72500
C  -5.35000 31.09700 29.06800
O  -6.19100 30.23500 29.32400
C  -4.55100 31.84200 30.17400
C  -5.56500 32.30900 31.13100
O  -6.09600 33.40700 31.08700
O  -5.80900 31.36000 32.07800
C  -6.72400 31.84100 33.08800
H  -0.55900 37.43800 30.08300
H  -1.13400 37.70100 23.54500
H  -5.00600 32.72000 24.00500
H  -3.55900 34.33400 31.94400
H  -0.82800 35.58400 31.58600
H  -2.93300 37.46000 31.42400
H  -1.81700 37.31000 32.81200
H  -3.34900 36.35000 32.67700
H  -0.90700 33.63000 32.55400
H  -1.55600 32.54100 31.23500
H  -2.49800 31.28200 32.65600
H  -3.34000 32.57000 33.47000
H  -0.12400 40.06900 28.76700
H  1.53500 39.92600 28.11800
H  0.85900 38.90900 29.37700
H  1.10300 41.60600 24.93000
H  2.04700 40.61600 26.09500
H  0.48000 41.22000 26.42400
H  -1.70100 35.87400 21.92900
H  -4.37600 34.46500 22.21000
H  -3.83300 37.62500 22.58800
H  -4.38900 36.50300 21.43600
H  -2.88300 37.44800 21.06900
H  -2.18700 33.62400 20.92500
H  -3.45800 32.55400 21.45500
H  -1.65500 32.42700 23.64700
H  -0.60700 32.95700 22.32300
H  -1.55500 31.36500 22.27600
H  -6.18800 30.97900 24.68600
H  -6.93700 30.48400 26.28200
H  -5.43500 29.77800 25.70400
H  -3.76500 31.26300 30.66000
H  -7.58900 32.36300 32.67900
H  -6.14700 32.39400 33.82900
H  -7.11500 31.01400 33.68100

