79

Mg -11.47400 37.88400 43.30900
C  -9.52100 35.23800 42.14000
C  -9.40300 40.05900 41.98900
C  -13.80600 40.26900 43.94300
C  -14.00700 35.44800 44.12600
N  -9.70900 37.59100 42.13400
C  -9.03100 36.47800 41.87900
C  -7.63700 36.80200 41.23000
C  -7.49200 38.36100 41.33100
C  -8.89300 38.70900 41.89100
C  -6.34500 38.79500 42.29500
C  -7.66500 36.29800 39.76400
C  -6.53700 35.55800 39.24600
H  -5.76000 36.33200 38.15700
N  -11.68000 39.91400 42.94800
C  -10.65800 40.62100 42.28700
C  -11.02600 42.02700 42.16100
C  -12.36600 42.14300 42.79100
C  -12.69700 40.75400 43.27100
C  -10.07300 43.11000 41.67200
C  -13.23700 43.38700 42.94800
O  -12.71600 44.53900 42.78800
C  -14.66200 43.26100 43.27200
N  -13.55900 37.84400 43.94100
C  -14.21000 38.97900 44.20800
C  -15.61700 38.68400 44.78800
C  -15.72300 37.14500 44.92400
C  -14.36500 36.79100 44.23800
C  -15.81900 39.43000 46.23000
C  -17.05800 36.47400 44.50100
C  -17.32600 36.33100 43.00800
N  -11.77200 35.73000 43.25000
C  -12.81300 34.87600 43.63600
C  -12.47700 33.53400 43.37300
C  -11.21300 33.61600 42.64700
C  -10.81500 34.99100 42.68300
C  -13.19100 32.28300 43.77200
C  -10.08100 32.79900 42.09400
O  -9.87200 31.60400 41.94500
C  -8.99100 33.85100 41.64900
C  -7.68500 33.37100 42.21800
O  -7.05000 32.40800 41.77900
O  -7.20100 34.17600 43.24000
C  -5.90900 33.78200 43.71800
H  -8.61400 40.78500 41.78000
H  -14.57000 41.01700 44.16400
H  -14.65900 34.60600 44.36500
H  -6.81000 36.36000 41.78600
H  -7.32600 38.94400 40.42500
H  -5.40600 38.94300 41.76100
H  -6.20900 38.12900 43.14800
H  -6.58900 39.80000 42.63900
H  -7.82700 37.15000 39.10300
H  -8.49400 35.62400 39.54900
H  -6.88900 34.58700 38.89900
H  -5.84900 35.27000 40.04000
H  -10.17400 43.43800 40.63800
H  -9.02400 42.88800 41.86900
H  -10.23500 44.02000 42.25000
H  -15.30100 42.48500 42.85000
H  -15.12800 44.20000 42.97400
H  -14.75800 43.08100 44.34200
H  -16.36800 39.15400 44.15300
H  -15.42700 36.81900 45.92100
H  -15.13100 40.25000 46.43400
H  -15.66300 38.75500 47.07200
H  -16.80400 39.89700 46.21600
H  -17.90900 37.01500 44.91400
H  -16.88800 35.52000 45.00000
H  -16.84600 37.17100 42.50600
H  -18.39200 36.27400 42.78600
H  -16.89800 35.41600 42.59800
H  -13.72300 32.39900 44.71600
H  -12.56100 31.39600 43.83100
H  -14.00200 32.11200 43.06500
H  -9.01800 33.85200 40.55900
H  -6.11300 32.81800 44.18600
H  -5.50100 34.50500 44.42400
H  -5.17200 33.73200 42.91700

