79

Mg 16.25100 52.27200 26.48800
C  18.03500 50.93700 29.09300
C  13.66600 52.68800 28.68800
C  14.52800 53.24400 23.92800
C  18.77800 51.05700 24.22400
N  15.91600 51.79300 28.55800
C  16.81000 51.48800 29.48800
C  16.43200 51.76900 31.00400
C  14.90600 51.91600 30.74900
C  14.83000 52.21700 29.19800
C  14.12900 50.63900 31.29100
C  17.28600 53.00300 31.39500
C  17.44100 53.30700 32.93900
H  16.43900 52.54000 33.93200
N  14.34200 53.04000 26.37800
C  13.36900 53.07700 27.34700
C  12.20400 53.73500 26.75500
C  12.48200 53.99000 25.37600
C  13.83500 53.40400 25.17700
C  10.95300 54.11700 27.57200
C  11.65100 54.63900 24.24900
O  12.07800 54.91100 23.17500
C  10.28700 55.22600 24.56200
N  16.59100 52.09500 24.45900
C  15.70800 52.69300 23.59600
C  16.17400 52.66800 22.17400
C  17.71700 52.42800 22.28600
C  17.78300 51.84500 23.68900
C  15.51300 51.67500 21.14500
C  18.68700 53.54800 22.05300
C  18.88900 53.87500 20.54200
N  17.98800 51.13600 26.58500
C  19.01600 50.77000 25.60900
C  20.05400 50.15600 26.26900
C  19.73100 50.15500 27.60500
C  18.47300 50.76000 27.75400
C  21.26000 49.54800 25.69700
C  20.26100 49.87900 28.92800
O  21.26900 49.29100 29.31700
C  19.17700 50.42700 29.94100
C  18.64700 49.37300 30.88100
O  17.64400 48.71800 30.73700
O  19.35000 49.37900 32.06000
C  18.70400 48.62600 33.13400
H  12.77900 52.73100 29.32400
H  13.97400 53.61000 23.06100
H  19.63100 50.93100 23.55400
H  16.62800 50.92600 31.66700
H  14.45600 52.81900 31.16000
H  13.41900 50.80400 32.10200
H  14.82700 49.85800 31.59000
H  13.56100 50.19400 30.47400
H  16.80700 53.79000 30.81300
H  18.29900 52.81800 31.03500
H  17.26500 54.38000 33.01500
H  18.42500 53.14900 33.38300
H  10.03000 53.77200 27.10800
H  10.87400 55.20100 27.64800
H  10.92100 53.62400 28.54400
H  9.94800 55.72200 23.65200
H  10.33000 55.82400 25.47200
H  9.71100 54.33900 24.82400
H  16.06600 53.70500 21.85300
H  18.04300 51.66900 21.57400
H  15.32300 52.21100 20.21600
H  14.59200 51.22800 21.51900
H  16.20300 50.93000 20.75100
H  19.60200 53.19400 22.53000
H  18.27600 54.38300 22.62000
H  18.10300 53.38200 19.97000
H  19.89100 53.57000 20.24000
H  18.97000 54.95000 20.38400
H  21.87800 50.32600 25.25000
H  20.95000 48.81300 24.95400
H  21.70900 48.97800 26.51000
H  19.50800 51.28600 30.52400
H  18.67100 47.56500 32.88500
H  17.66700 48.89300 33.33500
H  19.21700 48.64400 34.09600

