79

Mg 35.90700 49.62800 25.63400
C  35.76300 47.96400 28.61500
C  34.14100 52.23900 27.07200
C  35.57400 50.91400 22.51400
C  37.02200 46.63700 24.02400
N  35.16500 50.09900 27.65200
C  35.20900 49.29200 28.74200
C  34.76000 50.01200 29.93000
C  34.17100 51.33400 29.46200
C  34.50100 51.17800 27.96900
C  32.70100 51.59900 29.85900
C  35.86800 50.15700 30.97600
C  35.31500 50.37900 32.38400
H  33.82800 50.27900 32.68500
N  35.10200 51.36400 24.92600
C  34.35300 52.29800 25.64300
C  33.97300 53.35400 24.70000
C  34.32100 52.93800 23.40400
C  34.91900 51.57800 23.58300
C  33.17400 54.53400 25.12800
C  34.11300 53.69200 22.11100
O  34.41900 53.27000 20.99700
C  33.38900 55.02000 22.06900
N  36.42100 48.91800 23.54100
C  36.18900 49.67400 22.49200
C  36.68100 49.06800 21.16400
C  37.30100 47.73500 21.66700
C  36.81800 47.71300 23.15700
C  35.52200 48.94600 20.09600
C  38.84200 47.50000 21.60600
C  39.74300 48.63300 22.24400
N  36.33100 47.76300 26.17200
C  36.84100 46.66200 25.48500
C  37.01400 45.55500 26.36100
C  36.66000 46.02600 27.61100
C  36.22900 47.35900 27.43900
C  37.46300 44.18900 25.94000
C  36.49600 45.68600 29.01200
O  36.62600 44.59400 29.55700
C  35.95700 46.93700 29.72200
C  34.72500 46.56700 30.37600
O  33.71100 46.11000 29.90700
O  34.88200 46.64900 31.77200
C  33.83800 45.97700 32.52800
H  33.65200 53.10300 27.52600
H  35.36400 51.27900 21.50700
H  37.36500 45.76700 23.46000
H  33.97400 49.33100 30.25800
H  34.71000 52.17500 29.89800
H  32.61500 52.45100 30.53400
H  32.29700 50.78700 30.46400
H  31.95500 51.77600 29.08500
H  36.52100 50.96200 30.64000
H  36.53900 49.29800 30.96100
H  35.65400 51.36300 32.70900
H  35.80100 49.78100 33.15400
H  33.36100 54.54000 26.20100
H  32.11600 54.31900 24.97900
H  33.45300 55.55700 24.87500
H  33.30600 55.44100 21.06700
H  33.91600 55.76200 22.66900
H  32.34100 54.95000 22.36200
H  37.37600 49.73100 20.64800
H  36.73600 46.93900 21.18400
H  34.60500 49.20700 20.62500
H  35.37500 47.95300 19.67100
H  35.68800 49.61300 19.25000
H  39.04800 47.34300 20.54700
H  39.06600 46.53500 22.06100
H  39.17900 49.36400 22.82400
H  40.43300 49.10100 21.54200
H  40.25700 48.12600 23.06000
H  38.37700 43.85700 26.43200
H  37.84000 44.22500 24.91800
H  36.64900 43.48500 26.11500
H  36.65800 47.10600 30.53900
H  33.78700 46.58900 33.42800
H  33.92100 44.92200 32.78900
H  32.84800 46.17200 32.11600

