79

Mg 1.10700 7.56300 25.69600
C  1.83500 9.25900 28.59500
C  1.42700 4.56000 27.46500
C  0.58800 5.99300 22.78500
C  1.59400 10.64700 23.88300
N  1.96100 6.90700 27.70200
C  1.87600 7.89700 28.77900
C  1.90000 7.12600 30.11300
C  1.96800 5.64300 29.80400
C  1.80300 5.67700 28.20100
C  3.30200 4.96100 30.11800
C  0.66400 7.56900 30.99700
C  1.07100 7.97400 32.42300
H  2.37900 7.45400 33.13900
N  0.87700 5.51600 25.24000
C  1.02800 4.44900 26.06100
C  0.86200 3.22300 25.35100
C  0.65000 3.60700 23.95700
C  0.69700 5.13100 23.95500
C  0.91000 1.81800 25.95900
C  0.48500 2.75500 22.67900
O  0.30200 3.16100 21.57500
C  0.49400 1.26000 22.81800
N  1.16500 8.24800 23.67200
C  0.79600 7.38600 22.67700
C  0.91700 8.04600 21.36000
C  0.82400 9.52100 21.75100
C  1.22700 9.49400 23.21900
C  2.20700 7.59300 20.56600
C  -0.63400 10.16200 21.58500
C  -0.71600 11.59800 21.02100
N  1.59000 9.54300 26.08100
C  1.76400 10.74700 25.27400
C  1.83100 11.88100 26.14300
C  1.79100 11.36800 27.48100
C  1.75300 9.97700 27.38600
C  1.86600 13.34900 25.65300
C  1.96700 11.75600 28.91500
O  2.06300 12.82100 29.47500
C  1.97600 10.39300 29.70600
C  3.27300 10.40500 30.52200
O  4.46300 10.16100 30.23500
O  2.91100 10.91100 31.73900
C  3.86800 10.96900 32.81000
H  1.46900 3.63100 28.03900
H  0.33800 5.51300 21.83600
H  1.65200 11.61200 23.37500
H  2.83700 7.41700 30.58800
H  1.14100 5.03500 30.17100
H  3.91600 5.63700 30.71400
H  3.87200 4.79700 29.20400
H  3.13800 4.02200 30.64700
H  -0.01600 6.72000 30.93500
H  0.17600 8.41700 30.51600
H  0.19200 7.73100 33.02100
H  1.17300 9.05900 32.39800
H  -0.01000 1.23800 25.88400
H  1.11000 1.78900 27.03000
H  1.69800 1.20300 25.52400
H  1.46600 0.76900 22.88000
H  0.14900 0.77300 21.90600
H  -0.24400 1.03800 23.58800
H  0.02500 7.78600 20.79100
H  1.51000 10.10500 21.13800
H  2.27900 6.51900 20.40000
H  3.12400 8.03400 20.95600
H  1.94500 8.03900 19.60700
H  -1.04100 10.26900 22.59000
H  -1.33600 9.52900 21.04100
H  -1.24600 11.72300 20.07700
H  0.27300 12.05500 21.00500
H  -1.28700 12.18800 21.73800
H  1.58100 14.01500 26.46700
H  1.02900 13.28500 24.95700
H  2.77900 13.69600 25.16900
H  1.12600 10.41100 30.38800
H  3.30000 10.38400 33.53300
H  3.99500 11.96100 33.24200
H  4.84900 10.60100 32.51000

