79

Mg 25.33700 1.32600 29.17800
C  27.41100 1.34500 32.13500
C  22.60000 1.35100 31.27400
C  23.52000 1.35300 26.43600
C  28.29500 0.73900 27.28400
N  25.08100 1.37200 31.47200
C  26.06200 1.55000 32.45800
C  25.40000 1.77700 33.79800
C  23.83800 1.61300 33.47800
C  23.83500 1.36300 31.99400
C  23.13800 0.37900 34.19200
C  25.72800 3.12700 34.48500
C  26.66100 3.10300 35.68300
H  26.20800 3.89200 36.87600
N  23.39200 1.26000 28.86500
C  22.39500 1.31600 29.82800
C  21.10500 1.36200 29.15500
C  21.28200 1.29000 27.77100
C  22.80700 1.36100 27.63300
C  19.81500 1.44400 29.99700
C  20.23900 1.37200 26.64200
O  20.54300 1.34000 25.42800
C  18.81500 1.45200 26.86700
N  25.85700 1.14200 27.16700
C  24.88000 1.32400 26.20100
C  25.54400 1.35000 24.75300
C  27.07900 1.09200 25.05200
C  27.13900 1.01800 26.56900
C  25.10700 0.36200 23.66800
C  27.93100 2.18100 24.31900
C  27.86100 3.60200 24.97300
N  27.39400 1.09100 29.60500
C  28.45200 0.84900 28.71800
C  29.69100 0.67200 29.48600
C  29.37700 0.85400 30.90900
C  27.98000 1.11700 30.83800
C  31.09800 0.44600 28.89800
C  29.81800 0.94800 32.23000
O  30.91800 0.76500 32.66200
C  28.60300 1.26900 33.14500
C  28.47300 0.20200 34.17200
O  27.93500 -0.89900 34.03900
O  29.02700 0.66300 35.31200
C  28.92000 -0.18600 36.46600
H  21.74700 1.44600 31.94900
H  22.88600 1.30600 25.54800
H  29.18800 0.44300 26.72900
H  25.64200 0.99300 34.51500
H  23.29000 2.54100 33.64400
H  22.09200 0.62100 34.37600
H  23.69700 0.36100 35.12700
H  23.06800 -0.54500 33.61800
H  24.80200 3.60500 34.80700
H  26.25900 3.63700 33.68200
H  27.54700 3.62500 35.32200
H  26.95800 2.11400 36.03200
H  18.86500 1.19600 29.52400
H  19.74800 2.42800 30.46100
H  19.87900 0.79700 30.87100
H  18.75000 2.42700 27.34800
H  18.50500 0.64200 27.52700
H  18.25200 1.49100 25.93400
H  25.34300 2.33700 24.33700
H  27.33300 0.09500 24.69100
H  24.44600 -0.37800 24.11900
H  25.98000 -0.14600 23.26000
H  24.49600 0.76000 22.85800
H  27.58600 2.21300 23.28600
H  28.95300 1.80200 24.33100
H  28.80600 3.90300 25.42300
H  27.03500 3.52100 25.68000
H  27.53100 4.44200 24.36200
H  31.26400 0.94200 27.94200
H  31.29500 -0.62300 28.81300
H  31.89700 0.79300 29.55400
H  28.74000 2.26300 33.57100
H  28.03300 0.18700 36.97800
H  29.74600 -0.17800 37.17700
H  28.76300 -1.26000 36.36900

