79

Mg 6.97900 53.33100 41.45500
C  6.32900 49.77200 41.22000
C  10.10100 52.65700 40.36300
C  7.19700 56.61500 40.94100
C  3.52800 53.68600 42.23100
N  7.97300 51.45000 40.70800
C  7.65700 50.12200 40.86600
C  8.95600 49.18500 40.69500
C  10.07400 50.24700 40.59000
C  9.34900 51.54100 40.58500
C  11.09700 50.15300 41.80900
C  8.92600 48.22800 39.38600
C  8.79600 48.94500 38.03000
H  7.61900 48.58200 37.15500
N  8.44300 54.44400 40.69100
C  9.73000 54.04200 40.36600
C  10.50800 55.20300 40.06700
C  9.64700 56.30500 40.19700
C  8.33700 55.80800 40.56400
C  11.95300 55.11600 39.87300
C  10.11000 57.71800 40.05800
O  11.28300 57.93100 39.75700
C  9.28700 58.93100 40.20000
N  5.57300 54.95000 41.43200
C  5.97700 56.25900 41.32500
C  4.75900 57.20000 41.58800
C  3.58200 56.13700 41.71800
C  4.26000 54.79300 41.83300
C  4.96400 58.20000 42.71200
C  2.65900 56.17100 40.37200
C  1.05000 56.19500 40.41300
N  5.30800 52.06900 41.79700
C  3.96100 52.34400 42.12300
C  3.25400 51.14100 42.47600
C  4.16900 50.12500 42.17600
C  5.37300 50.71700 41.66900
C  1.81900 51.03800 42.78800
C  4.25400 48.64600 42.05000
O  3.37600 47.81500 42.20400
C  5.70000 48.37900 41.47600
C  5.39700 47.54800 40.23400
O  5.24000 47.85200 39.08800
O  5.39100 46.26100 40.64700
C  5.32200 45.22500 39.69200
H  11.17500 52.48800 40.25900
H  7.30500 57.69800 40.84600
H  2.53200 53.91400 42.61700
H  9.09700 48.61200 41.61200
H  10.63700 50.07900 39.67200
H  12.03900 49.82100 41.37200
H  10.68000 49.57800 42.63500
H  11.26700 51.15700 42.19800
H  8.11500 47.51700 39.54800
H  9.91000 47.77100 39.27600
H  9.65500 48.83600 37.36900
H  8.71500 50.00500 38.27400
H  12.12400 55.55600 38.89100
H  12.22800 54.06200 39.89200
H  12.58000 55.60500 40.61900
H  8.48300 58.80700 39.47500
H  9.89000 59.79400 39.91900
H  8.96700 59.05400 41.23500
H  4.72500 57.72700 40.63500
H  3.00200 56.17800 42.63900
H  5.20600 59.16800 42.27400
H  5.87600 57.86000 43.20300
H  4.05300 58.23000 43.30900
H  2.89600 55.46100 39.58000
H  2.85800 57.15700 39.95300
H  0.79200 57.21000 40.71400
H  0.71400 55.52700 41.20700
H  0.56900 55.88300 39.48600
H  1.60100 50.35400 43.60800
H  1.40300 50.60700 41.87700
H  1.29700 51.95500 43.06000
H  6.25300 47.83500 42.24200
H  5.87200 44.32000 39.95000
H  5.75100 45.55700 38.74700
H  4.28300 44.90400 39.62100

