79

Mg 24.16500 -6.76100 47.40100
C  26.69500 -4.52600 46.34000
C  22.07300 -5.34800 45.22000
C  22.11900 -9.45800 47.86600
C  26.68900 -8.56600 49.14900
N  24.43000 -5.22500 45.87800
C  25.45900 -4.38800 45.66800
C  25.20400 -3.35300 44.65200
C  23.63300 -3.43600 44.46800
C  23.31500 -4.74800 45.21700
C  22.77800 -2.20000 44.75500
C  26.01800 -3.57800 43.31600
C  26.47400 -2.32600 42.53800
H  25.74000 -1.96000 41.21400
N  22.30500 -7.29300 46.77300
C  21.62700 -6.54200 45.87100
C  20.37300 -7.23400 45.51700
C  20.32500 -8.37200 46.30000
C  21.65800 -8.47300 47.02400
C  19.41200 -6.80200 44.49100
C  19.08600 -9.29200 46.33200
O  18.04900 -8.95300 45.82800
C  18.99300 -10.59000 47.10300
N  24.47300 -8.89100 48.17800
C  23.35700 -9.65400 48.47100
C  23.66700 -10.83900 49.37300
C  25.12100 -10.53400 49.78700
C  25.51400 -9.32500 48.90100
C  22.57500 -11.11700 50.47700
C  26.12700 -11.77300 49.73600
C  26.85800 -11.95900 51.07500
N  26.20700 -6.54500 47.81500
C  27.07400 -7.28500 48.63000
C  28.40600 -6.59300 48.77600
C  28.27200 -5.47600 47.90300
C  26.97300 -5.52100 47.29300
C  29.59900 -7.02600 49.64700
C  28.87600 -4.23400 47.34300
O  29.87200 -3.68200 47.65300
C  27.95400 -3.74100 46.22100
C  27.64000 -2.28800 46.42600
O  26.96900 -1.77700 47.30200
O  28.27100 -1.56200 45.45900
C  28.30600 -0.09900 45.62600
H  21.36500 -4.82700 44.57300
H  21.38900 -10.24100 48.08100
H  27.44500 -9.05000 49.77100
H  25.52000 -2.36400 44.98200
H  23.31800 -3.79800 43.49000
H  23.34100 -1.51000 45.38400
H  21.92100 -2.50200 45.35700
H  22.38800 -1.71000 43.86200
H  25.39600 -4.27200 42.75000
H  26.89100 -4.21900 43.43900
H  27.53200 -2.42900 42.29600
H  26.39900 -1.48000 43.22200
H  18.52800 -6.33500 44.92600
H  19.18000 -7.63000 43.82100
H  19.87100 -6.11700 43.77800
H  18.01500 -10.99100 46.83600
H  19.09500 -10.24200 48.13100
H  19.74700 -11.31400 46.79500
H  23.55900 -11.75600 48.79500
H  25.22900 -10.03600 50.75100
H  21.82600 -10.32700 50.44700
H  23.21300 -11.15900 51.36000
H  21.99000 -12.03000 50.36600
H  26.84500 -11.67500 48.92200
H  25.63200 -12.71900 49.51600
H  26.30700 -12.75700 51.57100
H  26.81000 -11.03800 51.65700
H  27.88300 -12.21000 50.80200
H  29.95300 -6.37200 50.44400
H  30.46800 -7.24000 49.02500
H  29.24400 -7.95600 50.09000
H  28.47700 -3.89800 45.27800
H  28.03500 0.18200 46.64300
H  27.54700 0.36300 44.99400
H  29.32000 0.25700 45.44300

