79

Mg -12.16900 15.14500 42.76600
C  -8.82400 13.95800 42.37500
C  -11.18400 17.75600 40.72300
C  -15.32300 15.92500 42.51000
C  -12.98400 12.11100 44.27800
N  -10.22100 15.73800 41.62200
C  -8.96600 15.20600 41.70200
C  -7.98600 15.95300 40.89700
C  -8.71800 17.33700 40.72300
C  -10.17900 16.92200 41.03600
C  -8.10600 18.54100 41.46100
C  -7.56500 15.25400 39.56300
C  -6.09100 14.91700 39.37900
H  -5.38400 15.52400 38.18700
N  -13.10700 16.72400 41.77100
C  -12.55200 17.68300 41.04800
C  -13.55300 18.65300 40.70600
C  -14.86500 18.05800 41.08200
C  -14.46200 16.88000 41.85500
C  -13.30600 20.01500 39.97300
C  -16.26200 18.64700 40.80100
O  -16.35300 19.76000 40.17800
C  -17.57100 18.04700 41.35600
N  -13.85800 14.23500 43.42500
C  -15.08100 14.72700 43.19000
C  -16.24900 13.88700 43.87000
C  -15.48800 12.62700 44.44600
C  -14.03000 12.96300 44.00700
C  -16.96600 14.80800 44.99000
C  -15.86600 11.25700 43.73300
C  -17.03900 10.61700 44.47000
N  -11.11900 13.44600 43.30800
C  -11.57200 12.24600 43.89600
C  -10.47900 11.31200 44.09700
C  -9.40600 11.95100 43.45400
C  -9.85100 13.25800 43.04100
C  -10.54500 9.99400 44.76200
C  -7.99300 11.71300 43.09300
O  -7.21500 10.78100 43.31100
C  -7.61200 13.00100 42.34200
C  -6.36300 13.54000 42.84900
O  -6.28000 14.31200 43.84100
O  -5.27300 13.19800 42.12000
C  -4.00600 13.81100 42.61500
H  -10.85900 18.60900 40.12300
H  -16.36800 16.20000 42.35000
H  -13.20600 11.18900 44.81900
H  -7.17900 16.05800 41.62200
H  -8.74200 17.66100 39.68300
H  -8.06900 19.46500 40.88400
H  -7.13300 18.30000 41.89100
H  -8.72100 18.62400 42.35700
H  -7.89700 15.89900 38.74900
H  -8.22200 14.39100 39.45500
H  -5.95700 13.83900 39.29100
H  -5.58000 15.23900 40.28700
H  -13.78800 20.84900 40.48200
H  -13.47900 19.93800 38.90000
H  -12.23000 20.11500 40.12000
H  -17.47800 18.03600 42.44200
H  -17.62400 17.11900 40.78600
H  -18.45800 18.65700 41.19100
H  -16.90200 13.61800 43.04000
H  -15.61700 12.61000 45.52800
H  -16.93300 14.33900 45.97400
H  -18.03900 14.88700 44.81800
H  -16.60300 15.83300 45.05300
H  -15.07400 10.52000 43.60100
H  -16.17600 11.43400 42.70300
H  -17.76500 10.37300 43.69400
H  -17.49700 11.22900 45.24800
H  -16.70900 9.61900 44.75700
H  -11.52900 9.69000 45.12000
H  -9.75700 9.94000 45.51300
H  -10.29700 9.20600 44.05100
H  -7.52600 12.76000 41.28200
H  -3.58400 13.09900 43.32500
H  -4.14300 14.81400 43.01700
H  -3.24200 13.96300 41.85200

