79

Mg 9.13100 47.65400 25.10200
C  6.82300 47.86100 27.73600
C  11.59100 47.74900 27.59100
C  11.22700 47.58500 22.68000
C  6.44400 47.88900 22.87100
N  9.12600 47.82800 27.41200
C  8.12300 47.72600 28.27100
C  8.58700 47.64800 29.74700
C  10.03900 48.10900 29.54900
C  10.28800 47.76900 28.07900
C  10.20500 49.60100 30.02600
C  8.36300 46.25200 30.42700
C  8.92900 46.08800 31.85500
H  7.95800 46.14100 33.02200
N  11.13200 47.64000 25.14900
C  11.99200 47.59600 26.23000
C  13.39000 47.50500 25.71000
C  13.29800 47.44800 24.25900
C  11.83500 47.50900 23.96100
C  14.62900 47.55500 26.65700
C  14.35200 47.18400 23.29400
O  14.15900 47.10800 22.11300
C  15.76300 47.24200 23.77400
N  8.89500 47.61600 23.07700
C  9.93500 47.68500 22.28100
C  9.54500 48.07400 20.84300
C  8.05200 47.81100 20.89400
C  7.74700 47.71000 22.39300
C  9.87000 49.56500 20.50600
C  7.66700 46.43800 20.31600
C  6.19400 46.41900 19.83900
N  7.10400 48.05900 25.25200
C  6.09200 48.04800 24.25500
C  4.80800 48.13800 24.81000
C  5.02500 48.15600 26.19400
C  6.38400 47.98000 26.41900
C  3.51300 48.18600 24.10000
C  4.35400 48.17900 27.49800
O  3.15100 48.37000 27.82900
C  5.52000 47.94400 28.56400
C  5.29500 46.71000 29.29200
O  5.58100 45.65700 28.83500
O  4.62100 46.95000 30.50200
C  4.22300 45.75900 31.32600
H  12.40100 47.73400 28.32400
H  11.98200 47.56900 21.89100
H  5.64300 48.06600 22.15100
H  8.06100 48.37900 30.36100
H  10.65400 47.54500 30.25100
H  10.11100 49.58500 31.11200
H  9.54300 50.36400 29.61700
H  11.19900 49.90000 29.69400
H  8.93200 45.57200 29.79300
H  7.37900 45.79400 30.51700
H  9.74400 46.78100 32.06200
H  9.45900 45.13600 31.88500
H  14.34200 47.68400 27.70100
H  15.21700 48.46800 26.56000
H  15.37200 46.76800 26.52900
H  16.40900 47.21800 22.89600
H  15.90300 46.39500 24.44500
H  15.84700 48.17000 24.33900
H  10.04300 47.34400 20.20500
H  7.53700 48.68400 20.49300
H  9.54200 49.90600 19.52400
H  10.93000 49.78100 20.63500
H  9.45300 50.19300 21.29300
H  7.66300 45.60600 21.02000
H  8.29800 46.17900 19.46500
H  6.31200 46.17600 18.78300
H  5.66100 47.36900 19.87400
H  5.70700 45.64200 20.42800
H  3.26600 47.41400 23.37100
H  3.28100 49.16900 23.69000
H  2.73100 48.08000 24.85100
H  5.58300 48.79600 29.24000
H  3.14300 45.80100 31.46000
H  4.67100 45.81500 32.31800
H  4.35700 44.79200 30.84000

