79

Mg 16.33600 52.87100 26.84800
C  18.23700 51.57200 29.54900
C  13.94800 53.96000 29.29100
C  14.68800 54.39800 24.42200
C  18.46600 51.18300 24.64800
N  16.16400 52.79200 29.13200
C  17.16100 52.33500 30.03600
C  16.75200 52.66100 31.47400
C  15.24800 53.18600 31.32800
C  15.12100 53.32000 29.80400
C  14.11000 52.32400 31.90000
C  17.70800 53.66300 32.11200
C  17.65800 53.69700 33.61300
H  16.48400 53.04000 34.29900
N  14.56500 54.04100 26.82800
C  13.70900 54.29200 27.88200
C  12.47900 54.99300 27.41700
C  12.64200 55.02000 26.03300
C  14.01200 54.49000 25.70300
C  11.36200 55.52100 28.29100
C  11.80500 55.64000 24.97800
O  12.12700 55.69300 23.80000
C  10.34700 56.23100 25.30700
N  16.61300 52.83600 24.89200
C  15.91400 53.67000 24.07300
C  16.31900 53.37400 22.60800
C  17.66100 52.66500 22.71000
C  17.53300 52.14200 24.17100
C  15.27300 52.48200 21.92000
C  18.93100 53.68000 22.67500
C  20.23700 53.02300 22.20700
N  17.93200 51.53300 26.99100
C  18.70000 50.89000 26.01700
C  19.74400 50.08600 26.70300
C  19.67000 50.41700 28.06900
C  18.50400 51.19300 28.20600
C  20.72000 49.22100 25.89900
C  20.18900 50.16000 29.37200
O  21.17700 49.53600 29.75600
C  19.33300 50.95300 30.38000
C  18.65400 50.06700 31.32300
O  17.81800 49.17300 31.08800
O  19.06500 50.40600 32.54100
C  18.56100 49.63900 33.67300
H  13.29400 54.27900 30.10500
H  14.15000 54.87000 23.59700
H  19.28400 50.78600 24.04300
H  16.80200 51.74000 32.05500
H  15.23000 54.12800 31.87600
H  13.58900 52.85400 32.69800
H  14.52600 51.37700 32.24500
H  13.41000 52.08800 31.09800
H  17.39600 54.64300 31.75000
H  18.71700 53.30500 31.90800
H  17.52400 54.77100 33.74100
H  18.62400 53.46200 34.06100
H  10.52700 54.88000 28.00800
H  11.13000 56.54600 28.00200
H  11.48600 55.49000 29.37400
H  9.78300 55.84300 24.45900
H  10.42400 57.31700 25.36700
H  10.14400 55.62500 26.19000
H  16.43400 54.34500 22.12700
H  17.81300 51.76700 22.11200
H  15.79400 51.81500 21.23300
H  14.62600 53.20300 21.42000
H  14.72200 51.91600 22.67100
H  19.08300 54.22200 23.60800
H  18.74600 54.42200 21.89700
H  20.46600 53.54000 21.27500
H  20.09600 51.97300 21.95100
H  21.01400 53.29600 22.92200
H  21.53000 49.82300 25.48900
H  20.14200 48.79400 25.07900
H  21.09400 48.40500 26.51800
H  19.79000 51.78800 30.91000
H  17.48800 49.49300 33.54600
H  18.76200 50.14600 34.61700
H  18.97100 48.63700 33.79600

