79

Mg 24.30300 -5.61100 45.67200
C  26.33800 -3.30800 44.06000
C  21.64000 -4.34700 43.73100
C  22.48200 -8.38900 46.25200
C  27.09700 -7.16500 46.98100
N  24.06600 -4.13300 43.84700
C  25.03000 -3.21200 43.59900
C  24.38900 -2.09500 42.68300
C  22.88000 -2.46000 42.64400
C  22.82200 -3.71900 43.49800
C  21.90100 -1.34400 43.13500
C  25.00900 -2.18400 41.24700
C  25.60200 -0.87300 40.63200
H  25.63400 -0.78100 39.06400
N  22.37000 -6.21700 45.15000
C  21.42300 -5.53800 44.44200
C  20.11800 -6.25400 44.47300
C  20.30900 -7.37500 45.34300
C  21.75600 -7.35100 45.65000
C  18.99400 -5.71700 43.64300
C  19.25800 -8.41400 45.67600
O  18.09500 -8.29800 45.24700
C  19.60700 -9.58800 46.50200
N  24.78700 -7.60700 46.29900
C  23.80600 -8.50100 46.61300
C  24.39800 -9.72700 47.28400
C  25.92200 -9.33800 47.38300
C  25.99200 -8.05400 46.78300
C  23.81300 -10.17200 48.65900
C  26.88000 -10.37800 46.83500
C  27.81100 -11.03400 47.84600
N  26.27800 -5.21100 45.79100
C  27.29000 -5.84900 46.48800
C  28.50100 -5.06200 46.43900
C  28.20200 -4.07400 45.48300
C  26.84700 -4.25300 45.04800
C  29.79000 -5.33000 47.10600
C  28.75300 -2.91300 44.80400
O  29.85600 -2.33200 44.84400
C  27.52800 -2.39200 43.84600
C  27.21700 -1.00300 44.24000
O  26.52200 -0.66100 45.13000
O  27.72200 -0.17300 43.18200
C  27.51000 1.27000 43.29200
H  20.77000 -3.91400 43.23300
H  21.96300 -9.32000 46.48600
H  27.93200 -7.64600 47.49500
H  24.56900 -1.09100 43.06700
H  22.51900 -2.65900 41.63500
H  21.50800 -0.81700 42.26600
H  22.53100 -0.62200 43.65500
H  21.14800 -1.69000 43.84300
H  24.61900 -2.73100 40.38800
H  25.93500 -2.73900 41.40000
H  26.62100 -0.85000 41.01700
H  25.13200 0.04400 40.98700
H  19.30800 -5.48100 42.62600
H  18.61600 -4.85700 44.19700
H  18.17500 -6.43500 43.65000
H  20.12100 -9.25800 47.40500
H  20.19800 -10.34800 45.99200
H  18.63400 -9.97100 46.81000
H  24.26900 -10.49900 46.52600
H  26.17600 -9.03600 48.39900
H  23.60200 -11.24100 48.68500
H  23.02500 -9.48600 48.97000
H  24.54100 -10.11700 49.46900
H  27.42300 -9.98600 45.97500
H  26.30700 -11.18700 46.38300
H  28.78700 -11.00800 47.36100
H  27.64800 -12.07500 48.12700
H  27.78900 -10.42500 48.74900
H  30.25800 -6.27600 46.83300
H  29.63600 -5.45600 48.17700
H  30.52300 -4.58500 46.79800
H  28.05300 -2.44000 42.89100
H  28.46000 1.63000 42.89700
H  27.36200 1.51600 44.34400
H  26.72700 1.54100 42.58400

