79

Mg 5.68100 54.70200 40.79800
C  5.10100 51.17200 40.89300
C  8.81300 54.18600 39.44300
C  5.83400 58.03400 39.91200
C  2.28600 54.98100 41.60200
N  6.71100 52.91100 40.12300
C  6.33800 51.57400 40.37800
C  7.53700 50.66100 40.06000
C  8.80400 51.65300 39.92900
C  8.10400 53.06000 39.93400
C  9.99800 51.55800 40.98500
C  7.47200 49.78300 38.74000
C  6.68400 50.29800 37.58700
H  7.46200 50.60100 36.22600
N  7.18700 55.93200 39.85500
C  8.38100 55.53000 39.39500
C  9.09100 56.63600 38.84500
C  8.20800 57.78800 38.90500
C  7.00400 57.31700 39.61000
C  10.41800 56.62900 38.12700
C  8.55700 59.13800 38.26700
O  9.61200 59.40800 37.62700
C  7.65800 60.35900 38.34500
N  4.25200 56.23700 40.65100
C  4.63400 57.55200 40.41100
C  3.38400 58.47100 40.67000
C  2.28300 57.52300 41.17000
C  2.96300 56.16200 41.16500
C  3.69300 59.58400 41.66900
C  0.94700 57.42000 40.36400
C  -0.32300 57.51200 41.19500
N  4.05700 53.41500 41.33100
C  2.80000 53.70100 41.70300
C  2.03100 52.50800 42.09400
C  3.00400 51.47100 41.86000
C  4.12900 52.09000 41.26000
C  0.65000 52.40300 42.68100
C  3.21400 50.05100 41.92200
O  2.53600 49.16500 42.42500
C  4.57400 49.80400 41.10300
C  4.32200 49.09700 39.90000
O  3.79400 49.60600 38.91300
O  4.64200 47.76500 40.03900
C  4.40100 46.91100 38.91900
H  9.88300 53.98200 39.36500
H  5.84900 59.10200 39.68200
H  1.27000 55.06600 41.99400
H  7.72200 50.05400 40.94700
H  9.25200 51.46200 38.95400
H  10.08900 52.37700 41.69800
H  10.92100 51.50900 40.40600
H  9.91300 50.65200 41.58300
H  7.12400 48.80400 39.07000
H  8.50800 49.80000 38.40200
H  6.30600 51.24400 37.97400
H  5.87000 49.59400 37.41800
H  10.29700 56.82200 37.06100
H  10.99800 55.71900 38.27600
H  11.03300 57.44900 38.49800
H  8.04800 61.23200 37.82200
H  7.52700 60.72000 39.36500
H  6.71100 60.21400 37.82500
H  3.13400 58.78100 39.65500
H  2.14300 57.77300 42.22200
H  3.19400 59.45200 42.63000
H  3.32800 60.43200 41.08900
H  4.74200 59.76400 41.90100
H  1.01900 56.46700 39.84000
H  0.76300 58.21600 39.64300
H  -0.77300 58.43800 40.83500
H  -0.06900 57.49300 42.25500
H  -0.98500 56.66100 41.03800
H  0.80000 52.01400 43.68800
H  0.16700 51.54400 42.21500
H  0.09400 53.33000 42.53900
H  5.28300 49.25500 41.72200
H  4.53800 45.89700 39.29400
H  5.12000 46.98300 38.10200
H  3.39900 46.93800 38.49100

