79

Mg 42.56200 41.30800 26.02400
C  41.90600 43.32600 28.74400
C  44.05700 39.06300 28.36300
C  43.46100 39.15300 23.55100
C  41.81400 43.66100 23.72300
N  43.07100 41.32100 28.33700
C  42.50300 42.17700 29.25600
C  42.74800 41.73200 30.71800
C  43.58700 40.48300 30.45100
C  43.59700 40.23700 28.98100
C  45.09400 40.48300 30.97400
C  41.40300 41.44000 31.38600
C  40.87900 42.48200 32.46400
H  41.79200 42.76000 33.73000
N  43.39500 39.31700 26.02200
C  43.97400 38.66100 27.02300
C  44.37600 37.36600 26.54800
C  44.08100 37.29500 25.17000
C  43.54700 38.62500 24.84600
C  44.91300 36.29800 27.52600
C  44.36800 36.12500 24.20300
O  43.97000 36.13700 23.08800
C  44.92800 34.79100 24.65000
N  42.84400 41.42300 23.92300
C  43.10600 40.44200 23.14200
C  42.92700 40.74600 21.60900
C  42.30800 42.16700 21.69200
C  42.28500 42.45800 23.20500
C  44.08100 40.54000 20.72800
C  40.93800 42.27800 20.94800
C  39.69400 41.51400 21.60500
N  42.09600 43.13000 26.17700
C  41.82600 44.01000 25.07000
C  41.30800 45.22000 25.62200
C  41.37700 45.04000 27.07800
C  41.78200 43.69500 27.33700
C  40.87800 46.50500 24.93000
C  41.10600 45.58800 28.30700
O  40.71200 46.75200 28.49500
C  41.38800 44.59300 29.42600
C  42.51600 45.11900 30.22600
O  43.63300 45.24000 29.83800
O  42.00300 45.54400 31.36800
C  42.97700 46.18500 32.20400
H  44.51400 38.45300 29.14500
H  43.63300 38.37500 22.80400
H  41.32100 44.39000 23.07700
H  43.29000 42.56700 31.16200
H  43.10500 39.62700 30.92300
H  45.19000 39.50400 31.44300
H  45.21800 41.24500 31.74400
H  45.85200 40.54000 30.19300
H  41.45600 40.49600 31.93000
H  40.64900 41.30400 30.61100
H  39.97600 41.92200 32.70900
H  40.55700 43.42000 32.01300
H  45.50700 36.78100 28.30100
H  45.55100 35.58500 27.00400
H  44.18600 35.70200 28.07900
H  44.70400 34.00800 23.92600
H  44.40600 34.49600 25.56100
H  46.00300 34.96900 24.68600
H  42.10100 40.17500 21.18500
H  42.95000 42.84300 21.12700
H  44.89400 41.13100 21.15000
H  43.87000 40.80100 19.69100
H  44.37800 39.49100 20.71700
H  41.08100 41.91900 19.92900
H  40.73400 43.34600 21.02900
H  39.39000 40.65000 21.01300
H  38.84600 42.15600 21.84000
H  40.00400 41.15300 22.58600
H  40.41400 46.48000 23.94400
H  41.79400 47.09400 24.98200
H  40.22400 47.04200 25.61700
H  40.50300 44.51000 30.05600
H  43.63600 46.89700 31.70700
H  43.63800 45.36600 32.48500
H  42.61300 46.57200 33.15600

