79

Mg 1.94400 41.64700 24.97600
C  2.57900 41.98300 28.44700
C  -1.14000 40.65500 25.83900
C  1.43700 40.90700 21.79800
C  5.31100 42.40700 24.39600
N  0.79200 41.47900 26.95100
C  1.28400 41.68500 28.23000
C  0.18700 41.58000 29.28300
C  -1.02600 40.92500 28.44000
C  -0.43200 40.97500 26.98000
C  -1.51800 39.47800 28.92600
C  -0.10800 42.98600 29.82600
C  -0.13600 43.04900 31.39500
H  -0.87500 41.91300 32.17200
N  0.31800 41.03400 23.93400
C  -0.84800 40.69300 24.44600
C  -1.75800 40.29100 23.36500
C  -1.04900 40.25500 22.15800
C  0.27700 40.69600 22.54600
C  -3.24400 40.09000 23.57700
C  -1.50600 39.89700 20.78000
O  -0.69400 39.84200 19.84100
C  -2.98000 39.68500 20.43700
N  3.18600 41.68100 23.35600
C  2.72600 41.34300 22.13300
C  3.86600 41.57800 21.04900
C  5.02300 42.21500 21.85500
C  4.47100 42.14500 23.25400
C  4.37200 40.30500 20.21400
C  5.36200 43.69200 21.45500
C  5.86000 43.81300 20.02000
N  3.66000 42.14800 26.10600
C  4.94100 42.46900 25.72700
C  5.74300 42.78300 26.93100
C  4.86400 42.53200 27.97200
C  3.63200 42.24400 27.49800
C  7.19300 43.15600 26.93700
C  4.77900 42.55700 29.44600
O  5.59200 42.59500 30.36800
C  3.30700 42.08100 29.79200
C  3.28600 40.78400 30.49400
O  3.90700 39.75900 30.15300
O  2.45600 40.85500 31.54000
C  2.26400 39.56300 32.27600
H  -2.14300 40.27900 26.05400
H  1.45700 40.70700 20.72400
H  6.35400 42.65200 24.18100
H  0.40200 40.78900 30.00100
H  -1.89600 41.57500 28.53300
H  -2.45400 39.67400 29.45000
H  -0.76700 39.01500 29.56700
H  -1.71500 38.88900 28.03000
H  -1.04100 43.43100 29.48000
H  0.78600 43.51900 29.50200
H  -0.63600 43.98000 31.65900
H  0.86900 43.11000 31.81200
H  -3.84500 40.82400 23.03900
H  -3.49000 40.00700 24.63500
H  -3.59100 39.14300 23.16400
H  -3.25100 38.68900 20.78400
H  -3.01300 39.66200 19.34800
H  -3.64100 40.46900 20.80600
H  3.56900 42.28300 20.27300
H  5.89400 41.57200 21.73400
H  4.16100 39.39600 20.77700
H  5.43700 40.39400 19.99600
H  3.99800 40.14800 19.20200
H  6.09600 44.13700 22.12700
H  4.48600 44.29900 21.68300
H  5.04100 44.37100 19.56500
H  5.99600 42.86900 19.49300
H  6.67700 44.51100 19.83700
H  7.74800 42.37900 27.46200
H  7.38100 44.02100 27.57200
H  7.58700 43.16800 25.92000
H  2.85600 42.83300 30.44100
H  2.94400 39.38600 33.10900
H  2.42300 38.67200 31.67000
H  1.29000 39.53900 32.76500

