79

Mg 24.48900 -4.62400 45.70600
C  26.62700 -2.24100 44.46200
C  22.00900 -3.43100 43.67800
C  22.73100 -7.31200 46.55100
C  27.20300 -5.88400 47.67100
N  24.31000 -2.94200 44.33800
C  25.34000 -2.15300 43.87600
C  24.88100 -1.31100 42.65400
C  23.29600 -1.43700 42.76800
C  23.15600 -2.69500 43.65200
C  22.62400 -0.19600 43.41100
C  25.39900 -1.81700 41.31100
C  26.15500 -0.85500 40.34300
H  25.67500 -0.82900 38.84600
N  22.56800 -5.26100 45.21400
C  21.74100 -4.65700 44.35100
C  20.60800 -5.50000 44.10300
C  20.70300 -6.59200 44.97200
C  21.98500 -6.39200 45.66700
C  19.49900 -5.11700 43.06200
C  19.64900 -7.67800 45.15000
O  18.61000 -7.71100 44.49800
C  19.80000 -8.70800 46.26000
N  24.99400 -6.53800 46.82400
C  24.00600 -7.39000 47.10000
C  24.53500 -8.49200 48.01500
C  25.73200 -7.78200 48.72000
C  26.07400 -6.68800 47.68200
C  23.61500 -9.14500 49.04800
C  26.92600 -8.69500 49.05300
C  27.21700 -8.82900 50.55400
N  26.46500 -4.13800 46.13300
C  27.45600 -4.71400 46.89600
C  28.61000 -3.80800 46.84900
C  28.35300 -2.83300 45.90900
C  27.04500 -3.18900 45.48500
C  29.93700 -3.91800 47.63400
C  28.90300 -1.62800 45.22300
O  29.93700 -0.95400 45.35400
C  27.84200 -1.40000 44.06100
C  27.58300 -0.00400 44.00500
O  26.99100 0.66600 44.86000
O  28.17300 0.50700 42.87100
C  28.15600 1.99100 42.75900
H  21.28600 -2.94700 43.01800
H  22.22000 -8.23900 46.81600
H  28.04800 -6.16100 48.30400
H  25.29600 -0.30800 42.75300
H  22.73400 -1.51400 41.83700
H  23.28900 0.66800 43.40800
H  22.31700 -0.44800 44.42600
H  21.71900 0.12000 42.89300
H  24.56800 -2.21000 40.72500
H  26.04900 -2.63900 41.61300
H  27.20000 -1.16800 40.34300
H  26.00700 0.13900 40.76400
H  19.05800 -5.99100 42.58300
H  20.01700 -4.78000 42.16400
H  18.82400 -4.28500 43.26500
H  20.15800 -8.22300 47.16800
H  20.58200 -9.44500 46.07500
H  18.88900 -9.29600 46.37300
H  24.88100 -9.31700 47.39200
H  25.50200 -7.24800 49.64200
H  23.93900 -9.03500 50.08300
H  23.44700 -10.21000 48.89300
H  22.64400 -8.66100 48.94000
H  27.81400 -8.62000 48.42500
H  26.57500 -9.68100 48.74900
H  28.26700 -9.10800 50.64500
H  26.48100 -9.50900 50.98200
H  27.25300 -7.87700 51.08300
H  29.82700 -4.24800 48.66700
H  30.40600 -2.93600 47.69400
H  30.58500 -4.54600 47.02200
H  28.26700 -1.81200 43.14500
H  28.57800 2.60900 43.55200
H  27.10500 2.25900 42.64500
H  28.62900 2.33400 41.84000

