79

Mg 2.38100 -1.76000 43.82600
C  5.69200 -0.88300 43.25200
C  1.40000 1.00800 42.19100
C  -0.74800 -3.07000 43.60900
C  3.57700 -4.98100 44.93000
N  3.51100 -0.13000 42.82700
C  4.82800 0.09100 42.73900
C  5.17600 1.48600 42.11000
C  3.76100 2.03800 41.78500
C  2.81800 0.99800 42.50700
C  3.43700 3.40900 42.40100
C  6.05700 1.42300 40.82100
C  7.06200 2.57200 40.55500
H  6.81100 3.42000 39.25200
N  0.55000 -1.03200 43.09700
C  0.37300 0.06900 42.41100
C  -1.02600 0.16100 41.97900
C  -1.75400 -0.89700 42.58500
C  -0.64500 -1.75700 43.08100
C  -1.55200 1.34100 41.22100
C  -3.20100 -1.04200 42.58100
O  -3.87700 -0.24100 41.97000
C  -3.90500 -2.20600 43.14200
N  1.54400 -3.84100 44.00200
C  0.22400 -3.98100 44.03700
C  -0.18400 -5.30900 44.64200
C  1.16200 -5.98300 45.12000
C  2.19400 -4.90400 44.63200
C  -1.24100 -5.16100 45.79600
C  1.58600 -7.34300 44.53800
C  2.18400 -8.35000 45.50300
N  4.16900 -2.63400 44.18800
C  4.52300 -3.87900 44.75700
C  5.95600 -3.95400 45.07000
C  6.40300 -2.71300 44.48400
C  5.31500 -2.00700 43.86100
C  6.84700 -4.93800 45.82600
C  7.60000 -1.96800 44.19900
O  8.76600 -2.19400 44.48300
C  7.15800 -0.78900 43.41800
C  7.53300 0.47300 44.07400
O  7.22000 0.71500 45.21600
O  8.19400 1.37700 43.21600
C  8.57700 2.66900 43.86600
H  0.96600 1.86100 41.66500
H  -1.77500 -3.41400 43.74900
H  4.09000 -5.90400 45.20700
H  5.65600 2.15000 42.82900
H  3.56600 2.24300 40.73300
H  2.83900 3.21500 43.29100
H  2.90400 4.09600 41.74300
H  4.41000 3.83900 42.63700
H  5.37100 1.36800 39.97600
H  6.56900 0.46000 40.80400
H  8.09400 2.23400 40.64100
H  6.98300 3.34100 41.32400
H  -2.54000 1.65800 41.55400
H  -1.58500 1.00900 40.18300
H  -0.92900 2.23300 41.28300
H  -3.90000 -2.18200 44.23200
H  -3.49000 -3.16900 42.84300
H  -4.92300 -2.27700 42.76100
H  -0.64400 -5.91700 43.86300
H  1.09400 -6.01100 46.20800
H  -1.03200 -5.61300 46.76500
H  -2.04700 -5.80200 45.43900
H  -1.75900 -4.20200 45.80300
H  2.30300 -7.13400 43.74500
H  0.66400 -7.78000 44.15500
H  1.66000 -9.29400 45.65300
H  2.33800 -7.93400 46.49900
H  3.23400 -8.53800 45.27900
H  7.39500 -5.67200 45.23300
H  6.20800 -5.42400 46.56200
H  7.69000 -4.42100 46.28400
H  7.50700 -0.81000 42.38500
H  9.60700 2.57900 44.21100
H  8.06900 2.78500 44.82300
H  8.32300 3.49600 43.20300

