79

Mg 25.10700 -5.25700 45.90700
C  26.95500 -2.76900 44.40200
C  22.29700 -4.22000 44.07700
C  23.59700 -8.11900 46.87000
C  28.07900 -6.47900 47.54100
N  24.66300 -3.68000 44.43600
C  25.65800 -2.80300 43.94400
C  25.06600 -1.96700 42.84700
C  23.48200 -2.08500 43.17900
C  23.43700 -3.41300 43.96600
C  22.93400 -0.99900 44.12000
C  25.52400 -2.55600 41.45300
C  26.37400 -1.62500 40.52000
H  25.95600 -1.54000 39.02000
N  23.24900 -6.01700 45.54500
C  22.21500 -5.44300 44.82300
C  21.13000 -6.32700 44.80700
C  21.34700 -7.45500 45.56500
C  22.79500 -7.24000 46.04400
C  19.81800 -5.92700 44.18200
C  20.50800 -8.65800 45.75800
O  19.34200 -8.63800 45.35300
C  20.82500 -9.73700 46.66300
N  25.75600 -7.16700 46.94600
C  24.87100 -8.10200 47.26700
C  25.48800 -9.04000 48.30300
C  26.87800 -8.44300 48.62400
C  26.97500 -7.27500 47.62500
C  24.65800 -9.58400 49.58400
C  28.10800 -9.42000 48.63600
C  28.76900 -9.50500 49.97800
N  27.07500 -4.78600 46.03100
C  28.14900 -5.34700 46.72200
C  29.35400 -4.49300 46.48700
C  28.87300 -3.61800 45.48900
C  27.52800 -3.72800 45.35100
C  30.67800 -4.61100 46.99300
C  29.38000 -2.63100 44.57500
O  30.44100 -2.22000 44.43600
C  28.12000 -1.99600 43.83500
C  28.06900 -0.58400 44.16200
O  27.85600 -0.13300 45.27500
O  28.35400 0.20600 43.08700
C  28.85000 1.50600 43.41100
H  21.42100 -3.78800 43.58900
H  23.12300 -9.00000 47.30900
H  28.92600 -6.74500 48.17700
H  25.42600 -0.95800 43.05200
H  22.78700 -2.29400 42.36600
H  22.40600 -0.28100 43.49200
H  23.73500 -0.42200 44.58200
H  22.32500 -1.37800 44.94000
H  24.65000 -2.92000 40.91100
H  26.02100 -3.51900 41.56900
H  27.41800 -1.93300 40.55500
H  26.28600 -0.58700 40.83900
H  19.16300 -6.78900 44.05100
H  19.95400 -5.60300 43.15000
H  19.27600 -5.17600 44.75700
H  19.89700 -10.28300 46.83600
H  21.09600 -9.28600 47.61700
H  21.65000 -10.36000 46.31800
H  25.61900 -9.96700 47.74300
H  26.79800 -8.01100 49.62200
H  25.21300 -9.62200 50.52100
H  24.24200 -10.58200 49.44500
H  23.84700 -8.85600 49.58700
H  28.82300 -9.11300 47.87200
H  27.90100 -10.45800 48.37500
H  28.02200 -9.57800 50.76900
H  29.27000 -8.56300 50.20000
H  29.51700 -10.29700 50.00000
H  31.36400 -3.85400 46.61300
H  30.92500 -5.63000 46.69600
H  30.62600 -4.55400 48.08100
H  28.30200 -2.12600 42.76800
H  28.99800 2.12000 42.52200
H  29.87000 1.37600 43.77400
H  28.27100 2.17200 44.05000

