79

Mg 0.90000 43.56000 25.78100
C  2.99800 43.78000 28.63600
C  -1.68700 42.77700 27.83100
C  -0.87600 42.91700 23.11600
C  3.73100 44.06400 23.82400
N  0.78200 43.10800 27.95500
C  1.64900 43.44500 28.99100
C  0.97400 43.27600 30.36400
C  -0.45500 42.84900 30.00500
C  -0.43500 42.83200 28.48100
C  -0.98700 41.57000 30.71600
C  1.14000 44.47300 31.24000
C  1.55100 44.20800 32.73700
H  1.04400 42.85800 33.27800
N  -1.03700 43.15600 25.50800
C  -1.94500 42.90600 26.51500
C  -3.23600 42.64500 25.93400
C  -3.05300 42.52900 24.47800
C  -1.60900 42.87600 24.29600
C  -4.53600 42.55300 26.76400
C  -4.07100 42.34300 23.32400
O  -3.77400 42.15100 22.16000
C  -5.54900 42.11300 23.62400
N  1.32800 43.62800 23.73400
C  0.45600 43.20900 22.83700
C  1.00900 43.13400 21.44200
C  2.37300 43.94100 21.60300
C  2.52300 43.88100 23.16900
C  1.10400 41.63800 20.83700
C  2.37700 45.39400 21.00600
C  2.57000 45.52900 19.49500
N  2.94300 43.87100 26.12800
C  3.92400 44.14100 25.21600
C  5.21500 44.29900 25.84500
C  4.86700 44.09300 27.21400
C  3.49400 43.92000 27.30500
C  6.47900 44.55800 25.22700
C  5.41700 44.02400 28.53900
O  6.56600 44.11400 28.95200
C  4.23200 44.00100 29.52200
C  4.35200 42.81800 30.39700
O  4.22500 41.67000 29.95600
O  4.86600 43.04800 31.67800
C  5.43800 41.95000 32.45500
H  -2.49700 42.64300 28.55100
H  -1.50100 42.62800 22.26800
H  4.53400 44.39700 23.16400
H  1.51900 42.40300 30.72400
H  -1.16200 43.65800 30.18200
H  -1.22800 40.72700 30.07000
H  -1.82400 41.76400 31.38700
H  -0.19800 41.20200 31.37200
H  0.18900 44.98700 31.38000
H  1.72900 45.30500 30.85500
H  1.15800 45.08200 33.25800
H  2.63900 44.15100 32.72600
H  -4.37000 43.14600 27.66300
H  -4.72300 41.51600 27.04100
H  -5.39100 42.97200 26.23300
H  -5.64200 41.28700 24.32900
H  -6.16600 41.89400 22.75300
H  -5.74800 43.06100 24.12500
H  0.25700 43.66500 20.85700
H  3.19700 43.47300 21.06500
H  0.58200 40.84500 21.37300
H  2.16600 41.40500 20.92100
H  0.70600 41.62800 19.82300
H  3.16800 45.99300 21.45800
H  1.38800 45.76200 21.27900
H  1.66600 45.93300 19.04000
H  2.64200 44.56800 18.98500
H  3.41000 46.16700 19.22200
H  7.36900 44.17900 25.72800
H  6.61400 45.63900 25.19400
H  6.49700 44.09800 24.23900
H  4.21000 44.91600 30.11400
H  5.92500 42.36900 33.33600
H  6.20200 41.45700 31.85400
H  4.65900 41.36200 32.94000

