79

Mg 25.47100 1.35700 29.38400
C  27.59700 0.82900 32.24000
C  22.77300 1.53700 31.60100
C  23.46000 1.34400 26.70900
C  28.21800 0.62500 27.37100
N  25.30100 1.20800 31.68400
C  26.23700 1.14200 32.63900
C  25.66000 1.24800 33.98500
C  24.10300 1.26900 33.76400
C  24.04200 1.35900 32.26800
C  23.37700 0.07100 34.39600
C  26.10500 2.43600 34.81900
C  26.66100 2.19000 36.18600
H  26.21900 3.10500 37.35400
N  23.37900 1.55700 29.15400
C  22.48500 1.57400 30.19700
C  21.16900 1.72700 29.57700
C  21.23700 1.70900 28.15900
C  22.75800 1.55500 27.93800
C  19.89000 1.65300 30.43400
C  20.14600 1.79200 27.04200
O  20.48100 1.74300 25.85400
C  18.74900 1.84100 27.44800
N  25.81400 0.94900 27.36900
C  24.82900 1.06300 26.44600
C  25.38000 0.59900 25.07800
C  26.98200 0.72400 25.20100
C  26.99000 0.76100 26.74700
C  24.84700 -0.70300 24.67200
C  27.60700 1.92900 24.55300
C  28.58000 1.68500 23.40800
N  27.54800 0.83800 29.68700
C  28.47100 0.56700 28.74700
C  29.78100 0.40600 29.42700
C  29.49600 0.42200 30.76100
C  28.10400 0.65900 30.91100
C  31.03700 0.14800 28.79500
C  30.06000 0.33000 32.12700
O  31.18300 0.09300 32.48200
C  28.83400 0.59200 33.07900
C  28.79100 -0.54400 34.03400
O  28.74800 -1.75800 33.76800
O  28.88200 -0.08000 35.36600
C  28.98700 -1.00800 36.48500
H  21.98300 1.78700 32.31200
H  22.83300 1.34900 25.81600
H  28.95700 0.48500 26.57900
H  25.97500 0.32800 34.47800
H  23.57800 2.16200 34.10300
H  23.90200 -0.53600 35.13300
H  23.02800 -0.57100 33.58700
H  22.39500 0.35600 34.77600
H  25.26400 3.11600 34.95500
H  26.81300 2.96100 34.17800
H  27.71000 2.48600 36.16100
H  26.54700 1.13900 36.45400
H  20.04700 1.38900 31.48000
H  19.16900 0.95700 30.00500
H  19.36700 2.60400 30.53400
H  18.04000 1.86500 26.62000
H  18.56700 2.62700 28.18100
H  18.59100 0.91900 28.00800
H  25.11000 1.27600 24.26700
H  27.47400 -0.19400 24.87800
H  25.64300 -1.41700 24.46100
H  24.32600 -0.73800 23.71500
H  24.19800 -1.11100 25.44700
H  28.17600 2.39200 25.35900
H  26.86700 2.68100 24.28200
H  29.61400 1.86900 23.69800
H  28.43700 2.28200 22.50800
H  28.46300 0.68300 22.99500
H  31.19900 0.89900 28.02300
H  30.91700 -0.82300 28.31400
H  31.80300 0.19600 29.56900
H  29.04400 1.49700 33.64800
H  28.03500 -1.53800 36.52000
H  28.96200 -0.55900 37.47800
H  29.81900 -1.71000 36.42200

