79

Mg 26.96500 49.48600 26.39600
C  24.85500 50.45300 28.97700
C  29.19600 48.28000 28.63900
C  28.96000 48.54100 23.86500
C  24.61700 50.79600 24.15200
N  27.00300 49.46200 28.61000
C  26.01600 49.78400 29.48300
C  26.41000 49.49300 30.94400
C  27.94500 49.00600 30.84600
C  28.10400 48.95900 29.24700
C  28.96700 49.94600 31.52300
C  25.42200 48.48000 31.65800
C  24.66100 48.94300 32.92000
H  25.41300 49.57800 34.06700
N  28.74800 48.57500 26.28400
C  29.49600 48.18300 27.30600
C  30.60400 47.43100 26.84500
C  30.69100 47.68100 25.45400
C  29.38500 48.28400 25.14500
C  31.53500 46.66300 27.70900
C  31.81000 47.41600 24.44500
O  31.70600 47.69600 23.22900
C  32.95900 46.68600 24.90100
N  26.81400 49.71400 24.31900
C  27.78700 49.25900 23.48100
C  27.37000 49.49600 22.03700
C  25.95800 50.09900 22.12700
C  25.76800 50.19600 23.62900
C  28.42200 50.34300 21.22800
C  24.80500 49.30000 21.44600
C  24.10400 49.96400 20.24400
N  25.23500 50.49700 26.46000
C  24.41600 51.03400 25.46600
C  23.33300 51.68300 26.05800
C  23.44700 51.48400 27.37300
C  24.56000 50.73300 27.59800
C  22.17500 52.30700 25.35300
C  22.83800 51.71900 28.60400
O  21.85700 52.38200 28.89000
C  23.79400 51.14600 29.74800
C  24.41800 52.24100 30.53000
O  25.39400 52.89300 30.22400
O  23.60500 52.42100 31.61400
C  24.21500 53.31700 32.63400
H  29.87100 47.81500 29.36100
H  29.47700 48.20700 22.96300
H  23.87000 51.15200 23.44000
H  26.32300 50.50100 31.34900
H  28.04900 48.07300 31.39900
H  28.49500 50.77800 32.04600
H  29.64800 50.40500 30.80600
H  29.63700 49.35300 32.14500
H  25.87700 47.52700 31.92900
H  24.60800 48.28800 30.96000
H  24.13400 48.17300 33.48300
H  23.93300 49.73700 32.75100
H  31.87800 45.73500 27.25100
H  31.08100 46.48800 28.68500
H  32.45100 47.20600 27.94100
H  33.24500 47.17900 25.83100
H  33.68600 46.77300 24.09400
H  32.63600 45.64800 24.98400
H  27.38200 48.48900 21.61900
H  25.90900 51.12700 21.76900
H  29.36800 50.38500 21.76700
H  28.14300 51.39400 21.15600
H  28.72400 49.79400 20.33600
H  23.97100 49.19900 22.14000
H  25.13000 48.30200 21.15000
H  23.02600 49.84000 20.34200
H  24.37000 49.41100 19.34300
H  24.31600 51.02600 20.12200
H  21.96600 51.93100 24.35100
H  22.52600 53.31900 25.15000
H  21.24500 52.19400 25.91100
H  23.19100 50.46700 30.35200
H  23.40600 53.52500 33.33500
H  24.59800 54.29600 32.34400
H  25.03200 52.84100 33.17600

