79

Mg 5.97700 53.19300 39.64500
C  5.35500 49.71200 39.59300
C  9.24000 52.55500 39.21400
C  6.41400 56.54900 39.14100
C  2.47800 53.71800 39.76600
N  7.15200 51.30400 39.12700
C  6.71800 50.05800 39.38400
C  7.93900 49.08100 39.35200
C  9.12300 50.02600 39.59400
C  8.51000 51.36500 39.26400
C  9.71800 49.92500 41.03100
C  7.98900 48.19600 38.00700
C  7.95800 49.02700 36.70400
H  6.61700 48.91800 35.88600
N  7.56000 54.29100 39.21000
C  8.86800 53.88900 39.14800
C  9.75500 54.94900 38.79500
C  8.99400 56.11000 38.89200
C  7.55400 55.70700 39.10400
C  11.16400 54.75900 38.53700
C  9.53600 57.55900 38.75300
O  10.74500 57.83900 38.48500
C  8.75600 58.72500 39.27300
N  4.58000 54.94900 39.30400
C  5.03400 56.18900 39.30300
C  3.94400 57.19000 39.64500
C  2.63800 56.33300 39.61200
C  3.24700 54.88500 39.53100
C  4.20900 57.92700 41.00900
C  1.74500 56.65800 38.34300
C  0.39400 57.23400 38.72600
N  4.28000 52.05000 39.74800
C  2.90200 52.42000 39.97600
C  2.16100 51.27600 40.41700
C  3.06500 50.18600 40.27200
C  4.30800 50.70800 39.84100
C  0.70900 51.22100 40.86600
C  3.27700 48.74400 40.37700
O  2.44300 47.90600 40.70800
C  4.72300 48.35400 39.87800
C  4.47300 47.61100 38.60800
O  3.82200 48.06400 37.70700
O  5.04900 46.38400 38.64900
C  4.33700 45.41100 37.78900
H  10.32600 52.46700 39.27900
H  6.42000 57.64000 39.19600
H  1.41000 53.91200 39.88600
H  7.86100 48.34600 40.15200
H  9.91900 49.69200 38.92800
H  9.28100 49.11900 41.62000
H  9.59800 50.86200 41.57600
H  10.72200 49.51100 40.94200
H  7.15100 47.50000 37.95900
H  8.90600 47.61100 38.08400
H  8.81500 48.63200 36.15900
H  8.25400 50.05100 36.93000
H  11.38700 55.47300 37.74400
H  11.29500 53.77200 38.09300
H  11.79300 54.75200 39.42700
H  9.38900 59.60200 39.40800
H  8.14000 58.54200 40.15300
H  8.09000 59.21100 38.56100
H  4.04400 57.97700 38.89700
H  2.11800 56.39000 40.56800
H  3.83500 57.39000 41.88000
H  3.89600 58.97100 40.97800
H  5.26200 57.86000 41.28300
H  1.53200 55.82600 37.67200
H  2.20100 57.35000 37.63500
H  0.48500 58.13300 39.33600
H  -0.14600 56.43300 39.23200
H  -0.14200 57.46600 37.80600
H  0.60200 50.60400 41.75900
H  0.13100 50.70100 40.10200
H  0.23900 52.15100 41.18700
H  5.10700 47.66200 40.62800
H  3.26400 45.46900 37.97700
H  4.74700 44.42500 38.00900
H  4.53600 45.72200 36.76400

