79

Mg -11.36500 39.01400 41.43200
C  -9.17900 36.15000 40.73000
C  -9.16500 40.88200 39.53000
C  -13.72100 41.22300 41.43800
C  -13.65300 36.48100 42.72100
N  -9.46600 38.53000 40.14200
C  -8.77500 37.28100 39.99600
C  -7.68400 37.38300 38.99700
C  -7.57900 38.97900 38.82300
C  -8.76600 39.53600 39.53000
C  -6.16200 39.57200 39.21000
C  -7.92600 36.58800 37.70600
C  -6.80400 35.59100 37.38000
H  -5.49200 36.11100 36.74600
N  -11.40300 40.93400 40.74400
C  -10.37200 41.51900 40.07300
C  -10.71700 42.93200 39.96300
C  -12.05800 43.05700 40.46100
C  -12.51800 41.71200 40.88700
C  -9.82400 43.88100 39.35500
C  -12.88500 44.28700 40.59200
O  -12.38000 45.40700 40.22300
C  -14.27700 44.29800 40.92600
N  -13.36600 38.79600 41.92600
C  -14.10000 39.94400 41.95900
C  -15.50400 39.73100 42.52500
C  -15.55100 38.21300 42.67400
C  -14.09600 37.75700 42.49600
C  -15.86100 40.57100 43.79600
C  -16.63300 37.56000 41.83600
C  -17.98000 37.81900 42.40000
N  -11.40800 36.90900 41.76900
C  -12.36200 36.03800 42.32000
C  -11.82300 34.67400 42.58200
C  -10.57700 34.68600 41.93400
C  -10.37100 36.06000 41.49500
C  -12.50900 33.59200 43.28700
C  -9.46600 33.84800 41.58200
O  -9.38600 32.62000 41.79200
C  -8.50500 34.86000 40.83600
C  -7.22400 34.82200 41.61200
O  -6.43000 33.92700 41.53000
O  -7.15700 35.85300 42.46300
C  -6.02200 35.78600 43.33600
H  -8.42100 41.54900 39.09100
H  -14.56500 41.88600 41.64200
H  -14.41700 35.83800 43.16300
H  -6.81900 36.98900 39.53100
H  -7.71100 39.26100 37.77800
H  -5.47000 38.78100 39.50200
H  -6.31700 40.32500 39.98200
H  -5.68700 40.04700 38.35200
H  -7.87900 37.30200 36.88400
H  -8.87900 36.06300 37.75700
H  -7.17800 34.81500 36.71300
H  -6.44500 35.06300 38.26400
H  -9.25200 44.23400 40.21300
H  -10.49500 44.56300 38.83400
H  -9.16100 43.55600 38.55200
H  -14.76800 43.62300 40.22500
H  -14.67000 45.28600 40.68400
H  -14.55600 44.01000 41.93900
H  -16.26500 40.02900 41.80500
H  -15.74600 38.06800 43.73600
H  -16.22400 41.52800 43.42200
H  -14.86700 40.71800 44.22000
H  -16.60200 40.11800 44.45400
H  -16.41900 36.49300 41.76500
H  -16.59900 37.99500 40.83700
H  -18.43300 36.95400 42.88400
H  -18.69800 37.99900 41.60000
H  -18.03000 38.65700 43.09500
H  -11.75700 32.87200 43.60800
H  -13.20700 33.14400 42.58000
H  -13.06900 33.87000 44.18000
H  -8.21400 34.35000 39.91800
H  -6.16600 36.70200 43.90800
H  -5.15200 35.83200 42.68100
H  -6.12900 34.91400 43.98100

