79

Mg 35.60700 1.66600 30.12300
C  33.24200 2.79500 32.30500
C  37.82300 1.61100 32.72900
C  38.02900 0.98500 27.98100
C  33.41800 2.29300 27.50600
N  35.56600 2.19800 32.23600
C  34.47700 2.62000 32.92700
C  34.71200 2.76000 34.45000
C  36.26400 2.60000 34.54700
C  36.62400 2.15400 33.10300
C  36.96200 3.93400 34.96300
C  34.01900 1.65800 35.32800
C  33.43100 2.08300 36.66200
H  34.06600 3.30700 37.40800
N  37.63500 1.23000 30.30400
C  38.33100 1.17000 31.47700
C  39.63100 0.59700 31.20300
C  39.70700 0.40200 29.78100
C  38.45000 0.93500 29.21700
C  40.61600 0.31900 32.36300
C  40.92700 -0.13000 29.00900
O  40.90500 -0.23800 27.76400
C  42.07300 -0.74700 29.72800
N  35.66700 1.68400 27.99200
C  36.78200 1.31500 27.40500
C  36.53400 1.01000 25.91300
C  35.08000 1.56800 25.69400
C  34.65000 1.86300 27.13300
C  37.57600 1.61600 24.91300
C  34.15000 0.48700 25.05200
C  33.59800 -0.77000 25.81300
N  33.67900 2.37100 29.92000
C  32.91500 2.45500 28.80100
C  31.59700 2.81600 29.19200
C  31.65300 2.96200 30.51500
C  32.95400 2.65100 30.92900
C  30.38200 3.00900 28.24800
C  30.90000 3.36500 31.66900
O  29.76200 3.74600 31.72000
C  31.87600 3.15400 32.93600
C  31.90900 4.46200 33.69100
O  32.49100 5.46700 33.29400
O  31.34900 4.40100 34.96300
C  31.09500 5.73600 35.59100
H  38.54000 1.64800 33.55200
H  38.75300 0.64100 27.24000
H  32.70400 2.47700 26.70000
H  34.42100 3.77200 34.73200
H  36.62500 1.85500 35.25600
H  36.35600 4.83700 34.89600
H  37.79600 4.13900 34.29200
H  37.37400 3.92200 35.97300
H  34.77100 0.90600 35.56700
H  33.29700 1.10100 34.73100
H  33.37400 1.26400 37.37800
H  32.47700 2.29900 36.18000
H  40.26400 0.67500 33.33200
H  41.55700 0.84200 32.19500
H  40.80400 -0.75400 32.39700
H  42.79100 -1.13700 29.00700
H  41.60900 -1.49400 30.37300
H  42.60100 0.03400 30.27400
H  36.42300 -0.06200 25.74900
H  35.06200 2.43000 25.02700
H  38.21800 2.38400 25.34400
H  37.17500 2.04300 23.99300
H  38.28800 0.84700 24.61400
H  34.53000 0.19200 24.07300
H  33.22100 1.03900 24.90700
H  34.02700 -0.75000 26.81500
H  33.94900 -1.66800 25.30400
H  32.51500 -0.89000 25.80700
H  30.28200 2.18700 27.53900
H  30.48000 3.91100 27.64400
H  29.44400 3.08100 28.79900
H  31.53300 2.34000 33.57500
H  32.04100 6.27500 35.53400
H  30.81800 5.64300 36.64100
H  30.31500 6.32600 35.11100

