79

Mg 16.99800 52.59100 25.94600
C  18.94300 51.15500 28.57900
C  14.85100 53.63100 28.42600
C  15.28800 53.91300 23.49600
C  19.29000 51.20400 23.58300
N  17.00600 52.46300 28.29100
C  17.90700 51.86700 29.14800
C  17.48100 51.98000 30.55700
C  15.97500 52.61100 30.51600
C  15.84700 52.82500 28.96600
C  14.88600 51.81400 31.31400
C  18.44700 52.85700 31.45400
C  18.54300 52.50300 32.94200
H  17.74000 53.53000 33.86600
N  15.29600 53.58300 25.95800
C  14.49000 53.86000 27.09500
C  13.30300 54.50000 26.59200
C  13.46400 54.71900 25.14100
C  14.76300 54.09400 24.82100
C  12.19500 54.94500 27.52700
C  12.49400 55.40700 24.07700
O  12.80000 55.64800 22.94000
C  11.20000 55.96300 24.49600
N  17.29900 52.63200 23.82700
C  16.34900 53.18700 23.06000
C  16.50900 52.80900 21.62800
C  17.96700 52.19200 21.55600
C  18.21400 51.97800 23.08500
C  15.32800 51.95000 21.04700
C  19.04700 53.06300 20.94400
C  20.17400 52.28100 20.33400
N  18.67000 51.40800 26.03200
C  19.49500 50.93700 24.93500
C  20.51300 50.09500 25.51700
C  20.39700 50.26300 26.89100
C  19.23500 51.04200 27.19900
C  21.58900 49.27900 24.83400
C  20.91200 49.74200 28.18900
O  21.80500 48.91500 28.45000
C  20.01500 50.40900 29.35100
C  19.38700 49.26100 30.06600
O  18.31900 48.63500 29.82600
O  20.10800 48.98300 31.13200
C  19.46800 48.24100 32.18200
H  14.13200 53.92600 29.19400
H  14.61400 54.24200 22.70200
H  19.97400 50.72500 22.88000
H  17.38400 50.94000 30.87200
H  16.04600 53.61000 30.94500
H  14.25600 52.40800 31.97600
H  15.32400 51.01800 31.91500
H  14.35700 51.22100 30.56800
H  18.33100 53.92700 31.28100
H  19.47900 52.70400 31.13700
H  19.59400 52.61700 33.20800
H  18.25500 51.49300 33.23200
H  11.73500 55.81600 27.05900
H  12.63300 55.41900 28.40500
H  11.39100 54.23200 27.70800
H  10.76100 55.36900 25.29700
H  10.47400 55.79300 23.70100
H  11.08500 56.94200 24.96100
H  16.63500 53.78000 21.15000
H  17.95900 51.21100 21.08300
H  14.61700 51.69800 21.83400
H  15.72700 51.02000 20.64200
H  14.83800 52.55300 20.28300
H  19.41700 53.66300 21.77500
H  18.55400 53.63500 20.15900
H  19.99400 51.22500 20.13400
H  20.99500 52.20400 21.04700
H  20.55600 52.79300 19.45200
H  21.29400 48.83800 23.88200
H  22.02600 48.50200 25.46200
H  22.43300 49.87100 24.47900
H  20.51900 51.06600 30.06000
H  19.78900 48.67500 33.12900
H  19.80800 47.20600 32.20300
H  18.40400 48.38000 32.36800

