79

Mg 7.89800 3.27300 27.39100
C  9.42400 1.83800 30.35000
C  6.07900 5.33500 29.51600
C  6.57600 4.49200 24.71600
C  9.58500 0.70800 25.64700
N  7.83900 3.61000 29.67900
C  8.63100 2.95900 30.66900
C  8.42800 3.64400 32.04300
C  7.23200 4.69400 31.74500
C  6.98500 4.54500 30.22300
C  5.89200 4.56700 32.54300
C  9.68400 4.24800 32.79600
C  9.86700 3.79200 34.28100
H  10.52900 4.77500 35.28100
N  6.48900 4.67900 27.14900
C  5.84300 5.43100 28.10400
C  5.00200 6.43100 27.44200
C  5.23900 6.28600 26.03000
C  6.14400 5.15400 25.90200
C  4.17700 7.45300 28.15600
C  4.77200 7.09000 24.80900
O  5.12100 6.84200 23.67600
C  3.74100 8.12800 25.03900
N  8.03500 2.63200 25.45600
C  7.39800 3.41800 24.49600
C  7.67000 2.87300 23.06400
C  8.57200 1.66800 23.42800
C  8.69400 1.61100 24.89600
C  6.35300 2.59000 22.19400
C  9.90300 1.64100 22.63700
C  10.06700 0.29700 21.91600
N  9.16900 1.63800 27.87000
C  9.84500 0.77800 26.99200
C  10.64800 -0.16000 27.72900
C  10.61000 0.32000 29.06400
C  9.67200 1.34600 29.06700
C  11.52200 -1.27100 27.14400
C  11.07700 0.02100 30.38000
O  11.79000 -0.86600 30.86400
C  10.47100 1.19300 31.25500
C  9.88600 0.61100 32.45900
O  8.71000 0.28100 32.46500
O  10.71900 0.64300 33.55900
C  10.04800 0.17200 34.77100
H  5.65700 6.10900 30.16000
H  6.20100 4.79500 23.73600
H  10.08300 -0.05800 25.05000
H  8.16400 2.77000 32.63900
H  7.64200 5.68500 31.94100
H  5.08800 4.17900 31.91800
H  5.61800 5.50100 33.03200
H  6.11200 3.76000 33.24200
H  9.66500 5.33800 32.81700
H  10.61500 3.99600 32.28800
H  10.59400 2.98300 34.35100
H  8.90900 3.52200 34.72500
H  4.54200 8.45000 27.91200
H  4.07200 7.29000 29.22900
H  3.15000 7.48900 27.79500
H  4.06500 9.05700 25.50800
H  2.93600 7.58800 25.53900
H  3.35200 8.39300 24.05600
H  8.24700 3.65200 22.56500
H  7.95800 0.80000 23.18800
H  5.48400 2.81000 22.81300
H  6.24400 1.54500 21.90400
H  6.18800 3.36800 21.44900
H  10.77000 1.86000 23.25900
H  9.76100 2.45300 21.92400
H  9.08200 -0.01900 21.57300
H  10.48800 -0.53900 22.47500
H  10.58300 0.48200 20.97400
H  11.66700 -2.08000 27.85900
H  12.47900 -0.95100 26.73200
H  10.96600 -1.81700 26.38100
H  11.27900 1.86900 31.53400
H  9.43400 0.86400 35.34900
H  10.83100 -0.17500 35.44500
H  9.45000 -0.70100 34.51100

