79

Mg 48.42400 34.26800 26.89400
C  46.73600 32.87400 29.66600
C  48.45100 37.22200 28.74800
C  49.65900 35.65900 24.34200
C  47.62600 31.38500 25.10700
N  47.63200 35.06000 28.95300
C  47.12100 34.20000 29.92900
C  46.95100 34.97000 31.24800
C  47.12000 36.48500 30.79200
C  47.85600 36.23900 29.49700
C  45.75500 37.23100 30.74000
C  48.05000 34.56900 32.26900
C  47.54900 34.38800 33.75000
H  46.53100 35.34400 34.33400
N  49.08700 36.10700 26.63600
C  49.10800 37.16300 27.50700
C  49.96400 38.14300 26.88500
C  50.20900 37.82100 25.54500
C  49.66500 36.47200 25.47300
C  50.33800 39.48300 27.58100
C  50.92300 38.55900 24.39200
O  50.76900 38.32500 23.19100
C  51.64100 39.86600 24.82900
N  48.38400 33.73100 24.92800
C  49.11200 34.44400 24.07400
C  49.40400 33.73900 22.81700
C  48.87600 32.26500 23.03100
C  48.23200 32.43900 24.39500
C  48.93200 34.44800 21.53000
C  49.92900 31.06400 23.10800
C  50.62900 30.63400 21.74700
N  47.45100 32.43100 27.25300
C  47.12100 31.35900 26.40000
C  46.44300 30.33400 27.16000
C  46.25500 30.92400 28.43200
C  46.92300 32.17400 28.41400
C  45.95600 29.02000 26.71900
C  45.81700 30.60000 29.78000
O  45.40900 29.55800 30.31900
C  45.97800 31.90100 30.55900
C  46.45700 31.50700 31.94600
O  47.49700 31.10800 32.30100
O  45.27100 31.48700 32.71600
C  45.35900 31.04700 34.10200
H  48.46900 38.20400 29.22700
H  50.32100 35.97800 23.53500
H  47.53600 30.44300 24.56300
H  46.01600 34.64400 31.70400
H  47.75900 36.93400 31.55300
H  45.40400 37.44300 29.73000
H  45.73900 38.13000 31.35700
H  45.04200 36.59000 31.25800
H  48.73600 35.40200 32.42800
H  48.62200 33.68400 31.98800
H  48.40800 34.38700 34.42200
H  47.22000 33.34900 33.73200
H  49.76000 40.27900 27.11200
H  51.38000 39.60900 27.28900
H  50.09700 39.36000 28.63700
H  50.92400 40.65900 25.04200
H  52.18500 40.16900 23.93400
H  52.41500 39.70200 25.57900
H  50.48200 33.59400 22.74500
H  48.08300 31.90200 22.37700
H  47.95000 33.99700 21.38500
H  49.64600 34.38900 20.70900
H  48.71600 35.50300 21.69600
H  49.41900 30.13900 23.37800
H  50.67000 31.36100 23.84900
H  50.77200 29.56400 21.59300
H  51.60500 31.11500 21.80600
H  50.09900 31.00400 20.86900
H  46.28000 28.68500 25.73300
H  44.87000 29.03300 26.81700
H  46.38000 28.39800 27.50700
H  44.97200 32.31700 30.61300
H  46.25600 30.46000 34.30100
H  44.51700 30.38400 34.30100
H  45.24000 31.80600 34.87500

