79

Mg 54.67400 22.91600 45.10100
C  52.40500 25.15000 43.73700
C  52.50300 20.31600 44.04900
C  57.10800 20.69200 45.57800
C  56.78800 25.62100 45.83100
N  52.74700 22.85800 44.06700
C  51.98700 23.83600 43.59100
C  50.65000 23.36000 43.00100
C  50.52000 21.87100 43.57500
C  52.04200 21.66900 43.95900
C  49.53700 21.67200 44.78300
C  50.47000 23.47200 41.47800
C  49.08700 23.88400 40.96600
H  48.59000 23.21100 39.66600
N  54.82200 20.75200 44.84200
C  53.84800 19.92000 44.34600
C  54.34600 18.55900 44.41600
C  55.73300 18.63100 44.91800
C  55.97000 20.08700 45.13900
C  53.59500 17.40400 43.82100
C  56.59800 17.45200 45.08900
O  56.23200 16.32300 44.76400
C  58.05900 17.61900 45.42700
N  56.79200 23.15000 45.36800
C  57.51600 22.05300 45.74100
C  58.80400 22.50700 46.46900
C  58.60500 24.08800 46.70100
C  57.36600 24.34200 45.77700
C  59.25400 21.76000 47.78800
C  59.83900 24.99600 46.30300
C  60.48200 25.80800 47.45700
N  54.59800 25.05500 45.01400
C  55.51400 26.05700 45.29300
C  54.85300 27.25200 45.23200
C  53.64500 26.94100 44.60400
C  53.59400 25.59800 44.41500
C  55.25600 28.62800 45.62500
C  52.44000 27.54900 44.10100
O  52.03100 28.72000 43.97500
C  51.63100 26.41800 43.50300
C  51.56400 26.73600 42.08100
O  52.50600 26.68400 41.33900
O  50.34700 27.22100 41.75500
C  50.24500 27.53300 40.29800
H  51.78400 19.49500 44.06700
H  57.97100 20.05900 45.79400
H  57.32900 26.52200 46.12800
H  49.82900 23.92600 43.44100
H  50.22200 21.11000 42.85300
H  49.94800 21.04000 45.57100
H  48.60500 21.17000 44.52200
H  49.35700 22.65100 45.22700
H  50.66800 22.52700 40.97200
H  51.19200 24.21200 41.13500
H  48.90800 24.92300 40.68700
H  48.38300 23.68000 41.77200
H  52.78500 17.70900 43.15800
H  53.26500 16.67600 44.56300
H  54.32400 16.95400 43.14700
H  58.60700 18.19900 44.68400
H  58.52900 16.64100 45.32800
H  58.25100 17.90900 46.46000
H  59.67500 22.38800 45.82500
H  58.33000 24.31500 47.73100
H  59.40700 22.45000 48.61800
H  60.23000 21.29700 47.64900
H  58.54300 20.97100 48.03300
H  59.66100 25.69900 45.48900
H  60.63300 24.35400 45.92200
H  60.37900 26.86500 47.21300
H  61.52600 25.62100 47.71100
H  59.89900 25.65800 48.36500
H  55.36200 28.72000 46.70600
H  54.51100 29.32800 45.24600
H  56.22900 28.87600 45.20200
H  50.63200 26.43500 43.93700
H  51.02600 28.15600 39.86300
H  49.30300 27.89700 39.88700
H  50.33800 26.58400 39.76900

