79

Mg 24.36300 -5.36300 46.68100
C  26.72900 -3.40300 44.87900
C  22.01900 -4.29100 44.36800
C  22.43000 -7.95400 47.57100
C  27.14100 -6.68400 48.43200
N  24.35500 -4.02800 44.87100
C  25.42700 -3.36800 44.36300
C  25.06800 -2.52600 43.07500
C  23.45500 -2.62700 43.08400
C  23.25700 -3.71800 44.14900
C  22.77700 -1.31500 43.38400
C  25.58900 -3.21600 41.77900
C  26.61600 -2.54000 40.93000
H  26.21900 -2.11700 39.50400
N  22.38100 -5.87700 46.27800
C  21.60500 -5.23500 45.27900
C  20.36300 -5.96400 45.25400
C  20.44200 -7.13800 46.07000
C  21.73800 -7.02300 46.70600
C  19.21200 -5.53100 44.42800
C  19.35000 -8.19200 46.22000
O  18.24400 -8.03500 45.69800
C  19.57400 -9.33100 47.04500
N  24.75800 -7.11200 47.74600
C  23.74700 -7.98300 48.10600
C  24.36400 -9.19900 48.88900
C  25.78100 -8.71000 49.22300
C  25.88800 -7.45300 48.39700
C  23.54100 -9.77800 50.09600
C  26.88500 -9.82300 49.01100
C  27.36400 -10.54100 50.28200
N  26.47700 -4.92600 46.91000
C  27.43700 -5.53900 47.63600
C  28.68700 -4.88400 47.46200
C  28.45400 -4.08000 46.30700
C  27.12000 -4.12200 46.06300
C  29.95100 -5.13200 48.23400
C  29.13700 -3.13800 45.39500
O  30.28800 -2.76600 45.41600
C  27.97900 -2.57300 44.38800
C  27.91600 -1.09700 44.58400
O  27.05800 -0.47300 45.24100
O  28.83400 -0.42100 43.81300
C  28.79400 0.99400 43.71700
H  21.24400 -4.01900 43.64900
H  21.85300 -8.84300 47.83200
H  27.74800 -7.22000 49.16400
H  25.33000 -1.46900 43.04300
H  23.05000 -3.02200 42.15200
H  22.59100 -1.43700 44.45100
H  21.85500 -1.34300 42.80200
H  23.43800 -0.45900 43.25400
H  24.71900 -3.42700 41.15800
H  26.09900 -4.15100 42.01200
H  27.49600 -3.18400 40.92400
H  26.91200 -1.56100 41.30900
H  18.50900 -4.98000 45.05200
H  18.55000 -6.35600 44.16400
H  19.46200 -4.93100 43.55300
H  18.71900 -9.98800 47.20400
H  19.84800 -8.92800 48.02000
H  20.39300 -9.94200 46.66600
H  24.27100 -9.97100 48.12400
H  25.79200 -8.32200 50.24200
H  22.63900 -9.19100 50.26600
H  24.14400 -9.71000 51.00100
H  23.37200 -10.82400 49.84000
H  27.77600 -9.28400 48.69300
H  26.64600 -10.57200 48.25600
H  27.37600 -11.62000 50.12400
H  26.79500 -10.28800 51.17700
H  28.34100 -10.18300 50.60700
H  30.69300 -5.86900 47.92500
H  29.48600 -5.39100 49.18500
H  30.41600 -4.15600 48.37600
H  28.10100 -2.77700 43.32400
H  28.85900 1.08700 42.63300
H  29.62300 1.42200 44.28000
H  27.90600 1.51000 44.08300

