79

Mg 53.59000 24.41500 45.23900
C  51.34300 26.86000 44.20500
C  51.57700 22.01000 43.77700
C  56.17500 22.13500 45.22600
C  55.71400 26.87900 46.26500
N  51.66000 24.42800 44.18300
C  50.95800 25.52200 43.79400
C  49.74800 25.20500 42.97300
C  49.62600 23.66800 43.21100
C  51.08000 23.33200 43.74300
C  48.37500 23.22200 44.03600
C  49.89300 25.57500 41.46300
C  51.36700 25.85400 41.02500
H  52.36500 24.64800 41.06800
N  53.80200 22.23500 44.65700
C  52.83000 21.45400 44.13600
C  53.25300 20.10800 43.95700
C  54.52700 20.08100 44.56600
C  54.92000 21.48500 44.79300
C  52.43600 18.98500 43.31800
C  55.42400 18.92100 44.73100
O  54.91300 17.80600 44.63800
C  56.80200 19.03700 45.18200
N  55.67500 24.52200 45.36400
C  56.45500 23.43600 45.55500
C  57.88500 23.78500 46.03500
C  57.75500 25.34500 46.35000
C  56.28300 25.61200 45.91500
C  58.27500 22.93500 47.25600
C  58.82200 26.19300 45.47200
C  59.53200 27.27700 46.41600
N  53.52900 26.45800 45.38800
C  54.41300 27.33900 46.00800
C  53.78700 28.62400 46.09800
C  52.63200 28.52600 45.27100
C  52.46800 27.15800 44.95600
C  54.49300 29.83300 46.80200
C  51.55400 29.23400 44.72400
O  51.25700 30.39800 44.81200
C  50.57800 28.14200 44.11000
C  50.20500 28.52400 42.72700
O  50.98000 28.82400 41.80100
O  48.83800 28.66300 42.66700
C  48.38100 29.11800 41.34100
H  50.89800 21.27100 43.34700
H  57.09200 21.55400 45.35100
H  56.35400 27.58800 46.79300
H  48.82700 25.63300 43.37000
H  49.65300 23.25400 42.20300
H  47.67500 23.12600 43.20600
H  47.94200 24.03500 44.61900
H  48.58800 22.30200 44.58000
H  49.33400 26.50200 41.33700
H  49.43400 24.84200 40.79900
H  51.94000 26.57800 41.60500
H  51.25800 26.19300 39.99400
H  53.05100 18.27300 42.76600
H  51.85200 19.51600 42.56700
H  51.93500 18.58400 44.19900
H  57.40900 18.14100 45.05600
H  56.96900 19.25000 46.23800
H  57.22500 19.82300 44.55700
H  58.56800 23.56400 45.21400
H  57.91300 25.52100 47.41400
H  57.51800 22.17200 47.43600
H  58.34900 23.61300 48.10700
H  59.23400 22.43900 47.10500
H  58.41800 26.72000 44.60700
H  59.56500 25.45700 45.16600
H  59.27800 27.19500 47.47300
H  59.42700 28.27600 45.99300
H  60.60700 27.14200 46.30300
H  54.94500 29.38900 47.68800
H  53.74900 30.59600 47.03200
H  55.26800 30.37100 46.25600
H  49.67300 28.15400 44.71800
H  47.33100 28.82700 41.37600
H  48.77900 28.72400 40.40600
H  48.30300 30.20500 41.33200

