79

Mg 47.10100 34.70200 28.45100
C  45.59100 32.87100 31.00200
C  47.54700 37.29700 30.51500
C  47.90900 36.57400 25.79100
C  46.30200 31.99000 26.21600
N  46.80300 34.95700 30.59700
C  46.17900 34.09500 31.45000
C  46.20500 34.68800 32.83800
C  46.39700 36.22900 32.54300
C  47.04200 36.15000 31.14500
C  45.15800 37.20800 32.67400
C  47.47600 34.10500 33.53000
C  47.76000 34.64300 34.98500
H  46.69000 35.54000 35.65300
N  47.81000 36.67300 28.23500
C  47.98500 37.56200 29.20200
C  48.54300 38.80700 28.64900
C  48.63900 38.60200 27.22300
C  48.06700 37.22900 27.01000
C  48.86500 39.88700 29.63300
C  49.17700 39.50500 26.14800
O  49.40600 39.13300 25.00500
C  49.65200 40.85100 26.59100
N  47.06400 34.33400 26.34700
C  47.46700 35.27900 25.44100
C  47.25000 34.75400 23.94600
C  47.13900 33.24400 24.16800
C  46.75100 33.16800 25.69400
C  45.94300 35.55000 23.32400
C  48.42600 32.34400 23.82600
C  48.17200 31.21100 22.71900
N  46.12200 32.81100 28.56200
C  45.87600 31.85600 27.59100
C  45.12000 30.74100 28.17600
C  44.96500 31.10400 29.52400
C  45.58800 32.36500 29.69500
C  44.64200 29.46500 27.42100
C  44.44500 30.71400 30.79100
O  43.94700 29.62900 31.15900
C  44.55500 31.98100 31.76100
C  44.81100 31.57200 33.19600
O  45.79100 31.06000 33.64200
O  43.62600 31.80000 33.91700
C  43.57900 31.54600 35.37200
H  47.55800 38.14200 31.20600
H  48.06100 37.20900 24.91600
H  45.94400 31.18900 25.56600
H  45.28400 34.51100 33.39500
H  47.10200 36.64200 33.26400
H  44.27700 36.59100 32.85100
H  45.02900 37.86100 31.81100
H  45.36100 37.70000 33.62500
H  48.39700 34.42700 33.04400
H  47.48000 33.01700 33.58300
H  48.73600 35.12800 35.02100
H  47.80900 33.74500 35.60100
H  49.83800 40.23800 29.29200
H  49.18200 39.44900 30.57900
H  48.12400 40.64500 29.88800
H  48.84200 41.23500 27.21200
H  49.78200 41.47300 25.70600
H  50.56700 40.92000 27.17900
H  48.10800 35.01300 23.32700
H  46.34600 32.88000 23.51500
H  45.67300 36.39400 23.95900
H  45.13700 34.82100 23.40900
H  46.13400 35.77700 22.27500
H  48.65500 31.74500 24.70700
H  49.28100 33.01400 23.73100
H  47.24700 31.28500 22.14700
H  48.28000 30.23900 23.20000
H  49.06400 31.35500 22.10900
H  43.56900 29.33200 27.28800
H  45.00000 28.60400 27.98400
H  45.05200 29.48700 26.41100
H  43.54700 32.37900 31.64400
H  42.67900 30.96800 35.58700
H  43.54100 32.52600 35.84700
H  44.49000 31.00900 35.63600

