79

Mg 7.79800 2.59300 28.69300
C  9.35000 1.41900 31.60700
C  5.59300 4.46600 30.54500
C  6.46400 3.54000 25.81800
C  9.86600 0.29400 26.77300
N  7.47200 2.85400 30.89000
C  8.36700 2.43000 31.86200
C  8.08600 3.18600 33.19600
C  6.83600 4.14200 32.84200
C  6.57900 3.80700 31.35500
C  5.53700 3.86600 33.69400
C  9.38400 3.88500 33.80700
C  9.74700 3.63600 35.29000
H  8.77000 3.20800 36.38200
N  6.14500 3.69600 28.24200
C  5.44000 4.49600 29.13400
C  4.54500 5.33000 28.42300
C  4.73000 5.09400 26.98700
C  5.80100 4.07900 26.96600
C  3.57800 6.17800 29.15000
C  4.05400 5.65000 25.81200
O  4.24900 5.33400 24.64700
C  2.97700 6.72300 26.00500
N  8.04700 1.86600 26.51500
C  7.49800 2.56400 25.54200
C  7.93700 2.09200 24.15300
C  9.20200 1.25000 24.53400
C  9.02700 1.14000 26.04100
C  6.90300 1.40600 23.23300
C  10.58200 1.72900 24.12000
C  11.15500 2.98400 24.85400
N  9.12900 1.01200 29.09100
C  9.88500 0.17700 28.25200
C  10.85600 -0.55900 29.05200
C  10.63200 -0.08300 30.36200
C  9.59500 0.84700 30.31700
C  11.86600 -1.51600 28.60100
C  11.20600 -0.18500 31.63600
O  12.17600 -0.79000 32.10600
C  10.37300 0.76400 32.58100
C  9.80800 -0.18300 33.61700
O  8.83800 -0.93800 33.42500
O  10.30800 0.11000 34.79700
C  9.55900 -0.50800 35.95800
H  5.05500 5.18100 31.17100
H  6.06900 4.02200 24.92000
H  10.54500 -0.37600 26.24200
H  7.68100 2.41000 33.84500
H  7.04500 5.21100 32.89500
H  4.70300 3.52500 33.08100
H  5.22700 4.74400 34.26000
H  5.81000 3.16600 34.48400
H  9.32900 4.96900 33.71100
H  10.23000 3.51800 33.22600
H  10.10000 4.59300 35.67400
H  10.57700 2.93500 35.20800
H  2.58300 6.23500 28.71000
H  4.06600 7.15100 29.09200
H  3.33300 5.77800 30.13400
H  2.59600 6.95600 25.01000
H  3.35100 7.57600 26.57100
H  2.13600 6.33800 26.58200
H  8.24900 2.92000 23.51700
H  9.19200 0.25500 24.09000
H  7.08700 0.33400 23.17000
H  6.95900 1.68700 22.18100
H  5.93100 1.72200 23.61300
H  10.57200 2.02400 23.07000
H  11.34500 0.95200 24.16600
H  11.21900 2.64700 25.88800
H  10.46900 3.82700 24.77600
H  12.10600 3.30100 24.42700
H  12.78300 -1.09400 28.19000
H  11.42900 -2.23400 27.90700
H  12.28800 -2.05100 29.45200
H  11.09500 1.47000 32.99000
H  9.62500 -1.59100 35.85300
H  8.54900 -0.22400 36.25200
H  10.21300 -0.25700 36.79300

