79

Mg 47.50200 35.53300 27.63200
C  45.79000 33.79800 30.11900
C  47.52900 38.38900 29.57100
C  48.72500 37.38100 24.88400
C  46.87700 32.96500 25.40600
N  46.67500 36.00600 29.49700
C  46.23500 35.06500 30.45000
C  46.57500 35.54700 31.84400
C  46.47600 37.12600 31.57100
C  46.99800 37.23100 30.12800
C  45.06300 37.73600 31.72800
C  47.95700 34.99700 32.36300
C  48.15900 34.91900 33.87600
H  47.06800 35.54800 34.70500
N  48.11900 37.53400 27.33100
C  48.07200 38.55000 28.33800
C  48.84200 39.70500 27.76900
C  49.09200 39.49000 26.40200
C  48.61000 38.09300 26.14000
C  49.19100 40.91600 28.65100
C  49.81400 40.33100 25.37900
O  50.10700 39.89300 24.30100
C  50.31500 41.72200 25.71100
N  47.75200 35.22800 25.44100
C  48.30600 36.07300 24.54900
C  48.45200 35.47000 23.19200
C  48.05800 33.94700 23.53200
C  47.58400 33.99300 24.90600
C  47.59500 36.15800 22.09900
C  49.25300 32.89800 23.31200
C  49.10200 31.82500 22.20900
N  46.59000 33.78200 27.69200
C  46.39600 32.81000 26.73700
C  45.60600 31.69700 27.25000
C  45.33100 32.01300 28.62600
C  45.97600 33.28000 28.82600
C  45.10300 30.51900 26.47000
C  44.73400 31.60100 29.80500
O  44.03800 30.65200 30.02900
C  44.92600 32.79200 30.83200
C  45.40200 32.27800 32.14900
O  46.55400 32.14600 32.52200
O  44.32500 32.12300 32.97600
C  44.59500 31.74200 34.36300
H  47.59000 39.17000 30.33100
H  49.11200 37.94400 24.03200
H  46.75400 32.07000 24.79300
H  45.79800 35.14500 32.49400
H  47.22000 37.65000 32.17300
H  45.03900 38.49300 32.51300
H  44.42900 36.96900 32.17200
H  44.71200 38.10800 30.76600
H  48.71100 35.68800 31.98700
H  48.10100 33.97400 32.01300
H  49.10100 35.37500 34.18000
H  48.31400 33.87000 34.13100
H  49.39700 40.59300 29.67200
H  48.43300 41.70000 28.64800
H  50.06100 41.49200 28.33600
H  50.31900 42.31000 24.79300
H  51.28900 41.57400 26.17900
H  49.72400 42.26800 26.44600
H  49.48600 35.56100 22.85800
H  47.14800 33.65400 23.00900
H  47.13900 35.38500 21.48100
H  48.13500 36.74700 21.35700
H  46.76700 36.69600 22.56100
H  49.49400 32.31700 24.20200
H  50.09700 33.48500 22.95100
H  48.05900 31.64300 21.95200
H  49.46500 30.91000 22.67600
H  49.69100 32.01500 21.31100
H  44.37500 30.70200 25.67900
H  44.72400 29.71700 27.10300
H  45.99600 30.10400 26.00300
H  43.90600 33.14500 30.98300
H  43.67700 31.22800 34.64600
H  44.74700 32.63600 34.96800
H  45.48700 31.11600 34.40200

