79

Mg -11.42600 16.26800 41.58800
C  -8.40200 14.31100 41.23300
C  -9.77400 18.79800 39.96000
C  -14.30200 17.61800 40.93400
C  -13.05400 13.30800 42.77700
N  -9.28900 16.45400 40.63400
C  -8.26500 15.56200 40.55900
C  -7.01000 16.12600 39.93500
C  -7.51300 17.62800 39.63100
C  -8.95800 17.67400 40.13200
C  -6.67200 18.70800 40.28500
C  -6.63200 15.37400 38.62200
C  -5.16800 15.74300 38.17300
H  -4.93100 16.70100 36.92600
N  -11.94800 18.06600 40.70600
C  -11.10100 18.98500 40.10600
C  -11.87000 20.12900 39.66100
C  -13.27800 19.73400 39.77600
C  -13.22700 18.41500 40.45600
C  -11.31100 21.38300 39.06000
C  -14.40700 20.55800 39.24400
O  -14.14500 21.65100 38.79800
C  -15.85400 20.12300 39.25500
N  -13.44200 15.59700 41.78200
C  -14.48200 16.43200 41.58000
C  -15.81900 15.79800 42.00000
C  -15.32300 14.37500 42.63900
C  -13.84600 14.42300 42.43900
C  -16.67700 16.71900 42.85300
C  -16.08100 13.22300 41.96300
C  -16.57300 12.06900 42.96800
N  -10.88300 14.28800 41.99500
C  -11.63900 13.19200 42.50700
C  -10.76800 12.11700 42.84100
C  -9.50500 12.51900 42.34500
C  -9.60600 13.84100 41.81400
C  -11.19000 10.80000 43.35100
C  -8.10400 12.11400 42.27500
O  -7.53400 11.05200 42.60600
C  -7.36600 13.25100 41.55000
C  -6.28900 13.76100 42.51000
O  -6.41800 14.26000 43.59600
O  -5.11200 13.49900 41.93500
C  -3.88000 14.05200 42.42400
H  -9.30600 19.73200 39.64100
H  -15.21500 18.19800 40.78600
H  -13.50700 12.37600 43.12200
H  -6.11700 16.10000 40.55800
H  -7.50300 17.82900 38.56000
H  -5.82800 18.26000 40.81000
H  -7.15700 19.41100 40.96200
H  -6.22900 19.24900 39.44900
H  -7.14100 15.57800 37.68000
H  -6.57500 14.29600 38.77300
H  -4.50100 14.88100 38.14100
H  -4.76200 16.34300 38.98700
H  -11.33400 21.32700 37.97200
H  -10.24500 21.44600 39.27900
H  -11.76000 22.32200 39.38400
H  -16.34100 20.78500 38.53900
H  -16.28900 20.23300 40.24900
H  -15.90400 19.06000 39.02300
H  -16.34100 15.64900 41.05500
H  -15.65500 14.31100 43.67500
H  -16.04700 17.41200 43.41100
H  -17.36200 16.14000 43.47400
H  -17.31500 17.33500 42.21900
H  -15.37700 12.75600 41.27400
H  -16.94200 13.50800 41.35900
H  -16.16800 12.23300 43.96700
H  -16.30800 11.03100 42.76500
H  -17.64500 12.17100 43.14000
H  -10.44100 10.36000 44.00800
H  -11.36600 10.08800 42.54500
H  -12.11900 10.91300 43.91100
H  -6.84600 12.81900 40.69500
H  -3.65300 13.65400 43.41400
H  -3.96700 15.13200 42.53500
H  -3.23600 13.82200 41.57500

