79

Mg 0.43600 43.04800 25.83900
C  2.46000 43.27300 28.56200
C  -2.29000 42.20600 28.01300
C  -1.58100 42.72400 23.12700
C  3.10500 44.03700 23.75300
N  0.06800 42.89800 28.01100
C  1.08800 43.10400 28.95900
C  0.56900 43.07400 30.34700
C  -0.79100 42.22600 30.19200
C  -1.06800 42.49500 28.61400
C  -0.81200 40.72900 30.53800
C  0.40100 44.37500 30.97900
C  0.58800 44.44900 32.54800
H  0.32600 43.19600 33.39800
N  -1.72200 42.63200 25.62300
C  -2.60400 42.25000 26.64500
C  -3.84700 41.87500 25.97500
C  -3.59000 41.87200 24.58600
C  -2.27100 42.49400 24.35300
C  -4.98800 41.34200 26.77600
C  -4.43300 41.45000 23.42100
O  -4.25000 41.80800 22.28100
C  -5.72500 40.70700 23.79600
N  0.70100 43.48400 23.71100
C  -0.31000 43.27600 22.85800
C  0.25600 43.40100 21.49000
C  1.70700 43.99200 21.60600
C  1.84900 43.91300 23.13400
C  0.27200 42.07000 20.73400
C  1.82000 45.52900 21.13400
C  3.06800 45.82000 20.25900
N  2.42900 43.42400 26.01100
C  3.40700 43.75100 25.13300
C  4.68500 43.86300 25.78300
C  4.32500 43.65300 27.17300
C  2.93600 43.43200 27.27400
C  6.01300 44.26300 25.17200
C  4.93800 43.70600 28.45700
O  6.13100 43.80500 28.84000
C  3.68600 43.47000 29.42900
C  3.91800 42.36500 30.33100
O  3.63600 41.22000 30.16800
O  4.29000 42.96100 31.50100
C  4.34700 42.02600 32.61900
H  -3.07300 41.85100 28.68500
H  -2.17200 42.45800 22.24800
H  3.79000 44.56200 23.08300
H  1.27900 42.46300 30.90400
H  -1.67200 42.72800 30.59200
H  -1.56100 40.21100 29.94000
H  -0.97700 40.70300 31.61500
H  0.17600 40.31500 30.33500
H  -0.59100 44.75600 30.73800
H  1.23400 45.00000 30.65700
H  -0.02400 45.24500 32.97200
H  1.56100 44.88800 32.77100
H  -5.93500 41.83000 26.54500
H  -4.90200 41.72300 27.79300
H  -5.05200 40.25700 26.85800
H  -5.35000 39.98100 24.51800
H  -6.07300 40.13300 22.93700
H  -6.55300 41.40700 23.90800
H  -0.44500 44.08400 21.01000
H  2.55800 43.45200 21.19100
H  -0.28900 42.31700 19.83300
H  -0.20800 41.30100 21.33900
H  1.26300 41.73800 20.42500
H  2.00100 46.11700 22.03400
H  0.94500 45.98100 20.66700
H  3.57900 44.88600 20.02600
H  3.73000 46.46400 20.83800
H  2.71100 46.26400 19.33000
H  5.92700 44.41800 24.09700
H  6.73500 43.45000 25.25700
H  6.40400 45.13800 25.69100
H  3.44400 44.37800 29.98100
H  4.48800 42.65700 33.49700
H  5.18700 41.34700 32.47600
H  3.41500 41.46200 32.61000

