79

Mg 40.53000 8.28200 29.68800
C  42.26800 9.57300 32.45300
C  37.98000 7.52300 31.88800
C  39.01100 6.48400 27.18700
C  43.28800 8.78600 27.74400
N  40.32800 8.38700 31.92600
C  41.00200 9.09000 32.81600
C  40.39200 9.17000 34.21900
C  39.06800 8.40800 34.02700
C  39.11500 8.06800 32.51300
C  38.85800 7.16300 34.89800
C  40.28700 10.66500 34.77300
C  39.34400 10.93600 35.99500
H  39.86000 11.63600 37.15400
N  38.72400 7.22700 29.52200
C  37.80200 7.15300 30.53000
C  36.58800 6.52700 29.99000
C  36.82700 6.19100 28.62400
C  38.24500 6.61200 28.41800
C  35.32600 6.24000 30.87500
C  35.93300 5.67900 27.57300
O  36.41900 5.32500 26.51200
C  34.51700 5.46700 27.83300
N  41.04600 7.77400 27.76500
C  40.28300 6.96700 26.94300
C  40.95900 6.88700 25.48500
C  42.33500 7.62300 25.68200
C  42.21100 8.15400 27.13300
C  41.08700 5.39400 24.98400
C  42.77300 8.69600 24.59800
C  42.17800 10.08600 24.82200
N  42.40200 9.08200 29.94800
C  43.38000 9.31600 29.03800
C  44.49100 10.00600 29.64200
C  44.10700 10.10700 31.01500
C  42.82800 9.59900 31.10900
C  45.76400 10.48600 29.00700
C  44.48800 10.54700 32.36700
O  45.61500 10.81800 32.77800
C  43.26500 10.32300 33.35900
C  43.63300 9.39100 34.47500
O  44.16000 8.31300 34.35900
O  43.48200 10.05400 35.65400
C  44.01100 9.30200 36.84400
H  37.15400 7.21200 32.53100
H  38.58400 6.03300 26.28900
H  44.24700 8.86400 27.22700
H  41.02900 8.57400 34.87200
H  38.24500 9.12100 34.07400
H  38.95500 6.23300 34.33900
H  37.89100 7.17300 35.40300
H  39.62800 7.14600 35.66900
H  39.95000 11.22700 33.90200
H  41.21500 11.15400 35.06800
H  39.08600 9.94500 36.36900
H  38.43200 11.43600 35.66800
H  34.59400 6.91900 30.43900
H  35.43600 6.52900 31.92000
H  34.94200 5.25300 30.61700
H  34.07600 6.32800 28.33500
H  34.31400 4.65800 28.53500
H  33.99200 5.03200 26.98300
H  40.34900 7.41000 24.74900
H  43.22000 7.00300 25.82400
H  42.08800 5.27800 24.56900
H  40.39900 5.26100 24.14900
H  40.96700 4.71800 25.83100
H  42.35100 8.43600 23.62700
H  43.86200 8.70100 24.54900
H  41.64500 10.40200 23.92500
H  43.01600 10.71700 25.11800
H  41.52100 10.24200 25.67700
H  45.64900 11.36300 28.36900
H  46.19800 9.68800 28.40500
H  46.58000 10.70900 29.69400
H  42.95600 11.30800 33.70900
H  44.01700 8.21600 36.75700
H  43.23800 9.39800 37.60600
H  44.94400 9.74300 37.19500

