79

Mg 48.21100 15.92900 28.13000
C  46.06500 15.81800 30.95900
C  50.50400 17.68400 30.15100
C  50.13400 15.92600 25.51100
C  45.46800 14.45800 26.28200
N  48.22600 16.59900 30.34300
C  47.27900 16.44300 31.26600
C  47.71300 16.85100 32.65400
C  49.02600 17.71300 32.31100
C  49.26000 17.35700 30.84100
C  48.85200 19.18500 32.47700
C  48.06200 15.56800 33.50500
C  48.81300 15.72800 34.87400
H  48.78300 17.08800 35.53400
N  50.02900 16.79100 27.81200
C  50.81700 17.44000 28.76500
C  52.08400 17.75800 28.08200
C  52.05900 17.31200 26.74900
C  50.73000 16.59500 26.63100
C  53.14800 18.63800 28.69600
C  53.16800 17.37400 25.70100
O  53.04200 16.81700 24.61000
C  54.48800 18.04500 25.96600
N  47.76000 15.57700 26.14800
C  48.89300 15.47800 25.33700
C  48.44700 14.88600 23.96600
C  47.08100 14.19000 24.28700
C  46.70100 14.76200 25.64700
C  48.38100 15.93700 22.82800
C  46.99200 12.64400 24.11500
C  46.23100 11.96900 22.87400
N  46.12300 15.28900 28.49000
C  45.20900 14.68400 27.66100
C  43.94300 14.41400 28.35700
C  44.23400 14.76500 29.63800
C  45.56400 15.26000 29.67600
C  42.62300 13.94000 27.78500
C  43.67300 14.96900 30.92700
O  42.53000 14.73100 31.34500
C  44.82100 15.58000 31.80700
C  44.31100 16.75500 32.51000
O  44.15700 17.91800 32.20600
O  43.74200 16.21600 33.62200
C  43.23500 17.15600 34.65800
H  51.12600 18.29100 30.81100
H  50.88700 15.77300 24.73500
H  44.77500 13.89100 25.65700
H  46.90000 17.43400 33.08600
H  49.86400 17.34800 32.90400
H  48.14900 19.45300 33.26600
H  48.64700 19.58200 31.48300
H  49.85000 19.51000 32.77100
H  48.76700 14.98800 32.91000
H  47.13000 15.02100 33.65000
H  49.86500 15.49000 34.71600
H  48.45300 14.98500 35.58600
H  53.29800 19.50100 28.04700
H  54.08000 18.07600 28.65000
H  53.00000 18.81200 29.76200
H  55.19200 18.04900 25.13400
H  54.98300 17.43800 26.72300
H  54.35900 19.11600 26.12200
H  49.19100 14.10400 23.81500
H  46.30300 14.64500 23.67400
H  48.91700 16.78600 23.25000
H  47.39100 16.38600 22.75100
H  48.72900 15.68600 21.82600
H  46.48200 12.25400 24.99600
H  47.95000 12.12400 24.14400
H  46.80100 11.45000 22.10300
H  45.66000 12.61500 22.20800
H  45.52400 11.22700 23.24300
H  42.57500 12.85300 27.84400
H  42.50800 14.15400 26.72200
H  41.82800 14.33700 28.41500
H  45.04600 14.73100 32.45200
H  42.14900 17.12500 34.57100
H  43.56600 18.18700 34.53100
H  43.69500 16.91000 35.61600

