79

Mg 16.83400 -1.97400 27.42700
C  16.13000 0.36500 30.05600
C  18.83000 -3.71800 29.63500
C  18.14000 -3.69500 24.78200
C  15.44600 0.40600 25.25000
N  17.48800 -1.63400 29.63800
C  16.90200 -0.75100 30.54200
C  17.28100 -1.16300 31.94900
C  18.17800 -2.43600 31.79900
C  18.17900 -2.61500 30.28600
C  19.53500 -2.53500 32.57800
C  15.98800 -1.49900 32.72400
C  15.93700 -1.32300 34.27800
H  17.24900 -0.76500 34.91000
N  17.99800 -3.61700 27.26600
C  18.71900 -4.22600 28.27500
C  19.33700 -5.49500 27.87200
C  19.08900 -5.49100 26.40300
C  18.38000 -4.19800 26.08800
C  20.06900 -6.56200 28.79700
C  19.51700 -6.60800 25.42000
O  19.21500 -6.55000 24.22400
C  20.15100 -7.79700 25.91500
N  16.80200 -1.66800 25.35200
C  17.42100 -2.51700 24.45500
C  17.28600 -2.09000 22.90600
C  16.48900 -0.75400 23.15600
C  16.16100 -0.64100 24.67300
C  18.68800 -1.85900 22.16100
C  15.18500 -0.45600 22.30900
C  13.97800 -1.33300 22.66000
N  15.91000 0.00200 27.55200
C  15.36200 0.78500 26.56700
C  14.75900 1.96800 27.15700
C  15.03600 1.86100 28.53400
C  15.75500 0.63000 28.74700
C  14.03600 3.06500 26.46900
C  14.90600 2.43200 29.86200
O  14.47200 3.54100 30.17600
C  15.51700 1.46800 30.86100
C  16.47300 2.14400 31.87200
O  17.67400 2.38000 31.72000
O  15.78700 2.57500 32.97400
C  16.46300 3.49100 33.86200
H  19.32400 -4.29500 30.42000
H  18.56400 -4.25500 23.94600
H  15.05400 1.17100 24.57700
H  17.87700 -0.32100 32.30000
H  17.70500 -3.26800 32.32100
H  19.50500 -3.08500 33.51900
H  19.72800 -1.50800 32.88600
H  20.34200 -2.92800 31.95900
H  15.72900 -2.55300 32.62800
H  15.16000 -0.95400 32.27000
H  15.78900 -2.28700 34.76400
H  15.13900 -0.66600 34.62400
H  19.64100 -7.56500 28.79600
H  20.03000 -6.31000 29.85700
H  21.12000 -6.56100 28.50900
H  21.17600 -7.65800 26.25900
H  20.43200 -8.44200 25.08300
H  19.45100 -8.29800 26.58400
H  16.59400 -2.69000 22.31600
H  17.14200 0.07600 22.88700
H  19.05800 -0.83500 22.11000
H  18.71400 -2.19300 21.12400
H  19.51000 -2.40500 22.62500
H  15.35200 -0.46700 21.23200
H  14.95600 0.58000 22.55900
H  13.23000 -0.66700 23.09100
H  14.09800 -2.13700 23.38500
H  13.60200 -1.66100 21.69100
H  13.71700 2.70400 25.49200
H  14.71000 3.91300 26.35000
H  13.16300 3.25400 27.09500
H  14.68800 1.03100 31.41700
H  16.84900 4.29900 33.24100
H  17.30200 3.03500 34.38800
H  15.71200 3.94100 34.51200

