79

Mg 8.83300 4.02800 27.25700
C  10.23600 2.41800 30.03900
C  7.02300 5.97400 29.47500
C  7.63700 5.63100 24.61200
C  10.57400 1.84400 25.23700
N  8.71400 4.15500 29.52800
C  9.32800 3.38200 30.43900
C  8.86500 3.72100 31.89800
C  7.64000 4.61900 31.62400
C  7.73800 4.93300 30.09100
C  6.29600 4.04300 32.08600
C  9.94600 4.32800 32.83700
C  9.87200 3.91200 34.34400
H  10.52500 4.79500 35.37700
N  7.52300 5.63400 27.09300
C  6.96200 6.40300 28.13200
C  6.12100 7.45900 27.55800
C  6.21400 7.31000 26.13500
C  7.13800 6.14300 25.86900
C  5.33700 8.38000 28.38300
C  5.63800 8.18600 25.05900
O  5.88200 8.00600 23.84900
C  4.63100 9.18100 25.38900
N  9.11200 3.78500 25.20200
C  8.47800 4.60500 24.29100
C  8.82200 4.17500 22.85300
C  9.77700 2.99500 23.06800
C  9.81100 2.84600 24.59900
C  7.52800 3.89200 22.02800
C  11.19800 3.23800 22.43900
C  11.84000 2.11400 21.59700
N  10.09700 2.46000 27.48100
C  10.71600 1.68200 26.57000
C  11.59000 0.77700 27.15600
C  11.44500 1.00200 28.51000
C  10.50400 2.07100 28.69600
C  12.35600 -0.24800 26.41800
C  11.84100 0.60800 29.83600
O  12.67600 -0.23700 30.18700
C  11.07500 1.49200 30.84000
C  10.28100 0.62900 31.74900
O  9.51300 -0.27300 31.35900
O  10.70500 0.71600 33.01500
C  9.93500 -0.10500 34.04600
H  6.36700 6.45600 30.20300
H  7.43200 6.15600 23.67600
H  10.96500 1.11200 24.52700
H  8.52800 2.82800 32.42600
H  7.76400 5.51400 32.23400
H  5.61400 3.88300 31.25100
H  5.79600 4.79000 32.70200
H  6.47800 3.08400 32.57100
H  10.16400 5.38500 32.68300
H  10.93900 3.98800 32.54400
H  10.38800 2.95400 34.42000
H  8.79700 3.93600 34.52000
H  5.74700 8.31500 29.39100
H  4.26700 8.18200 28.31900
H  5.58100 9.36200 27.97900
H  5.03700 10.02100 25.95300
H  3.75500 8.77400 25.89400
H  4.22700 9.59800 24.46600
H  9.32100 4.93700 22.25400
H  9.35700 2.07200 22.66600
H  7.84500 4.14200 21.01500
H  6.72300 4.54600 22.36300
H  7.29800 2.83800 22.18500
H  11.85500 3.55000 23.25100
H  11.05200 4.02900 21.70200
H  12.87300 1.80100 21.74500
H  11.68500 2.35000 20.54500
H  11.27300 1.18300 21.60800
H  11.91800 -0.48300 25.44800
H  12.41200 -1.16500 27.00400
H  13.43700 -0.10800 26.40700
H  11.82100 2.01600 31.43600
H  10.59100 -0.20900 34.91000
H  9.60000 -1.11100 33.79500
H  9.13100 0.62200 34.16200

