79

Mg 43.13400 41.55300 26.34500
C  41.97800 43.87100 28.54200
C  44.29100 39.50600 28.82000
C  44.68000 39.72100 23.93000
C  42.42400 43.93100 23.78500
N  43.24000 41.79900 28.46100
C  42.47000 42.69400 29.12800
C  42.36200 42.41900 30.66100
C  43.16500 41.01100 30.69700
C  43.62700 40.74500 29.24500
C  44.47200 41.01200 31.51200
C  40.85200 42.25400 31.27500
C  40.72400 41.47300 32.57100
H  39.91900 42.05000 33.71100
N  44.18300 39.78200 26.37000
C  44.49600 39.07400 27.47300
C  45.09000 37.81800 27.06600
C  45.19300 37.81600 25.68300
C  44.70300 39.16600 25.26300
C  45.53600 36.83800 28.08500
C  45.64200 36.77500 24.67300
O  45.71900 37.00300 23.45300
C  46.04700 35.42800 25.11000
N  43.73200 41.88700 24.13200
C  44.23900 40.89900 23.40700
C  44.25200 41.25900 21.86700
C  43.47000 42.63200 21.80300
C  43.21300 42.90000 23.32400
C  45.64000 41.27200 21.24700
C  42.19300 42.54300 20.98300
C  42.01100 43.61000 19.88700
N  42.33500 43.50100 26.14200
C  42.08500 44.25800 25.06000
C  41.46100 45.50800 25.48200
C  41.30800 45.43100 26.89100
C  41.86300 44.19500 27.19200
C  41.01400 46.61200 24.59700
C  40.83100 46.02300 28.12000
O  40.28400 47.11000 28.23500
C  41.20100 45.01200 29.28100
C  42.17400 45.71800 30.13000
O  43.38400 45.82300 30.03600
O  41.55000 46.11300 31.29600
C  42.44400 46.56200 32.46700
H  44.38500 38.78500 29.63500
H  45.14200 39.13300 23.13400
H  42.04800 44.61000 23.01700
H  42.90900 43.19400 31.19700
H  42.51200 40.22200 31.07000
H  44.24700 41.81400 32.21400
H  45.31500 41.32500 30.89500
H  44.72600 40.09700 32.04700
H  40.20100 41.92800 30.46400
H  40.59800 43.25000 31.63700
H  41.66300 41.07200 32.95400
H  40.20600 40.53200 32.38800
H  44.99300 35.90200 27.95300
H  45.46900 37.13100 29.13300
H  46.55100 36.57500 27.78800
H  45.31700 34.99200 25.79300
H  46.99600 35.55400 25.63100
H  46.28500 34.78600 24.26200
H  43.78900 40.42300 21.34300
H  44.13000 43.43900 21.48400
H  46.33300 40.95100 22.02500
H  45.88100 42.23600 20.80100
H  45.71400 40.46700 20.51600
H  41.33700 42.68300 21.64300
H  42.05900 41.58300 20.48500
H  41.89800 43.09300 18.93400
H  42.91400 44.13500 19.57500
H  41.19600 44.33400 19.92900
H  40.51800 47.37000 25.20400
H  40.43200 46.17800 23.78400
H  41.87100 47.18000 24.23500
H  40.31700 44.49500 29.65300
H  43.51000 46.68400 32.27200
H  42.27900 45.74500 33.17000
H  42.03700 47.48100 32.88700

