79

Mg 1.79900 -1.25100 44.53000
C  4.95500 -0.04000 43.52800
C  0.42400 1.49300 42.95500
C  -1.29600 -2.68400 44.70900
C  3.20900 -4.12900 45.69600
N  2.63500 0.41100 43.33500
C  3.94300 0.71900 43.08800
C  4.06500 2.07000 42.43800
C  2.67700 2.70500 42.73600
C  1.83000 1.48700 43.01700
C  2.72100 3.77600 43.87100
C  4.48600 2.02900 41.00700
C  5.93800 2.50700 40.72100
H  6.86200 1.75900 39.77100
N  -0.20000 -0.64900 43.82400
C  -0.54300 0.50500 43.26500
C  -1.99300 0.54000 42.99700
C  -2.46200 -0.63100 43.66100
C  -1.32200 -1.38000 44.13200
C  -2.68900 1.70000 42.28900
C  -3.99800 -0.89200 43.77900
O  -4.82100 -0.04400 43.44100
C  -4.50800 -2.03100 44.48700
N  1.06100 -3.23000 44.98600
C  -0.28800 -3.57700 45.12800
C  -0.46200 -5.02800 45.70200
C  0.99100 -5.32100 46.11000
C  1.82900 -4.20700 45.53400
C  -1.53700 -5.19400 46.74900
C  1.51900 -6.72800 45.70900
C  1.58600 -7.77300 46.83300
N  3.73400 -1.95200 44.63700
C  4.12400 -3.09400 45.25400
C  5.63100 -3.08300 45.35400
C  6.02900 -1.84200 44.70400
C  4.81900 -1.28800 44.25300
C  6.51600 -4.24800 45.88100
C  7.11700 -1.02700 44.27700
O  8.33100 -1.16100 44.51100
C  6.46800 0.16700 43.46600
C  6.86800 1.41400 44.23600
O  6.44000 1.74800 45.31000
O  7.81300 2.08300 43.59000
C  8.21200 3.40200 44.25000
H  0.08000 2.44800 42.55300
H  -2.25100 -3.20700 44.80000
H  3.60600 -5.03500 46.15800
H  4.81000 2.67100 42.96000
H  2.22000 3.16400 41.86000
H  3.68000 3.65000 44.37500
H  1.94500 3.55200 44.60400
H  2.73600 4.67400 43.25300
H  3.85700 2.65600 40.37500
H  4.28900 0.99100 40.73600
H  6.56400 2.62700 41.60600
H  5.92100 3.46800 40.20800
H  -3.34800 1.34100 41.49800
H  -2.03600 2.43900 41.82400
H  -3.32300 2.23100 42.99900
H  -5.59500 -1.96500 44.53600
H  -4.21600 -2.01800 45.53700
H  -4.27700 -2.93800 43.93000
H  -0.83200 -5.57400 44.83400
H  1.05900 -5.26200 47.19600
H  -2.12800 -6.04700 46.41400
H  -2.19200 -4.32500 46.80800
H  -1.05200 -5.35300 47.71200
H  2.51800 -6.64900 45.28100
H  0.80800 -7.07500 44.95900
H  2.65000 -7.90500 47.03200
H  1.12200 -8.70800 46.52100
H  1.07300 -7.35600 47.70000
H  7.12100 -4.67000 45.07800
H  5.84700 -5.04900 46.19600
H  7.11500 -3.77000 46.65600
H  6.85100 0.21600 42.44600
H  9.10700 3.90100 43.87700
H  8.35600 3.28000 45.32300
H  7.39000 4.11400 44.18600

