79

Mg 24.25800 -6.52100 46.87600
C  26.68600 -4.09000 45.66000
C  22.03000 -5.25600 44.48300
C  22.35200 -9.23900 47.24400
C  26.98300 -8.12600 48.40100
N  24.34300 -4.80100 45.34300
C  25.47400 -4.06400 44.95800
C  25.16000 -3.16900 43.78100
C  23.63900 -3.47200 43.47900
C  23.30000 -4.63400 44.44500
C  22.79700 -2.23200 43.46300
C  26.07900 -3.33700 42.58000
C  26.92700 -2.18100 42.15700
H  27.02100 -1.83600 40.64400
N  22.29800 -7.01600 46.15600
C  21.59200 -6.34400 45.27900
C  20.32900 -7.01600 45.12800
C  20.38000 -8.18800 45.87400
C  21.65400 -8.13900 46.54300
C  19.16200 -6.44800 44.27600
C  19.20600 -9.17200 45.94500
O  18.32100 -9.14800 45.10700
C  19.09100 -10.11700 47.10000
N  24.68700 -8.44900 47.72400
C  23.64600 -9.37700 47.81500
C  24.23300 -10.68400 48.53100
C  25.71700 -10.22600 48.90100
C  25.82500 -8.85600 48.33200
C  23.35500 -11.18800 49.69400
C  26.87400 -11.13500 48.42800
C  27.87300 -11.66400 49.52800
N  26.37400 -6.14000 47.12700
C  27.24600 -6.88300 47.80300
C  28.54400 -6.21600 47.84100
C  28.31800 -5.10100 47.04200
C  27.02600 -5.12400 46.56200
C  29.82700 -6.65100 48.49100
C  28.97200 -3.91600 46.43600
O  30.14400 -3.56200 46.49900
C  27.87600 -3.20400 45.54300
C  27.58800 -1.78700 45.96500
O  26.55000 -1.36900 46.42200
O  28.74400 -1.02100 45.79900
C  28.45500 0.37400 46.00000
H  21.32500 -4.87600 43.74100
H  21.81400 -10.18700 47.30600
H  27.82400 -8.57700 48.93300
H  25.16000 -2.11200 44.04600
H  23.54200 -3.89200 42.47800
H  23.35400 -1.29800 43.53200
H  22.14300 -2.34100 44.32900
H  22.22100 -2.34800 42.54500
H  25.50900 -3.58800 41.68600
H  26.73700 -4.19400 42.72200
H  27.94200 -2.46600 42.43400
H  26.70100 -1.20400 42.58600
H  18.43500 -6.13600 45.02600
H  18.76800 -7.20200 43.59500
H  19.52200 -5.70900 43.56100
H  18.18200 -10.71700 47.12500
H  19.49000 -9.78200 48.05700
H  19.84500 -10.82300 46.75000
H  24.28700 -11.47200 47.77900
H  25.68900 -10.04700 49.97600
H  23.93800 -11.29500 50.60800
H  22.88200 -12.10600 49.34600
H  22.59400 -10.43100 49.88800
H  27.46200 -10.66900 47.63700
H  26.41700 -11.96000 47.88100
H  27.67900 -12.72300 49.69700
H  27.54100 -11.35700 50.52000
H  28.93000 -11.44100 49.38300
H  30.40800 -5.84900 48.94600
H  30.43900 -6.96300 47.64400
H  29.74100 -7.39400 49.28500
H  28.31900 -3.21000 44.54700
H  28.79300 1.10100 45.26100
H  28.98700 0.67800 46.90200
H  27.43100 0.70000 46.18000

