79

Mg 44.96300 4.29400 47.12900
C  43.36500 7.42600 46.71500
C  41.87400 2.77300 46.50000
C  46.57800 1.44500 46.64600
C  48.01800 6.03800 46.90700
N  42.90400 5.05800 46.53800
C  42.40200 6.36300 46.63100
C  40.91300 6.43500 46.44300
C  40.55000 4.92100 46.43900
C  41.87800 4.16100 46.48700
C  39.47200 4.43800 47.51500
C  40.48400 7.24200 45.12500
C  41.30400 7.02000 43.83300
H  40.52200 6.84300 42.54900
N  44.32100 2.33900 46.79000
C  43.01200 1.86900 46.63300
C  43.00000 0.43600 46.48400
C  44.35300 0.02400 46.48400
C  45.13300 1.32300 46.69900
C  41.81800 -0.42600 46.19400
C  44.96300 -1.44900 46.38100
O  44.19300 -2.34800 46.21400
C  46.42900 -1.77800 46.46600
N  47.07200 3.83300 46.54800
C  47.44100 2.53300 46.59100
C  48.97600 2.37500 46.60500
C  49.42000 3.90200 46.51700
C  48.11900 4.67100 46.61800
C  49.35100 1.60300 47.91700
C  50.44300 4.46600 45.51300
C  51.81000 4.89500 46.09500
N  45.68100 6.33500 47.02600
C  46.90200 6.83600 47.07300
C  46.79800 8.33900 47.05700
C  45.44500 8.58300 47.00000
C  44.83300 7.33800 46.88100
C  47.93600 9.27300 47.11400
C  44.35700 9.68700 46.93100
O  44.44500 10.86800 46.89200
C  43.02300 8.91100 46.73900
C  42.00500 9.28200 47.79700
O  41.97000 8.81000 48.86700
O  41.16700 10.23100 47.28100
C  39.94300 10.32500 48.15500
H  40.85300 2.39400 46.43200
H  47.24700 0.58700 46.55600
H  48.99400 6.51800 47.00400
H  40.47100 6.82800 47.35900
H  40.11300 4.59400 45.49600
H  38.56200 4.27900 46.93700
H  39.27000 5.23100 48.23500
H  39.74300 3.48300 47.96600
H  40.40800 8.30800 45.33600
H  39.45400 6.92600 44.95800
H  41.87600 6.10900 44.00600
H  42.01300 7.83600 43.69500
H  40.90600 0.12200 46.43200
H  41.84200 -1.38200 46.71700
H  41.81500 -0.64800 45.12700
H  46.95000 -1.50300 47.38400
H  46.89400 -1.30800 45.60000
H  46.72800 -2.82200 46.36800
H  49.35700 1.83000 45.74200
H  49.81800 4.08700 47.51500
H  49.64800 0.59900 47.61100
H  48.52500 1.46800 48.61600
H  50.18100 2.12700 48.39000
H  49.86500 5.16000 44.90300
H  50.85800 3.71300 44.84400
H  52.17600 5.78000 45.57500
H  52.57100 4.11500 46.08100
H  51.72100 5.21700 47.13300
H  48.34900 9.33700 46.10700
H  48.76500 8.88100 47.70300
H  47.73800 10.23400 47.59100
H  42.64500 9.34100 45.81200
H  39.17500 10.85700 47.59400
H  40.28500 11.03700 48.90600
H  39.59400 9.37400 48.55600

