79

Mg 52.73900 24.20600 44.86600
C  49.90300 26.27300 43.86000
C  51.06600 21.64900 43.26300
C  55.50900 22.56000 45.03000
C  54.38500 27.18600 45.74300
N  50.71800 24.03700 43.61400
C  49.80900 24.95400 43.33300
C  48.75400 24.47700 42.33600
C  48.82800 22.91300 42.53600
C  50.26100 22.80600 43.17100
C  47.60100 22.22300 43.28200
C  49.17900 24.92200 40.88000
C  47.95000 25.02200 40.00200
H  47.53700 23.77000 39.18500
N  53.20500 22.33700 44.28200
C  52.37000 21.39000 43.72900
C  53.03600 20.12800 43.68600
C  54.36000 20.35100 44.18300
C  54.44700 21.80600 44.52800
C  52.29400 18.82300 43.24300
C  55.46800 19.28600 44.22400
O  55.26500 18.18000 43.72600
C  56.80300 19.55800 44.96100
N  54.63200 24.75600 45.43100
C  55.65600 23.86900 45.43800
C  56.97100 24.45800 45.89400
C  56.60600 25.97900 45.83400
C  55.10600 25.97300 45.69800
C  57.54400 23.83800 47.29500
C  57.31600 26.68600 44.69700
C  58.30600 27.76400 45.07500
N  52.24700 26.26700 44.91600
C  52.96600 27.35800 45.43400
C  52.23500 28.45800 45.48100
C  50.93000 28.11800 44.98700
C  51.05300 26.77100 44.59400
C  52.80500 29.74900 46.09900
C  49.59600 28.57200 44.69500
O  49.02800 29.63800 44.98400
C  48.91900 27.43400 43.91600
C  48.38000 27.93900 42.58200
O  49.07100 28.27400 41.54600
O  47.00400 28.17900 42.67100
C  46.43300 28.53600 41.37400
H  50.45200 20.80400 42.94500
H  56.47700 22.06300 45.12600
H  54.87600 28.13800 45.95700
H  47.76700 24.83000 42.63600
H  48.68900 22.53800 41.52200
H  46.71000 22.81500 43.49000
H  47.91600 21.69500 44.18200
H  47.24600 21.49700 42.55100
H  49.88700 24.13000 40.63500
H  49.86500 25.76900 40.92100
H  47.97600 25.87600 39.32600
H  47.00400 25.16400 40.52500
H  52.57900 18.70100 42.19800
H  51.20800 18.79200 43.33200
H  52.72700 18.00200 43.81500
H  57.41000 20.04800 44.20000
H  57.29200 18.61800 45.21600
H  56.70400 20.20900 45.83000
H  57.60000 24.17400 45.05100
H  56.78000 26.49900 46.77600
H  57.33800 24.42600 48.19000
H  58.63000 23.74800 47.29100
H  57.06700 22.92000 47.63800
H  56.59200 27.09600 43.99300
H  57.87500 25.97100 44.09200
H  59.31700 27.61800 44.69500
H  58.54400 27.73100 46.13800
H  58.02200 28.75800 44.72900
H  53.61600 30.14100 45.48500
H  53.26100 29.43600 47.03900
H  52.07200 30.53300 46.28700
H  47.98300 27.14700 44.39600
H  45.37400 28.69600 41.57400
H  46.60900 27.70800 40.68700
H  46.84700 29.47300 41.00300

