79

Mg -12.41700 39.11500 41.28800
C  -10.33400 36.33300 40.57400
C  -10.28100 41.07100 39.66500
C  -14.88300 41.59100 41.23000
C  -14.86800 36.78800 42.49700
N  -10.41600 38.79300 40.45500
C  -9.81800 37.56300 40.10200
C  -8.57200 37.66800 39.18900
C  -8.54900 39.23600 38.92900
C  -9.83500 39.74400 39.74000
C  -7.23200 39.95100 39.29600
C  -8.50100 36.77900 37.92700
C  -7.61300 35.51100 37.82500
H  -6.44300 35.67200 36.92500
N  -12.43300 41.13300 40.80900
C  -11.35700 41.76000 40.21700
C  -11.63500 43.13200 40.02600
C  -13.01800 43.33900 40.32900
C  -13.55100 41.99600 40.83100
C  -10.70500 44.19400 39.45800
C  -13.79000 44.66100 40.31000
O  -13.27100 45.65300 39.81600
C  -15.11500 44.80600 40.99800
N  -14.57000 39.15800 41.79400
C  -15.30700 40.36300 41.76400
C  -16.67500 40.14500 42.34000
C  -16.70000 38.60600 42.57700
C  -15.30900 38.11500 42.30600
C  -17.08100 41.03200 43.49000
C  -17.76700 37.85100 41.75900
C  -19.01800 37.66000 42.57000
N  -12.66300 36.96100 41.34900
C  -13.62600 36.21500 42.10200
C  -13.17500 34.87000 42.21600
C  -11.95100 34.83600 41.59600
C  -11.66300 36.15300 41.15600
C  -13.84200 33.67000 42.90900
C  -10.79300 34.06700 41.27100
O  -10.62600 32.83600 41.46300
C  -9.71700 34.94500 40.56400
C  -8.38300 34.84900 41.29700
O  -7.45200 34.07500 40.96000
O  -8.16400 35.82600 42.26000
C  -6.71400 36.03100 42.49200
H  -9.73800 41.63300 38.90200
H  -15.69100 42.32200 41.29300
H  -15.59400 36.12800 42.97700
H  -7.74700 37.34500 39.82300
H  -8.85800 39.48700 37.91400
H  -6.40700 39.24900 39.17100
H  -7.29300 40.10100 40.37400
H  -7.12400 40.90500 38.78100
H  -8.12200 37.42900 37.13800
H  -9.51600 36.60900 37.56800
H  -8.13700 34.57700 37.62600
H  -7.22100 35.22700 38.80200
H  -9.73300 43.76800 39.20900
H  -10.72300 44.99400 40.19900
H  -11.13200 44.48700 38.49900
H  -15.79100 44.64200 40.15900
H  -15.31500 45.77000 41.46600
H  -15.13800 44.13500 41.85700
H  -17.39300 40.28200 41.53100
H  -16.76700 38.45100 43.65400
H  -17.51200 40.43900 44.29600
H  -17.84600 41.76200 43.22500
H  -16.19300 41.54100 43.86600
H  -17.45300 36.80800 41.71800
H  -17.99200 38.37500 40.83000
H  -19.05800 38.50900 43.25200
H  -18.85100 36.72300 43.10000
H  -19.92500 37.73500 41.97000
H  -13.10000 32.96600 43.28500
H  -14.52500 33.32300 42.13400
H  -14.48700 33.95000 43.74200
H  -9.74500 34.55600 39.54600
H  -6.14200 36.28300 41.59900
H  -6.44600 35.18500 43.12600
H  -6.52600 36.90100 43.12000

