79

Mg 47.17500 25.33500 27.96000
C  47.94000 27.52300 30.48100
C  46.80600 22.85200 30.14000
C  46.34000 23.19400 25.33400
C  47.90600 27.77900 25.59500
N  47.46700 25.16800 30.12000
C  47.64600 26.23800 30.96300
C  47.55900 25.77900 32.42100
C  47.17900 24.27300 32.28500
C  47.15600 24.02900 30.75700
C  48.04300 23.23600 32.95100
C  46.42800 26.59700 33.19700
C  46.86200 26.86200 34.63100
H  45.78100 27.40600 35.63400
N  46.50300 23.30500 27.82300
C  46.44300 22.47800 28.83400
C  46.01000 21.18800 28.36900
C  45.85600 21.27800 26.97400
C  46.26300 22.64400 26.63400
C  45.66900 20.02300 29.24000
C  45.29100 20.22600 26.03100
O  45.00900 20.53200 24.84700
C  44.94800 18.80000 26.43800
N  47.09000 25.45500 25.73200
C  46.73700 24.44400 24.87800
C  46.68900 25.04100 23.39200
C  46.86000 26.55600 23.57900
C  47.30700 26.66100 25.07900
C  47.58900 24.30200 22.30800
C  45.55600 27.40600 23.15900
C  45.40400 27.79600 21.69200
N  47.95900 27.09100 27.97800
C  48.22800 27.98700 26.93700
C  48.59200 29.33600 27.43600
C  48.55300 29.12300 28.82300
C  48.11600 27.77000 29.10300
C  48.83800 30.54200 26.63500
C  48.69700 29.81000 30.14100
O  49.05300 30.94700 30.23600
C  48.30700 28.83200 31.26200
C  49.32000 28.78600 32.40200
O  50.26100 28.00700 32.49400
O  48.91300 29.70200 33.39200
C  49.85800 29.73200 34.53300
H  46.74000 22.00700 30.82800
H  46.09300 22.46800 24.55700
H  48.02900 28.60000 24.88600
H  48.55000 25.90600 32.85500
H  46.15000 24.08500 32.59400
H  48.59300 23.75600 33.73500
H  48.77000 22.76800 32.28700
H  47.45400 22.43900 33.40500
H  45.46700 26.08300 33.22200
H  46.27400 27.59800 32.79400
H  47.59100 27.67100 34.57800
H  47.16000 25.86500 34.95400
H  44.60500 19.79100 29.19900
H  45.87500 20.28500 30.27800
H  46.17900 19.11100 28.93100
H  44.67300 18.36700 25.47700
H  44.07000 18.76100 27.08300
H  45.83400 18.30500 26.83600
H  45.66100 24.78700 23.13200
H  47.64100 26.83700 22.87200
H  47.06900 24.24600 21.35100
H  47.77500 23.27600 22.62400
H  48.56400 24.76100 22.14000
H  45.43900 28.30300 23.76700
H  44.71400 26.75200 23.38400
H  44.54200 27.32800 21.21600
H  46.32700 27.51300 21.18700
H  45.32600 28.87800 21.58500
H  49.02700 31.33400 27.36000
H  47.99800 30.69200 25.95800
H  49.69800 30.34700 25.99400
H  47.42100 29.31500 31.67300
H  49.65100 28.91600 35.22600
H  49.86600 30.66100 35.10300
H  50.89700 29.53000 34.27500

