79

Mg 24.47100 -6.58700 47.78800
C  27.01100 -4.21200 46.88500
C  22.35900 -4.88900 45.67700
C  22.39600 -9.08500 48.27800
C  26.97300 -8.28800 49.62300
N  24.77100 -4.86600 46.21900
C  25.84800 -4.05700 46.15400
C  25.58600 -2.90600 45.13100
C  23.91500 -2.86500 45.27500
C  23.58300 -4.30100 45.74500
C  23.28300 -1.71500 46.09600
C  26.23600 -3.26400 43.72500
C  27.26500 -2.24100 43.11600
H  27.36900 -2.32200 41.61200
N  22.60200 -6.94600 47.06000
C  21.87800 -6.14800 46.12400
C  20.63700 -6.80900 45.84000
C  20.53000 -8.00400 46.67200
C  21.90300 -8.07900 47.43300
C  19.71100 -6.41800 44.78300
C  19.39400 -8.94100 46.76400
O  18.41500 -8.67900 46.07700
C  19.37300 -10.23700 47.58300
N  24.74600 -8.50700 48.70300
C  23.67500 -9.27000 48.85200
C  23.94200 -10.50900 49.62800
C  25.35800 -10.18400 50.34200
C  25.74300 -8.95800 49.55500
C  22.85600 -11.02100 50.64400
C  26.42100 -11.34900 50.40200
C  27.06500 -11.36300 51.79500
N  26.52100 -6.33000 48.29100
C  27.44100 -7.11700 49.00900
C  28.75100 -6.46200 49.02700
C  28.56700 -5.36700 48.18300
C  27.28100 -5.36500 47.73000
C  29.95700 -6.96900 49.80000
C  29.25300 -4.10700 47.75300
O  30.31100 -3.61500 48.10200
C  28.30800 -3.34600 46.78600
C  28.17600 -1.88300 47.21100
O  27.74600 -1.40500 48.28400
O  28.43400 -1.12100 46.11000
C  27.98100 0.22000 46.25600
H  21.63300 -4.25300 45.16500
H  21.77400 -9.92900 48.58300
H  27.73000 -8.91500 50.09800
H  26.01300 -2.04300 45.64100
H  23.53400 -2.80200 44.25600
H  24.01200 -0.91100 46.20300
H  23.03200 -2.11900 47.07600
H  22.36200 -1.33800 45.65200
H  25.41300 -3.10000 43.03000
H  26.60500 -4.28600 43.63700
H  28.26400 -2.41400 43.51500
H  27.02100 -1.23200 43.44900
H  19.38200 -7.24100 44.14900
H  20.22000 -5.67500 44.17100
H  18.86600 -5.93500 45.27400
H  19.62800 -9.95600 48.60500
H  19.93700 -11.02700 47.08700
H  18.35100 -10.60900 47.65500
H  24.06600 -11.31600 48.90600
H  25.19400 -9.72700 51.31800
H  23.44500 -11.36300 51.49500
H  22.37300 -11.90200 50.22300
H  22.13100 -10.23100 50.83800
H  27.21100 -11.03600 49.72000
H  26.09500 -12.28300 49.94500
H  27.19700 -12.40600 52.08300
H  26.43800 -10.93400 52.57600
H  28.00400 -10.81700 51.69900
H  29.56300 -7.32300 50.75200
H  30.74600 -6.22100 49.87900
H  30.40300 -7.84400 49.32800
H  28.72000 -3.39100 45.77700
H  28.41500 0.65500 45.35500
H  28.44600 0.77900 47.06800
H  26.90200 0.36100 46.30400

