79

Mg 42.66200 41.48300 26.80600
C  41.62800 43.69100 29.35700
C  43.96200 39.47600 29.26500
C  44.18200 39.81800 24.42300
C  41.79800 44.03400 24.46600
N  42.66200 41.51000 29.01300
C  42.03900 42.41300 29.82800
C  42.18300 42.09800 31.32200
C  42.92100 40.76700 31.28300
C  43.21200 40.53900 29.74400
C  44.28400 40.69800 32.08100
C  40.78600 41.99700 32.07500
C  40.99700 41.66800 33.57900
H  40.05800 42.42100 34.54200
N  43.86900 39.86500 26.85400
C  44.13000 39.03600 27.91300
C  44.83300 37.85000 27.37600
C  44.86500 37.87200 25.96000
C  44.34400 39.26300 25.72800
C  45.25300 36.80300 28.28700
C  45.46500 36.84800 24.87000
O  45.51700 37.11500 23.66400
C  46.02500 35.47200 25.33400
N  43.03200 41.84800 24.71500
C  43.52200 40.94900 23.98700
C  43.44300 41.28100 22.47100
C  42.58600 42.51800 22.54800
C  42.43800 42.85900 24.00700
C  44.77800 41.44800 21.72200
C  41.17600 42.24100 21.92500
C  40.14100 41.34400 22.67800
N  41.74400 43.40800 26.83800
C  41.50600 44.36200 25.80800
C  41.11700 45.58500 26.40500
C  41.17300 45.38100 27.80000
C  41.51000 44.05300 28.00700
C  40.71700 46.82000 25.72500
C  40.92400 46.02000 29.07500
O  40.49100 47.11000 29.38200
C  41.10300 44.91900 30.13900
C  42.05000 45.35600 31.23600
O  43.15000 45.82100 31.00400
O  41.37500 45.24800 32.40600
C  42.07000 45.86500 33.49800
H  44.36300 38.83800 30.05500
H  44.45900 39.18900 23.57500
H  41.57000 44.82300 23.74600
H  42.81300 42.82800 31.82900
H  42.25600 39.96900 31.61400
H  44.12000 41.28600 32.98400
H  45.10400 41.25900 31.63300
H  44.59900 39.68000 32.31100
H  40.18700 41.19600 31.64000
H  40.10800 42.83500 31.91000
H  42.01500 41.88000 33.90500
H  40.84600 40.60600 33.77200
H  46.29400 36.50800 28.15500
H  44.66900 35.97500 27.88600
H  45.13600 37.00200 29.35200
H  46.37100 35.01100 24.40900
H  45.35300 34.83600 25.91000
H  46.93500 35.75400 25.86200
H  42.85300 40.52700 21.95000
H  42.92700 43.40600 22.01500
H  45.70200 41.52800 22.29500
H  44.68200 42.34100 21.10500
H  45.06300 40.65900 21.02600
H  41.24000 41.89300 20.89400
H  40.62800 43.18300 21.91600
H  40.45000 41.06800 23.68600
H  39.95000 40.46700 22.06000
H  39.17700 41.84700 22.75300
H  40.11500 46.55300 24.85600
H  41.59700 47.41300 25.48000
H  40.18700 47.38900 26.48900
H  40.09700 44.73400 30.51600
H  42.87200 46.56400 33.26000
H  42.68700 45.03900 33.85300
H  41.46700 46.17500 34.35200

