79

Mg 9.07000 3.78500 27.86600
C  10.42700 2.08300 30.75400
C  7.58200 6.04400 29.95200
C  7.20700 4.68600 25.23600
C  10.24500 0.97000 25.91600
N  8.83200 3.82500 30.11600
C  9.54300 3.15200 31.08500
C  9.45200 3.84700 32.45300
C  8.28700 4.92100 32.21300
C  8.25600 4.93200 30.66600
C  6.87700 4.59400 32.78800
C  10.81600 4.53700 32.94300
C  11.26200 4.02000 34.29500
H  10.21300 3.73100 35.38500
N  7.68900 5.18700 27.61800
C  7.32300 6.14300 28.53300
C  6.44500 7.16000 27.90600
C  6.26600 6.72100 26.56400
C  7.02700 5.45800 26.42200
C  5.89200 8.33400 28.63900
C  5.38100 7.35200 25.46600
O  5.19200 6.78900 24.37300
C  4.85300 8.64100 25.65900
N  8.66900 2.90500 25.93500
C  7.98900 3.60500 24.96500
C  8.08400 3.05800 23.58300
C  9.20100 1.91900 23.79800
C  9.38300 1.89400 25.31600
C  6.76100 2.53100 22.97300
C  10.60200 2.29400 23.12100
C  11.39700 3.35200 23.89100
N  10.28800 2.00500 28.16500
C  10.61800 0.90400 27.30600
C  11.38300 -0.08700 28.04300
C  11.39800 0.42900 29.35500
C  10.68100 1.63200 29.39700
C  11.80800 -1.35100 27.50400
C  11.84000 0.09300 30.71200
O  12.44200 -0.83300 31.25200
C  11.34700 1.28600 31.68200
C  10.59500 0.60200 32.79100
O  9.41400 0.27100 32.68900
O  11.30600 0.41200 34.00000
C  10.50700 -0.22200 35.13600
H  7.14100 6.75500 30.65300
H  6.82400 5.24500 24.37900
H  10.54600 0.19000 25.21400
H  9.16700 3.08400 33.17800
H  8.64100 5.85800 32.64400
H  6.40700 5.50900 33.14900
H  6.94000 3.84900 33.58100
H  6.23500 4.18400 32.00800
H  11.00200 5.61100 32.94300
H  11.59600 4.20000 32.26100
H  11.85100 4.76100 34.83600
H  11.93300 3.19700 34.04600
H  6.30000 8.45300 29.64300
H  4.82600 8.12900 28.73200
H  6.09500 9.24500 28.07700
H  5.80500 9.16900 25.72800
H  4.20000 8.79200 26.51800
H  4.26400 8.95100 24.79600
H  8.45100 3.68900 22.77300
H  8.95800 0.96800 23.32500
H  5.90200 2.57700 23.64200
H  6.87000 1.45400 22.85300
H  6.50900 3.04100 22.04300
H  10.45900 2.60600 22.08600
H  11.13400 1.34800 23.22500
H  10.71100 4.06400 24.35100
H  12.01400 3.94900 23.21900
H  11.92700 2.79800 24.66600
H  12.83900 -1.32200 27.15300
H  11.24500 -1.62200 26.61100
H  11.78200 -2.13300 28.26400
H  12.24200 1.78600 32.05300
H  11.22600 -0.35800 35.94300
H  10.09600 -1.17700 34.81000
H  9.71700 0.46100 35.45000

