79

Mg 2.35300 -1.12600 43.56700
C  5.69200 -0.56500 42.91400
C  1.71700 1.56800 41.33700
C  -0.85600 -1.95300 43.44700
C  3.15000 -4.15600 45.06900
N  3.59400 0.25700 42.23200
C  4.95400 0.34400 42.16300
C  5.49900 1.45400 41.22600
C  4.17300 2.20400 40.94500
C  3.03200 1.29300 41.50300
C  4.23300 3.59400 41.55700
C  6.11400 0.71600 39.94700
C  7.67300 0.77000 39.76900
H  8.38500 1.41200 38.57800
N  0.56600 -0.15400 42.75500
C  0.53300 0.93600 41.87600
C  -0.83900 1.15700 41.56400
C  -1.64500 0.23400 42.35000
C  -0.67400 -0.62000 42.98200
C  -1.30700 2.14400 40.60000
C  -3.14300 0.23000 42.43200
O  -3.78200 0.97500 41.74200
C  -3.89100 -0.63700 43.43400
N  1.32000 -2.76800 44.13300
C  -0.04700 -2.91900 43.98800
C  -0.64300 -4.24700 44.51700
C  0.61100 -4.82200 45.20700
C  1.76400 -3.90300 44.78000
C  -1.85700 -4.15000 45.48200
C  1.04400 -6.27600 44.77200
C  1.59600 -7.16000 45.89900
N  4.04900 -2.18500 43.97700
C  4.25000 -3.44300 44.62500
C  5.69100 -3.62300 44.80200
C  6.23900 -2.45500 44.24500
C  5.25000 -1.69700 43.66800
C  6.36600 -4.80300 45.41000
C  7.50300 -1.88200 44.02100
O  8.62500 -2.39000 44.28600
C  7.27500 -0.64400 43.16500
C  7.77200 0.55800 43.85000
O  7.35800 0.94300 44.95700
O  8.85700 1.13800 43.14600
C  9.53100 2.28400 43.90200
H  1.49600 2.36700 40.62700
H  -1.88000 -2.33100 43.41400
H  3.47700 -5.03900 45.62200
H  6.27400 1.97500 41.78800
H  3.97400 2.31500 39.87900
H  4.00400 3.48000 42.61600
H  3.34100 4.08600 41.16900
H  5.12000 4.21800 41.44800
H  5.81700 1.19600 39.01400
H  5.74900 -0.31100 39.94200
H  8.16300 -0.18900 39.94000
H  8.05600 1.41500 40.56000
H  -0.47900 2.35100 39.92200
H  -1.53000 2.92800 41.32400
H  -2.24400 1.88500 40.10800
H  -4.82300 -0.11200 43.64100
H  -3.43200 -0.76300 44.41500
H  -4.07600 -1.62100 43.00300
H  -0.83300 -4.82300 43.61200
H  0.64800 -4.76300 46.29400
H  -2.10600 -3.08900 45.47100
H  -1.61300 -4.49900 46.48500
H  -2.72300 -4.67300 45.07600
H  1.75700 -6.23400 43.94800
H  0.17100 -6.75400 44.32700
H  1.19400 -8.17300 45.90000
H  1.43600 -6.70600 46.87700
H  2.65200 -7.23100 45.64200
H  6.45500 -5.67700 44.76500
H  5.87100 -4.93300 46.37300
H  7.38000 -4.48000 45.64400
H  7.74800 -0.92700 42.22500
H  10.41600 1.92100 44.42400
H  8.84500 2.73000 44.62200
H  9.93100 2.97900 43.16400

