79

Mg 17.09800 -1.71300 27.74800
C  16.27700 0.49600 30.36200
C  19.22800 -3.38100 29.92900
C  18.39600 -3.40900 25.04700
C  15.65400 0.55700 25.52200
N  17.64100 -1.47300 29.92100
C  17.04900 -0.54700 30.80000
C  17.47100 -0.88100 32.21700
C  18.43400 -2.20000 32.11600
C  18.49600 -2.33800 30.59100
C  19.82500 -2.03100 32.80800
C  16.17700 -1.12500 33.06600
C  16.00600 -0.29400 34.39100
H  17.27200 -0.06300 35.24600
N  18.47000 -3.28800 27.47200
C  19.25600 -3.78000 28.50600
C  19.99800 -4.96500 28.03900
C  19.88400 -4.87300 26.59600
C  18.90200 -3.85600 26.29900
C  20.86400 -5.81600 28.92300
C  20.66300 -5.72900 25.54700
O  20.53400 -5.58000 24.32900
C  21.75000 -6.77000 26.05800
N  17.05400 -1.38300 25.49300
C  17.59100 -2.34200 24.66100
C  17.36600 -1.88900 23.20200
C  16.26100 -0.79700 23.39300
C  16.31000 -0.53600 24.89700
C  18.73000 -1.23900 22.54300
C  14.87200 -1.25900 22.99800
C  14.18400 -2.28600 23.92300
N  16.24300 0.16700 27.82700
C  15.66900 0.94200 26.82800
C  15.07800 2.17000 27.45700
C  15.35200 2.04100 28.84700
C  15.94800 0.75900 29.00900
C  14.46500 3.24900 26.70500
C  15.28500 2.64500 30.12100
O  14.87100 3.76000 30.42400
C  15.91400 1.71600 31.14800
C  17.04000 2.43600 31.87100
O  18.20400 2.67200 31.46000
O  16.49600 3.04800 32.99000
C  17.30400 3.92800 33.90700
H  19.94000 -3.94300 30.53700
H  18.80400 -3.98400 24.21300
H  15.27500 1.29800 24.81600
H  18.11500 -0.10300 32.62600
H  17.93300 -3.10400 32.46300
H  19.82500 -1.24200 33.56100
H  20.66700 -1.88400 32.13200
H  20.02800 -3.00100 33.26200
H  16.07500 -2.18800 33.28600
H  15.26600 -0.90900 32.50800
H  15.14300 -0.67300 34.93900
H  15.90100 0.77100 34.18200
H  20.37700 -5.79100 29.89800
H  21.87600 -5.41300 28.94400
H  20.74600 -6.88100 28.72600
H  21.13400 -7.58600 26.43700
H  22.35000 -6.37600 26.87900
H  22.36500 -7.04800 25.20300
H  16.98500 -2.71200 22.59700
H  16.61600 0.10400 22.89300
H  19.66800 -1.29300 23.09500
H  18.63600 -0.18000 22.30400
H  18.82800 -1.68100 21.55100
H  14.83700 -1.68500 21.99500
H  14.24800 -0.36900 23.08500
H  13.54400 -1.78000 24.64500
H  14.87000 -2.97600 24.41400
H  13.57100 -3.00000 23.37400
H  13.65200 2.91000 26.06300
H  15.20700 3.73000 26.06700
H  13.99600 3.94200 27.40400
H  15.21400 1.55200 31.96800
H  16.90600 3.69000 34.89400
H  17.15000 5.00300 33.82600
H  18.36300 3.69200 33.79800

