79

Mg 26.25400 0.42200 28.89300
C  27.99300 -0.11400 31.82000
C  23.34100 0.75500 30.78200
C  24.60300 0.65100 26.07300
C  29.18500 -0.12400 27.06500
N  25.73200 0.23900 31.03500
C  26.63500 0.04900 32.08700
C  25.84700 0.17500 33.46600
C  24.38200 0.40800 33.06800
C  24.53300 0.61800 31.51400
C  23.23200 -0.67200 33.52300
C  26.51400 1.09500 34.51400
C  25.78600 1.40400 35.81000
H  26.71400 1.72500 36.99500
N  24.21400 0.71900 28.50300
C  23.14500 0.76900 29.36700
C  22.01200 1.09800 28.58400
C  22.32000 0.87500 27.21700
C  23.76300 0.72400 27.20200
C  20.71800 1.40100 29.20100
C  21.37200 0.87600 26.11800
O  21.69400 0.58700 24.92600
C  19.95700 1.47000 26.23500
N  26.81300 0.22600 26.81900
C  25.92500 0.42600 25.84800
C  26.52600 0.46000 24.47400
C  28.01600 0.42800 24.86200
C  28.06200 0.21400 26.34300
C  26.00600 -0.70500 23.63600
C  28.81600 1.70100 24.47400
C  30.28400 1.49400 24.03200
N  28.22700 -0.10200 29.37700
C  29.34500 -0.19500 28.48500
C  30.55300 -0.49000 29.32900
C  30.07300 -0.45500 30.67300
C  28.64200 -0.23100 30.56400
C  31.98500 -0.82400 28.83700
C  30.35900 -0.53700 32.08300
O  31.49100 -0.63900 32.61800
C  29.03400 -0.29800 32.86400
C  28.76300 -1.47700 33.83500
O  28.16500 -2.52100 33.66800
O  29.41900 -1.21500 34.99400
C  29.28500 -2.13600 36.14200
H  22.44600 0.99300 31.36000
H  24.11900 0.85000 25.11400
H  30.11700 -0.03200 26.50200
H  25.92500 -0.83200 33.87700
H  24.05500 1.33400 33.54300
H  22.32900 -0.23600 33.95100
H  23.71500 -1.31200 34.26200
H  23.02700 -1.33800 32.68500
H  26.91800 1.99800 34.05600
H  27.44900 0.60600 34.78900
H  25.22000 0.48400 35.95900
H  25.14600 2.27800 35.68300
H  20.72100 1.61300 30.27000
H  20.10700 0.53900 28.93200
H  20.38500 2.35800 28.79800
H  19.26700 0.82200 26.77500
H  19.66500 1.49500 25.18500
H  19.95000 2.53600 26.46400
H  26.12100 1.31900 23.94100
H  28.45500 -0.43100 24.35300
H  26.72300 -1.52600 23.67100
H  25.84300 -0.42800 22.59400
H  25.06400 -1.09300 24.02200
H  28.87600 2.35000 25.34800
H  28.19900 2.17200 23.70900
H  30.32300 2.04700 23.09400
H  30.62400 0.45900 24.06900
H  30.98600 2.00400 24.69300
H  32.84600 -0.26900 29.20700
H  32.06600 -0.76700 27.75100
H  32.16800 -1.88200 29.02300
H  29.21200 0.62300 33.41800
H  28.60100 -1.71600 36.88000
H  30.29300 -2.09700 36.55600
H  28.94300 -3.14700 35.92200

