79

Mg 25.72700 -0.76900 29.37800
C  27.44900 -0.97200 32.33700
C  22.78600 -0.52200 31.22900
C  23.92700 -0.76700 26.57500
C  28.63300 -1.36000 27.55300
N  25.21700 -1.02600 31.51500
C  26.05800 -0.93500 32.59300
C  25.34800 -0.53000 33.96600
C  23.91300 -0.86700 33.49400
C  23.96300 -0.85300 31.94600
C  23.30100 -2.22300 34.13600
C  25.72900 0.90200 34.40600
C  24.83200 1.63300 35.40800
H  25.59700 2.19100 36.68600
N  23.68500 -0.51400 28.95100
C  22.66900 -0.38600 29.82700
C  21.44600 -0.07300 29.14000
C  21.79400 -0.10100 27.78600
C  23.19200 -0.46000 27.71100
C  20.10000 0.07000 29.84400
C  20.97700 0.31400 26.56000
O  21.48900 0.34700 25.44800
C  19.53200 0.82400 26.67800
N  26.26100 -1.08500 27.39600
C  25.29900 -1.09200 26.36500
C  25.97300 -1.26800 25.03200
C  27.51300 -1.24400 25.34700
C  27.45000 -1.31000 26.82500
C  25.50600 -2.55900 24.21100
C  28.21800 0.10000 24.94100
C  29.29800 0.05900 23.81900
N  27.67400 -1.25600 29.80000
C  28.75000 -1.38900 28.95900
C  29.90000 -1.54700 29.80500
C  29.48300 -1.28000 31.10900
C  28.12900 -1.15400 31.06200
C  31.25000 -1.86100 29.29100
C  29.93300 -1.03000 32.46000
O  31.07500 -1.04900 32.89800
C  28.61400 -0.69600 33.31900
C  28.67000 -1.68600 34.39900
O  28.46400 -2.89300 34.23800
O  29.07400 -1.09000 35.63000
C  29.37400 -2.01200 36.74800
H  21.90700 -0.43500 31.87100
H  23.33900 -0.85400 25.65900
H  29.52000 -1.46700 26.92500
H  25.63100 -1.23200 34.75000
H  23.40900 0.04400 33.81800
H  23.96800 -2.67900 34.86800
H  23.06400 -2.94500 33.35600
H  22.31300 -1.95000 34.50600
H  25.80800 1.45400 33.47000
H  26.71400 0.89300 34.87300
H  23.98100 1.05100 35.76100
H  24.43700 2.56400 35.00100
H  19.50100 0.89300 29.45600
H  20.17000 0.12300 30.93100
H  19.44300 -0.78900 29.70700
H  19.19900 1.07700 25.67100
H  19.46600 1.64200 27.39500
H  18.81800 0.08800 27.04900
H  25.55900 -0.41900 24.48800
H  28.00200 -2.16900 25.04100
H  24.65900 -3.07400 24.66500
H  26.21500 -3.38300 24.12900
H  25.18800 -2.35500 23.18800
H  28.71300 0.64400 25.74600
H  27.48500 0.80000 24.53800
H  30.22300 0.39800 24.28600
H  28.97300 0.59400 22.92700
H  29.40400 -0.98000 23.50700
H  31.33500 -2.05600 28.22200
H  31.77800 -2.64900 29.82800
H  31.82900 -0.94100 29.37600
H  28.59700 0.28500 33.79500
H  29.35300 -3.05100 36.41700
H  28.55900 -1.90300 37.46300
H  30.30900 -1.81200 37.27200

