79

Mg 6.57000 54.35700 41.67600
C  5.15300 51.27600 41.03100
C  9.48400 53.27900 40.23800
C  7.81500 57.53700 41.71900
C  3.42400 55.56200 42.47600
N  7.07600 52.54900 40.51100
C  6.40700 51.39300 40.47900
C  7.11700 50.36700 39.65800
C  8.66400 50.93300 39.74400
C  8.40400 52.34100 40.20300
C  9.70200 50.06600 40.52500
C  6.58600 50.30600 38.19100
C  6.41500 48.91400 37.53200
H  7.02500 48.79400 36.15900
N  8.43900 55.23100 41.17800
C  9.44900 54.63300 40.56100
C  10.49800 55.50800 40.31800
C  10.08100 56.72900 40.65300
C  8.74100 56.56400 41.27200
C  11.84700 55.09200 39.58300
C  10.94000 57.94500 40.40900
O  12.01000 57.91500 39.84100
C  10.45500 59.40000 40.74200
N  5.68400 56.29100 41.94500
C  6.46000 57.42200 42.12600
C  5.58300 58.62200 42.62600
C  4.23100 57.91600 42.95300
C  4.45300 56.54700 42.41000
C  6.28300 59.30700 43.89000
C  2.96900 58.73200 42.60600
C  1.89600 58.76600 43.70300
N  4.65300 53.58900 41.80400
C  3.48100 54.24700 42.15900
C  2.40400 53.20100 42.17300
C  2.99100 52.00400 41.84900
C  4.39300 52.34900 41.59100
C  1.01000 53.56200 42.74300
C  2.96600 50.51200 41.70900
O  2.02400 49.76200 41.94400
C  4.27000 50.08100 41.22500
C  3.91900 49.24300 40.05200
O  3.23400 49.48200 39.03800
O  4.33600 47.97600 40.38200
C  3.67600 46.83900 39.81800
H  10.45900 53.05300 39.80100
H  8.20400 58.55600 41.66600
H  2.52500 56.05900 42.84800
H  6.95300 49.40000 40.13400
H  9.04700 51.15800 38.74900
H  9.08200 49.25300 40.90300
H  10.13900 50.56500 41.39100
H  10.38200 49.56800 39.83400
H  7.22100 50.91100 37.54300
H  5.60200 50.76300 38.29000
H  5.43400 48.43800 37.50500
H  6.99200 48.17500 38.08800
H  11.68900 55.11300 38.50500
H  12.23100 54.09000 39.77300
H  12.71500 55.66500 39.91000
H  11.22900 60.13600 40.52900
H  10.14800 59.50300 41.78200
H  9.65400 59.73500 40.08300
H  5.59200 59.38900 41.85200
H  4.32200 57.72700 44.02300
H  7.33100 59.00800 43.92400
H  5.80600 59.10500 44.84900
H  6.19600 60.35400 43.60200
H  2.59700 58.23000 41.71300
H  3.15600 59.77000 42.33200
H  2.20600 58.42300 44.69000
H  1.06400 58.14600 43.36800
H  1.46300 59.76600 43.69400
H  0.35300 52.82500 42.28200
H  0.71500 54.52600 42.32900
H  0.82400 53.37300 43.80100
H  4.75600 49.36600 41.88900
H  2.83100 47.25100 39.26600
H  3.48100 46.16900 40.65600
H  4.38600 46.32500 39.17000

