79

Mg 0.67100 8.09300 26.30400
C  1.47900 10.02300 29.13300
C  0.73200 5.29000 28.16100
C  0.49900 6.27300 23.42000
C  1.23900 10.93100 24.41100
N  1.15900 7.73800 28.38500
C  1.30800 8.63800 29.37700
C  1.17600 7.97300 30.73700
C  1.23000 6.46600 30.36300
C  1.05400 6.47100 28.83800
C  2.59600 5.73800 30.76700
C  -0.07100 8.40700 31.50600
C  -0.00300 8.61300 33.04000
H  1.22700 8.05200 33.80800
N  0.45700 6.10900 25.88100
C  0.52800 5.14100 26.78900
C  0.28300 3.89100 26.13000
C  0.17300 4.11400 24.74300
C  0.37900 5.57900 24.62300
C  0.19300 2.55700 26.92800
C  -0.17500 3.07500 23.62300
O  -0.31700 3.45100 22.47500
C  -0.38400 1.58000 23.96800
N  0.90500 8.53500 24.14900
C  0.63100 7.61400 23.18400
C  0.64500 8.38900 21.78100
C  1.07400 9.80300 22.12600
C  1.07900 9.77700 23.65100
C  1.50300 7.70800 20.63400
C  0.24400 10.95900 21.44200
C  -1.15000 11.20200 22.19300
N  1.06400 10.15200 26.70000
C  1.15500 11.16700 25.84000
C  1.31900 12.42900 26.50000
C  1.37500 12.05800 27.85800
C  1.29800 10.66200 27.90200
C  1.48500 13.80300 25.92100
C  1.66800 12.48300 29.21200
O  1.92100 13.61800 29.67100
C  1.51100 11.16200 30.13800
C  2.72300 11.08500 30.99100
O  3.81800 10.77200 30.66300
O  2.36000 11.53600 32.20900
C  3.46600 11.68200 33.27900
H  0.63800 4.38000 28.75800
H  0.52500 5.63900 22.53100
H  1.50300 11.86700 23.91400
H  2.06000 8.26700 31.30300
H  0.36700 5.91700 30.74000
H  3.01800 5.18800 29.92600
H  2.32800 5.00000 31.52300
H  3.26400 6.45100 31.25100
H  -0.81500 7.61800 31.39700
H  -0.46300 9.32300 31.06300
H  -0.84400 8.36400 33.68700
H  0.12600 9.69400 33.09300
H  0.42600 1.67900 26.32600
H  -0.82000 2.26400 27.20300
H  0.92600 2.52100 27.73500
H  -0.76400 1.13700 23.04800
H  -1.16900 1.63600 24.72100
H  0.56100 1.13900 24.28700
H  -0.33900 8.28900 21.32300
H  2.02100 10.03600 21.63900
H  1.87200 6.72800 20.93600
H  2.25000 8.39700 20.23900
H  0.88900 7.52600 19.75300
H  0.11000 10.63100 20.41100
H  0.85800 11.85000 21.31100
H  -1.89700 11.53400 21.47200
H  -1.02600 12.08100 22.82500
H  -1.44400 10.35400 22.81100
H  1.44200 14.58400 26.68000
H  0.71500 14.05200 25.19100
H  2.43800 13.75000 25.39400
H  0.69700 11.24800 30.85800
H  3.16500 11.20900 34.21400
H  3.36500 12.75200 33.46000
H  4.46300 11.32500 33.02000

