79

Mg 24.66200 -6.79400 46.93000
C  27.05200 -4.60400 45.78000
C  22.38800 -5.27600 44.81000
C  22.53200 -9.39100 47.31100
C  27.22000 -8.70800 48.41200
N  24.79900 -5.20900 45.31700
C  25.83500 -4.40300 45.19000
C  25.55100 -3.29600 44.27200
C  24.03500 -3.29000 44.17000
C  23.70200 -4.67500 44.80900
C  23.23200 -2.19700 44.87900
C  26.27700 -3.24800 42.88200
C  26.55000 -1.79100 42.24200
H  26.00000 -1.57600 40.82300
N  22.60300 -7.15000 46.33100
C  21.86800 -6.35000 45.51600
C  20.52600 -6.83000 45.55900
C  20.49900 -8.06100 46.29100
C  21.89700 -8.24200 46.71500
C  19.46400 -6.03900 44.82700
C  19.30200 -8.83200 46.63400
O  18.20000 -8.42200 46.21100
C  19.41800 -10.09000 47.50900
N  24.89300 -8.75700 47.73900
C  23.86000 -9.63800 47.72900
C  24.25000 -10.91400 48.44400
C  25.69200 -10.73900 48.97500
C  25.98400 -9.30000 48.34900
C  23.21200 -11.39400 49.54200
C  26.73700 -11.80400 48.53000
C  27.77900 -12.19300 49.63800
N  26.69800 -6.69200 47.22300
C  27.60400 -7.45500 47.95800
C  28.87200 -6.73900 48.07300
C  28.73500 -5.66500 47.17300
C  27.40200 -5.64900 46.68700
C  30.00600 -7.12100 48.90000
C  29.46900 -4.49200 46.69400
O  30.58100 -4.07300 47.01200
C  28.38200 -3.77700 45.66100
C  28.44900 -2.27200 45.75000
O  28.76400 -1.49500 44.83400
O  28.03800 -1.78000 46.98400
C  28.16400 -0.33100 47.23900
H  21.62100 -4.70500 44.28400
H  21.91200 -10.27800 47.45700
H  28.05300 -9.17900 48.93800
H  25.79400 -2.33700 44.73000
H  23.68600 -3.29600 43.13800
H  23.39500 -1.18100 44.52000
H  23.26000 -2.20200 45.96800
H  22.20000 -2.45900 44.64800
H  25.75000 -3.79800 42.10300
H  27.25100 -3.73200 42.82200
H  27.63000 -1.66900 42.31800
H  26.16800 -0.99300 42.87800
H  19.60200 -6.22100 43.76100
H  19.63500 -4.99500 45.09100
H  18.40800 -6.24000 45.00700
H  20.07100 -10.73100 46.91600
H  18.36600 -10.37200 47.53000
H  19.92400 -9.83200 48.43900
H  24.28100 -11.70600 47.69500
H  25.65400 -10.70100 50.06300
H  22.68500 -12.27200 49.16900
H  22.48000 -10.61600 49.76100
H  23.73800 -11.72900 50.43600
H  27.35100 -11.29200 47.79000
H  26.39700 -12.75700 48.12600
H  28.77600 -11.98300 49.24900
H  27.69400 -13.24200 49.92000
H  27.61100 -11.58000 50.52300
H  30.43100 -6.23600 49.37200
H  30.78200 -7.71200 48.41300
H  29.67100 -7.84700 49.64100
H  28.71800 -4.07400 44.66800
H  28.43800 0.26300 46.36700
H  28.90800 -0.03200 47.97700
H  27.23700 0.00100 47.70700

