79

Mg -2.34800 16.60300 25.91700
C  -2.90400 14.60600 28.81800
C  -3.34900 19.38100 27.84500
C  -2.53300 18.50300 23.14700
C  -2.08400 13.77400 24.04900
N  -3.01800 16.92500 28.12800
C  -3.16400 15.97900 29.09200
C  -3.60000 16.62600 30.41200
C  -4.11800 18.04500 29.92000
C  -3.48900 18.13600 28.49100
C  -5.64600 18.10900 29.90600
C  -2.43700 16.74400 31.45400
C  -2.89800 17.17800 32.82600
H  -2.77300 16.00400 33.86700
N  -2.67100 18.64800 25.56300
C  -2.79100 19.66200 26.53600
C  -2.56000 20.93000 25.93400
C  -2.41400 20.69700 24.49800
C  -2.57000 19.22500 24.30400
C  -2.52800 22.24300 26.80000
C  -2.08400 21.66600 23.38500
O  -2.08400 21.44000 22.21400
C  -1.96100 23.10100 23.77700
N  -2.50200 16.17300 23.91300
C  -2.48800 17.12500 22.90000
C  -2.35500 16.50200 21.47800
C  -1.90800 14.98800 21.84500
C  -2.19900 14.93700 23.36100
C  -3.64300 16.65700 20.60400
C  -0.51300 14.55700 21.56000
C  0.57000 15.12200 22.45300
N  -2.38900 14.61600 26.34300
C  -2.24000 13.51200 25.43000
C  -2.35400 12.33900 26.06500
C  -2.54000 12.67000 27.43200
C  -2.55800 14.08600 27.51600
C  -2.14500 10.99400 25.45200
C  -2.69700 12.07500 28.74200
O  -2.53100 10.93200 29.14800
C  -3.05300 13.35800 29.68200
C  -2.11400 13.38600 30.82900
O  -0.96400 13.83700 30.87100
O  -2.61000 12.56900 31.83000
C  -1.91900 12.21400 33.08400
H  -3.74700 20.23200 28.40100
H  -2.34300 18.99500 22.19000
H  -1.98400 12.87400 23.44000
H  -4.38200 16.01600 30.86600
H  -3.69700 18.90300 30.44500
H  -5.90100 18.44800 28.90200
H  -6.04200 18.81800 30.63300
H  -6.12500 17.14100 30.05400
H  -1.71300 17.46000 31.06700
H  -1.96700 15.76200 31.50700
H  -3.94300 17.48200 32.77000
H  -2.31700 18.04900 33.13100
H  -2.59500 22.09700 27.87800
H  -3.43400 22.75700 26.47700
H  -1.66200 22.82200 26.47800
H  -1.90400 23.70300 22.87000
H  -0.99800 23.20700 24.27800
H  -2.75400 23.50600 24.40500
H  -1.55600 16.93300 20.87600
H  -2.61700 14.30700 21.37500
H  -4.27700 15.78500 20.76200
H  -3.39600 16.73800 19.54600
H  -4.14100 17.61500 20.75600
H  -0.41000 14.84600 20.51400
H  -0.54800 13.49500 21.31700
H  0.15600 15.63500 23.32100
H  1.12600 15.85600 21.87000
H  1.21500 14.32600 22.82700
H  -2.06600 10.21800 26.21300
H  -1.21700 10.96200 24.88100
H  -2.94700 10.72500 24.76400
H  -4.03000 13.37200 30.16300
H  -1.13500 12.97000 33.11000
H  -1.41900 11.24800 33.01100
H  -2.67800 12.36800 33.85200

