79

Mg 16.99400 52.75800 26.23500
C  18.91400 51.28800 28.68600
C  14.69400 53.70500 28.65000
C  14.99400 53.75900 23.88000
C  19.11200 51.31500 23.86000
N  16.80600 52.41300 28.37600
C  17.76900 51.94400 29.18500
C  17.49400 52.19500 30.69100
C  15.98300 52.59000 30.64900
C  15.76200 52.93600 29.12100
C  15.05800 51.46200 31.14100
C  18.40300 53.34600 31.26200
C  18.82500 53.34000 32.75200
H  17.94300 52.57000 33.68600
N  15.12000 53.58400 26.25600
C  14.40700 53.96000 27.30000
C  13.25300 54.65200 26.89700
C  13.38800 54.79400 25.47500
C  14.58300 54.04900 25.15400
C  12.19000 55.14100 27.87100
C  12.42600 55.47300 24.50600
O  12.62900 55.50600 23.27500
C  11.23000 56.09800 25.01300
N  16.91500 52.31400 24.28300
C  16.04200 53.00200 23.41400
C  16.30100 52.68700 21.98100
C  17.64700 52.02800 22.10400
C  17.96000 51.91600 23.52200
C  15.28000 51.64700 21.42100
C  18.74800 52.70500 21.30300
C  19.22800 54.04900 21.89400
N  18.71900 51.59900 26.23200
C  19.48400 51.03900 25.21200
C  20.60000 50.27400 25.78500
C  20.41300 50.43500 27.11300
C  19.21600 51.14800 27.37400
C  21.68300 49.62900 24.97000
C  20.99700 50.18900 28.41900
O  22.09600 49.67100 28.66300
C  20.00700 50.71600 29.45900
C  19.68200 49.63100 30.39800
O  18.67500 48.97100 30.36800
O  20.72500 49.51300 31.32800
C  20.50400 48.59400 32.45700
H  14.09100 53.96700 29.52200
H  14.52100 54.20700 23.00300
H  19.77700 51.03800 23.04000
H  17.76700 51.29800 31.24800
H  15.73400 53.52900 31.14400
H  14.86300 51.52700 32.21100
H  15.63700 50.54800 31.00600
H  14.06800 51.44200 30.68600
H  17.94800 54.32000 31.08200
H  19.22800 53.46000 30.55900
H  18.99400 54.33500 33.16500
H  19.82200 52.90000 32.78800
H  12.63600 55.59900 28.75400
H  11.82900 54.18600 28.25400
H  11.36500 55.77000 27.53700
H  11.53000 56.90000 25.68700
H  10.73200 55.27700 25.52900
H  10.54500 56.49400 24.26300
H  16.27400 53.63000 21.43500
H  17.63600 50.97000 21.84400
H  15.59000 51.16800 20.49200
H  14.37000 52.13200 21.06800
H  14.98100 50.93200 22.18800
H  18.31300 52.94900 20.33400
H  19.66000 52.16700 21.04700
H  18.35000 54.62800 22.17900
H  19.71900 54.55100 21.05900
H  19.96800 53.78300 22.64900
H  22.40500 50.36700 24.62200
H  21.27000 49.24000 24.03900
H  22.10600 48.83000 25.57800
H  20.52800 51.48700 30.02700
H  19.57900 48.87000 32.96300
H  21.24200 48.79900 33.23200
H  20.40000 47.55000 32.15900

