79

Mg 44.00500 4.69700 47.38600
C  42.09500 7.57400 47.36700
C  41.13800 2.74500 47.17900
C  45.96100 1.89700 46.66900
C  46.85800 6.60400 47.46700
N  41.85000 5.18700 47.07500
C  41.33000 6.39900 47.32400
C  39.77900 6.30500 47.58600
C  39.54500 4.73700 47.68500
C  40.89700 4.14700 47.33000
C  38.86200 4.37900 49.06300
C  38.94400 7.00900 46.46600
C  39.23000 6.58300 45.01400
H  39.11300 7.63000 43.92900
N  43.57600 2.60000 46.98000
C  42.31100 2.05100 47.05800
C  42.40100 0.61500 46.81200
C  43.77200 0.39000 46.48200
C  44.51400 1.65300 46.64200
C  41.19200 -0.39500 47.03700
C  44.44400 -1.00600 45.98400
O  43.72200 -2.00100 45.90900
C  45.91900 -1.19300 45.48500
N  46.10400 4.25400 47.03400
C  46.69500 3.05600 46.86500
C  48.23100 3.05200 46.93600
C  48.42100 4.58500 47.25700
C  47.02300 5.23400 47.24900
C  48.93700 1.97900 47.75700
C  49.36300 5.24300 46.23200
C  50.83100 5.42400 46.65600
N  44.48600 6.68200 47.40200
C  45.65800 7.35100 47.44900
C  45.37600 8.76700 47.46700
C  44.04200 8.87800 47.47700
C  43.51800 7.60800 47.36600
C  46.40500 9.84300 47.40900
C  42.96700 9.84500 47.34800
O  42.99400 11.05800 47.13000
C  41.62500 8.94200 47.32800
C  40.89100 9.29400 48.53100
O  40.95400 8.70700 49.58200
O  40.14900 10.45700 48.33900
C  39.40400 10.95700 49.47500
H  40.20300 2.18200 47.21200
H  46.66400 1.11300 46.38000
H  47.77100 7.18500 47.61300
H  39.59500 6.77900 48.55000
H  38.90100 4.36900 46.88700
H  38.55900 5.27800 49.60000
H  39.39900 3.72100 49.74600
H  37.91900 3.92700 48.75500
H  38.90200 8.09800 46.46200
H  37.91600 6.75400 46.72400
H  38.60600 5.72200 44.77200
H  40.25100 6.21300 44.91800
H  40.21500 0.06200 47.19100
H  41.49300 -0.90800 47.95100
H  41.12100 -0.90000 46.07400
H  46.68300 -1.18300 46.26200
H  46.09500 -0.35500 44.80900
H  46.04600 -2.14100 44.96200
H  48.49200 2.93200 45.88400
H  48.83200 4.57500 48.26700
H  48.25200 1.29200 48.25300
H  49.47500 2.52500 48.53300
H  49.53300 1.32400 47.12300
H  48.98300 6.25700 46.11400
H  49.40200 4.77600 45.24800
H  51.11800 5.03400 47.63300
H  50.83800 6.49500 46.85800
H  51.52000 5.17100 45.85000
H  47.43100 9.48700 47.31500
H  46.33600 10.50000 48.27600
H  46.24400 10.39600 46.48300
H  40.95000 9.22600 46.52100
H  38.57700 11.61700 49.21200
H  40.04700 11.34100 50.26700
H  38.82600 10.11000 49.84400

