79

Mg -11.23700 39.15300 41.55900
C  -9.89600 36.05900 40.57400
C  -8.65300 40.73000 39.94400
C  -12.87600 42.09800 42.15100
C  -14.20600 37.42300 42.62500
N  -9.56700 38.42800 40.19700
C  -9.13400 37.16800 40.21100
C  -7.86100 37.06200 39.37000
C  -7.33100 38.45600 39.57100
C  -8.56200 39.31300 39.94600
C  -6.20100 38.62000 40.70000
C  -8.07000 36.57800 37.88500
C  -7.30800 35.31200 37.52600
H  -6.20100 35.64800 36.49700
N  -10.85000 41.11300 41.06900
C  -9.76800 41.52100 40.38400
C  -9.81800 42.96100 40.29800
C  -10.87900 43.44400 41.08100
C  -11.63500 42.22100 41.50800
C  -8.78600 43.70300 39.59700
C  -11.12900 44.89300 41.31500
O  -10.41400 45.75600 40.80700
C  -12.28600 45.41900 42.06000
N  -13.26500 39.70200 42.06500
C  -13.64000 40.99400 42.42300
C  -15.12500 41.06900 42.93600
C  -15.50700 39.58100 42.94200
C  -14.20800 38.86400 42.61700
C  -15.15700 41.81900 44.32900
C  -16.61000 39.28900 41.87300
C  -17.65400 38.26700 42.15500
N  -11.94800 37.17900 41.63200
C  -13.12900 36.59600 42.15000
C  -12.96700 35.08000 42.15400
C  -11.73400 34.85600 41.59100
C  -11.16900 36.16100 41.28700
C  -13.90900 34.03300 42.79500
C  -10.67000 33.88300 41.23500
O  -10.60700 32.68300 41.54900
C  -9.55200 34.61800 40.61400
C  -8.30800 34.59200 41.54200
O  -8.33400 34.87100 42.74200
O  -7.27700 33.98000 40.86400
C  -6.04200 34.14000 41.68000
H  -7.72400 41.13300 39.53500
H  -13.40700 43.02300 42.38700
H  -15.05800 36.84400 42.98900
H  -7.17600 36.37500 39.86500
H  -6.87400 38.78600 38.63800
H  -5.30300 39.03500 40.24100
H  -5.90300 37.62500 41.02900
H  -6.42000 39.28400 41.53600
H  -7.65200 37.30400 37.18700
H  -9.13700 36.44000 37.71200
H  -7.86000 34.45500 37.14100
H  -6.70500 34.99000 38.37500
H  -7.85800 43.22400 39.28400
H  -8.39700 44.46400 40.27300
H  -9.32500 44.15600 38.76400
H  -13.19900 45.16300 41.52300
H  -12.05100 46.47700 42.18100
H  -12.20700 44.85300 42.98800
H  -15.51200 41.61800 42.07700
H  -15.86400 39.22700 43.90900
H  -14.20500 41.91900 44.84900
H  -15.80200 41.26100 45.00800
H  -15.58400 42.80400 44.14200
H  -16.05700 39.07500 40.95800
H  -17.10200 40.21400 41.57100
H  -17.71900 37.80900 41.16800
H  -18.66700 38.66700 42.17800
H  -17.41900 37.55000 42.94200
H  -13.25300 33.34700 43.33000
H  -14.53600 33.51600 42.06800
H  -14.51600 34.49400 43.57400
H  -9.26500 34.34400 39.59900
H  -5.92200 35.17400 42.00400
H  -5.17700 33.95800 41.04200
H  -5.90800 33.43400 42.50000

