79

Mg 54.66300 23.86700 44.42800
C  52.16500 26.23000 43.40200
C  52.32600 21.35500 43.59100
C  57.25800 21.83800 43.83000
C  56.81600 26.51000 45.03300
N  52.63100 23.80700 43.26500
C  51.79900 24.90400 43.11300
C  50.43200 24.52200 42.57900
C  50.30100 23.06800 43.21400
C  51.85800 22.66500 43.34400
C  49.70800 23.05500 44.64700
C  50.45500 24.59200 41.02700
C  48.99300 24.68100 40.53100
H  48.71600 24.18400 39.10300
N  54.70600 21.84100 44.00500
C  53.68700 20.95900 43.73700
C  54.22000 19.63800 43.67800
C  55.62600 19.74100 43.73400
C  55.91500 21.18000 43.83400
C  53.44600 18.36400 43.50000
C  56.62500 18.47600 43.68100
O  56.19300 17.28300 43.69600
C  58.10700 18.78800 43.51600
N  56.76000 24.08800 44.35700
C  57.63700 23.13100 44.15700
C  59.07900 23.44600 44.49800
C  58.86800 24.93700 44.96300
C  57.37000 25.16700 44.85700
C  59.93600 22.69700 45.47700
C  59.81900 26.01500 44.28300
C  61.04700 26.43700 45.20100
N  54.55200 25.95200 44.40400
C  55.44600 26.86800 44.77800
C  54.74800 28.15600 44.70600
C  53.48400 27.99300 44.21300
C  53.41100 26.60700 43.96200
C  55.28200 29.51200 45.10700
C  52.28100 28.64500 43.73000
O  51.98800 29.81500 43.62100
C  51.34600 27.51200 43.31700
C  51.06500 27.78200 41.96000
O  51.83500 27.84700 41.02300
O  49.74600 28.15800 41.87000
C  49.23300 28.79000 40.60900
H  51.49700 20.65700 43.45600
H  58.13300 21.18600 43.78300
H  57.50700 27.25800 45.42800
H  49.69800 25.20100 43.01200
H  49.77900 22.47000 42.46700
H  49.75300 21.98900 44.86900
H  48.63900 23.26300 44.70700
H  50.35900 23.62500 45.31000
H  50.99700 23.74100 40.61300
H  51.06100 25.37200 40.56800
H  48.55800 25.67500 40.63300
H  48.47100 24.02800 41.23100
H  53.52200 17.88700 44.47700
H  53.66100 17.75100 42.62500
H  52.40200 18.62400 43.32100
H  58.60300 17.81900 43.45300
H  58.39000 19.15200 44.50300
H  58.44300 19.44100 42.71100
H  59.59400 23.41700 43.53800
H  58.97700 25.01200 46.04500
H  59.39100 22.21600 46.28900
H  60.53000 23.40300 46.05700
H  60.67200 22.07500 44.96800
H  59.33800 26.91200 43.89300
H  60.22700 25.50200 43.41200
H  61.97800 26.24100 44.66800
H  61.13100 25.73300 46.02900
H  60.89600 27.43100 45.62200
H  55.30300 30.19800 44.26000
H  56.19400 29.30000 45.66600
H  54.63200 29.92200 45.87900
H  50.44400 27.37800 43.91400
H  49.93300 29.58000 40.33700
H  48.25000 29.25200 40.69200
H  49.20600 28.18900 39.70100

