79

Mg 2.70100 -3.13000 45.13200
C  5.61000 -1.42200 44.55300
C  0.95700 -0.82700 43.12900
C  -0.12800 -5.12800 45.19700
C  4.45200 -5.71100 46.57800
N  3.24200 -1.34500 44.09300
C  4.49500 -0.88500 43.91700
C  4.58700 0.30400 42.85600
C  3.03200 0.65800 42.72100
C  2.34800 -0.61100 43.30400
C  2.57400 1.91900 43.53900
C  5.22500 -0.23100 41.55200
C  6.10100 0.85700 40.91500
H  5.49700 1.55600 39.63600
N  0.71600 -2.93500 44.27500
C  0.18200 -1.87600 43.58900
C  -1.22200 -2.10400 43.31600
C  -1.55200 -3.30000 43.96600
C  -0.26400 -3.85700 44.47900
C  -2.11100 -1.10700 42.52300
C  -3.01700 -3.75900 44.21000
O  -3.96900 -3.18100 43.70900
C  -3.39400 -5.00200 44.99600
N  2.25200 -5.30900 45.51800
C  0.99900 -5.77100 45.66700
C  0.90500 -7.10400 46.49000
C  2.44800 -7.40600 46.67100
C  3.10600 -6.09600 46.17600
C  -0.04300 -7.13300 47.74700
C  3.01600 -8.60900 45.90200
C  4.15600 -9.43100 46.54000
N  4.60500 -3.56900 45.52400
C  5.23200 -4.61500 46.15400
C  6.67000 -4.29600 46.41500
C  6.84100 -3.04900 45.76700
C  5.57300 -2.61500 45.27900
C  7.72300 -5.17300 47.02300
C  7.78500 -2.08600 45.41800
O  8.97500 -2.05700 45.63900
C  7.06200 -1.04400 44.48300
C  7.24300 0.18600 45.13500
O  6.62600 0.63000 46.10100
O  8.19900 0.77800 44.31700
C  8.58300 2.12900 44.59000
H  0.69600 -0.06600 42.39100
H  -1.01300 -5.74400 45.37100
H  4.97600 -6.53100 47.07300
H  5.03100 1.20600 43.27600
H  2.62900 0.93000 41.74500
H  2.14500 1.65900 44.50700
H  1.81300 2.35600 42.89200
H  3.40000 2.60800 43.71300
H  4.44800 -0.37000 40.80100
H  5.76400 -1.13000 41.85300
H  7.07500 0.40500 40.72500
H  6.25500 1.66200 41.63400
H  -1.59400 -0.30000 42.00300
H  -2.81200 -0.65800 43.22700
H  -2.65900 -1.66300 41.76300
H  -2.89900 -5.90100 44.62700
H  -4.44700 -5.27100 44.91200
H  -3.07000 -4.83400 46.02300
H  0.45200 -7.82200 45.80600
H  2.61700 -7.43300 47.74800
H  -0.92700 -7.73600 47.54100
H  -0.33900 -6.14800 48.11000
H  0.49200 -7.65300 48.54100
H  3.32800 -8.33600 44.89400
H  2.21100 -9.33600 45.80200
H  4.51200 -9.07300 47.50600
H  5.06200 -9.51700 45.93900
H  3.72600 -10.40700 46.76300
H  8.35900 -4.73200 47.79100
H  8.40100 -5.55200 46.25800
H  7.21600 -6.07100 47.37600
H  7.47600 -1.00200 43.47500
H  7.77900 2.86200 44.65300
H  9.37300 2.48800 43.93000
H  9.03700 2.21000 45.57700

