79

Mg -1.44400 17.69900 27.24500
C  -2.18700 15.55200 29.88400
C  -2.37400 20.35900 29.35900
C  -1.81300 19.80200 24.52300
C  -1.45200 14.94600 25.13200
N  -2.21400 17.93700 29.48400
C  -2.33300 16.88300 30.32900
C  -2.47700 17.45000 31.77400
C  -2.72600 18.99500 31.53700
C  -2.49400 19.14100 29.98500
C  -4.04100 19.60800 32.07700
C  -1.28600 17.02700 32.65100
C  -0.69000 17.98800 33.74300
H  -0.28200 17.39000 35.09100
N  -2.00800 19.73400 26.99200
C  -2.20600 20.64900 27.99000
C  -2.44100 21.96100 27.42000
C  -2.15300 21.88500 26.04000
C  -2.05700 20.41100 25.77200
C  -2.95000 23.19300 28.21200
C  -2.05200 22.96400 24.95600
O  -2.05600 22.71200 23.75500
C  -2.16100 24.43700 25.31600
N  -1.65200 17.41300 25.09500
C  -1.61000 18.45900 24.21200
C  -1.40900 17.96400 22.72100
C  -1.14600 16.42300 22.94300
C  -1.47400 16.25700 24.49900
C  -2.62300 18.36500 21.79500
C  0.26300 15.93100 22.45000
C  1.35900 16.51500 23.40300
N  -1.67800 15.58300 27.39800
C  -1.70100 14.67600 26.45700
C  -1.80800 13.38200 27.02900
C  -2.05300 13.61800 28.40900
C  -1.97100 14.98600 28.60800
C  -1.89400 12.04400 26.36500
C  -2.25300 13.08100 29.73200
O  -2.42300 11.95700 30.14500
C  -2.35700 14.26900 30.68400
C  -1.29300 14.01800 31.72700
O  -0.15000 14.25300 31.60100
O  -1.85600 13.42300 32.83800
C  -0.87600 12.94200 33.78800
H  -2.51600 21.29400 29.90500
H  -1.58700 20.51200 23.72400
H  -1.36300 14.10100 24.44500
H  -3.39000 16.98800 32.14900
H  -1.90600 19.58600 31.94300
H  -4.83200 19.74200 31.33900
H  -3.88400 20.61700 32.45700
H  -4.46900 19.09800 32.94000
H  -0.38100 16.88900 32.06000
H  -1.58000 16.07400 33.09100
H  -1.39000 18.78900 33.98000
H  0.13000 18.46300 33.20500
H  -2.19600 23.96500 28.36100
H  -3.29200 22.93000 29.21300
H  -3.82400 23.49700 27.63500
H  -1.27900 24.64100 25.92300
H  -3.11200 24.68700 25.78600
H  -2.01800 25.05600 24.43000
H  -0.47900 18.37200 22.32500
H  -1.83400 15.73000 22.45900
H  -3.51800 18.33100 22.41500
H  -2.69300 17.61700 21.00500
H  -2.38900 19.35900 21.41500
H  0.44300 16.38500 21.47600
H  0.13800 14.84900 22.47600
H  1.02600 17.16200 24.21500
H  2.07200 17.10300 22.82500
H  1.96200 15.73500 23.86800
H  -1.14500 12.15300 25.58000
H  -2.88500 11.91500 25.92900
H  -1.66100 11.26300 27.08800
H  -3.25700 14.32500 31.29600
H  -0.17700 13.71500 34.10700
H  -0.42500 12.02200 33.41300
H  -1.58800 12.62900 34.55100

