79

Mg 30.39200 57.31700 39.05700
C  27.66300 55.38700 38.17700
C  32.57100 54.81100 38.36200
C  32.94100 59.58500 39.24600
C  28.12700 60.06700 39.44700
N  30.12300 55.34600 38.44800
C  28.97100 54.79400 38.06100
C  29.23700 53.42400 37.51500
C  30.73900 53.12000 37.73000
C  31.25400 54.50200 38.20000
C  31.13100 51.98100 38.68700
C  28.76300 52.99700 36.11200
C  29.17000 53.81800 34.85400
H  28.08500 54.50700 34.03000
N  32.45700 57.26900 38.73300
C  33.17900 56.11900 38.54400
C  34.51300 56.39400 38.54200
C  34.67800 57.78000 38.91100
C  33.31300 58.26800 38.99900
C  35.65700 55.43100 38.34100
C  36.06600 58.53900 39.11000
O  37.11600 57.94300 38.88100
C  36.18700 59.98800 39.40700
N  30.53000 59.49400 39.07600
C  31.69800 60.17500 39.37200
C  31.50700 61.64600 39.79700
C  29.95900 61.62600 40.06200
C  29.48500 60.31300 39.44900
C  32.37000 62.23800 41.07100
C  29.29700 62.88100 39.50600
C  28.10600 63.52900 40.25400
N  28.27600 57.68300 38.92400
C  27.51400 58.83300 39.13200
C  26.07600 58.51400 39.00200
C  26.09900 57.18000 38.63500
C  27.41500 56.74200 38.54900
C  24.78800 59.45000 39.06400
C  25.25300 56.05000 38.35200
O  24.01500 55.99900 38.36700
C  26.29100 54.84100 37.92200
C  26.05200 53.73700 38.82000
O  26.65400 53.47900 39.87900
O  25.05000 52.91500 38.28600
C  24.70700 51.65900 39.11300
H  33.26100 53.96600 38.32400
H  33.66400 60.37700 39.45400
H  27.47100 60.83300 39.86500
H  28.67500 52.74600 38.15800
H  31.32400 52.93900 36.82800
H  30.26800 51.38900 38.99300
H  31.51400 52.34000 39.64200
H  31.89800 51.34400 38.24600
H  27.67600 52.95600 36.18900
H  29.06800 51.96500 35.93700
H  29.50600 52.98600 34.23500
H  29.98600 54.47300 35.15700
H  36.47700 55.89400 37.79400
H  35.30500 54.65300 37.66200
H  36.03900 55.18500 39.33100
H  35.88400 60.37800 40.37900
H  35.49400 60.47500 38.72200
H  37.19600 60.36600 39.24800
H  31.76900 62.24000 38.92200
H  29.73900 61.66800 41.12900
H  31.77300 62.62300 41.89700
H  33.00100 63.02700 40.66100
H  33.08300 61.45700 41.33700
H  28.95300 62.61300 38.50700
H  30.05500 63.66000 39.42700
H  27.30700 63.90100 39.61300
H  28.52100 64.43800 40.69100
H  27.68800 62.93300 41.06600
H  24.99200 60.50500 38.88600
H  24.24300 59.40400 40.00700
H  24.11500 59.11900 38.27300
H  26.01000 54.49800 36.92700
H  23.87300 51.81400 39.79700
H  25.56700 51.13400 39.52700
H  24.37900 50.96900 38.33500

