280
Bchla 25 -- Bchla 26
Mg -2.59 34.017 26.794000000000004
C -3.6200000000000006 32.414 29.773
C -1.153 36.458 28.719
C -2.2060000000000004 35.825 24.046000000000003
C -4.517 31.709 25.002
N -2.5520000000000005 34.47200000000001 29.003
C -2.952 33.593 30.013000000000005
C -2.377 34.057 31.374
C -1.602 35.375 31.007
C -1.716 35.466 29.46
C -1.9140000000000001 36.614 31.828000000000003
C -1.5090000000000001 33.042 32.134
C -1.9890000000000003 32.76400000000001 33.585
C -0.958 32.997 34.667
O 0.23000000000000004 32.67400000000001 34.656000000000006
O -1.4470000000000003 33.677 35.743
N -1.7020000000000002 35.86 26.449
C -1.192 36.749 27.349
C -0.5510000000000002 37.807 26.605000000000004
C -0.9850000000000001 37.71 25.214
C -1.6800000000000002 36.432 25.232
C 0.22600000000000003 39.027 27.325
C -1.036 38.702 24.133
O -1.4060000000000001 38.534 23.006
C -0.576 40.11 24.499
N -3.466 33.878 24.823000000000004
C -3.083 34.73100000000001 23.853000000000005
C -3.5250000000000004 34.222 22.479
C -3.9270000000000005 32.767 22.769
C -3.9450000000000003 32.737 24.281000000000002
C -4.74 35.083 21.901000000000003
C -2.7700000000000005 31.795000000000005 22.205
C -1.443 31.788000000000004 23.012
N -3.752 32.293000000000006 27.191000000000003
C -4.441 31.482 26.372
C -5.055 30.455000000000002 27.170000000000005
C -4.721 30.752000000000002 28.478
C -3.9690000000000003 31.93 28.477
C -5.921000000000001 29.290000000000003 26.73
C -4.97 30.275 29.841
O -5.630000000000001 29.441000000000003 30.394000000000002
C -4.203 31.284 30.736000000000004
C -5.222000000000001 31.862 31.647
O -6.224 32.38 31.222
O -4.941 31.662 32.989
C -6.056 31.947000000000003 33.953
C -0.532 33.967 36.843
C -1.148 34.905 37.927
C -0.49800000000000005 35.682 38.837
C 1.005 35.92 39.103
C -1.4170000000000003 36.45 39.81
C -1.154 36.246 41.313
C -1.252 37.518 42.152
C -0.9570000000000001 37.309 43.654
C -2.264 37.101 44.496
C -0.125 38.52 44.27
C 1.4060000000000001 38.147000000000006 44.234
C 2.057 37.958 45.716
C 2.54 36.521 45.970000000000006
C 2.9970000000000003 36.305 47.453
C 3.775 36.238 45.03900000000001
C 3.468 35.083 44.103
C 3.8470000000000004 35.57000000000001 42.61500000000001
C 5.048 34.843 41.92
C 6.362000000000001 35.175 42.715
C 5.156 35.126 40.381
H -0.526 37.10900000000001 29.332
H -2.0060000000000002 36.32 23.093
H -4.957000000000001 30.834000000000003 24.519000000000002
H -3.2030000000000003 34.376 32.01
H -0.555 35.232 31.275
H -2.846 36.497 32.379
H -1.9520000000000002 37.532 31.241000000000003
H -1.135 36.669 32.588
H -0.4580000000000001 33.284000000000006 32.292
H -1.474 32.091 31.603
H -2.465 31.787 33.668
H -2.7730000000000006 33.485 33.813
H 1.186 39.15100000000001 26.824000000000005
H 0.479 38.885 28.375000000000004
H -0.267 39.997 27.389000000000003
H 0.469 39.967 24.775
H -1.197 40.391000000000005 25.349000000000004
H -0.593 40.824 23.675
H -2.716 34.179 21.749000000000002
H -4.902 32.392 22.457
H -4.665 35.043 20.814
H -4.797000000000001 36.142 22.155
H -5.626000000000001 34.539 22.228
H -2.5310000000000006 31.986000000000004 21.159
H -3.07 30.756 22.342
H -0.61 31.269 22.539
H -1.6390000000000002 31.283 23.958
H -1.179 32.82600000000001 23.217
H -5.416 28.574 26.082
H -6.720000000000001 29.767000000000003 26.163000000000004
H -6.408 28.788 27.566000000000003
H -3.527 30.646000000000004 31.305
H -5.485000000000001 32.486 34.709
H -6.484000000000001 31.045 34.39
H -6.924000000000001 32.524 33.635000000000005
H 0.358 34.454 36.445
H -0.25 33.021 37.305
H -2.233 34.905 37.82600000000001
H 1.252 36.981 39.124
H 1.5180000000000002 35.467 38.255
H 1.3660000000000003 35.32 39.939
H -2.443 36.134 39.62400000000001
H -1.351 37.52000000000001 39.612
H -0.164 35.898 41.607
H -1.94 35.61 41.721
H -2.273 37.892 42.073
H -0.7640000000000001 38.351 41.646
H -0.36 36.413 43.823
H -3.2030000000000003 37.086 43.944
H -2.434 37.799 45.316
H -2.143 36.138 44.992000000000004
H -0.44300000000000006 38.662 45.303
H -0.374 39.444 43.747
H 1.9430000000000003 38.958 43.74300000000001
H 1.6100000000000003 37.256 43.64
H 1.2560000000000002 38.259 46.391
H 2.891 38.616 45.963
H 1.697 35.837 45.87800000000001
H 3.7400000000000007 35.50800000000001 47.47800000000001
H 2.262 35.811 48.089000000000006
H 3.408 37.198 47.924
H 4.565 35.802 45.650000000000006
H 4.198 37.172 44.669
H 2.392 34.925 44.02900000000001
H 3.951 34.144 44.374
H 4.002 36.646 42.541000000000004
H 2.95 35.3 42.058
H 4.875 33.769 41.985
H 6.227 35.987 43.43
H 7.173 35.472 42.04900000000001
H 6.718000000000001 34.282 43.228
H 4.578 34.348 39.882
H 6.179000000000001 35.078 40.00800000000001
H 4.649 36.067 40.168
Mg -9.126 18.730000000000004 43.07000000000001
C -5.623 18.445 42.867
C -8.711 22.083 42.24600000000001
C -12.431000000000001 19.033 42.793
C -9.303 15.266000000000002 42.957
N -7.320000000000001 20.025 42.453
C -5.9670000000000005 19.766 42.55400000000001
C -5.07 20.986000000000004 42.549
C -6.066000000000001 22.157 42.373000000000005
C -7.448000000000001 21.426 42.335
C -5.986000000000001 23.258000000000003 43.507
C -3.936 21.031 41.43
C -4.226 20.351 40.08200000000001
C -4.566 21.252 38.858
O -4.983 22.394 38.902
O -4.154 20.569000000000003 37.738
N -10.362 20.306 42.605
C -10.015 21.604 42.359
C -11.224 22.428000000000004 42.220000000000006
C -12.336 21.546 42.382
C -11.711 20.205 42.598
C -11.197 23.932 41.97500000000001
C -13.794000000000002 22.107 42.18800000000001
O -13.918 23.281 41.86800000000001
C -15.046 21.141000000000002 42.316
N -10.602 17.364 42.777
C -11.949000000000002 17.711 42.852
C -12.887000000000002 16.376 42.87100000000001
C -11.752 15.220000000000002 42.763
C -10.485 16.009 42.845000000000006
C -13.77 16.281 44.15
C -11.807 14.336000000000002 41.444
C -11.819000000000003 12.805 41.574
N -7.7620000000000005 17.118 43.062
C -7.944 15.760000000000002 43.004
C -6.617000000000001 15.110000000000001 42.96500000000001
C -5.679 16.175 43.031
C -6.456 17.367 43.038
C -6.315 13.641000000000002 42.857
C -4.231 16.453 42.988
O -3.231 15.722000000000001 43.038
C -4.164 17.97 43.083
C -3.5420000000000003 18.424 44.281
O -4.154 18.455 45.38
O -2.218 18.846 44.04800000000001
C -1.496 19.491 45.14
C -4.399 21.306000000000004 36.473
C -5.725 20.955 35.967
C -6.1370000000000005 19.839 35.287
C -5.182000000000001 18.625 34.982
C -7.544 19.696 34.631
C -8.371 18.342 34.658
C -9.373000000000001 18.281 33.396
C -10.574000000000002 19.305 33.518
C -12.010000000000002 18.792 33.242
C -10.234000000000002 20.449 32.52000000000001
C -10.952 21.722 32.66
C -10.067000000000002 23.01 32.543
C -10.386 24.031000000000002 31.351
C -9.902 25.492000000000004 31.781000000000002
C -9.853000000000002 23.521 29.945000000000004
C -10.927 23.089 28.928000000000004
C -10.649 23.747000000000003 27.590000000000003
C -11.247 22.823 26.473
C -10.677000000000001 23.281 25.195000000000004
C -12.813 23.069000000000003 26.424000000000003
H -8.639 23.169 42.161
H -13.517000000000001 19.116 42.866
H -9.445 14.184000000000001 42.983000000000004
H -4.615 20.947 43.538
H -5.923 22.509 41.352000000000004
H -5.582000000000001 24.18 43.089000000000006
H -5.326 22.85 44.27300000000001
H -6.972 23.481 43.916
H -3.1410000000000005 20.464 41.916000000000004
H -3.607 22.062000000000005 41.298
H -5.037000000000001 19.629000000000005 40.183
H -3.369 19.729 39.827
H -11.415 24.232 40.95
H -10.312 24.386000000000003 42.421
H -11.944 24.436 42.588
H -14.909 20.569000000000003 43.234
H -15.05 20.497 41.437
H -16.006 21.639 42.18
H -13.597000000000001 16.501 42.054
H -11.833 14.613 43.665000000000006
H -13.233 15.665 44.87100000000001
H -14.782000000000002 15.934 43.94100000000001
H -13.987 17.243 44.614000000000004
H -10.98 14.667000000000002 40.815
H -12.761 14.648000000000001 41.019
H -11.511 12.313 40.651
H -12.866 12.602000000000002 41.798
H -11.126000000000001 12.603 42.391
H -7.190000000000001 13.229 42.355000000000004
H -6.334 13.325 43.9
H -5.341 13.395000000000001 42.43300000000001
H -3.567 18.212000000000003 42.20400000000001
H -1.2760000000000002 18.888 46.021
H -2.039 20.376000000000005 45.473
H -0.613 19.949000000000005 44.694
H -3.676 21.036 35.703
H -4.307 22.369 36.695
H -6.495000000000001 21.722 36.05800000000001
H -5.377 17.629 35.38
H -4.238 18.924 35.438
H -5.161 18.589 33.893
H -7.388 20.052 33.613
H -8.198 20.459 35.05200000000001
H -8.936 18.469 35.581
H -7.766000000000001 17.435000000000002 34.655
H -9.842 17.3 33.317
H -8.822 18.333 32.457
H -10.601 19.869 34.451
H -12.414000000000001 19.139 32.291
H -12.603 19.111000000000004 34.099
H -12.128 17.728 33.037
H -10.602 19.957 31.619
H -9.147 20.535 32.495
H -11.314 21.746 33.688
H -11.71 21.831 31.884
H -9.041 22.649000000000004 32.464
H -10.156 23.53 33.497
H -11.451 24.201 31.196
H -9.277 25.944000000000003 31.010000000000005
H -9.433 25.501000000000005 32.765
H -10.762 26.111000000000004 32.037
H -9.307 22.588000000000005 30.088000000000005
H -9.114 24.234000000000005 29.577000000000005
H -11.878 23.463 29.306
H -11.043000000000001 22.006 28.975000000000005
H -9.564 23.803 27.501
H -11.018 24.755000000000003 27.407000000000004
H -11.044 21.759 26.592000000000002
H -10.832 24.356000000000005 25.097000000000005
H -11.183 22.865 24.324000000000005
H -9.607 23.08 25.141
H -13.052000000000001 23.493 27.399000000000004
H -13.38 22.146000000000004 26.302000000000003
H -13.14 23.826 25.711

