280
Bchla 8 -- Bchla 26
Mg 44.805 2.872 46.678
C 42.564 5.571000000000001 46.818
C 42.138 0.792 46.357
C 47.013 0.524 46.123000000000005
C 47.342000000000006 5.378 46.178
N 42.641 3.171 46.669
C 41.94200000000001 4.344 46.717000000000006
C 40.483000000000004 4.049 46.338
C 40.34 2.59 46.757
C 41.789 2.143 46.48400000000001
C 39.961 2.426 48.247
C 40.236000000000004 4.257 44.798
C 39.269 5.454 44.334
C 39.839 6.574 43.447
O 39.909 7.800000000000001 43.735
O 40.258 6.011000000000001 42.288
N 44.607 0.937 46.236
C 43.419 0.246 46.169000000000004
C 43.72 -1.1440000000000001 46.025
C 45.14200000000001 -1.3250000000000002 46.069
C 45.676 0.066 46.14
C 42.621 -2.253 45.89
C 45.872 -2.717 46.064
O 45.23700000000001 -3.7250000000000005 46.117
C 47.314 -2.741 46.277
N 46.83800000000001 2.9540000000000006 45.9
C 47.545 1.827 46.153000000000006
C 49.019000000000005 2.09 46.412000000000006
C 49.175000000000004 3.5620000000000003 46.062000000000005
C 47.67600000000001 4.022 46.033
C 49.446000000000005 1.7830000000000001 47.895
C 49.96600000000001 3.979 44.73400000000001
C 51.333 4.607 44.784
N 45.003 4.992 46.726
C 46.077000000000005 5.865 46.51
C 45.657 7.249 46.552
C 44.294000000000004 7.169 46.699
C 43.899 5.793 46.779
C 46.537 8.416 46.37700000000001
C 43.082 7.966000000000001 46.811
O 42.95000000000001 9.194 46.88400000000001
C 41.94500000000001 6.984 47.0
C 41.328 7.264 48.36600000000001
O 42.00600000000001 7.201 49.389
O 40.001 7.707000000000001 48.253
C 39.367000000000004 8.023 49.50500000000001
C 40.734 6.971 41.278
C 40.929 6.279 39.954
C 39.94500000000001 5.903 39.081
C 38.433 6.215000000000001 39.304
C 40.231 5.164 37.78
C 40.224000000000004 3.607 38.037
C 41.57900000000001 2.8330000000000006 38.22200000000001
C 42.05100000000001 2.0440000000000005 36.889
C 42.658 0.718 37.242
C 42.953 2.919 35.90400000000001
C 42.39 2.823 34.428
C 42.039 4.130000000000001 33.765
C 42.943 4.450000000000001 32.506
C 44.09100000000001 5.479000000000001 32.843
C 42.191 4.949 31.209000000000003
C 42.21 3.914 30.017
C 43.42300000000001 4.168000000000001 29.071
C 43.036 4.286 27.586
C 44.105 5.092 26.712000000000003
C 42.825 2.982 26.907
H 41.262 0.14300000000000002 46.414
H 47.712 -0.302 46.263
H 48.13300000000001 6.13 46.13700000000001
H 39.873 4.807 46.83
H 39.59400000000001 2.1260000000000003 46.113
H 39.125 1.738 48.126
H 39.668 3.426 48.568
H 40.731 2.033 48.91100000000001
H 39.762 3.35 44.423
H 41.21000000000001 4.308 44.312
H 38.982 5.962 45.255
H 38.337 5.132 43.871
H 42.716 -2.971 45.076
H 41.68 -1.717 45.762
H 42.518 -2.8550000000000004 46.793000000000006
H 47.887 -2.174 45.543000000000006
H 47.64600000000001 -3.779 46.25800000000001
H 47.544 -2.496 47.313
H 49.67 1.444 45.822
H 49.62700000000001 4.102 46.894
H 49.918000000000006 0.808 48.01500000000001
H 48.604 1.968 48.562000000000005
H 50.202 2.521 48.16700000000001
H 49.412000000000006 4.488000000000001 43.946
H 50.095 2.959 44.371
H 52.118 3.973 44.373
H 51.6 4.817 45.82
H 51.226 5.529000000000001 44.21300000000001
H 47.399 8.096 45.791
H 46.889 8.667 47.378
H 45.995 9.266000000000002 45.965
H 41.251 7.276 46.21300000000001
H 39.04600000000001 7.156000000000001 50.083
H 38.484 8.645 49.361
H 39.982 8.613 50.184
H 41.72 7.2170000000000005 41.674
H 40.076 7.834 41.171
H 41.954 6.089000000000001 39.635
H 38.257 6.543000000000001 40.32800000000001
H 37.775 5.354 39.189
H 38.187 6.844000000000001 38.448
H 41.162 5.507 37.33
H 39.514 5.279 36.967
H 39.71600000000001 3.107 37.212
H 39.546 3.3420000000000005 38.849000000000004
H 41.62500000000001 2.262 39.15
H 42.35300000000001 3.598 38.283
H 41.131 1.716 36.406
H 42.012 -0.12 36.979
H 42.765 0.593 38.32
H 43.605000000000004 0.6220000000000001 36.711
H 44.01 2.6540000000000004 35.941
H 42.985 3.9440000000000004 36.272000000000006
H 41.403 2.362 34.48
H 43.08500000000001 2.245 33.819
H 41.986 4.989 34.433
H 41.048 4.17 33.313
H 43.49600000000001 3.5850000000000004 32.14
H 44.209 6.321 32.162
H 45.058 4.977 32.853
H 44.01400000000001 5.897 33.84700000000001
H 42.608 5.793 30.661000000000005
H 41.161 5.217 31.442
H 41.256 3.9290000000000003 29.49
H 42.306 2.9720000000000004 30.557
H 44.006 3.266 29.259000000000004
H 44.045 5.047000000000001 29.244000000000003
H 42.148 4.914 27.507
H 43.632 6.071 26.646
H 44.187000000000005 4.595000000000001 25.746000000000002
H 45.08500000000001 5.0600000000000005 27.188
H 42.13900000000001 3.354 26.145
H 42.23500000000001 2.317 27.538
H 43.741 2.6530000000000005 26.415000000000003
Mg -9.126 18.730000000000004 43.07000000000001
C -5.623 18.445 42.867
C -8.711 22.083 42.24600000000001
C -12.431000000000001 19.033 42.793
C -9.303 15.266000000000002 42.957
N -7.320000000000001 20.025 42.453
C -5.9670000000000005 19.766 42.55400000000001
C -5.07 20.986000000000004 42.549
C -6.066000000000001 22.157 42.373000000000005
C -7.448000000000001 21.426 42.335
C -5.986000000000001 23.258000000000003 43.507
C -3.936 21.031 41.43
C -4.226 20.351 40.08200000000001
C -4.566 21.252 38.858
O -4.983 22.394 38.902
O -4.154 20.569000000000003 37.738
N -10.362 20.306 42.605
C -10.015 21.604 42.359
C -11.224 22.428000000000004 42.220000000000006
C -12.336 21.546 42.382
C -11.711 20.205 42.598
C -11.197 23.932 41.97500000000001
C -13.794000000000002 22.107 42.18800000000001
O -13.918 23.281 41.86800000000001
C -15.046 21.141000000000002 42.316
N -10.602 17.364 42.777
C -11.949000000000002 17.711 42.852
C -12.887000000000002 16.376 42.87100000000001
C -11.752 15.220000000000002 42.763
C -10.485 16.009 42.845000000000006
C -13.77 16.281 44.15
C -11.807 14.336000000000002 41.444
C -11.819000000000003 12.805 41.574
N -7.7620000000000005 17.118 43.062
C -7.944 15.760000000000002 43.004
C -6.617000000000001 15.110000000000001 42.96500000000001
C -5.679 16.175 43.031
C -6.456 17.367 43.038
C -6.315 13.641000000000002 42.857
C -4.231 16.453 42.988
O -3.231 15.722000000000001 43.038
C -4.164 17.97 43.083
C -3.5420000000000003 18.424 44.281
O -4.154 18.455 45.38
O -2.218 18.846 44.04800000000001
C -1.496 19.491 45.14
C -4.399 21.306000000000004 36.473
C -5.725 20.955 35.967
C -6.1370000000000005 19.839 35.287
C -5.182000000000001 18.625 34.982
C -7.544 19.696 34.631
C -8.371 18.342 34.658
C -9.373000000000001 18.281 33.396
C -10.574000000000002 19.305 33.518
C -12.010000000000002 18.792 33.242
C -10.234000000000002 20.449 32.52000000000001
C -10.952 21.722 32.66
C -10.067000000000002 23.01 32.543
C -10.386 24.031000000000002 31.351
C -9.902 25.492000000000004 31.781000000000002
C -9.853000000000002 23.521 29.945000000000004
C -10.927 23.089 28.928000000000004
C -10.649 23.747000000000003 27.590000000000003
C -11.247 22.823 26.473
C -10.677000000000001 23.281 25.195000000000004
C -12.813 23.069000000000003 26.424000000000003
H -8.639 23.169 42.161
H -13.517000000000001 19.116 42.866
H -9.445 14.184000000000001 42.983000000000004
H -4.615 20.947 43.538
H -5.923 22.509 41.352000000000004
H -5.582000000000001 24.18 43.089000000000006
H -5.326 22.85 44.27300000000001
H -6.972 23.481 43.916
H -3.1410000000000005 20.464 41.916000000000004
H -3.607 22.062000000000005 41.298
H -5.037000000000001 19.629000000000005 40.183
H -3.369 19.729 39.827
H -11.415 24.232 40.95
H -10.312 24.386000000000003 42.421
H -11.944 24.436 42.588
H -14.909 20.569000000000003 43.234
H -15.05 20.497 41.437
H -16.006 21.639 42.18
H -13.597000000000001 16.501 42.054
H -11.833 14.613 43.665000000000006
H -13.233 15.665 44.87100000000001
H -14.782000000000002 15.934 43.94100000000001
H -13.987 17.243 44.614000000000004
H -10.98 14.667000000000002 40.815
H -12.761 14.648000000000001 41.019
H -11.511 12.313 40.651
H -12.866 12.602000000000002 41.798
H -11.126000000000001 12.603 42.391
H -7.190000000000001 13.229 42.355000000000004
H -6.334 13.325 43.9
H -5.341 13.395000000000001 42.43300000000001
H -3.567 18.212000000000003 42.20400000000001
H -1.2760000000000002 18.888 46.021
H -2.039 20.376000000000005 45.473
H -0.613 19.949000000000005 44.694
H -3.676 21.036 35.703
H -4.307 22.369 36.695
H -6.495000000000001 21.722 36.05800000000001
H -5.377 17.629 35.38
H -4.238 18.924 35.438
H -5.161 18.589 33.893
H -7.388 20.052 33.613
H -8.198 20.459 35.05200000000001
H -8.936 18.469 35.581
H -7.766000000000001 17.435000000000002 34.655
H -9.842 17.3 33.317
H -8.822 18.333 32.457
H -10.601 19.869 34.451
H -12.414000000000001 19.139 32.291
H -12.603 19.111000000000004 34.099
H -12.128 17.728 33.037
H -10.602 19.957 31.619
H -9.147 20.535 32.495
H -11.314 21.746 33.688
H -11.71 21.831 31.884
H -9.041 22.649000000000004 32.464
H -10.156 23.53 33.497
H -11.451 24.201 31.196
H -9.277 25.944000000000003 31.010000000000005
H -9.433 25.501000000000005 32.765
H -10.762 26.111000000000004 32.037
H -9.307 22.588000000000005 30.088000000000005
H -9.114 24.234000000000005 29.577000000000005
H -11.878 23.463 29.306
H -11.043000000000001 22.006 28.975000000000005
H -9.564 23.803 27.501
H -11.018 24.755000000000003 27.407000000000004
H -11.044 21.759 26.592000000000002
H -10.832 24.356000000000005 25.097000000000005
H -11.183 22.865 24.324000000000005
H -9.607 23.08 25.141
H -13.052000000000001 23.493 27.399000000000004
H -13.38 22.146000000000004 26.302000000000003
H -13.14 23.826 25.711

