280
Bchla 11 -- Bchla 25
Mg 52.532 24.272 45.278
C 49.695 26.145 43.971000000000004
C 51.04500000000001 21.439 44.032
C 55.55800000000001 22.862000000000002 45.08400000000001
C 53.786 27.156000000000002 46.565000000000005
N 50.65200000000001 23.900000000000002 43.946
C 49.60000000000001 24.825 43.60600000000001
C 48.415 24.053000000000004 43.019
C 48.70000000000001 22.567 43.387
C 50.226000000000006 22.57 43.84
C 47.769000000000005 22.007000000000005 44.56400000000001
C 48.044000000000004 24.343000000000004 41.59400000000001
C 49.095000000000006 25.060000000000002 40.714
C 48.96900000000001 25.397 39.217
O 48.814 26.490000000000002 38.7
O 48.923 24.209 38.402
N 53.202 22.330000000000002 44.767
C 52.423 21.316000000000003 44.255
C 53.276 20.093 44.131
C 54.571000000000005 20.566 44.327
C 54.53600000000001 21.98 44.693
C 52.686 18.786 43.735
C 55.857 19.705 44.161
O 55.729000000000006 18.565 43.751
C 57.24900000000001 20.219 44.324000000000005
N 54.406 25.034 45.628
C 55.489 24.156 45.60300000000001
C 56.748000000000005 24.823000000000004 46.157
C 56.169000000000004 26.074 46.912000000000006
C 54.729 26.077000000000005 46.394000000000005
C 57.69100000000001 23.988 47.061
C 56.925 27.423000000000002 46.689
C 57.797 27.947000000000003 47.92000000000001
N 51.876 26.259 45.369
C 52.486 27.322000000000003 46.019
C 51.586 28.449000000000005 46.025
C 50.55800000000001 28.021 45.17400000000001
C 50.791000000000004 26.666000000000004 44.832
C 51.912000000000006 29.799000000000003 46.687000000000005
C 49.30500000000001 28.377 44.58200000000001
O 48.718 29.466 44.743
C 48.584 27.144 43.87700000000001
C 48.236 27.644000000000002 42.532
O 48.985 28.235 41.74700000000001
O 46.97500000000001 27.217000000000002 42.277
C 46.327 27.762 41.043000000000006
C 48.504000000000005 24.347 36.97
C 49.038000000000004 23.025 36.183
C 48.51 21.799 36.159
C 47.160000000000004 21.356 36.757
C 49.15800000000001 20.707 35.271
C 50.643 20.476 35.634
C 51.51400000000001 20.759000000000004 34.429
C 52.881 20.132000000000005 34.723
C 53.995 20.630000000000003 33.703
C 52.957 18.602 34.688
C 52.149 17.939 33.537
C 52.75600000000001 16.582 33.12
C 51.855000000000004 15.649 32.315
C 50.88900000000001 15.007000000000001 33.288
C 52.63100000000001 14.592 31.513000000000005
C 53.483000000000004 15.137 30.251
C 52.884 14.534000000000002 28.954000000000004
C 53.893 13.766 28.055000000000003
C 53.843 14.023000000000001 26.477000000000004
C 53.88300000000001 12.239000000000003 28.139000000000003
H 50.579 20.542 43.620000000000005
H 56.538000000000004 22.383000000000003 45.028
H 54.161 28.033 47.096000000000004
H 47.651 24.444 43.691
H 48.717000000000006 21.909 42.518
H 47.153 21.264 44.059
H 47.213 22.832000000000004 45.010000000000005
H 48.447 21.516 45.263
H 47.087 24.863 41.633
H 47.846000000000004 23.335000000000004 41.22800000000001
H 49.999 24.46 40.823
H 49.294000000000004 26.052 41.120000000000005
H 53.066 18.579 42.735
H 51.601 18.884 43.754
H 52.95100000000001 18.031 44.476000000000006
H 57.605000000000004 20.973000000000003 43.623000000000005
H 58.003 19.451 44.15400000000001
H 57.23 20.507000000000005 45.37500000000001
H 57.212 25.048 45.196
H 56.15200000000001 25.774000000000004 47.96
H 58.567 23.603 46.538
H 57.165 23.102 47.415000000000006
H 57.94800000000001 24.606 47.922000000000004
H 56.284 28.251000000000005 46.385
H 57.545 27.232000000000003 45.813
H 58.71300000000001 28.267000000000003 47.424
H 58.013000000000005 27.199000000000005 48.68300000000001
H 57.20100000000001 28.707 48.42400000000001
H 51.050000000000004 30.363000000000003 47.044
H 52.358000000000004 30.332000000000004 45.848000000000006
H 52.476 29.641000000000002 47.606
H 47.714 26.852 44.467
H 45.32600000000001 27.34 40.947
H 46.887 27.487 40.149
H 46.323 28.832000000000004 41.246
H 49.04600000000001 25.194000000000003 36.55
H 47.461 24.659 37.022
H 49.982000000000006 23.094 35.642
H 47.34100000000001 20.633 37.55200000000001
H 46.475 20.976 35.999
H 46.72 22.222000000000005 37.251
H 49.119 21.189 34.294
H 48.70000000000001 19.718 35.274
H 50.672 19.404 35.826
H 50.967 20.965000000000003 36.553
H 51.52900000000001 21.825000000000003 34.199
H 51.024 20.206 33.627
H 53.11800000000001 20.545000000000005 35.703
H 54.614000000000004 21.416 34.135
H 53.668000000000006 20.97 32.72
H 54.68900000000001 19.819 33.483000000000004
H 52.42100000000001 18.206 35.55
H 53.973000000000006 18.222 34.798
H 51.782000000000004 18.585 32.74
H 51.127 17.666 33.797
H 53.10000000000001 16.127 34.049
H 53.62100000000001 16.787 32.49000000000001
H 51.30500000000001 16.181 31.539
H 49.88700000000001 15.268 32.946
H 51.039 15.344 34.314
H 51.129 13.946000000000002 33.364
H 51.94 13.799000000000001 31.226000000000003
H 53.327 14.130000000000003 32.212
H 54.53 14.875 30.410000000000004
H 53.293 16.207 30.165000000000003
H 52.492000000000004 15.372000000000002 28.378
H 52.05100000000001 13.891 29.237000000000002
H 54.858000000000004 14.146 28.390000000000004
H 52.805 14.088000000000001 26.150000000000002
H 54.302 13.211000000000002 25.913000000000004
H 54.379 14.958 26.307000000000002
H 54.888000000000005 11.862000000000002 28.333
H 53.416 11.801000000000002 27.257
H 53.42400000000001 11.959 29.087
Mg -2.59 34.017 26.794000000000004
C -3.6200000000000006 32.414 29.773
C -1.153 36.458 28.719
C -2.2060000000000004 35.825 24.046000000000003
C -4.517 31.709 25.002
N -2.5520000000000005 34.47200000000001 29.003
C -2.952 33.593 30.013000000000005
C -2.377 34.057 31.374
C -1.602 35.375 31.007
C -1.716 35.466 29.46
C -1.9140000000000001 36.614 31.828000000000003
C -1.5090000000000001 33.042 32.134
C -1.9890000000000003 32.76400000000001 33.585
C -0.958 32.997 34.667
O 0.23000000000000004 32.67400000000001 34.656000000000006
O -1.4470000000000003 33.677 35.743
N -1.7020000000000002 35.86 26.449
C -1.192 36.749 27.349
C -0.5510000000000002 37.807 26.605000000000004
C -0.9850000000000001 37.71 25.214
C -1.6800000000000002 36.432 25.232
C 0.22600000000000003 39.027 27.325
C -1.036 38.702 24.133
O -1.4060000000000001 38.534 23.006
C -0.576 40.11 24.499
N -3.466 33.878 24.823000000000004
C -3.083 34.73100000000001 23.853000000000005
C -3.5250000000000004 34.222 22.479
C -3.9270000000000005 32.767 22.769
C -3.9450000000000003 32.737 24.281000000000002
C -4.74 35.083 21.901000000000003
C -2.7700000000000005 31.795000000000005 22.205
C -1.443 31.788000000000004 23.012
N -3.752 32.293000000000006 27.191000000000003
C -4.441 31.482 26.372
C -5.055 30.455000000000002 27.170000000000005
C -4.721 30.752000000000002 28.478
C -3.9690000000000003 31.93 28.477
C -5.921000000000001 29.290000000000003 26.73
C -4.97 30.275 29.841
O -5.630000000000001 29.441000000000003 30.394000000000002
C -4.203 31.284 30.736000000000004
C -5.222000000000001 31.862 31.647
O -6.224 32.38 31.222
O -4.941 31.662 32.989
C -6.056 31.947000000000003 33.953
C -0.532 33.967 36.843
C -1.148 34.905 37.927
C -0.49800000000000005 35.682 38.837
C 1.005 35.92 39.103
C -1.4170000000000003 36.45 39.81
C -1.154 36.246 41.313
C -1.252 37.518 42.152
C -0.9570000000000001 37.309 43.654
C -2.264 37.101 44.496
C -0.125 38.52 44.27
C 1.4060000000000001 38.147000000000006 44.234
C 2.057 37.958 45.716
C 2.54 36.521 45.970000000000006
C 2.9970000000000003 36.305 47.453
C 3.775 36.238 45.03900000000001
C 3.468 35.083 44.103
C 3.8470000000000004 35.57000000000001 42.61500000000001
C 5.048 34.843 41.92
C 6.362000000000001 35.175 42.715
C 5.156 35.126 40.381
H -0.526 37.10900000000001 29.332
H -2.0060000000000002 36.32 23.093
H -4.957000000000001 30.834000000000003 24.519000000000002
H -3.2030000000000003 34.376 32.01
H -0.555 35.232 31.275
H -2.846 36.497 32.379
H -1.9520000000000002 37.532 31.241000000000003
H -1.135 36.669 32.588
H -0.4580000000000001 33.284000000000006 32.292
H -1.474 32.091 31.603
H -2.465 31.787 33.668
H -2.7730000000000006 33.485 33.813
H 1.186 39.15100000000001 26.824000000000005
H 0.479 38.885 28.375000000000004
H -0.267 39.997 27.389000000000003
H 0.469 39.967 24.775
H -1.197 40.391000000000005 25.349000000000004
H -0.593 40.824 23.675
H -2.716 34.179 21.749000000000002
H -4.902 32.392 22.457
H -4.665 35.043 20.814
H -4.797000000000001 36.142 22.155
H -5.626000000000001 34.539 22.228
H -2.5310000000000006 31.986000000000004 21.159
H -3.07 30.756 22.342
H -0.61 31.269 22.539
H -1.6390000000000002 31.283 23.958
H -1.179 32.82600000000001 23.217
H -5.416 28.574 26.082
H -6.720000000000001 29.767000000000003 26.163000000000004
H -6.408 28.788 27.566000000000003
H -3.527 30.646000000000004 31.305
H -5.485000000000001 32.486 34.709
H -6.484000000000001 31.045 34.39
H -6.924000000000001 32.524 33.635000000000005
H 0.358 34.454 36.445
H -0.25 33.021 37.305
H -2.233 34.905 37.82600000000001
H 1.252 36.981 39.124
H 1.5180000000000002 35.467 38.255
H 1.3660000000000003 35.32 39.939
H -2.443 36.134 39.62400000000001
H -1.351 37.52000000000001 39.612
H -0.164 35.898 41.607
H -1.94 35.61 41.721
H -2.273 37.892 42.073
H -0.7640000000000001 38.351 41.646
H -0.36 36.413 43.823
H -3.2030000000000003 37.086 43.944
H -2.434 37.799 45.316
H -2.143 36.138 44.992000000000004
H -0.44300000000000006 38.662 45.303
H -0.374 39.444 43.747
H 1.9430000000000003 38.958 43.74300000000001
H 1.6100000000000003 37.256 43.64
H 1.2560000000000002 38.259 46.391
H 2.891 38.616 45.963
H 1.697 35.837 45.87800000000001
H 3.7400000000000007 35.50800000000001 47.47800000000001
H 2.262 35.811 48.089000000000006
H 3.408 37.198 47.924
H 4.565 35.802 45.650000000000006
H 4.198 37.172 44.669
H 2.392 34.925 44.02900000000001
H 3.951 34.144 44.374
H 4.002 36.646 42.541000000000004
H 2.95 35.3 42.058
H 4.875 33.769 41.985
H 6.227 35.987 43.43
H 7.173 35.472 42.04900000000001
H 6.718000000000001 34.282 43.228
H 4.578 34.348 39.882
H 6.179000000000001 35.078 40.00800000000001
H 4.649 36.067 40.168

