280
Bchla 14 -- Bchla 25
Mg 46.693 44.583000000000006 44.387
C 43.25500000000001 44.724 43.60300000000001
C 46.826 41.397000000000006 42.973
C 50.08 44.926 44.229
C 46.416 48.036 45.29800000000001
N 45.217 43.253 43.458
C 43.915 43.522 43.224000000000004
C 43.244 42.376 42.399
C 44.333 41.221 42.58
C 45.596 41.99100000000001 43.08500000000001
C 44.097 40.057 43.569
C 43.052 42.863 40.913
C 41.752 42.343 40.239000000000004
C 41.896 41.904 38.72500000000001
O 42.035 40.757000000000005 38.333
O 41.726 42.97800000000001 37.892
N 48.30200000000001 43.231 43.873
C 48.096 41.97500000000001 43.367
C 49.37200000000001 41.386 43.215
C 50.37100000000001 42.366 43.492
C 49.618 43.584 43.943000000000005
C 49.623 39.97500000000001 42.73800000000001
C 51.834 42.251000000000005 43.23
O 52.315000000000005 41.279 42.67
C 52.807 43.268 43.533
N 48.039 46.33200000000001 44.626000000000005
C 49.424 46.113 44.664
C 50.137 47.336 45.15
C 48.993 48.37700000000001 45.439
C 47.744 47.576 45.114000000000004
C 50.982 46.967 46.376
C 49.23100000000001 49.78300000000001 44.77
C 49.254 50.97200000000001 45.682
N 45.147000000000006 46.13 44.494
C 45.211 47.43000000000001 44.93200000000001
C 43.854 48.013000000000005 45.018
C 43.095 46.966 44.431000000000004
C 43.894000000000005 45.857 44.225
C 43.427 49.418000000000006 45.413
C 41.786 46.667 43.914
O 40.774 47.382 43.84700000000001
C 41.78 45.236000000000004 43.37700000000001
C 40.729 44.42700000000001 44.022
O 39.867 43.906 43.412
O 40.962 44.18 45.34400000000001
C 40.02400000000001 43.159 45.85900000000001
C 41.77700000000001 42.73 36.408
C 43.154 43.14800000000001 35.869
C 44.189 42.476 35.324
C 44.396 40.979 35.259
C 45.43500000000001 43.175 34.81
C 45.594 43.174 33.187
C 45.257 44.50500000000001 32.513
C 45.455 44.397000000000006 30.956000000000003
C 45.84400000000001 45.82 30.468000000000004
C 44.26100000000001 43.879000000000005 30.205000000000002
C 44.58 42.848 29.11
C 43.908 43.294 27.771000000000004
C 45.002 43.772000000000006 26.724
C 44.535 45.099000000000004 26.116
C 45.384 42.712 25.647000000000002
C 46.94400000000001 42.991 25.235000000000003
C 47.05100000000001 43.07000000000001 23.695
C 47.458 41.714 23.016000000000002
C 48.963 41.54800000000001 23.15
C 46.873 41.676 21.522000000000002
H 46.89 40.369 42.609
H 51.17100000000001 44.934000000000005 44.244
H 46.143 49.074 45.502
H 42.284 42.145 42.861000000000004
H 44.788 40.86200000000001 41.657000000000004
H 43.419 40.367 44.36500000000001
H 44.986 39.616 44.02
H 43.583 39.286 42.99600000000001
H 43.92400000000001 42.613 40.308
H 43.016 43.95 40.986000000000004
H 41.07 43.189 40.32600000000001
H 41.42600000000001 41.56 40.92400000000001
H 50.584 39.537 43.00800000000001
H 49.534000000000006 40.056000000000004 41.65500000000001
H 48.816 39.25800000000001 42.88900000000001
H 52.778 43.418 44.61300000000001
H 52.61 44.182 42.972
H 53.790000000000006 42.90400000000001 43.234
H 50.70700000000001 47.794 44.342
H 48.71000000000001 48.541 46.479
H 51.115 45.89200000000001 46.5
H 50.522 47.312000000000005 47.302
H 52.019000000000005 47.252 46.201
H 48.42600000000001 49.876000000000005 44.041
H 50.214 49.895 44.314
H 48.516000000000005 51.679 45.304
H 50.215 51.486000000000004 45.655
H 49.14300000000001 50.70900000000001 46.734
H 43.51500000000001 50.13100000000001 44.593
H 43.932 49.786 46.307
H 42.35600000000001 49.27300000000001 45.554
H 41.466 45.23800000000001 42.334
H 40.254000000000005 43.001 46.913
H 40.121 42.229 45.29900000000001
H 38.985 43.48400000000001 45.901
H 41.105000000000004 43.531000000000006 36.101
H 41.387 41.797 36.0
H 43.17 44.238 35.847
H 44.30500000000001 40.669 34.218
H 43.7 40.37400000000001 35.84
H 45.378 40.564 35.485
H 46.348 42.701 35.171
H 45.392 44.221 35.111
H 44.977000000000004 42.35 32.83
H 46.588 42.81400000000001 32.922
H 45.977 45.156 33.010000000000005
H 44.267 44.908 32.724
H 46.337 43.80400000000001 30.713000000000005
H 46.47 46.34 31.193000000000005
H 44.912 46.378 30.375
H 46.39200000000001 45.655 29.540000000000003
H 43.646 44.722 29.890000000000004
H 43.551 43.429 30.898000000000003
H 44.15 41.886 29.389000000000003
H 45.64800000000001 42.68 28.968000000000004
H 43.201 44.089 28.007000000000005
H 43.37400000000001 42.455 27.324
H 45.823 43.95 27.419000000000004
H 45.026 45.315000000000005 25.167
H 44.88700000000001 45.78600000000001 26.885000000000005
H 43.452 45.123 25.998
H 44.629000000000005 42.577 24.873000000000005
H 45.515 41.74300000000001 26.129
H 47.565 42.178 25.612
H 47.33800000000001 43.917 25.653000000000002
H 47.678000000000004 43.882000000000005 23.327000000000005
H 46.04 43.245 23.326
H 46.94 40.928 23.567
H 49.30700000000001 42.35300000000001 23.800000000000004
H 49.43300000000001 41.543 22.167
H 49.187000000000005 40.623 23.68
H 46.471000000000004 42.638 21.206
H 46.239 40.822 21.284
H 47.748 41.617 20.875
Mg -2.59 34.017 26.794000000000004
C -3.6200000000000006 32.414 29.773
C -1.153 36.458 28.719
C -2.2060000000000004 35.825 24.046000000000003
C -4.517 31.709 25.002
N -2.5520000000000005 34.47200000000001 29.003
C -2.952 33.593 30.013000000000005
C -2.377 34.057 31.374
C -1.602 35.375 31.007
C -1.716 35.466 29.46
C -1.9140000000000001 36.614 31.828000000000003
C -1.5090000000000001 33.042 32.134
C -1.9890000000000003 32.76400000000001 33.585
C -0.958 32.997 34.667
O 0.23000000000000004 32.67400000000001 34.656000000000006
O -1.4470000000000003 33.677 35.743
N -1.7020000000000002 35.86 26.449
C -1.192 36.749 27.349
C -0.5510000000000002 37.807 26.605000000000004
C -0.9850000000000001 37.71 25.214
C -1.6800000000000002 36.432 25.232
C 0.22600000000000003 39.027 27.325
C -1.036 38.702 24.133
O -1.4060000000000001 38.534 23.006
C -0.576 40.11 24.499
N -3.466 33.878 24.823000000000004
C -3.083 34.73100000000001 23.853000000000005
C -3.5250000000000004 34.222 22.479
C -3.9270000000000005 32.767 22.769
C -3.9450000000000003 32.737 24.281000000000002
C -4.74 35.083 21.901000000000003
C -2.7700000000000005 31.795000000000005 22.205
C -1.443 31.788000000000004 23.012
N -3.752 32.293000000000006 27.191000000000003
C -4.441 31.482 26.372
C -5.055 30.455000000000002 27.170000000000005
C -4.721 30.752000000000002 28.478
C -3.9690000000000003 31.93 28.477
C -5.921000000000001 29.290000000000003 26.73
C -4.97 30.275 29.841
O -5.630000000000001 29.441000000000003 30.394000000000002
C -4.203 31.284 30.736000000000004
C -5.222000000000001 31.862 31.647
O -6.224 32.38 31.222
O -4.941 31.662 32.989
C -6.056 31.947000000000003 33.953
C -0.532 33.967 36.843
C -1.148 34.905 37.927
C -0.49800000000000005 35.682 38.837
C 1.005 35.92 39.103
C -1.4170000000000003 36.45 39.81
C -1.154 36.246 41.313
C -1.252 37.518 42.152
C -0.9570000000000001 37.309 43.654
C -2.264 37.101 44.496
C -0.125 38.52 44.27
C 1.4060000000000001 38.147000000000006 44.234
C 2.057 37.958 45.716
C 2.54 36.521 45.970000000000006
C 2.9970000000000003 36.305 47.453
C 3.775 36.238 45.03900000000001
C 3.468 35.083 44.103
C 3.8470000000000004 35.57000000000001 42.61500000000001
C 5.048 34.843 41.92
C 6.362000000000001 35.175 42.715
C 5.156 35.126 40.381
H -0.526 37.10900000000001 29.332
H -2.0060000000000002 36.32 23.093
H -4.957000000000001 30.834000000000003 24.519000000000002
H -3.2030000000000003 34.376 32.01
H -0.555 35.232 31.275
H -2.846 36.497 32.379
H -1.9520000000000002 37.532 31.241000000000003
H -1.135 36.669 32.588
H -0.4580000000000001 33.284000000000006 32.292
H -1.474 32.091 31.603
H -2.465 31.787 33.668
H -2.7730000000000006 33.485 33.813
H 1.186 39.15100000000001 26.824000000000005
H 0.479 38.885 28.375000000000004
H -0.267 39.997 27.389000000000003
H 0.469 39.967 24.775
H -1.197 40.391000000000005 25.349000000000004
H -0.593 40.824 23.675
H -2.716 34.179 21.749000000000002
H -4.902 32.392 22.457
H -4.665 35.043 20.814
H -4.797000000000001 36.142 22.155
H -5.626000000000001 34.539 22.228
H -2.5310000000000006 31.986000000000004 21.159
H -3.07 30.756 22.342
H -0.61 31.269 22.539
H -1.6390000000000002 31.283 23.958
H -1.179 32.82600000000001 23.217
H -5.416 28.574 26.082
H -6.720000000000001 29.767000000000003 26.163000000000004
H -6.408 28.788 27.566000000000003
H -3.527 30.646000000000004 31.305
H -5.485000000000001 32.486 34.709
H -6.484000000000001 31.045 34.39
H -6.924000000000001 32.524 33.635000000000005
H 0.358 34.454 36.445
H -0.25 33.021 37.305
H -2.233 34.905 37.82600000000001
H 1.252 36.981 39.124
H 1.5180000000000002 35.467 38.255
H 1.3660000000000003 35.32 39.939
H -2.443 36.134 39.62400000000001
H -1.351 37.52000000000001 39.612
H -0.164 35.898 41.607
H -1.94 35.61 41.721
H -2.273 37.892 42.073
H -0.7640000000000001 38.351 41.646
H -0.36 36.413 43.823
H -3.2030000000000003 37.086 43.944
H -2.434 37.799 45.316
H -2.143 36.138 44.992000000000004
H -0.44300000000000006 38.662 45.303
H -0.374 39.444 43.747
H 1.9430000000000003 38.958 43.74300000000001
H 1.6100000000000003 37.256 43.64
H 1.2560000000000002 38.259 46.391
H 2.891 38.616 45.963
H 1.697 35.837 45.87800000000001
H 3.7400000000000007 35.50800000000001 47.47800000000001
H 2.262 35.811 48.089000000000006
H 3.408 37.198 47.924
H 4.565 35.802 45.650000000000006
H 4.198 37.172 44.669
H 2.392 34.925 44.02900000000001
H 3.951 34.144 44.374
H 4.002 36.646 42.541000000000004
H 2.95 35.3 42.058
H 4.875 33.769 41.985
H 6.227 35.987 43.43
H 7.173 35.472 42.04900000000001
H 6.718000000000001 34.282 43.228
H 4.578 34.348 39.882
H 6.179000000000001 35.078 40.00800000000001
H 4.649 36.067 40.168

