280
Bchla 1 -- Bchla 8
Mg -1.968 16.991 27.078000000000003
C -2.1850000000000005 14.773 29.879
C -3.2230000000000003 19.433 29.104
C -2.213 18.841 24.514
C -1.8220000000000003 14.167000000000002 25.041000000000004
N -2.585 16.982 29.204000000000004
C -2.562 16.083 30.183
C -2.904 16.682 31.58
C -3.7410000000000005 17.955 31.110000000000003
C -3.123 18.159 29.738000000000003
C -5.231 17.676 30.941000000000003
C -1.623 17.101 32.377
C -1.844 17.388000000000005 33.865
C -0.8000000000000002 17.024 34.811
O 0.398 16.855000000000004 34.599
O -1.38 16.867 36.028000000000006
N -2.153 18.952 26.926000000000002
C -2.6710000000000003 19.791 27.855000000000004
C -2.588 21.147 27.271
C -2.155 21.006 25.853
C -2.182 19.574 25.698000000000004
C -2.8550000000000004 22.397 28.052
C -1.787 22.004 24.801000000000002
O -1.665 21.681000000000004 23.57
C -1.658 23.405 25.241000000000003
N -2.233 16.578 25.049
C -2.247 17.56 24.141
C -2.1640000000000006 17.015 22.746
C -1.844 15.458 22.898
C -1.8820000000000001 15.359 24.443
C -3.4190000000000005 17.196 21.881
C -0.595 14.921 22.155
C 0.6580000000000001 15.501000000000001 22.772000000000002
N -1.818 14.847000000000001 27.381
C -1.795 13.855000000000002 26.39
C -1.795 12.553 27.082
C -1.835 12.880000000000003 28.436000000000003
C -1.885 14.296 28.580000000000002
C -1.819 11.276 26.455000000000002
C -1.8720000000000003 12.362000000000002 29.794
O -1.7600000000000002 11.244 30.299
C -2.223 13.563 30.779
C -1.251 13.509000000000002 31.926000000000002
O -0.037000000000000005 13.736 31.747
O -1.9300000000000002 13.435000000000002 33.081
C -1.025 13.408 34.261
C -0.516 16.468 37.138
C -0.5310000000000001 17.387 38.262
C -0.454 17.127 39.59
C -0.378 15.838000000000001 40.321
C -0.7230000000000001 18.255 40.576
C 0.451 18.789 41.50200000000001
C 1.21 20.031 40.87
C 1.469 21.168 41.94200000000001
C 0.066 21.921 42.199
C 2.7560000000000002 22.039000000000005 41.67000000000001
C 3.2430000000000003 22.867 42.872
C 4.766 22.908000000000005 42.988
C 5.267 23.085 44.478
C 6.800000000000001 23.421 44.531
C 4.85 21.941000000000003 45.489
C 3.95 22.297000000000004 46.696
C 2.527 21.696000000000005 46.703
C 1.4260000000000002 22.715 47.155
C 0.033 22.091 47.443
C 1.232 23.982 46.288
H -3.8270000000000004 20.211000000000002 29.575
H -2.186 19.444 23.604
H -1.6920000000000002 13.244 24.473000000000003
H -3.5220000000000002 16.042 32.21
H -3.553 18.822000000000003 31.743000000000002
H -5.452 16.614 31.047000000000004
H -5.479000000000001 18.018 29.936000000000003
H -5.82 18.292 31.621000000000002
H -1.299 18.087 32.044
H -0.838 16.352000000000004 32.267
H -2.8120000000000003 17.017 34.203
H -1.906 18.468 33.99900000000001
H -3.312 22.177000000000003 29.016000000000002
H -3.6190000000000007 22.954000000000004 27.510000000000005
H -1.9610000000000003 23.011 28.162000000000003
H -2.603 23.735 25.673
H -1.303 23.961000000000002 24.374000000000002
H -0.9200000000000002 23.457000000000004 26.042000000000005
H -1.36 17.492 22.187
H -2.66 14.835000000000003 22.531
H -3.2350000000000003 17.731 20.949000000000005
H -4.172000000000001 17.705 22.482000000000003
H -3.935 16.271 21.625
H -0.6120000000000001 15.232000000000001 21.111
H -0.516 13.834 22.176000000000002
H 0.746 16.469 22.28
H 1.5190000000000001 14.870000000000001 22.549
H 0.527 15.688000000000002 23.838000000000005
H -1.101 10.658000000000001 26.994000000000003
H -1.564 11.349 25.398
H -2.859 10.992 26.615000000000002
H -3.251 13.410000000000002 31.106
H -1.27 12.513000000000002 34.833
H -1.135 14.372 34.758
H 0.032 13.237000000000002 34.054
H 0.552 16.428000000000004 36.922
H -0.907 15.476 37.361
H -1.044 18.319000000000003 38.02300000000001
H -0.543 14.989 39.658
H -1.182 15.731000000000002 41.05
H 0.581 15.668 40.812
H -1.499 17.903 41.256
H -1.227 19.095 40.09700000000001
H 1.292 18.096 41.508
H 0.091 19.058 42.49400000000001
H 0.62 20.446000000000005 40.053
H 2.115 19.576 40.468
H 1.778 20.639 42.84300000000001
H 0.034 22.9 41.721
H -0.263 21.889 43.23700000000001
H -0.6930000000000001 21.476000000000003 41.556
H 2.393 22.719 40.9
H 3.556 21.429000000000002 41.25
H 2.826 22.458 43.793
H 2.891 23.896 42.79800000000001
H 5.207000000000001 23.572000000000003 42.244
H 5.175 21.964000000000002 42.62700000000001
H 4.875 24.075000000000003 44.715
H 7.330000000000001 22.497000000000003 44.3
H 7.166000000000001 23.617000000000004 45.539
H 7.126000000000001 24.262 43.92
H 5.8260000000000005 21.689000000000004 45.90400000000001
H 4.491 21.05 44.973
H 3.897 23.383 46.781
H 4.392 21.943 47.62700000000001
H 2.5140000000000002 20.877 47.422
H 2.203 21.325 45.731
H 1.7820000000000003 22.975 48.15100000000001
H -0.337 22.156 48.46600000000001
H 0.258 21.029 47.348
H -0.654 22.475 46.688
H 1.826 23.915000000000003 45.376000000000005
H 1.8130000000000002 24.727 46.832
H 0.23400000000000004 24.277 45.96
Mg 44.805 2.872 46.678
C 42.564 5.571000000000001 46.818
C 42.138 0.792 46.357
C 47.013 0.524 46.123000000000005
C 47.342000000000006 5.378 46.178
N 42.641 3.171 46.669
C 41.94200000000001 4.344 46.717000000000006
C 40.483000000000004 4.049 46.338
C 40.34 2.59 46.757
C 41.789 2.143 46.48400000000001
C 39.961 2.426 48.247
C 40.236000000000004 4.257 44.798
C 39.269 5.454 44.334
C 39.839 6.574 43.447
O 39.909 7.800000000000001 43.735
O 40.258 6.011000000000001 42.288
N 44.607 0.937 46.236
C 43.419 0.246 46.169000000000004
C 43.72 -1.1440000000000001 46.025
C 45.14200000000001 -1.3250000000000002 46.069
C 45.676 0.066 46.14
C 42.621 -2.253 45.89
C 45.872 -2.717 46.064
O 45.23700000000001 -3.7250000000000005 46.117
C 47.314 -2.741 46.277
N 46.83800000000001 2.9540000000000006 45.9
C 47.545 1.827 46.153000000000006
C 49.019000000000005 2.09 46.412000000000006
C 49.175000000000004 3.5620000000000003 46.062000000000005
C 47.67600000000001 4.022 46.033
C 49.446000000000005 1.7830000000000001 47.895
C 49.96600000000001 3.979 44.73400000000001
C 51.333 4.607 44.784
N 45.003 4.992 46.726
C 46.077000000000005 5.865 46.51
C 45.657 7.249 46.552
C 44.294000000000004 7.169 46.699
C 43.899 5.793 46.779
C 46.537 8.416 46.37700000000001
C 43.082 7.966000000000001 46.811
O 42.95000000000001 9.194 46.88400000000001
C 41.94500000000001 6.984 47.0
C 41.328 7.264 48.36600000000001
O 42.00600000000001 7.201 49.389
O 40.001 7.707000000000001 48.253
C 39.367000000000004 8.023 49.50500000000001
C 40.734 6.971 41.278
C 40.929 6.279 39.954
C 39.94500000000001 5.903 39.081
C 38.433 6.215000000000001 39.304
C 40.231 5.164 37.78
C 40.224000000000004 3.607 38.037
C 41.57900000000001 2.8330000000000006 38.22200000000001
C 42.05100000000001 2.0440000000000005 36.889
C 42.658 0.718 37.242
C 42.953 2.919 35.90400000000001
C 42.39 2.823 34.428
C 42.039 4.130000000000001 33.765
C 42.943 4.450000000000001 32.506
C 44.09100000000001 5.479000000000001 32.843
C 42.191 4.949 31.209000000000003
C 42.21 3.914 30.017
C 43.42300000000001 4.168000000000001 29.071
C 43.036 4.286 27.586
C 44.105 5.092 26.712000000000003
C 42.825 2.982 26.907
H 41.262 0.14300000000000002 46.414
H 47.712 -0.302 46.263
H 48.13300000000001 6.13 46.13700000000001
H 39.873 4.807 46.83
H 39.59400000000001 2.1260000000000003 46.113
H 39.125 1.738 48.126
H 39.668 3.426 48.568
H 40.731 2.033 48.91100000000001
H 39.762 3.35 44.423
H 41.21000000000001 4.308 44.312
H 38.982 5.962 45.255
H 38.337 5.132 43.871
H 42.716 -2.971 45.076
H 41.68 -1.717 45.762
H 42.518 -2.8550000000000004 46.793000000000006
H 47.887 -2.174 45.543000000000006
H 47.64600000000001 -3.779 46.25800000000001
H 47.544 -2.496 47.313
H 49.67 1.444 45.822
H 49.62700000000001 4.102 46.894
H 49.918000000000006 0.808 48.01500000000001
H 48.604 1.968 48.562000000000005
H 50.202 2.521 48.16700000000001
H 49.412000000000006 4.488000000000001 43.946
H 50.095 2.959 44.371
H 52.118 3.973 44.373
H 51.6 4.817 45.82
H 51.226 5.529000000000001 44.21300000000001
H 47.399 8.096 45.791
H 46.889 8.667 47.378
H 45.995 9.266000000000002 45.965
H 41.251 7.276 46.21300000000001
H 39.04600000000001 7.156000000000001 50.083
H 38.484 8.645 49.361
H 39.982 8.613 50.184
H 41.72 7.2170000000000005 41.674
H 40.076 7.834 41.171
H 41.954 6.089000000000001 39.635
H 38.257 6.543000000000001 40.32800000000001
H 37.775 5.354 39.189
H 38.187 6.844000000000001 38.448
H 41.162 5.507 37.33
H 39.514 5.279 36.967
H 39.71600000000001 3.107 37.212
H 39.546 3.3420000000000005 38.849000000000004
H 41.62500000000001 2.262 39.15
H 42.35300000000001 3.598 38.283
H 41.131 1.716 36.406
H 42.012 -0.12 36.979
H 42.765 0.593 38.32
H 43.605000000000004 0.6220000000000001 36.711
H 44.01 2.6540000000000004 35.941
H 42.985 3.9440000000000004 36.272000000000006
H 41.403 2.362 34.48
H 43.08500000000001 2.245 33.819
H 41.986 4.989 34.433
H 41.048 4.17 33.313
H 43.49600000000001 3.5850000000000004 32.14
H 44.209 6.321 32.162
H 45.058 4.977 32.853
H 44.01400000000001 5.897 33.84700000000001
H 42.608 5.793 30.661000000000005
H 41.161 5.217 31.442
H 41.256 3.9290000000000003 29.49
H 42.306 2.9720000000000004 30.557
H 44.006 3.266 29.259000000000004
H 44.045 5.047000000000001 29.244000000000003
H 42.148 4.914 27.507
H 43.632 6.071 26.646
H 44.187000000000005 4.595000000000001 25.746000000000002
H 45.08500000000001 5.0600000000000005 27.188
H 42.13900000000001 3.354 26.145
H 42.23500000000001 2.317 27.538
H 43.741 2.6530000000000005 26.415000000000003

