280
Bchla 1 -- Bchla 24
Mg -1.968 16.991 27.078000000000003
C -2.1850000000000005 14.773 29.879
C -3.2230000000000003 19.433 29.104
C -2.213 18.841 24.514
C -1.8220000000000003 14.167000000000002 25.041000000000004
N -2.585 16.982 29.204000000000004
C -2.562 16.083 30.183
C -2.904 16.682 31.58
C -3.7410000000000005 17.955 31.110000000000003
C -3.123 18.159 29.738000000000003
C -5.231 17.676 30.941000000000003
C -1.623 17.101 32.377
C -1.844 17.388000000000005 33.865
C -0.8000000000000002 17.024 34.811
O 0.398 16.855000000000004 34.599
O -1.38 16.867 36.028000000000006
N -2.153 18.952 26.926000000000002
C -2.6710000000000003 19.791 27.855000000000004
C -2.588 21.147 27.271
C -2.155 21.006 25.853
C -2.182 19.574 25.698000000000004
C -2.8550000000000004 22.397 28.052
C -1.787 22.004 24.801000000000002
O -1.665 21.681000000000004 23.57
C -1.658 23.405 25.241000000000003
N -2.233 16.578 25.049
C -2.247 17.56 24.141
C -2.1640000000000006 17.015 22.746
C -1.844 15.458 22.898
C -1.8820000000000001 15.359 24.443
C -3.4190000000000005 17.196 21.881
C -0.595 14.921 22.155
C 0.6580000000000001 15.501000000000001 22.772000000000002
N -1.818 14.847000000000001 27.381
C -1.795 13.855000000000002 26.39
C -1.795 12.553 27.082
C -1.835 12.880000000000003 28.436000000000003
C -1.885 14.296 28.580000000000002
C -1.819 11.276 26.455000000000002
C -1.8720000000000003 12.362000000000002 29.794
O -1.7600000000000002 11.244 30.299
C -2.223 13.563 30.779
C -1.251 13.509000000000002 31.926000000000002
O -0.037000000000000005 13.736 31.747
O -1.9300000000000002 13.435000000000002 33.081
C -1.025 13.408 34.261
C -0.516 16.468 37.138
C -0.5310000000000001 17.387 38.262
C -0.454 17.127 39.59
C -0.378 15.838000000000001 40.321
C -0.7230000000000001 18.255 40.576
C 0.451 18.789 41.50200000000001
C 1.21 20.031 40.87
C 1.469 21.168 41.94200000000001
C 0.066 21.921 42.199
C 2.7560000000000002 22.039000000000005 41.67000000000001
C 3.2430000000000003 22.867 42.872
C 4.766 22.908000000000005 42.988
C 5.267 23.085 44.478
C 6.800000000000001 23.421 44.531
C 4.85 21.941000000000003 45.489
C 3.95 22.297000000000004 46.696
C 2.527 21.696000000000005 46.703
C 1.4260000000000002 22.715 47.155
C 0.033 22.091 47.443
C 1.232 23.982 46.288
H -3.8270000000000004 20.211000000000002 29.575
H -2.186 19.444 23.604
H -1.6920000000000002 13.244 24.473000000000003
H -3.5220000000000002 16.042 32.21
H -3.553 18.822000000000003 31.743000000000002
H -5.452 16.614 31.047000000000004
H -5.479000000000001 18.018 29.936000000000003
H -5.82 18.292 31.621000000000002
H -1.299 18.087 32.044
H -0.838 16.352000000000004 32.267
H -2.8120000000000003 17.017 34.203
H -1.906 18.468 33.99900000000001
H -3.312 22.177000000000003 29.016000000000002
H -3.6190000000000007 22.954000000000004 27.510000000000005
H -1.9610000000000003 23.011 28.162000000000003
H -2.603 23.735 25.673
H -1.303 23.961000000000002 24.374000000000002
H -0.9200000000000002 23.457000000000004 26.042000000000005
H -1.36 17.492 22.187
H -2.66 14.835000000000003 22.531
H -3.2350000000000003 17.731 20.949000000000005
H -4.172000000000001 17.705 22.482000000000003
H -3.935 16.271 21.625
H -0.6120000000000001 15.232000000000001 21.111
H -0.516 13.834 22.176000000000002
H 0.746 16.469 22.28
H 1.5190000000000001 14.870000000000001 22.549
H 0.527 15.688000000000002 23.838000000000005
H -1.101 10.658000000000001 26.994000000000003
H -1.564 11.349 25.398
H -2.859 10.992 26.615000000000002
H -3.251 13.410000000000002 31.106
H -1.27 12.513000000000002 34.833
H -1.135 14.372 34.758
H 0.032 13.237000000000002 34.054
H 0.552 16.428000000000004 36.922
H -0.907 15.476 37.361
H -1.044 18.319000000000003 38.02300000000001
H -0.543 14.989 39.658
H -1.182 15.731000000000002 41.05
H 0.581 15.668 40.812
H -1.499 17.903 41.256
H -1.227 19.095 40.09700000000001
H 1.292 18.096 41.508
H 0.091 19.058 42.49400000000001
H 0.62 20.446000000000005 40.053
H 2.115 19.576 40.468
H 1.778 20.639 42.84300000000001
H 0.034 22.9 41.721
H -0.263 21.889 43.23700000000001
H -0.6930000000000001 21.476000000000003 41.556
H 2.393 22.719 40.9
H 3.556 21.429000000000002 41.25
H 2.826 22.458 43.793
H 2.891 23.896 42.79800000000001
H 5.207000000000001 23.572000000000003 42.244
H 5.175 21.964000000000002 42.62700000000001
H 4.875 24.075000000000003 44.715
H 7.330000000000001 22.497000000000003 44.3
H 7.166000000000001 23.617000000000004 45.539
H 7.126000000000001 24.262 43.92
H 5.8260000000000005 21.689000000000004 45.90400000000001
H 4.491 21.05 44.973
H 3.897 23.383 46.781
H 4.392 21.943 47.62700000000001
H 2.5140000000000002 20.877 47.422
H 2.203 21.325 45.731
H 1.7820000000000003 22.975 48.15100000000001
H -0.337 22.156 48.46600000000001
H 0.258 21.029 47.348
H -0.654 22.475 46.688
H 1.826 23.915000000000003 45.376000000000005
H 1.8130000000000002 24.727 46.832
H 0.23400000000000004 24.277 45.96
Mg -0.187 43.411 24.933
C 1.6070000000000002 43.076 28.072
C -2.898 42.36800000000001 26.644000000000002
C -1.7320000000000002 43.655 22.148
C 2.888 44.159 23.345
N -0.581 42.801 27.230000000000004
C 0.261 42.842 28.277
C -0.506 42.58400000000001 29.588
C -1.8090000000000002 41.923 28.937000000000005
C -1.8000000000000003 42.43200000000001 27.557000000000002
C -2.075 40.449 29.193
C -0.702 43.92400000000001 30.318000000000005
C -0.869 43.756 31.857000000000003
C -0.5610000000000002 42.389 32.626
O 0.469 42.062 33.17700000000001
O -1.6500000000000001 41.507 32.446
N -2.115 43.102000000000004 24.429
C -3.103 42.58200000000001 25.243000000000002
C -4.308 42.416 24.436
C -4.003 42.864 23.127
C -2.559 43.224000000000004 23.208
C -5.571000000000001 41.874 24.94
C -4.956 43.007 21.828
O -4.584 43.57 20.835000000000004
C -6.464 42.70700000000001 21.9
N 0.559 43.585 22.973
C -0.3340000000000001 43.816 22.014
C 0.263 44.224 20.694
C 1.6280000000000001 44.753 21.198
C 1.7390000000000003 43.971000000000004 22.552
C 0.44200000000000006 43.02300000000001 19.653
C 1.7620000000000002 46.328 21.331000000000003
C 0.9410000000000001 47.259 20.392000000000003
N 1.835 43.483000000000004 25.498000000000005
C 2.95 43.846 24.817
C 4.052 43.978 25.658
C 3.57 43.639 26.89
C 2.221 43.36 26.794000000000004
C 5.44 44.465 25.251
C 4.008000000000001 43.522 28.289000000000005
O 5.1080000000000005 43.518 28.821000000000005
C 2.6750000000000003 43.22200000000001 29.104
C 2.922 42.05100000000001 29.927
O 2.929 40.872 29.559
O 3.4020000000000006 42.496 31.107
C 4.042 41.446 31.879000000000005
C -1.644 40.254000000000005 33.226
C -2.8540000000000005 40.300000000000004 34.139
C -2.9760000000000004 40.997 35.275
C -1.8710000000000002 41.858 35.91
C -4.259 41.023 36.116
C -5.381 41.862 35.472
C -6.659000000000001 41.095 35.134
C -7.857000000000001 41.643 36.041
C -8.569 42.873000000000005 35.304
C -8.883 40.434 36.241
C -9.266000000000002 40.292 37.68900000000001
C -10.519 39.593 37.883
C -11.312 40.074 39.145
C -12.096 38.822 39.802
C -12.423000000000002 41.128 38.89
C -11.931000000000001 42.58 39.17
C -12.258 43.532000000000004 38.014
C -12.169 45.041000000000004 38.484
C -13.504000000000001 45.81400000000001 38.325
C -10.974000000000002 45.684 37.683
H -3.718 41.86 27.156000000000002
H -2.284 43.689 21.207
H 3.792 44.48700000000001 22.828
H -0.023 41.815 30.191
H -2.6550000000000002 42.40200000000001 29.428
H -2.958 40.293 29.812000000000005
H -1.216 39.991 29.683
H -2.1850000000000005 39.85300000000001 28.287
H -1.656 44.33500000000001 29.987
H 0.054000000000000006 44.67300000000001 30.083000000000002
H -1.835 44.127 32.20100000000001
H -0.273 44.587 32.234
H -5.662000000000001 41.997 26.019000000000002
H -5.557 40.82 24.662000000000003
H -6.458 42.347 24.518000000000004
H -7.019000000000001 43.391000000000005 22.542000000000005
H -6.518000000000001 41.644 22.136
H -6.895 42.739000000000004 20.899
H -0.456 44.953 20.321
H 2.464 44.44400000000001 20.571
H 0.054000000000000006 43.470000000000006 18.738
H -0.137 42.13 19.891
H 1.4680000000000002 42.712 19.46
H 2.817 46.592 21.273
H 1.31 46.482 22.311
H -0.047 47.446 20.812000000000005
H 0.9750000000000001 46.739 19.434
H 1.443 48.20900000000001 20.212
H 5.257 45.138 24.413
H 6.078000000000001 43.671 24.864
H 5.885 44.977000000000004 26.104000000000003
H 2.489 44.102 29.721000000000004
H 4.455 41.795 32.825
H 4.724 40.789 31.339000000000002
H 3.3000000000000003 40.728 32.23
H -0.728 40.087 33.794
H -1.816 39.506 32.452
H -3.714 39.689 33.865
H -1.499 41.46900000000001 36.858
H -2.161 42.885 36.132
H -0.988 41.995 35.286
H -4.024 41.45 37.092
H -4.468 39.965 36.273
H -5.103 42.408 34.571
H -5.641 42.599000000000004 36.233
H -6.509 40.07000000000001 35.476
H -6.9110000000000005 40.994 34.078
H -7.543000000000001 42.165 36.944
H -9.522 42.5 34.929
H -8.048 43.18000000000001 34.397000000000006
H -8.82 43.715 35.95
H -8.496000000000002 39.485 35.869
H -9.762 40.674 35.642
H -9.253 41.290000000000006 38.129
H -8.421 39.76 38.126
H -10.267 38.539 37.997
H -11.207 39.635 37.039
H -10.595 40.40500000000001 39.897
H -11.608 37.87100000000001 40.016
H -13.074000000000002 38.715 39.333
H -12.441000000000003 39.18300000000001 40.77100000000001
H -13.258000000000001 40.96 39.569
H -12.736 40.972 37.858000000000004
H -10.844000000000001 42.53 39.231
H -12.219 42.926 40.163000000000004
H -13.221 43.264 37.579
H -11.611 43.376000000000005 37.151
H -11.816000000000003 45.027 39.515
H -14.219 45.36000000000001 37.639
H -13.356000000000002 46.804 37.893
H -13.936000000000002 46.067 39.292
H -10.646000000000003 46.511 38.31400000000001
H -11.251 46.112 36.72
H -10.203 44.922 37.568

