280
Bchla 14 -- Bchla 15
Mg 46.693 44.583000000000006 44.387
C 43.25500000000001 44.724 43.60300000000001
C 46.826 41.397000000000006 42.973
C 50.08 44.926 44.229
C 46.416 48.036 45.29800000000001
N 45.217 43.253 43.458
C 43.915 43.522 43.224000000000004
C 43.244 42.376 42.399
C 44.333 41.221 42.58
C 45.596 41.99100000000001 43.08500000000001
C 44.097 40.057 43.569
C 43.052 42.863 40.913
C 41.752 42.343 40.239000000000004
C 41.896 41.904 38.72500000000001
O 42.035 40.757000000000005 38.333
O 41.726 42.97800000000001 37.892
N 48.30200000000001 43.231 43.873
C 48.096 41.97500000000001 43.367
C 49.37200000000001 41.386 43.215
C 50.37100000000001 42.366 43.492
C 49.618 43.584 43.943000000000005
C 49.623 39.97500000000001 42.73800000000001
C 51.834 42.251000000000005 43.23
O 52.315000000000005 41.279 42.67
C 52.807 43.268 43.533
N 48.039 46.33200000000001 44.626000000000005
C 49.424 46.113 44.664
C 50.137 47.336 45.15
C 48.993 48.37700000000001 45.439
C 47.744 47.576 45.114000000000004
C 50.982 46.967 46.376
C 49.23100000000001 49.78300000000001 44.77
C 49.254 50.97200000000001 45.682
N 45.147000000000006 46.13 44.494
C 45.211 47.43000000000001 44.93200000000001
C 43.854 48.013000000000005 45.018
C 43.095 46.966 44.431000000000004
C 43.894000000000005 45.857 44.225
C 43.427 49.418000000000006 45.413
C 41.786 46.667 43.914
O 40.774 47.382 43.84700000000001
C 41.78 45.236000000000004 43.37700000000001
C 40.729 44.42700000000001 44.022
O 39.867 43.906 43.412
O 40.962 44.18 45.34400000000001
C 40.02400000000001 43.159 45.85900000000001
C 41.77700000000001 42.73 36.408
C 43.154 43.14800000000001 35.869
C 44.189 42.476 35.324
C 44.396 40.979 35.259
C 45.43500000000001 43.175 34.81
C 45.594 43.174 33.187
C 45.257 44.50500000000001 32.513
C 45.455 44.397000000000006 30.956000000000003
C 45.84400000000001 45.82 30.468000000000004
C 44.26100000000001 43.879000000000005 30.205000000000002
C 44.58 42.848 29.11
C 43.908 43.294 27.771000000000004
C 45.002 43.772000000000006 26.724
C 44.535 45.099000000000004 26.116
C 45.384 42.712 25.647000000000002
C 46.94400000000001 42.991 25.235000000000003
C 47.05100000000001 43.07000000000001 23.695
C 47.458 41.714 23.016000000000002
C 48.963 41.54800000000001 23.15
C 46.873 41.676 21.522000000000002
H 46.89 40.369 42.609
H 51.17100000000001 44.934000000000005 44.244
H 46.143 49.074 45.502
H 42.284 42.145 42.861000000000004
H 44.788 40.86200000000001 41.657000000000004
H 43.419 40.367 44.36500000000001
H 44.986 39.616 44.02
H 43.583 39.286 42.99600000000001
H 43.92400000000001 42.613 40.308
H 43.016 43.95 40.986000000000004
H 41.07 43.189 40.32600000000001
H 41.42600000000001 41.56 40.92400000000001
H 50.584 39.537 43.00800000000001
H 49.534000000000006 40.056000000000004 41.65500000000001
H 48.816 39.25800000000001 42.88900000000001
H 52.778 43.418 44.61300000000001
H 52.61 44.182 42.972
H 53.790000000000006 42.90400000000001 43.234
H 50.70700000000001 47.794 44.342
H 48.71000000000001 48.541 46.479
H 51.115 45.89200000000001 46.5
H 50.522 47.312000000000005 47.302
H 52.019000000000005 47.252 46.201
H 48.42600000000001 49.876000000000005 44.041
H 50.214 49.895 44.314
H 48.516000000000005 51.679 45.304
H 50.215 51.486000000000004 45.655
H 49.14300000000001 50.70900000000001 46.734
H 43.51500000000001 50.13100000000001 44.593
H 43.932 49.786 46.307
H 42.35600000000001 49.27300000000001 45.554
H 41.466 45.23800000000001 42.334
H 40.254000000000005 43.001 46.913
H 40.121 42.229 45.29900000000001
H 38.985 43.48400000000001 45.901
H 41.105000000000004 43.531000000000006 36.101
H 41.387 41.797 36.0
H 43.17 44.238 35.847
H 44.30500000000001 40.669 34.218
H 43.7 40.37400000000001 35.84
H 45.378 40.564 35.485
H 46.348 42.701 35.171
H 45.392 44.221 35.111
H 44.977000000000004 42.35 32.83
H 46.588 42.81400000000001 32.922
H 45.977 45.156 33.010000000000005
H 44.267 44.908 32.724
H 46.337 43.80400000000001 30.713000000000005
H 46.47 46.34 31.193000000000005
H 44.912 46.378 30.375
H 46.39200000000001 45.655 29.540000000000003
H 43.646 44.722 29.890000000000004
H 43.551 43.429 30.898000000000003
H 44.15 41.886 29.389000000000003
H 45.64800000000001 42.68 28.968000000000004
H 43.201 44.089 28.007000000000005
H 43.37400000000001 42.455 27.324
H 45.823 43.95 27.419000000000004
H 45.026 45.315000000000005 25.167
H 44.88700000000001 45.78600000000001 26.885000000000005
H 43.452 45.123 25.998
H 44.629000000000005 42.577 24.873000000000005
H 45.515 41.74300000000001 26.129
H 47.565 42.178 25.612
H 47.33800000000001 43.917 25.653000000000002
H 47.678000000000004 43.882000000000005 23.327000000000005
H 46.04 43.245 23.326
H 46.94 40.928 23.567
H 49.30700000000001 42.35300000000001 23.800000000000004
H 49.43300000000001 41.543 22.167
H 49.187000000000005 40.623 23.68
H 46.471000000000004 42.638 21.206
H 46.239 40.822 21.284
H 47.748 41.617 20.875
Mg 46.367000000000004 34.873 28.258000000000003
C 44.786 32.872 30.578000000000003
C 46.386 37.42 30.776000000000003
C 47.556000000000004 36.983 26.07
C 45.979 32.443 25.827000000000005
N 45.442 35.144000000000005 30.411
C 45.073 34.117 31.158
C 45.125 34.48 32.669
C 45.086000000000006 36.045 32.568
C 45.675 36.281 31.168
C 43.631 36.618 32.709
C 46.46 33.912 33.2
C 46.692 34.009 34.714
C 45.77100000000001 34.851 35.574
O 44.572 34.659 35.633
O 46.492 35.823 36.246
N 47.011 36.848 28.339
C 46.96000000000001 37.702 29.494000000000003
C 47.698 38.905 29.134
C 48.14 38.733 27.785000000000004
C 47.542 37.488 27.305
C 47.979 40.111 30.106
C 49.099000000000004 39.67100000000001 26.980000000000004
O 49.27 39.437 25.815
C 49.747 40.84400000000001 27.641
N 46.806 34.696 26.230000000000004
C 47.30800000000001 35.721 25.505
C 47.464000000000006 35.391 24.021000000000004
C 47.086 33.89200000000001 23.987
C 46.581 33.654 25.468000000000004
C 46.605 36.265 23.035
C 48.116 32.929 23.454
C 49.591 32.99 23.919
N 45.556 33.03 28.125
C 45.469 32.14 27.093000000000004
C 44.91700000000001 30.915 27.632000000000005
C 44.641000000000005 31.103000000000005 29.030000000000005
C 45.051 32.44500000000001 29.259000000000004
C 44.677 29.678000000000004 26.824000000000005
C 44.09100000000001 30.544000000000004 30.219000000000005
O 43.568 29.438 30.477000000000004
C 43.938 31.834000000000003 31.195000000000004
C 44.253 31.346000000000004 32.61
O 45.22200000000001 30.773000000000003 32.934
O 43.189 31.657000000000004 33.408
C 43.384 31.629000000000005 34.843
C 45.657 36.653000000000006 37.121
C 46.545 37.745 37.603
C 46.164 38.705 38.51
C 44.685 38.619 39.09100000000001
C 47.039 39.772 39.079
C 47.50500000000001 40.762 37.992
C 48.967 41.30200000000001 38.124
C 48.92900000000001 42.793 38.464
C 50.265 43.401 38.073
C 48.721 42.85900000000001 40.040000000000006
C 47.438 43.69800000000001 40.32900000000001
C 47.658 44.956 41.19700000000001
C 47.46000000000001 46.36500000000001 40.413
C 48.581 47.347 40.726000000000006
C 46.024 46.939 40.579
C 45.215 47.182 39.30500000000001
C 43.888 46.358 39.451
C 42.613 47.09700000000001 39.093
C 41.839000000000006 47.603 40.29
C 41.836 46.18200000000001 38.172
H 46.328 38.211 31.526
H 47.902 37.661 25.287000000000003
H 45.811 31.643000000000004 25.104000000000003
H 44.235 34.149 33.204
H 45.76700000000001 36.365 33.357
H 43.51 37.056 33.699
H 42.93300000000001 35.797 32.544
H 43.416 37.434 32.019000000000005
H 47.26100000000001 34.504000000000005 32.758
H 46.66 32.911 32.819
H 47.744 34.112 34.981
H 46.574 32.984 35.066
H 47.709 41.071 29.665
H 49.035000000000004 40.036 30.365000000000002
H 47.454 39.948 31.048000000000002
H 50.663 40.948 27.059
H 50.08200000000001 40.624 28.654000000000003
H 49.168000000000006 41.736 27.880000000000003
H 48.522 35.545 23.81
H 46.169000000000004 33.697 23.431
H 46.31700000000001 35.593 22.227
H 47.327000000000005 37.01 22.7
H 45.806 36.774 23.574
H 48.215 33.307 22.437
H 47.864 31.868 23.454
H 50.358000000000004 33.201 23.175000000000004
H 49.941 32.015 24.258000000000003
H 49.69200000000001 33.757000000000005 24.687
H 44.204 28.972 27.506000000000004
H 45.629 29.238 26.524
H 44.153000000000006 29.831000000000003 25.881000000000004
H 42.912 32.172 31.048000000000002
H 42.529 30.965000000000003 34.971
H 43.388 32.616 35.306
H 44.281 31.1 35.166
H 45.334 36.116 38.012
H 44.914 37.248000000000005 36.59
H 47.605 37.802 37.352
H 43.986000000000004 39.319 38.63300000000001
H 44.83800000000001 38.855 40.144000000000005
H 44.386 37.571 39.092
H 47.973 39.36500000000001 39.465
H 46.675 40.26 39.983
H 46.821 41.602 37.872
H 47.46000000000001 40.255 37.028
H 49.354000000000006 41.12100000000001 37.121
H 49.64 40.765 38.791
H 48.11800000000001 43.351 37.996
H 50.307 44.314 38.666
H 50.27100000000001 43.665000000000006 37.015
H 51.01400000000001 42.708000000000006 38.456
H 49.535 43.335 40.58700000000001
H 48.406000000000006 41.867000000000004 40.363
H 46.831 42.99700000000001 40.901
H 46.867000000000004 44.005 39.453
H 48.635000000000005 44.926 41.68
H 46.88000000000001 44.90100000000001 41.95900000000001
H 47.655 46.207 39.353
H 49.33700000000001 47.473 39.952
H 49.137 47.137 41.64000000000001
H 48.169000000000004 48.352000000000004 40.81400000000001
H 46.043000000000006 47.93500000000001 41.023
H 45.472 46.344 41.307
H 45.783 46.826 38.446
H 44.980000000000004 48.221 39.077
H 43.699000000000005 46.022 40.47
H 44.012 45.568 38.71000000000001
H 42.913 47.916 38.44
H 42.129000000000005 48.642 40.449
H 41.986 47.027 41.204
H 40.81 47.456 39.964
H 41.19700000000001 46.86500000000001 37.613
H 41.288 45.471 38.791
H 42.38 45.705 37.357

