280
Bchla 25 -- Bchla 27
Mg -2.59 34.017 26.794000000000004
C -3.6200000000000006 32.414 29.773
C -1.153 36.458 28.719
C -2.2060000000000004 35.825 24.046000000000003
C -4.517 31.709 25.002
N -2.5520000000000005 34.47200000000001 29.003
C -2.952 33.593 30.013000000000005
C -2.377 34.057 31.374
C -1.602 35.375 31.007
C -1.716 35.466 29.46
C -1.9140000000000001 36.614 31.828000000000003
C -1.5090000000000001 33.042 32.134
C -1.9890000000000003 32.76400000000001 33.585
C -0.958 32.997 34.667
O 0.23000000000000004 32.67400000000001 34.656000000000006
O -1.4470000000000003 33.677 35.743
N -1.7020000000000002 35.86 26.449
C -1.192 36.749 27.349
C -0.5510000000000002 37.807 26.605000000000004
C -0.9850000000000001 37.71 25.214
C -1.6800000000000002 36.432 25.232
C 0.22600000000000003 39.027 27.325
C -1.036 38.702 24.133
O -1.4060000000000001 38.534 23.006
C -0.576 40.11 24.499
N -3.466 33.878 24.823000000000004
C -3.083 34.73100000000001 23.853000000000005
C -3.5250000000000004 34.222 22.479
C -3.9270000000000005 32.767 22.769
C -3.9450000000000003 32.737 24.281000000000002
C -4.74 35.083 21.901000000000003
C -2.7700000000000005 31.795000000000005 22.205
C -1.443 31.788000000000004 23.012
N -3.752 32.293000000000006 27.191000000000003
C -4.441 31.482 26.372
C -5.055 30.455000000000002 27.170000000000005
C -4.721 30.752000000000002 28.478
C -3.9690000000000003 31.93 28.477
C -5.921000000000001 29.290000000000003 26.73
C -4.97 30.275 29.841
O -5.630000000000001 29.441000000000003 30.394000000000002
C -4.203 31.284 30.736000000000004
C -5.222000000000001 31.862 31.647
O -6.224 32.38 31.222
O -4.941 31.662 32.989
C -6.056 31.947000000000003 33.953
C -0.532 33.967 36.843
C -1.148 34.905 37.927
C -0.49800000000000005 35.682 38.837
C 1.005 35.92 39.103
C -1.4170000000000003 36.45 39.81
C -1.154 36.246 41.313
C -1.252 37.518 42.152
C -0.9570000000000001 37.309 43.654
C -2.264 37.101 44.496
C -0.125 38.52 44.27
C 1.4060000000000001 38.147000000000006 44.234
C 2.057 37.958 45.716
C 2.54 36.521 45.970000000000006
C 2.9970000000000003 36.305 47.453
C 3.775 36.238 45.03900000000001
C 3.468 35.083 44.103
C 3.8470000000000004 35.57000000000001 42.61500000000001
C 5.048 34.843 41.92
C 6.362000000000001 35.175 42.715
C 5.156 35.126 40.381
H -0.526 37.10900000000001 29.332
H -2.0060000000000002 36.32 23.093
H -4.957000000000001 30.834000000000003 24.519000000000002
H -3.2030000000000003 34.376 32.01
H -0.555 35.232 31.275
H -2.846 36.497 32.379
H -1.9520000000000002 37.532 31.241000000000003
H -1.135 36.669 32.588
H -0.4580000000000001 33.284000000000006 32.292
H -1.474 32.091 31.603
H -2.465 31.787 33.668
H -2.7730000000000006 33.485 33.813
H 1.186 39.15100000000001 26.824000000000005
H 0.479 38.885 28.375000000000004
H -0.267 39.997 27.389000000000003
H 0.469 39.967 24.775
H -1.197 40.391000000000005 25.349000000000004
H -0.593 40.824 23.675
H -2.716 34.179 21.749000000000002
H -4.902 32.392 22.457
H -4.665 35.043 20.814
H -4.797000000000001 36.142 22.155
H -5.626000000000001 34.539 22.228
H -2.5310000000000006 31.986000000000004 21.159
H -3.07 30.756 22.342
H -0.61 31.269 22.539
H -1.6390000000000002 31.283 23.958
H -1.179 32.82600000000001 23.217
H -5.416 28.574 26.082
H -6.720000000000001 29.767000000000003 26.163000000000004
H -6.408 28.788 27.566000000000003
H -3.527 30.646000000000004 31.305
H -5.485000000000001 32.486 34.709
H -6.484000000000001 31.045 34.39
H -6.924000000000001 32.524 33.635000000000005
H 0.358 34.454 36.445
H -0.25 33.021 37.305
H -2.233 34.905 37.82600000000001
H 1.252 36.981 39.124
H 1.5180000000000002 35.467 38.255
H 1.3660000000000003 35.32 39.939
H -2.443 36.134 39.62400000000001
H -1.351 37.52000000000001 39.612
H -0.164 35.898 41.607
H -1.94 35.61 41.721
H -2.273 37.892 42.073
H -0.7640000000000001 38.351 41.646
H -0.36 36.413 43.823
H -3.2030000000000003 37.086 43.944
H -2.434 37.799 45.316
H -2.143 36.138 44.992000000000004
H -0.44300000000000006 38.662 45.303
H -0.374 39.444 43.747
H 1.9430000000000003 38.958 43.74300000000001
H 1.6100000000000003 37.256 43.64
H 1.2560000000000002 38.259 46.391
H 2.891 38.616 45.963
H 1.697 35.837 45.87800000000001
H 3.7400000000000007 35.50800000000001 47.47800000000001
H 2.262 35.811 48.089000000000006
H 3.408 37.198 47.924
H 4.565 35.802 45.650000000000006
H 4.198 37.172 44.669
H 2.392 34.925 44.02900000000001
H 3.951 34.144 44.374
H 4.002 36.646 42.541000000000004
H 2.95 35.3 42.058
H 4.875 33.769 41.985
H 6.227 35.987 43.43
H 7.173 35.472 42.04900000000001
H 6.718000000000001 34.282 43.228
H 4.578 34.348 39.882
H 6.179000000000001 35.078 40.00800000000001
H 4.649 36.067 40.168
Mg -5.21 24.541000000000004 27.195
C -3.5410000000000004 26.384000000000004 29.693000000000005
C -6.38 22.499 29.726
C -6.783000000000001 22.591 24.876000000000005
C -3.732 26.393000000000004 24.817
N -5.009 24.475 29.485
C -4.393000000000001 25.403000000000002 30.316000000000003
C -4.7780000000000005 25.157000000000004 31.761
C -5.380000000000001 23.705 31.74
C -5.612 23.568 30.252
C -4.487 22.583 32.401
C -5.828000000000001 26.148000000000003 32.285
C -5.66 26.572 33.748
C -5.928 25.52 34.86
O -5.178000000000001 24.808000000000003 35.42
O -7.247 25.651000000000003 35.24
N -6.480000000000001 22.853 27.281
C -6.765 22.191000000000003 28.426000000000002
C -7.522000000000001 21.026000000000003 28.101000000000003
C -7.817 21.045 26.694
C -6.985000000000001 22.142 26.232000000000003
C -7.947000000000001 20.031 29.145000000000003
C -8.63 20.1 25.809
O -8.907 20.385000000000005 24.623000000000005
C -9.087 18.724 26.28
N -5.32 24.558 25.17
C -5.973000000000001 23.615 24.382
C -5.699 23.91 22.943
C -4.772 25.174000000000003 22.837
C -4.608 25.452000000000005 24.340000000000003
C -5.2490000000000006 22.679000000000002 22.100000000000005
C -5.373 26.38 22.083
C -4.944 26.457 20.605000000000004
N -3.895 26.018000000000004 27.181
C -3.3810000000000002 26.779000000000003 26.132000000000005
C -2.501 27.909000000000002 26.61
C -2.55 27.715 28.000000000000004
C -3.426 26.623 28.301
C -1.787 28.935 25.749
C -2.033 28.274000000000004 29.24
O -1.249 29.202000000000005 29.443
C -2.781 27.475000000000005 30.39
C -1.665 26.984 31.333000000000002
O -0.581 26.549 31.003000000000004
O -2.033 27.276000000000003 32.645
C -1.033 26.854 33.626
C -7.564000000000001 24.944000000000003 36.511
C -8.753 24.01 36.285
C -9.206 23.034 37.178
C -8.642 22.672000000000004 38.542
C -10.439 22.214 36.802
C -11.605 22.545 37.716
C -12.141000000000002 21.385 38.532
C -12.837 20.297 37.695
C -14.376 20.604 37.604
C -12.473 18.878 38.236
C -11.075 18.359 37.854
C -10.252 18.044000000000004 39.133
C -8.796 17.661 38.813
C -7.707000000000001 18.676 39.491
C -8.488 16.152 39.028
C -7.214 15.591 38.264
C -6.276000000000001 14.932 39.298
C -4.745 15.127000000000002 38.87
C -3.893 13.923000000000002 39.358
C -4.266 16.497 39.329
H -6.796000000000001 21.923 30.555000000000003
H -7.246000000000001 22.043 24.053000000000004
H -3.2010000000000005 26.863 23.987
H -3.9420000000000006 25.157000000000004 32.46000000000001
H -6.324000000000001 23.596 32.274
H -3.587 22.935 32.906
H -4.09 21.819000000000003 31.733000000000004
H -5.035 22.071 33.19200000000001
H -6.837 25.751000000000005 32.176
H -5.779 27.088 31.735000000000003
H -6.234000000000001 27.469 33.98
H -4.65 26.933000000000003 33.941
H -7.011000000000001 19.854 29.675000000000004
H -8.293 19.055 28.805
H -8.678 20.404 29.862000000000002
H -8.257 18.167 26.715
H -9.457 18.282 25.355000000000004
H -9.853000000000002 18.807000000000002 27.051
H -6.6690000000000005 24.060000000000002 22.468
H -3.772 24.984 22.445
H -5.161 21.829 22.777
H -4.267000000000001 22.885000000000005 21.675
H -6.057000000000001 22.545 21.38
H -5.165000000000001 27.269000000000002 22.678000000000004
H -6.454 26.277000000000005 21.986000000000004
H -4.658 25.466 20.252
H -4.057 27.051 20.384
H -5.81 26.77 20.021
H -2.5470000000000006 29.614000000000004 25.362000000000002
H -1.261 28.538 24.881
H -1.105 29.457000000000004 26.42
H -3.5050000000000003 28.048000000000002 30.969
H -1.16 25.838 34.001000000000005
H -1.124 27.594 34.421
H 0.018 26.831 33.338
H -7.981 25.702 37.173
H -6.805 24.425000000000004 37.095
H -9.302 24.101 35.348
H -8.292 21.656 38.362
H -9.496 22.631 39.219
H -7.753000000000001 23.206000000000003 38.876
H -10.150000000000002 21.164 36.741
H -10.782 22.469 35.8
H -12.41 22.862000000000002 37.052
H -11.396 23.503000000000004 38.19200000000001
H -12.859 21.829 39.222
H -11.377000000000002 20.940000000000005 39.17
H -12.531 20.202000000000005 36.653000000000006
H -14.660000000000002 21.651000000000003 37.502
H -14.864 20.149000000000004 38.46600000000001
H -14.707 20.129 36.681
H -13.228 18.159 37.915
H -12.479 19.016 39.317
H -10.479000000000001 19.056 37.265
H -11.241000000000001 17.402 37.358
H -10.608000000000002 17.17 39.678
H -10.286 18.836 39.881
H -8.582 17.67 37.744
H -7.003 18.174 40.154
H -8.335 19.35 40.074
H -7.156000000000001 19.274 38.765
H -9.352 15.546 38.758
H -8.252000000000002 16.061 40.089
H -6.637 16.369 37.763
H -7.396000000000001 14.835000000000003 37.501
H -6.461000000000001 13.864 39.412000000000006
H -6.274000000000001 15.379000000000001 40.292
H -4.618 15.064000000000002 37.789
H -4.547 13.094000000000001 39.626000000000005
H -3.447 14.255000000000003 40.295
H -3.045 13.638000000000002 38.736
H -3.37 16.434 39.947
H -4.981 16.928 40.031
H -3.993 17.069000000000003 38.442

