280
Bchla 12 -- Bchla 15
Mg 47.671 15.890000000000002 28.454
C 45.34400000000001 15.655000000000001 31.048000000000002
C 49.480000000000004 18.075000000000003 30.515000000000004
C 49.687 16.659 25.896000000000004
C 45.306 14.621000000000002 26.300000000000004
N 47.507000000000005 16.717 30.64
C 46.409000000000006 16.477 31.405
C 46.52 17.235 32.787
C 47.758 18.22 32.48
C 48.27100000000001 17.699 31.127000000000002
C 47.166 19.656 32.251
C 46.904 16.168 33.87700000000001
C 47.20400000000001 16.686 35.31
C 48.31600000000001 16.299 36.239
O 49.14300000000001 15.375 36.104
O 48.287000000000006 17.131 37.333
N 49.43000000000001 17.014 28.320000000000004
C 50.06900000000001 17.827 29.271
C 51.20000000000001 18.391 28.663000000000004
C 51.38300000000001 17.851 27.397
C 50.14500000000001 17.128 27.157
C 52.11500000000001 19.271 29.450000000000003
C 52.515 18.076 26.341
O 52.574000000000005 17.523 25.248000000000005
C 53.788 18.861 26.669
N 47.442 15.767 26.396
C 48.48400000000001 16.017000000000003 25.572
C 48.260000000000005 15.53 24.127000000000002
C 46.801 15.004 24.224
C 46.51 15.008 25.714000000000002
C 48.611000000000004 16.583 23.024
C 46.486000000000004 13.650000000000002 23.531
C 46.966 12.438000000000002 24.21
N 45.75600000000001 15.167000000000002 28.599
C 44.938 14.697 27.686
C 43.69800000000001 14.180000000000001 28.274000000000004
C 43.863 14.561000000000002 29.644
C 45.089 15.181000000000001 29.786
C 42.778 13.18 27.748000000000005
C 43.211000000000006 14.491 30.940000000000005
O 42.192 13.935000000000002 31.282
C 44.145 15.276 31.869
C 43.419 16.438 32.555
O 43.17 17.49 32.026
O 43.04200000000001 16.055 33.82
C 42.339 17.133 34.553
C 49.50200000000001 17.037 38.132000000000005
C 49.561 18.263 39.01400000000001
C 50.65100000000001 18.917 39.569
C 52.126000000000005 18.574 39.316
C 50.51500000000001 20.089000000000002 40.599
C 50.806000000000004 21.538 39.927
C 52.14200000000001 22.186 40.17600000000001
C 53.08700000000001 22.243 38.992
C 54.529 21.795000000000005 39.323
C 53.150000000000006 23.665 38.33
C 52.77100000000001 23.536 36.896
C 52.58700000000001 24.871 36.211
C 53.013000000000005 24.900000000000002 34.764
C 54.11200000000001 25.946 34.523
C 51.83 24.921000000000003 33.76
C 52.077 24.161 32.463
C 50.842 23.450000000000003 31.96
C 50.397 24.029000000000003 30.560000000000002
C 48.86600000000001 23.981 30.309000000000005
C 51.22800000000001 23.381000000000004 29.377
H 50.098 18.647 31.209000000000003
H 50.414 16.702000000000005 25.082000000000004
H 44.812000000000005 14.14 25.454000000000004
H 45.63400000000001 17.83 33.010000000000005
H 48.522 18.246 33.258
H 47.138 20.013 31.222
H 47.84 20.429 32.621
H 46.166 19.793 32.662
H 47.758 15.61 33.494
H 46.098 15.434000000000001 33.898
H 46.248 16.587 35.825
H 47.421 17.732 35.09700000000001
H 51.803 19.483 30.473
H 52.347 20.143 28.837000000000003
H 53.025000000000006 18.677 29.539000000000005
H 53.61800000000001 19.925 26.834000000000003
H 54.61200000000001 18.703 25.973000000000003
H 54.192 18.417 27.579
H 49.00300000000001 14.733 24.135000000000005
H 46.204 15.805 23.788
H 49.400000000000006 17.254 23.362
H 47.726 17.181 22.805
H 48.986000000000004 16.126 22.108000000000004
H 46.997 13.776000000000002 22.577
H 45.423 13.597000000000001 23.295
H 46.251 12.146 24.979
H 47.972 12.581 24.604
H 46.988 11.578 23.54
H 43.376000000000005 12.596 27.048000000000002
H 41.933 13.490000000000002 27.133000000000003
H 42.416 12.613000000000001 28.605
H 44.526 14.581 32.618
H 41.57800000000001 16.677 35.186
H 41.709 17.79 33.953
H 43.02300000000001 17.668 35.211
H 50.335 17.193 37.446
H 49.725 16.096 38.635000000000005
H 48.60600000000001 18.712 39.285
H 52.82 19.021 40.028
H 52.31300000000001 18.945 38.308
H 52.23800000000001 17.491 39.253
H 51.04500000000001 19.916 41.536
H 49.456 20.241000000000003 40.808
H 50.036 22.216 40.294
H 50.716 21.469 38.843
H 52.716 21.608 40.9
H 52.016 23.147 40.674
H 52.732 21.57 38.211
H 54.792 20.96 38.675
H 54.634 21.465 40.357
H 55.297 22.563 39.229
H 54.12400000000001 24.154 38.327
H 52.464000000000006 24.251000000000005 38.941
H 51.77 23.108 36.945
H 53.41100000000001 22.819 36.381
H 52.991 25.651000000000003 36.856
H 51.51400000000001 25.016 36.342
H 53.470000000000006 23.924 34.599
H 54.939 25.416000000000004 34.05
H 54.376 26.489000000000004 35.431
H 53.726 26.752000000000002 33.899
H 51.684 25.986000000000004 33.578
H 50.872 24.625000000000004 34.187
H 52.82 23.364000000000004 32.479
H 52.454 24.890000000000004 31.745
H 50.003 23.46 32.656
H 51.087 22.393 31.863
H 50.69200000000001 25.078 30.597
H 48.584 25.027000000000005 30.189000000000004
H 48.483000000000004 23.592 31.253
H 48.59300000000001 23.266 29.534000000000002
H 51.99300000000001 24.116 29.127000000000002
H 50.656 23.163 28.475
H 51.79600000000001 22.472 29.573
Mg 46.367000000000004 34.873 28.258000000000003
C 44.786 32.872 30.578000000000003
C 46.386 37.42 30.776000000000003
C 47.556000000000004 36.983 26.07
C 45.979 32.443 25.827000000000005
N 45.442 35.144000000000005 30.411
C 45.073 34.117 31.158
C 45.125 34.48 32.669
C 45.086000000000006 36.045 32.568
C 45.675 36.281 31.168
C 43.631 36.618 32.709
C 46.46 33.912 33.2
C 46.692 34.009 34.714
C 45.77100000000001 34.851 35.574
O 44.572 34.659 35.633
O 46.492 35.823 36.246
N 47.011 36.848 28.339
C 46.96000000000001 37.702 29.494000000000003
C 47.698 38.905 29.134
C 48.14 38.733 27.785000000000004
C 47.542 37.488 27.305
C 47.979 40.111 30.106
C 49.099000000000004 39.67100000000001 26.980000000000004
O 49.27 39.437 25.815
C 49.747 40.84400000000001 27.641
N 46.806 34.696 26.230000000000004
C 47.30800000000001 35.721 25.505
C 47.464000000000006 35.391 24.021000000000004
C 47.086 33.89200000000001 23.987
C 46.581 33.654 25.468000000000004
C 46.605 36.265 23.035
C 48.116 32.929 23.454
C 49.591 32.99 23.919
N 45.556 33.03 28.125
C 45.469 32.14 27.093000000000004
C 44.91700000000001 30.915 27.632000000000005
C 44.641000000000005 31.103000000000005 29.030000000000005
C 45.051 32.44500000000001 29.259000000000004
C 44.677 29.678000000000004 26.824000000000005
C 44.09100000000001 30.544000000000004 30.219000000000005
O 43.568 29.438 30.477000000000004
C 43.938 31.834000000000003 31.195000000000004
C 44.253 31.346000000000004 32.61
O 45.22200000000001 30.773000000000003 32.934
O 43.189 31.657000000000004 33.408
C 43.384 31.629000000000005 34.843
C 45.657 36.653000000000006 37.121
C 46.545 37.745 37.603
C 46.164 38.705 38.51
C 44.685 38.619 39.09100000000001
C 47.039 39.772 39.079
C 47.50500000000001 40.762 37.992
C 48.967 41.30200000000001 38.124
C 48.92900000000001 42.793 38.464
C 50.265 43.401 38.073
C 48.721 42.85900000000001 40.040000000000006
C 47.438 43.69800000000001 40.32900000000001
C 47.658 44.956 41.19700000000001
C 47.46000000000001 46.36500000000001 40.413
C 48.581 47.347 40.726000000000006
C 46.024 46.939 40.579
C 45.215 47.182 39.30500000000001
C 43.888 46.358 39.451
C 42.613 47.09700000000001 39.093
C 41.839000000000006 47.603 40.29
C 41.836 46.18200000000001 38.172
H 46.328 38.211 31.526
H 47.902 37.661 25.287000000000003
H 45.811 31.643000000000004 25.104000000000003
H 44.235 34.149 33.204
H 45.76700000000001 36.365 33.357
H 43.51 37.056 33.699
H 42.93300000000001 35.797 32.544
H 43.416 37.434 32.019000000000005
H 47.26100000000001 34.504000000000005 32.758
H 46.66 32.911 32.819
H 47.744 34.112 34.981
H 46.574 32.984 35.066
H 47.709 41.071 29.665
H 49.035000000000004 40.036 30.365000000000002
H 47.454 39.948 31.048000000000002
H 50.663 40.948 27.059
H 50.08200000000001 40.624 28.654000000000003
H 49.168000000000006 41.736 27.880000000000003
H 48.522 35.545 23.81
H 46.169000000000004 33.697 23.431
H 46.31700000000001 35.593 22.227
H 47.327000000000005 37.01 22.7
H 45.806 36.774 23.574
H 48.215 33.307 22.437
H 47.864 31.868 23.454
H 50.358000000000004 33.201 23.175000000000004
H 49.941 32.015 24.258000000000003
H 49.69200000000001 33.757000000000005 24.687
H 44.204 28.972 27.506000000000004
H 45.629 29.238 26.524
H 44.153000000000006 29.831000000000003 25.881000000000004
H 42.912 32.172 31.048000000000002
H 42.529 30.965000000000003 34.971
H 43.388 32.616 35.306
H 44.281 31.1 35.166
H 45.334 36.116 38.012
H 44.914 37.248000000000005 36.59
H 47.605 37.802 37.352
H 43.986000000000004 39.319 38.63300000000001
H 44.83800000000001 38.855 40.144000000000005
H 44.386 37.571 39.092
H 47.973 39.36500000000001 39.465
H 46.675 40.26 39.983
H 46.821 41.602 37.872
H 47.46000000000001 40.255 37.028
H 49.354000000000006 41.12100000000001 37.121
H 49.64 40.765 38.791
H 48.11800000000001 43.351 37.996
H 50.307 44.314 38.666
H 50.27100000000001 43.665000000000006 37.015
H 51.01400000000001 42.708000000000006 38.456
H 49.535 43.335 40.58700000000001
H 48.406000000000006 41.867000000000004 40.363
H 46.831 42.99700000000001 40.901
H 46.867000000000004 44.005 39.453
H 48.635000000000005 44.926 41.68
H 46.88000000000001 44.90100000000001 41.95900000000001
H 47.655 46.207 39.353
H 49.33700000000001 47.473 39.952
H 49.137 47.137 41.64000000000001
H 48.169000000000004 48.352000000000004 40.81400000000001
H 46.043000000000006 47.93500000000001 41.023
H 45.472 46.344 41.307
H 45.783 46.826 38.446
H 44.980000000000004 48.221 39.077
H 43.699000000000005 46.022 40.47
H 44.012 45.568 38.71000000000001
H 42.913 47.916 38.44
H 42.129000000000005 48.642 40.449
H 41.986 47.027 41.204
H 40.81 47.456 39.964
H 41.19700000000001 46.86500000000001 37.613
H 41.288 45.471 38.791
H 42.38 45.705 37.357

