280
Bchla 9 -- Bchla 21
Mg 35.716 1.255 29.884000000000004
C 33.26 2.269 32.062
C 37.975 1.1840000000000002 32.632
C 38.346000000000004 0.782 27.813
C 33.67 1.646 27.255000000000003
N 35.616 1.6870000000000003 32.102
C 34.475 2.1030000000000006 32.73400000000001
C 34.689 2.203 34.246
C 36.276 2.035 34.333
C 36.659 1.612 32.945
C 37.029 3.3020000000000005 34.882
C 33.912 1.084 35.079
C 33.167 1.39 36.356
C 33.843 2.221 37.388
O 33.42100000000001 3.3410000000000006 37.728
O 34.933 1.6400000000000001 37.876
N 37.887 0.958 30.157000000000004
C 38.55 0.788 31.322000000000003
C 39.891 0.361 31.101
C 40.027 0.20000000000000004 29.686000000000003
C 38.73 0.727 29.166000000000004
C 40.80200000000001 0.22400000000000003 32.278000000000006
C 41.264 -0.169 28.885000000000005
O 41.33400000000001 -0.005 27.663000000000004
C 42.484 -0.7440000000000001 29.583
N 36.02 1.3670000000000002 27.779000000000003
C 37.178 1.001 27.169000000000004
C 36.981 0.8910000000000001 25.658
C 35.415 1.001 25.519
C 34.996 1.352 26.933000000000003
C 37.785 1.7880000000000003 24.671000000000003
C 34.665 -0.246 24.889000000000003
C 34.104 -1.334 25.78
N 33.899 1.9220000000000002 29.647000000000002
C 33.078 1.916 28.548000000000002
C 31.778 2.415 28.813
C 31.777 2.525 30.2
C 33.078 2.193 30.658
C 30.562000000000005 2.677 27.934
C 31.029 2.8750000000000004 31.327
O 29.887 3.2940000000000005 31.372
C 31.955 2.758 32.664
C 32.02 4.078 33.279
O 32.548 5.092 32.781000000000006
O 31.387 4.147 34.48
C 31.1 5.466000000000001 35.055
C 35.582 2.283 39.059
C 36.956 1.7520000000000002 39.281
C 37.663 1.5670000000000002 40.454
C 37.082 1.906 41.858
C 39.057 0.9960000000000001 40.45000000000001
C 39.271 -0.353 41.11
C 40.193000000000005 -0.233 42.373000000000005
C 41.643 -0.44000000000000006 42.059
C 42.00600000000001 -1.9290000000000003 42.095
C 42.605 0.519 42.836
C 43.418 1.449 41.91
C 44.351 2.278 42.795
C 44.666 3.6660000000000004 42.14300000000001
C 46.05 3.6770000000000005 41.413000000000004
C 44.807 4.773 43.233
C 43.974000000000004 6.069 42.94800000000001
C 44.742 7.371 43.228
C 44.525 8.505 42.286
C 45.78600000000001 8.771 41.42400000000001
C 43.991 9.797 43.02700000000001
H 38.549 1.115 33.55800000000001
H 39.099 0.356 27.147000000000002
H 32.904 1.431 26.508000000000003
H 34.281 3.1550000000000002 34.588
H 36.555 1.259 35.046
H 37.568 3.0020000000000002 35.78
H 36.247 4.051 35.008
H 37.838 3.673 34.252
H 34.722 0.389 35.301
H 33.307 0.459 34.423
H 32.77 0.47 36.785
H 32.335 2.027 36.05800000000001
H 41.314 -0.725 32.123
H 40.23 0.11700000000000002 33.2
H 41.52900000000001 1.024 32.422
H 42.25000000000001 -1.4870000000000003 30.346000000000004
H 43.158 0.065 29.868000000000002
H 42.999 -1.3 28.799
H 37.387 -0.09500000000000001 25.431000000000004
H 35.108 1.7500000000000002 24.79
H 37.128 2.526 24.211
H 38.164 1.1220000000000003 23.896
H 38.578 2.241 25.265000000000004
H 35.37100000000001 -0.715 24.205000000000002
H 33.813 0.096 24.301
H 34.443 -2.324 25.474
H 33.014 -1.3470000000000002 25.820000000000004
H 34.482 -1.099 26.775000000000002
H 30.791000000000004 2.376 26.911000000000005
H 30.304000000000002 3.735 27.987000000000002
H 29.727 2.091 28.317
H 31.326 2.109 33.274
H 30.272000000000002 5.471 35.764
H 31.016 6.283000000000001 34.339
H 31.936 5.664 35.726
H 35.108 1.9540000000000002 39.984
H 35.775 3.3420000000000005 38.89
H 37.467 1.4470000000000003 38.368
H 37.873000000000005 2.264 42.516
H 36.72 1.008 42.359
H 36.27000000000001 2.623 41.733000000000004
H 39.772 1.6710000000000003 40.919
H 39.282 0.849 39.393
H 39.536 -1.174 40.445
H 38.274 -0.6480000000000001 41.43900000000001
H 39.775 -1.0030000000000001 43.021
H 40.001 0.6730000000000002 42.94800000000001
H 41.848 -0.15700000000000003 41.027
H 42.301 -2.254 41.097
H 41.147 -2.584 42.237
H 42.72200000000001 -2.184 42.877
H 43.228 -0.037000000000000005 43.537
H 41.94500000000001 1.215 43.355
H 42.623 2.041 41.455
H 44.03 0.9260000000000002 41.175
H 45.262 1.704 42.962
H 44.00300000000001 2.425 43.818
H 43.904 3.914 41.404
H 46.194 4.66 40.965
H 45.93600000000001 2.868 40.69200000000001
H 46.74300000000001 3.305 42.168
H 45.84 5.106000000000001 43.335
H 44.48700000000001 4.384 44.20000000000001
H 43.05700000000001 6.043000000000001 43.535
H 43.678 6.089000000000001 41.89900000000001
H 45.80100000000001 7.203 43.426
H 44.400000000000006 7.671000000000001 44.219
H 43.757000000000005 8.162 41.59300000000001
H 45.362 9.038 40.457
H 46.351000000000006 7.847 41.306000000000004
H 46.401 9.604 41.767
H 44.493 10.048000000000002 43.961
H 42.917 9.926 43.167
H 44.126000000000005 10.671 42.389
Mg 16.411 52.367 25.566
C 18.018 50.888 28.3
C 13.924000000000001 53.471000000000004 27.634000000000004
C 14.785000000000002 53.43800000000001 22.892000000000003
C 18.977 50.989000000000004 23.494
N 16.017000000000003 52.13900000000001 27.735000000000003
C 16.814 51.56600000000001 28.701000000000004
C 16.316 51.93200000000001 30.087000000000003
C 14.871 52.50500000000001 29.805
C 15.006000000000002 52.79900000000001 28.272
C 13.752000000000002 51.51700000000001 30.109
C 17.38 52.827 30.821000000000005
C 16.866 53.425000000000004 32.16
C 15.838000000000001 52.611 32.918000000000006
O 15.994000000000002 51.421 33.21
O 14.722 53.28600000000001 33.206
N 14.673 53.30500000000001 25.313
C 13.709 53.596000000000004 26.270000000000003
C 12.514000000000001 54.21500000000001 25.67
C 12.809 54.23100000000001 24.272
C 14.132 53.632 24.117
C 11.368 54.712 26.469000000000005
C 11.91 54.75300000000001 23.181000000000004
O 12.269000000000002 54.771 21.971000000000004
C 10.567 55.354 23.496000000000002
N 16.865 52.275 23.471000000000004
C 15.997000000000002 52.81 22.612000000000002
C 16.443000000000005 52.50800000000001 21.114
C 17.818 51.656000000000006 21.31
C 17.893 51.619 22.837
C 15.275 51.720000000000006 20.391
C 19.117 52.361000000000004 20.728000000000005
C 19.408 52.107 19.221
N 18.085 51.15100000000001 25.765
C 19.116 50.754000000000005 24.873000000000005
C 20.198 50.001 25.646000000000004
C 19.782000000000004 49.96200000000001 26.973000000000003
C 18.524 50.751 27.001000000000005
C 21.485 49.44800000000001 25.119000000000003
C 20.107 49.55500000000001 28.320000000000004
O 21.06 48.92400000000001 28.788
C 19.058 50.30100000000001 29.285
C 18.453 49.377 30.317000000000004
O 17.480000000000004 48.699000000000005 30.125
O 19.026 49.591 31.591000000000005
C 18.266 49.12100000000001 32.759
C 13.709 52.63100000000001 33.997
C 12.990000000000002 53.80200000000001 34.615
C 12.516 53.86600000000001 35.887
C 12.502000000000002 52.848000000000006 36.993
C 12.049000000000001 55.211000000000006 36.379000000000005
C 10.517000000000001 55.27100000000001 36.537
C 9.842 56.512 35.811
C 9.114 57.373000000000005 36.808
C 7.743000000000001 56.738 37.167
C 8.911 58.84 36.418
C 10.201 59.705000000000005 36.212
C 10.501000000000001 60.10000000000001 34.809
C 10.535 61.638000000000005 34.593
C 10.037 61.983 33.245
C 11.935 62.23400000000001 34.708
C 11.987000000000002 63.55800000000001 35.459
C 12.917000000000002 64.588 34.763000000000005
C 14.458000000000002 64.314 34.741
C 15.269000000000002 65.316 35.556
C 14.901 64.193 33.258
H 13.193000000000001 53.709 28.410000000000004
H 14.236000000000002 53.78 22.012
H 19.732 50.45400000000001 22.914
H 16.248 51.01 30.663
H 14.638 53.45400000000001 30.289
H 13.103 52.02100000000001 30.825
H 14.2 50.58 30.439000000000004
H 13.062000000000001 51.391 29.275000000000002
H 17.737 53.448 30.0
H 18.216 52.16100000000001 31.032000000000004
H 16.462 54.391 31.857000000000003
H 17.724000000000004 53.562000000000005 32.818
H 10.557 54.062 26.141000000000002
H 11.171 55.77400000000001 26.325000000000003
H 11.382000000000001 54.601000000000006 27.554
H 10.714000000000002 56.253 24.093
H 10.128000000000002 54.498 24.01
H 9.92 55.569 22.646
H 16.628 53.525 20.766
H 17.779 50.584 21.112
H 14.414 51.50600000000001 21.024
H 15.645 50.760000000000005 20.03
H 14.907000000000002 52.394 19.618
H 19.983 52.23400000000001 21.377000000000002
H 18.924 53.431 20.798000000000002
H 19.483 53.086 18.749
H 18.627 51.45900000000001 18.823
H 20.361000000000004 51.6 19.068
H 22.271 50.105000000000004 25.492000000000004
H 21.464 49.416000000000004 24.029000000000003
H 21.784 48.45300000000001 25.448000000000004
H 19.61 51.115 29.754000000000005
H 18.447 48.047000000000004 32.793
H 17.229 49.453 32.705
H 18.688 49.637 33.621
H 14.073000000000002 51.938 34.756
H 13.003 52.05200000000001 33.401
H 13.005000000000003 54.705000000000005 34.005
H 11.453 52.58800000000001 37.134
H 12.947 53.169000000000004 37.935
H 13.039000000000001 51.968 36.638000000000005
H 12.314 56.047000000000004 35.732
H 12.449000000000002 55.43600000000001 37.36800000000001
H 10.413 55.385 37.616
H 10.103 54.32500000000001 36.189
H 9.172 56.04500000000001 35.089
H 10.541 57.105 35.221000000000004
H 9.753 57.327000000000005 37.69
H 8.005 55.92 37.837
H 7.232000000000001 56.143 36.41
H 7.039 57.446 37.604
H 8.267 59.217000000000006 37.212
H 8.338 58.772000000000006 35.494
H 11.098 59.257 36.638000000000005
H 10.158000000000001 60.632000000000005 36.784
H 9.692 59.683 34.21
H 11.488 59.70400000000001 34.568
H 9.888 62.02400000000001 35.381
H 10.51 62.803000000000004 32.705
H 8.98 62.220000000000006 33.364
H 10.123 61.156000000000006 32.54
H 12.306 62.364 33.691
H 12.635000000000002 61.56300000000001 35.205
H 12.296 63.41100000000001 36.494
H 10.975 63.931000000000004 35.624
H 12.691 65.525 35.274
H 12.583000000000002 64.816 33.751
H 14.583000000000002 63.4 35.322
H 15.801 66.007 34.902
H 15.999 64.826 36.201
H 14.617000000000003 65.841 36.25500000000001
H 14.379 64.856 32.569
H 14.937000000000001 63.13700000000001 32.99
H 15.912000000000003 64.6 33.221

