280
Bchla 3 -- Bchla 24
Mg 1.3970000000000002 7.672 26.334
C 1.724 9.741 29.051000000000002
C 2.013 4.991 28.381000000000004
C 1.182 5.575 23.580000000000002
C 1.222 10.435 24.247
N 1.8810000000000002 7.369 28.504000000000005
C 1.8600000000000003 8.397000000000002 29.403000000000002
C 2.088 7.914 30.753000000000004
C 2.4 6.433 30.607000000000003
C 2.122 6.205 29.057
C 3.813 5.913 31.044
C 0.869 8.215 31.690000000000005
C 1.1840000000000002 8.506 33.198
C 2.4480000000000004 7.854000000000001 33.792
O 3.5250000000000004 8.347 34.18300000000001
O 2.178 6.495000000000001 34.023
N 1.4660000000000002 5.549 26.075
C 1.7190000000000003 4.629 27.078000000000003
C 1.7070000000000003 3.272 26.495
C 1.454 3.427 25.064
C 1.331 4.879 24.847
C 1.9610000000000003 1.9930000000000003 27.276000000000003
C 1.226 2.335 24.045000000000005
O 0.9420000000000001 2.6500000000000004 22.876000000000005
C 1.349 0.883 24.320000000000004
N 1.3040000000000003 7.948 24.201
C 1.17 6.942 23.332
C 0.899 7.477 21.916000000000004
C 0.6480000000000001 9.069 22.124000000000002
C 1.006 9.146 23.65
C 2.0630000000000006 7.120000000000001 20.941000000000003
C -0.806 9.555 21.874
C -1.005 10.456000000000001 20.646
N 1.524 9.708000000000002 26.541
C 1.451 10.734000000000002 25.596
C 1.565 12.05 26.263000000000005
C 1.6900000000000002 11.659000000000002 27.617000000000004
C 1.6690000000000003 10.243 27.729
C 1.493 13.371000000000002 25.672
C 1.738 12.190000000000001 28.995
O 1.6820000000000002 13.313000000000002 29.421
C 1.805 10.957 29.965000000000003
C 2.9740000000000006 11.12 30.844000000000005
O 4.122 10.981000000000002 30.392000000000003
O 2.681 11.286000000000001 32.163
C 3.771 11.252000000000002 33.133
C 3.048 5.855 35.05
C 1.9290000000000003 5.252 35.92
C 1.8690000000000002 5.066000000000001 37.262
C 2.844 5.658000000000001 38.257
C 0.649 4.441 37.846
C 0.829 3.1160000000000005 38.637
C 0.4580000000000001 1.834 37.761
C 0.426 0.43000000000000005 38.301
C -0.691 -0.398 37.669
C 1.726 -0.354 38.157
C 2.354 -0.963 39.38000000000001
C 3.109 -2.224 38.988
C 3.9870000000000005 -2.7550000000000003 40.173
C 3.1170000000000004 -3.186 41.378
C 5.137 -1.8510000000000002 40.639
C 6.399 -2.6710000000000003 41.039
C 7.463000000000001 -1.796 41.848
C 8.896 -2.176 41.372
C 9.882 -2.039 42.589
C 9.265 -1.108 40.271
H 2.211 4.159 29.060000000000002
H 1.154 4.901 22.721
H 1.034 11.27 23.569
H 2.966 8.427 31.147
H 1.6200000000000003 5.817 31.056000000000004
H 4.563 6.577000000000001 31.475000000000005
H 4.274 5.435 30.180000000000003
H 3.771 5.074 31.739
H 0.125 7.425000000000001 31.587
H 0.273 9.011 31.244
H 0.337 8.213 33.819
H 1.413 9.554 33.38900000000001
H 2.028 2.15 28.352000000000004
H 2.9130000000000003 1.543 26.993000000000002
H 1.087 1.3440000000000003 27.224000000000004
H 1.036 0.37200000000000005 23.410000000000004
H 0.748 0.547 25.166000000000004
H 2.3680000000000003 0.659 24.636
H -0.069 7.080000000000001 21.61
H 1.359 9.68 21.568
H 1.725 6.673 20.006
H 2.747 6.405000000000001 21.399000000000004
H 2.5920000000000005 8.064 20.808
H -1.226 10.107 22.714
H -1.4980000000000002 8.721 21.755
H -0.24900000000000003 10.22 19.897
H -0.863 11.489 20.962
H -2.045 10.342 20.343
H 1.2640000000000002 14.148 26.401000000000003
H 0.762 13.444000000000003 24.867000000000004
H 2.505 13.659 25.387000000000004
H 0.852 11.055 30.486000000000004
H 4.474 12.081 33.047
H 4.27 10.283 33.126
H 3.365 11.366 34.138000000000005
H 3.669 6.537000000000001 35.629
H 3.6450000000000005 5.042 34.637
H 1.141 4.853 35.281000000000006
H 2.241 6.388 38.797
H 3.6670000000000003 6.079 37.68
H 3.186 4.837 38.888
H -0.121 4.345 37.08
H 0.245 5.038 38.663
H 0.325 3.045 39.601
H 1.867 2.982 38.94
H 1.07 1.6620000000000001 36.876
H -0.538 2.056 37.377
H 0.21900000000000003 0.48100000000000004 39.37
H -1.049 0.006 36.722
H -1.532 -0.179 38.326
H -0.45000000000000007 -1.431 37.415000000000006
H 2.424 0.42000000000000004 37.837
H 1.644 -1.051 37.322
H 1.593 -1.066 40.153
H 3.027 -0.185 39.739
H 3.572 -2.108 38.00800000000001
H 2.339 -2.9940000000000007 38.93
H 4.472 -3.6260000000000003 39.732
H 2.35 -3.916 41.12100000000001
H 2.586 -2.314 41.76200000000001
H 3.6820000000000004 -3.709 42.149
H 4.662 -1.3060000000000003 41.455
H 5.377 -1.127 39.86
H 6.758000000000001 -2.9760000000000004 40.056000000000004
H 5.986000000000001 -3.5220000000000002 41.582
H 7.2540000000000004 -2.036 42.89000000000001
H 7.172000000000001 -0.748 41.771
H 9.044 -3.1110000000000007 40.833000000000006
H 9.386 -1.986 43.55800000000001
H 10.42 -1.092 42.540000000000006
H 10.532000000000002 -2.9130000000000003 42.553
H 9.459 -1.7730000000000001 39.43
H 10.177 -0.553 40.49300000000001
H 8.54 -0.302 40.162000000000006
Mg -0.187 43.411 24.933
C 1.6070000000000002 43.076 28.072
C -2.898 42.36800000000001 26.644000000000002
C -1.7320000000000002 43.655 22.148
C 2.888 44.159 23.345
N -0.581 42.801 27.230000000000004
C 0.261 42.842 28.277
C -0.506 42.58400000000001 29.588
C -1.8090000000000002 41.923 28.937000000000005
C -1.8000000000000003 42.43200000000001 27.557000000000002
C -2.075 40.449 29.193
C -0.702 43.92400000000001 30.318000000000005
C -0.869 43.756 31.857000000000003
C -0.5610000000000002 42.389 32.626
O 0.469 42.062 33.17700000000001
O -1.6500000000000001 41.507 32.446
N -2.115 43.102000000000004 24.429
C -3.103 42.58200000000001 25.243000000000002
C -4.308 42.416 24.436
C -4.003 42.864 23.127
C -2.559 43.224000000000004 23.208
C -5.571000000000001 41.874 24.94
C -4.956 43.007 21.828
O -4.584 43.57 20.835000000000004
C -6.464 42.70700000000001 21.9
N 0.559 43.585 22.973
C -0.3340000000000001 43.816 22.014
C 0.263 44.224 20.694
C 1.6280000000000001 44.753 21.198
C 1.7390000000000003 43.971000000000004 22.552
C 0.44200000000000006 43.02300000000001 19.653
C 1.7620000000000002 46.328 21.331000000000003
C 0.9410000000000001 47.259 20.392000000000003
N 1.835 43.483000000000004 25.498000000000005
C 2.95 43.846 24.817
C 4.052 43.978 25.658
C 3.57 43.639 26.89
C 2.221 43.36 26.794000000000004
C 5.44 44.465 25.251
C 4.008000000000001 43.522 28.289000000000005
O 5.1080000000000005 43.518 28.821000000000005
C 2.6750000000000003 43.22200000000001 29.104
C 2.922 42.05100000000001 29.927
O 2.929 40.872 29.559
O 3.4020000000000006 42.496 31.107
C 4.042 41.446 31.879000000000005
C -1.644 40.254000000000005 33.226
C -2.8540000000000005 40.300000000000004 34.139
C -2.9760000000000004 40.997 35.275
C -1.8710000000000002 41.858 35.91
C -4.259 41.023 36.116
C -5.381 41.862 35.472
C -6.659000000000001 41.095 35.134
C -7.857000000000001 41.643 36.041
C -8.569 42.873000000000005 35.304
C -8.883 40.434 36.241
C -9.266000000000002 40.292 37.68900000000001
C -10.519 39.593 37.883
C -11.312 40.074 39.145
C -12.096 38.822 39.802
C -12.423000000000002 41.128 38.89
C -11.931000000000001 42.58 39.17
C -12.258 43.532000000000004 38.014
C -12.169 45.041000000000004 38.484
C -13.504000000000001 45.81400000000001 38.325
C -10.974000000000002 45.684 37.683
H -3.718 41.86 27.156000000000002
H -2.284 43.689 21.207
H 3.792 44.48700000000001 22.828
H -0.023 41.815 30.191
H -2.6550000000000002 42.40200000000001 29.428
H -2.958 40.293 29.812000000000005
H -1.216 39.991 29.683
H -2.1850000000000005 39.85300000000001 28.287
H -1.656 44.33500000000001 29.987
H 0.054000000000000006 44.67300000000001 30.083000000000002
H -1.835 44.127 32.20100000000001
H -0.273 44.587 32.234
H -5.662000000000001 41.997 26.019000000000002
H -5.557 40.82 24.662000000000003
H -6.458 42.347 24.518000000000004
H -7.019000000000001 43.391000000000005 22.542000000000005
H -6.518000000000001 41.644 22.136
H -6.895 42.739000000000004 20.899
H -0.456 44.953 20.321
H 2.464 44.44400000000001 20.571
H 0.054000000000000006 43.470000000000006 18.738
H -0.137 42.13 19.891
H 1.4680000000000002 42.712 19.46
H 2.817 46.592 21.273
H 1.31 46.482 22.311
H -0.047 47.446 20.812000000000005
H 0.9750000000000001 46.739 19.434
H 1.443 48.20900000000001 20.212
H 5.257 45.138 24.413
H 6.078000000000001 43.671 24.864
H 5.885 44.977000000000004 26.104000000000003
H 2.489 44.102 29.721000000000004
H 4.455 41.795 32.825
H 4.724 40.789 31.339000000000002
H 3.3000000000000003 40.728 32.23
H -0.728 40.087 33.794
H -1.816 39.506 32.452
H -3.714 39.689 33.865
H -1.499 41.46900000000001 36.858
H -2.161 42.885 36.132
H -0.988 41.995 35.286
H -4.024 41.45 37.092
H -4.468 39.965 36.273
H -5.103 42.408 34.571
H -5.641 42.599000000000004 36.233
H -6.509 40.07000000000001 35.476
H -6.9110000000000005 40.994 34.078
H -7.543000000000001 42.165 36.944
H -9.522 42.5 34.929
H -8.048 43.18000000000001 34.397000000000006
H -8.82 43.715 35.95
H -8.496000000000002 39.485 35.869
H -9.762 40.674 35.642
H -9.253 41.290000000000006 38.129
H -8.421 39.76 38.126
H -10.267 38.539 37.997
H -11.207 39.635 37.039
H -10.595 40.40500000000001 39.897
H -11.608 37.87100000000001 40.016
H -13.074000000000002 38.715 39.333
H -12.441000000000003 39.18300000000001 40.77100000000001
H -13.258000000000001 40.96 39.569
H -12.736 40.972 37.858000000000004
H -10.844000000000001 42.53 39.231
H -12.219 42.926 40.163000000000004
H -13.221 43.264 37.579
H -11.611 43.376000000000005 37.151
H -11.816000000000003 45.027 39.515
H -14.219 45.36000000000001 37.639
H -13.356000000000002 46.804 37.893
H -13.936000000000002 46.067 39.292
H -10.646000000000003 46.511 38.31400000000001
H -11.251 46.112 36.72
H -10.203 44.922 37.568

