280
Bchla 10 -- Bchla 23
Mg 40.74100000000001 8.403 29.699000000000005
C 42.66 10.025000000000002 32.016
C 38.732 7.215 32.077
C 39.179 6.752000000000001 27.363
C 43.283 9.228000000000002 27.341
N 40.793 8.456 31.868
C 41.505 9.392 32.544
C 40.948 9.635 33.92
C 39.85300000000001 8.497 34.002
C 39.827 7.948 32.592
C 40.10000000000001 7.441 35.106
C 40.441 11.181 34.185
C 40.87 11.882 35.483
C 41.239 10.966000000000001 36.692
O 42.389 10.847 37.185
O 40.21 10.24 37.18
N 39.138000000000005 7.344 29.692000000000004
C 38.399 6.917 30.749
C 37.347 6.003 30.376000000000005
C 37.337 6.023000000000001 29.014000000000003
C 38.655 6.628 28.647
C 36.61 5.298 31.500000000000004
C 36.334 5.366 28.045000000000005
O 36.442 5.387 26.841000000000005
C 35.207 4.651 28.730000000000004
N 41.3 7.9190000000000005 27.672000000000004
C 40.367 7.314 26.915
C 40.80200000000001 7.264 25.447000000000003
C 41.951 8.327 25.387000000000004
C 42.232 8.498 26.894
C 41.216 5.861 24.829000000000004
C 41.580000000000005 9.724 24.761000000000003
C 40.484 10.599 25.310000000000002
N 42.572 9.481 29.570000000000004
C 43.553 9.669 28.591
C 44.679 10.463000000000001 29.099000000000004
C 44.364 10.637 30.455000000000002
C 43.08700000000001 10.022 30.648
C 45.856 11.013 28.335000000000004
C 44.788 11.17 31.668000000000003
O 45.805 11.75 32.015
C 43.616 11.012000000000002 32.671
C 44.297 10.490000000000002 33.878
O 44.637 9.318 34.057
O 44.61300000000001 11.499000000000002 34.741
C 45.545 11.240000000000002 35.843
C 40.322 9.61 38.459
C 39.478 10.410000000000002 39.513
C 40.066 11.285 40.35600000000001
C 41.54900000000001 11.746 40.477
C 39.148 11.913 41.409000000000006
C 38.818 10.836000000000002 42.484
C 37.376 10.284000000000002 42.164
C 36.427 10.664 43.31
C 36.623000000000005 9.693000000000001 44.519000000000005
C 34.979 10.71 42.929
C 34.436 12.105 43.364000000000004
C 33.108 11.999000000000002 44.133
C 33.076 12.806 45.469
C 33.07000000000001 14.319000000000003 45.179
C 34.230000000000004 12.507000000000001 46.45700000000001
C 33.805 12.254000000000001 47.882
C 34.574 11.105 48.582
C 35.685 11.55 49.534000000000006
C 36.86 12.239000000000003 48.849000000000004
C 36.138 10.376000000000001 50.43500000000001
H 37.99 7.007 32.851
H 38.681 6.27 26.520000000000003
H 43.95700000000001 9.442 26.508000000000003
H 41.68 9.37 34.683
H 38.87700000000001 8.959 34.149
H 40.485 6.532 34.644
H 39.146 7.206000000000001 35.578
H 40.83 7.874 35.79
H 39.353 11.122 34.153000000000006
H 40.807 11.842000000000002 33.4
H 40.043 12.466 35.886
H 41.65400000000001 12.608 35.268
H 37.229 4.662 32.133
H 35.89 4.51 31.28
H 36.128 6.144 31.99
H 34.675 5.325000000000001 29.401000000000003
H 35.723 3.8010000000000006 29.176000000000002
H 34.378 4.279 28.129000000000005
H 39.885000000000005 7.563 24.938000000000002
H 42.832 7.863000000000001 24.943000000000005
H 41.112 5.086 25.588
H 42.281000000000006 5.839 24.601000000000003
H 40.7 5.56 23.916
H 41.363 9.409 23.740000000000002
H 42.431 10.404 24.739000000000004
H 39.92 10.047 26.063000000000002
H 39.777 10.864 24.524000000000004
H 40.79900000000001 11.500000000000002 25.836000000000002
H 46.782 10.487 28.563000000000002
H 45.972 12.075 28.552
H 45.609 10.771 27.301000000000002
H 43.074000000000005 11.947 32.814
H 46.059 12.145000000000001 36.169
H 46.185 10.382 35.643
H 45.044 10.862 36.734
H 41.27000000000001 9.465 38.977
H 39.788 8.664000000000001 38.377
H 38.42100000000001 10.146 39.563
H 41.653000000000006 12.697000000000001 39.955
H 42.275 11.079 40.012
H 41.80700000000001 11.934000000000001 41.519000000000005
H 38.275 12.421 40.99900000000001
H 39.578 12.797 41.88000000000001
H 38.831 11.405000000000001 43.414
H 39.554 10.037 42.568
H 37.59700000000001 9.220000000000002 42.24
H 36.986 10.391000000000002 41.15200000000001
H 36.693 11.631 43.738
H 35.984 8.812 44.461000000000006
H 36.584 10.21 45.47800000000001
H 37.579 9.171 44.488
H 34.432 9.855 43.326
H 34.791 10.656 41.857
H 34.215 12.588 42.412
H 35.149 12.823000000000002 43.771
H 32.957 10.965 44.44400000000001
H 32.223 12.31 43.577000000000005
H 32.127 12.536000000000001 45.933
H 33.675 14.873000000000001 45.896
H 32.052 14.68 45.32900000000001
H 33.408 14.524 44.163
H 35.025 13.253000000000002 46.45700000000001
H 34.742 11.603000000000002 46.126
H 32.755 12.067 48.107000000000006
H 33.921 13.139000000000001 48.507
H 34.944 10.524000000000001 47.73700000000001
H 33.809 10.505000000000003 49.07600000000001
H 35.291 12.329 50.186
H 37.778 12.02 49.394
H 36.69800000000001 13.313000000000002 48.754
H 36.978 11.8 47.85900000000001
H 37.148 10.51 50.821000000000005
H 35.914 9.417 49.96600000000001
H 35.458 10.381 51.286
Mg -9.051 41.135000000000005 42.305
C -8.305 37.722 41.48700000000001
C -6.395 41.95900000000001 40.063
C -10.135000000000002 44.306 42.063
C -11.946000000000002 40.073 43.784
N -7.597 39.954 40.945
C -7.463000000000001 38.604 40.8
C -6.307 38.235 39.806
C -5.513 39.626000000000005 39.732
C -6.6000000000000005 40.578 40.205
C -4.304 39.713 40.635000000000005
C -6.799 37.608 38.512
C -6.032000000000001 36.37 37.979
C -4.965 36.511 36.796
O -3.9040000000000004 37.125 36.87
O -5.458 35.835 35.714
N -8.298000000000002 42.98100000000001 41.27000000000001
C -7.133000000000001 43.08 40.48100000000001
C -6.947000000000001 44.483 40.091
C -8.039000000000001 45.194 40.728
C -8.91 44.191 41.30200000000001
C -5.896 45.033 39.202
C -8.191000000000003 46.694 40.765
O -7.269000000000001 47.37100000000001 40.369
C -9.416 47.416 41.277
N -10.805 41.95700000000001 42.741
C -10.936000000000002 43.342 42.69200000000001
C -12.323000000000002 43.689 43.238
C -12.785000000000002 42.375 43.968
C -11.75 41.407 43.503
C -12.482 45.006 44.083
C -14.257 41.901 43.766
C -15.093 41.673 44.983
N -9.921 39.324 42.71
C -11.083 39.021 43.398
C -11.161000000000001 37.575 43.68200000000001
C -10.088 37.044 42.866
C -9.417 38.142 42.319
C -12.147000000000002 36.798 44.514
C -9.423 35.768 42.469
O -9.726 34.63 42.68900000000001
C -8.338 36.191 41.48400000000001
C -7.035 35.63000000000001 41.97
O -6.575000000000001 36.04 43.014
O -6.383000000000001 34.711 41.094
C -4.994 34.30500000000001 41.467
C -4.634 36.03 34.58
C -5.307 35.735 33.249
C -6.099000000000001 36.549 32.508
C -6.121 38.040000000000006 32.81
C -6.61 36.072 31.219
C -5.681000000000001 35.691 30.071000000000005
C -6.066000000000001 36.322 28.771000000000004
C -5.458 37.781000000000006 28.507
C -4.608 37.654 27.230000000000004
C -6.644000000000001 38.772000000000006 28.415
C -6.142000000000001 40.209 28.531
C -6.707000000000001 40.993 29.689
C -6.083 42.345 30.143000000000004
C -6.054 42.695 31.636000000000003
C -6.688000000000001 43.522 29.3
C -5.631 44.373 28.618000000000002
C -5.931000000000001 44.76 27.136
C -5.8340000000000005 46.278 26.931000000000004
C -6.247 46.796 25.524000000000004
C -4.347000000000001 46.79200000000001 27.217000000000002
H -5.558 42.253 39.426
H -10.616000000000001 45.285000000000004 42.096000000000004
H -12.779 39.789 44.43000000000001
H -5.573 37.574 40.266000000000005
H -5.285000000000001 39.900000000000006 38.702
H -4.645 39.948 41.643
H -3.6390000000000002 40.46300000000001 40.20700000000001
H -3.691 38.823 40.781
H -6.689 38.376000000000005 37.747
H -7.878 37.478 38.595
H -6.835 35.708 37.654
H -5.4830000000000005 35.835 38.754
H -5.125000000000001 45.43600000000001 39.858
H -6.291000000000001 45.90400000000001 38.679
H -5.425 44.400000000000006 38.449
H -9.416 48.49600000000001 41.131
H -9.437 47.225 42.35
H -10.403 47.092 40.949
H -12.862 43.925 42.32
H -12.529000000000002 42.468 45.02300000000001
H -11.517 45.332 44.47200000000001
H -13.223000000000003 44.867 44.870000000000005
H -12.904 45.79900000000001 43.46600000000001
H -14.251000000000001 40.982 43.18000000000001
H -14.729000000000001 42.611 43.08700000000001
H -15.224000000000002 40.601 45.129000000000005
H -16.08 42.111000000000004 44.835
H -14.721000000000002 42.061 45.931
H -11.731 35.838 44.819
H -13.036000000000001 36.669 43.89600000000001
H -12.463 37.438 45.338
H -8.66 35.877 40.491
H -5.042 33.547 42.24900000000001
H -4.445 35.144000000000005 41.894
H -4.449 33.944 40.595
H -3.796 35.334 34.602
H -4.211 37.029 34.469
H -5.309 34.769 32.745
H -7.080000000000001 38.040000000000006 33.32900000000001
H -6.199 38.534 31.841000000000005
H -5.254 38.383 33.37400000000001
H -7.3260000000000005 36.763 30.775000000000002
H -7.165 35.161 31.446000000000005
H -5.5920000000000005 34.621 29.888000000000005
H -4.708 36.024 30.432000000000002
H -7.152000000000001 36.366 28.697
H -5.700000000000001 35.614 28.028
H -4.703 38.018 29.256
H -3.7200000000000006 38.263 27.400000000000002
H -5.122 38.264 26.487
H -4.246 36.689 26.875
H -7.351000000000001 38.456 29.183000000000003
H -7.053000000000001 38.733 27.405000000000005
H -6.3580000000000005 40.726000000000006 27.596000000000004
H -5.054 40.186 28.602000000000004
H -6.858 40.358000000000004 30.562000000000005
H -7.71 41.278 29.371000000000002
H -5.019 42.195 29.957
H -6.792 43.444 31.922
H -5.133 43.22200000000001 31.883
H -6.097000000000001 41.77300000000001 32.217
H -7.379 44.04800000000001 29.959000000000003
H -7.364000000000001 43.11 28.551000000000002
H -4.675000000000001 43.869 28.761000000000003
H -5.484 45.271 29.217
H -6.948 44.532 26.817
H -5.204 44.27300000000001 26.486
H -6.481 46.793000000000006 27.641
H -6.957 47.617000000000004 25.625
H -6.864 46.098 24.959000000000003
H -5.390000000000001 46.996 24.881
H -3.695 45.92100000000001 27.165
H -4.344 47.17100000000001 28.239
H -4.026 47.56900000000001 26.523000000000003

