280
Bchla 6 -- Bchla 12
Mg 17.054000000000002 -2.2880000000000003 27.750000000000004
C 16.548 -0.354 30.726
C 18.852000000000004 -4.529 29.657
C 18.013000000000005 -3.67 24.949000000000005
C 15.392000000000001 0.222 26.033000000000005
N 17.886 -2.277 29.962
C 17.412 -1.4370000000000003 30.933
C 17.782 -2.001 32.331
C 18.585 -3.327 31.996000000000002
C 18.484 -3.4240000000000004 30.43
C 20.102000000000004 -3.411 32.453
C 16.578 -2.2860000000000005 33.268
C 16.684 -1.8500000000000003 34.68600000000001
C 18.053 -1.523 35.396
O 18.778 -0.591 35.104
O 18.548000000000002 -2.518 36.236
N 18.305 -3.918 27.31
C 18.859 -4.819 28.219
C 19.641 -5.825 27.475000000000005
C 19.293 -5.632000000000001 26.083
C 18.516 -4.371 26.058000000000003
C 20.531000000000002 -6.871 28.075000000000003
C 19.639 -6.463000000000001 24.825
O 19.045 -6.384 23.729
C 20.630000000000003 -7.546 24.977
N 16.791 -1.754 25.844000000000005
C 17.373000000000005 -2.499 24.842
C 16.845 -2.07 23.445
C 15.703 -1.041 23.862000000000002
C 15.953 -0.843 25.347000000000005
C 17.88 -1.479 22.403
C 14.265 -1.461 23.602000000000004
C 13.502 -0.619 22.558000000000003
N 15.981000000000002 -0.538 28.255
C 15.386 0.394 27.438000000000002
C 14.878 1.514 28.241
C 15.273000000000001 1.207 29.531
C 15.938 -0.039 29.497
C 14.172000000000002 2.7510000000000003 27.793
C 15.189000000000002 1.6990000000000003 30.859000000000005
O 14.574 2.682 31.362000000000002
C 15.981000000000002 0.758 31.664
C 17.012 1.503 32.468
O 17.975 2.031 32.027
O 16.72 1.423 33.766
C 17.368 2.297 34.684
C 19.982 -2.452 36.552
C 20.408000000000005 -3.7640000000000002 37.247
C 20.356 -4.021 38.546
C 19.854 -3.0560000000000005 39.583
C 20.837 -5.333 39.057
C 22.258 -5.655 39.002
C 22.740000000000002 -6.699000000000001 40.128
C 23.734 -7.691 39.446
C 22.955000000000002 -8.755000000000003 38.715
C 24.769000000000002 -8.272 40.501
C 26.123000000000005 -7.521 40.532
C 26.806 -7.793000000000001 41.936
C 27.491000000000003 -9.18 41.978
C 26.842000000000002 -9.995 43.104000000000006
C 29.044000000000004 -9.062 42.251000000000005
C 29.902 -9.093 40.942
C 31.024 -10.168 41.003
C 31.344 -10.751 39.606
C 32.091 -9.703 38.807
C 32.157 -12.063000000000002 39.749
H 19.445 -5.281000000000001 30.182000000000002
H 18.215 -4.046000000000001 23.943000000000005
H 14.94 1.0430000000000001 25.474
H 18.422 -1.249 32.794
H 18.07 -4.189 32.419
H 20.439000000000004 -2.604 33.103
H 20.706000000000003 -3.311 31.550000000000004
H 20.311 -4.382 32.903000000000006
H 16.349 -3.349 33.352
H 15.66 -1.804 32.93300000000001
H 16.309 -2.637 35.34100000000001
H 16.049 -0.9720000000000001 34.801
H 21.524 -6.798000000000001 27.632000000000005
H 20.096000000000004 -7.833000000000001 27.804000000000002
H 20.474 -6.870000000000001 29.164
H 21.579 -7.085 25.251
H 20.755 -7.963 23.978
H 20.262 -8.353 25.61
H 16.37 -2.96 23.031000000000002
H 15.888 -0.125 23.301
H 18.88 -1.4650000000000003 22.835
H 17.571000000000005 -0.518 21.99
H 17.864 -2.133 21.531
H 13.635000000000002 -1.616 24.478000000000005
H 14.307 -2.459 23.167000000000005
H 12.479 -0.335 22.804
H 13.298000000000002 -1.281 21.716
H 13.992000000000003 0.304 22.251000000000005
H 13.755000000000003 2.656 26.790000000000003
H 14.889000000000001 3.5600000000000005 27.654
H 13.497000000000002 3.03 28.602000000000004
H 15.272000000000002 0.271 32.333
H 16.919 3.2800000000000002 34.535
H 18.417 2.432 34.42
H 17.174 2.0 35.715
H 20.182 -1.5990000000000002 37.20100000000001
H 20.542 -2.4460000000000006 35.617000000000004
H 20.690000000000005 -4.616 36.628
H 19.138 -2.4460000000000006 39.033
H 20.664 -2.451 39.99000000000001
H 19.457 -3.6820000000000004 40.382
H 20.285000000000004 -6.003 38.398
H 20.431000000000004 -5.496 40.05500000000001
H 22.825000000000003 -4.727 38.932
H 22.485 -6.0360000000000005 38.007
H 21.940000000000005 -7.281 40.58700000000001
H 23.253 -6.066000000000001 40.853
H 24.429 -7.174 38.785
H 23.377 -8.933 37.726
H 21.938 -8.39 38.577
H 22.868 -9.662000000000003 39.313
H 24.871 -9.356 40.539
H 24.367 -7.952 41.462
H 25.835000000000004 -6.482000000000001 40.376000000000005
H 26.762 -7.954 39.763000000000005
H 26.064000000000004 -7.7700000000000005 42.733
H 27.439 -6.930000000000001 42.144000000000005
H 27.284000000000002 -9.649 41.016000000000005
H 27.200000000000003 -9.702 44.09100000000001
H 27.061 -11.049 42.931
H 25.773000000000003 -9.788 43.068
H 29.359 -9.968 42.769000000000005
H 29.234000000000005 -8.137 42.79600000000001
H 30.419 -8.134 40.972
H 29.280000000000005 -9.128 40.047
H 30.802 -11.04 41.618
H 31.870000000000005 -9.865 41.62100000000001
H 30.338 -10.853 39.2
H 31.684 -9.983 37.835
H 33.179 -9.737 38.747
H 31.83 -8.679000000000002 39.075
H 33.195 -11.825 39.514
H 31.775000000000002 -12.699 38.95
H 32.036 -12.58 40.701
Mg 47.671 15.890000000000002 28.454
C 45.34400000000001 15.655000000000001 31.048000000000002
C 49.480000000000004 18.075000000000003 30.515000000000004
C 49.687 16.659 25.896000000000004
C 45.306 14.621000000000002 26.300000000000004
N 47.507000000000005 16.717 30.64
C 46.409000000000006 16.477 31.405
C 46.52 17.235 32.787
C 47.758 18.22 32.48
C 48.27100000000001 17.699 31.127000000000002
C 47.166 19.656 32.251
C 46.904 16.168 33.87700000000001
C 47.20400000000001 16.686 35.31
C 48.31600000000001 16.299 36.239
O 49.14300000000001 15.375 36.104
O 48.287000000000006 17.131 37.333
N 49.43000000000001 17.014 28.320000000000004
C 50.06900000000001 17.827 29.271
C 51.20000000000001 18.391 28.663000000000004
C 51.38300000000001 17.851 27.397
C 50.14500000000001 17.128 27.157
C 52.11500000000001 19.271 29.450000000000003
C 52.515 18.076 26.341
O 52.574000000000005 17.523 25.248000000000005
C 53.788 18.861 26.669
N 47.442 15.767 26.396
C 48.48400000000001 16.017000000000003 25.572
C 48.260000000000005 15.53 24.127000000000002
C 46.801 15.004 24.224
C 46.51 15.008 25.714000000000002
C 48.611000000000004 16.583 23.024
C 46.486000000000004 13.650000000000002 23.531
C 46.966 12.438000000000002 24.21
N 45.75600000000001 15.167000000000002 28.599
C 44.938 14.697 27.686
C 43.69800000000001 14.180000000000001 28.274000000000004
C 43.863 14.561000000000002 29.644
C 45.089 15.181000000000001 29.786
C 42.778 13.18 27.748000000000005
C 43.211000000000006 14.491 30.940000000000005
O 42.192 13.935000000000002 31.282
C 44.145 15.276 31.869
C 43.419 16.438 32.555
O 43.17 17.49 32.026
O 43.04200000000001 16.055 33.82
C 42.339 17.133 34.553
C 49.50200000000001 17.037 38.132000000000005
C 49.561 18.263 39.01400000000001
C 50.65100000000001 18.917 39.569
C 52.126000000000005 18.574 39.316
C 50.51500000000001 20.089000000000002 40.599
C 50.806000000000004 21.538 39.927
C 52.14200000000001 22.186 40.17600000000001
C 53.08700000000001 22.243 38.992
C 54.529 21.795000000000005 39.323
C 53.150000000000006 23.665 38.33
C 52.77100000000001 23.536 36.896
C 52.58700000000001 24.871 36.211
C 53.013000000000005 24.900000000000002 34.764
C 54.11200000000001 25.946 34.523
C 51.83 24.921000000000003 33.76
C 52.077 24.161 32.463
C 50.842 23.450000000000003 31.96
C 50.397 24.029000000000003 30.560000000000002
C 48.86600000000001 23.981 30.309000000000005
C 51.22800000000001 23.381000000000004 29.377
H 50.098 18.647 31.209000000000003
H 50.414 16.702000000000005 25.082000000000004
H 44.812000000000005 14.14 25.454000000000004
H 45.63400000000001 17.83 33.010000000000005
H 48.522 18.246 33.258
H 47.138 20.013 31.222
H 47.84 20.429 32.621
H 46.166 19.793 32.662
H 47.758 15.61 33.494
H 46.098 15.434000000000001 33.898
H 46.248 16.587 35.825
H 47.421 17.732 35.09700000000001
H 51.803 19.483 30.473
H 52.347 20.143 28.837000000000003
H 53.025000000000006 18.677 29.539000000000005
H 53.61800000000001 19.925 26.834000000000003
H 54.61200000000001 18.703 25.973000000000003
H 54.192 18.417 27.579
H 49.00300000000001 14.733 24.135000000000005
H 46.204 15.805 23.788
H 49.400000000000006 17.254 23.362
H 47.726 17.181 22.805
H 48.986000000000004 16.126 22.108000000000004
H 46.997 13.776000000000002 22.577
H 45.423 13.597000000000001 23.295
H 46.251 12.146 24.979
H 47.972 12.581 24.604
H 46.988 11.578 23.54
H 43.376000000000005 12.596 27.048000000000002
H 41.933 13.490000000000002 27.133000000000003
H 42.416 12.613000000000001 28.605
H 44.526 14.581 32.618
H 41.57800000000001 16.677 35.186
H 41.709 17.79 33.953
H 43.02300000000001 17.668 35.211
H 50.335 17.193 37.446
H 49.725 16.096 38.635000000000005
H 48.60600000000001 18.712 39.285
H 52.82 19.021 40.028
H 52.31300000000001 18.945 38.308
H 52.23800000000001 17.491 39.253
H 51.04500000000001 19.916 41.536
H 49.456 20.241000000000003 40.808
H 50.036 22.216 40.294
H 50.716 21.469 38.843
H 52.716 21.608 40.9
H 52.016 23.147 40.674
H 52.732 21.57 38.211
H 54.792 20.96 38.675
H 54.634 21.465 40.357
H 55.297 22.563 39.229
H 54.12400000000001 24.154 38.327
H 52.464000000000006 24.251000000000005 38.941
H 51.77 23.108 36.945
H 53.41100000000001 22.819 36.381
H 52.991 25.651000000000003 36.856
H 51.51400000000001 25.016 36.342
H 53.470000000000006 23.924 34.599
H 54.939 25.416000000000004 34.05
H 54.376 26.489000000000004 35.431
H 53.726 26.752000000000002 33.899
H 51.684 25.986000000000004 33.578
H 50.872 24.625000000000004 34.187
H 52.82 23.364000000000004 32.479
H 52.454 24.890000000000004 31.745
H 50.003 23.46 32.656
H 51.087 22.393 31.863
H 50.69200000000001 25.078 30.597
H 48.584 25.027000000000005 30.189000000000004
H 48.483000000000004 23.592 31.253
H 48.59300000000001 23.266 29.534000000000002
H 51.99300000000001 24.116 29.127000000000002
H 50.656 23.163 28.475
H 51.79600000000001 22.472 29.573

