280
Bchla 23 -- Bchla 24
Mg -9.051 41.135000000000005 42.305
C -8.305 37.722 41.48700000000001
C -6.395 41.95900000000001 40.063
C -10.135000000000002 44.306 42.063
C -11.946000000000002 40.073 43.784
N -7.597 39.954 40.945
C -7.463000000000001 38.604 40.8
C -6.307 38.235 39.806
C -5.513 39.626000000000005 39.732
C -6.6000000000000005 40.578 40.205
C -4.304 39.713 40.635000000000005
C -6.799 37.608 38.512
C -6.032000000000001 36.37 37.979
C -4.965 36.511 36.796
O -3.9040000000000004 37.125 36.87
O -5.458 35.835 35.714
N -8.298000000000002 42.98100000000001 41.27000000000001
C -7.133000000000001 43.08 40.48100000000001
C -6.947000000000001 44.483 40.091
C -8.039000000000001 45.194 40.728
C -8.91 44.191 41.30200000000001
C -5.896 45.033 39.202
C -8.191000000000003 46.694 40.765
O -7.269000000000001 47.37100000000001 40.369
C -9.416 47.416 41.277
N -10.805 41.95700000000001 42.741
C -10.936000000000002 43.342 42.69200000000001
C -12.323000000000002 43.689 43.238
C -12.785000000000002 42.375 43.968
C -11.75 41.407 43.503
C -12.482 45.006 44.083
C -14.257 41.901 43.766
C -15.093 41.673 44.983
N -9.921 39.324 42.71
C -11.083 39.021 43.398
C -11.161000000000001 37.575 43.68200000000001
C -10.088 37.044 42.866
C -9.417 38.142 42.319
C -12.147000000000002 36.798 44.514
C -9.423 35.768 42.469
O -9.726 34.63 42.68900000000001
C -8.338 36.191 41.48400000000001
C -7.035 35.63000000000001 41.97
O -6.575000000000001 36.04 43.014
O -6.383000000000001 34.711 41.094
C -4.994 34.30500000000001 41.467
C -4.634 36.03 34.58
C -5.307 35.735 33.249
C -6.099000000000001 36.549 32.508
C -6.121 38.040000000000006 32.81
C -6.61 36.072 31.219
C -5.681000000000001 35.691 30.071000000000005
C -6.066000000000001 36.322 28.771000000000004
C -5.458 37.781000000000006 28.507
C -4.608 37.654 27.230000000000004
C -6.644000000000001 38.772000000000006 28.415
C -6.142000000000001 40.209 28.531
C -6.707000000000001 40.993 29.689
C -6.083 42.345 30.143000000000004
C -6.054 42.695 31.636000000000003
C -6.688000000000001 43.522 29.3
C -5.631 44.373 28.618000000000002
C -5.931000000000001 44.76 27.136
C -5.8340000000000005 46.278 26.931000000000004
C -6.247 46.796 25.524000000000004
C -4.347000000000001 46.79200000000001 27.217000000000002
H -5.558 42.253 39.426
H -10.616000000000001 45.285000000000004 42.096000000000004
H -12.779 39.789 44.43000000000001
H -5.573 37.574 40.266000000000005
H -5.285000000000001 39.900000000000006 38.702
H -4.645 39.948 41.643
H -3.6390000000000002 40.46300000000001 40.20700000000001
H -3.691 38.823 40.781
H -6.689 38.376000000000005 37.747
H -7.878 37.478 38.595
H -6.835 35.708 37.654
H -5.4830000000000005 35.835 38.754
H -5.125000000000001 45.43600000000001 39.858
H -6.291000000000001 45.90400000000001 38.679
H -5.425 44.400000000000006 38.449
H -9.416 48.49600000000001 41.131
H -9.437 47.225 42.35
H -10.403 47.092 40.949
H -12.862 43.925 42.32
H -12.529000000000002 42.468 45.02300000000001
H -11.517 45.332 44.47200000000001
H -13.223000000000003 44.867 44.870000000000005
H -12.904 45.79900000000001 43.46600000000001
H -14.251000000000001 40.982 43.18000000000001
H -14.729000000000001 42.611 43.08700000000001
H -15.224000000000002 40.601 45.129000000000005
H -16.08 42.111000000000004 44.835
H -14.721000000000002 42.061 45.931
H -11.731 35.838 44.819
H -13.036000000000001 36.669 43.89600000000001
H -12.463 37.438 45.338
H -8.66 35.877 40.491
H -5.042 33.547 42.24900000000001
H -4.445 35.144000000000005 41.894
H -4.449 33.944 40.595
H -3.796 35.334 34.602
H -4.211 37.029 34.469
H -5.309 34.769 32.745
H -7.080000000000001 38.040000000000006 33.32900000000001
H -6.199 38.534 31.841000000000005
H -5.254 38.383 33.37400000000001
H -7.3260000000000005 36.763 30.775000000000002
H -7.165 35.161 31.446000000000005
H -5.5920000000000005 34.621 29.888000000000005
H -4.708 36.024 30.432000000000002
H -7.152000000000001 36.366 28.697
H -5.700000000000001 35.614 28.028
H -4.703 38.018 29.256
H -3.7200000000000006 38.263 27.400000000000002
H -5.122 38.264 26.487
H -4.246 36.689 26.875
H -7.351000000000001 38.456 29.183000000000003
H -7.053000000000001 38.733 27.405000000000005
H -6.3580000000000005 40.726000000000006 27.596000000000004
H -5.054 40.186 28.602000000000004
H -6.858 40.358000000000004 30.562000000000005
H -7.71 41.278 29.371000000000002
H -5.019 42.195 29.957
H -6.792 43.444 31.922
H -5.133 43.22200000000001 31.883
H -6.097000000000001 41.77300000000001 32.217
H -7.379 44.04800000000001 29.959000000000003
H -7.364000000000001 43.11 28.551000000000002
H -4.675000000000001 43.869 28.761000000000003
H -5.484 45.271 29.217
H -6.948 44.532 26.817
H -5.204 44.27300000000001 26.486
H -6.481 46.793000000000006 27.641
H -6.957 47.617000000000004 25.625
H -6.864 46.098 24.959000000000003
H -5.390000000000001 46.996 24.881
H -3.695 45.92100000000001 27.165
H -4.344 47.17100000000001 28.239
H -4.026 47.56900000000001 26.523000000000003
Mg -0.187 43.411 24.933
C 1.6070000000000002 43.076 28.072
C -2.898 42.36800000000001 26.644000000000002
C -1.7320000000000002 43.655 22.148
C 2.888 44.159 23.345
N -0.581 42.801 27.230000000000004
C 0.261 42.842 28.277
C -0.506 42.58400000000001 29.588
C -1.8090000000000002 41.923 28.937000000000005
C -1.8000000000000003 42.43200000000001 27.557000000000002
C -2.075 40.449 29.193
C -0.702 43.92400000000001 30.318000000000005
C -0.869 43.756 31.857000000000003
C -0.5610000000000002 42.389 32.626
O 0.469 42.062 33.17700000000001
O -1.6500000000000001 41.507 32.446
N -2.115 43.102000000000004 24.429
C -3.103 42.58200000000001 25.243000000000002
C -4.308 42.416 24.436
C -4.003 42.864 23.127
C -2.559 43.224000000000004 23.208
C -5.571000000000001 41.874 24.94
C -4.956 43.007 21.828
O -4.584 43.57 20.835000000000004
C -6.464 42.70700000000001 21.9
N 0.559 43.585 22.973
C -0.3340000000000001 43.816 22.014
C 0.263 44.224 20.694
C 1.6280000000000001 44.753 21.198
C 1.7390000000000003 43.971000000000004 22.552
C 0.44200000000000006 43.02300000000001 19.653
C 1.7620000000000002 46.328 21.331000000000003
C 0.9410000000000001 47.259 20.392000000000003
N 1.835 43.483000000000004 25.498000000000005
C 2.95 43.846 24.817
C 4.052 43.978 25.658
C 3.57 43.639 26.89
C 2.221 43.36 26.794000000000004
C 5.44 44.465 25.251
C 4.008000000000001 43.522 28.289000000000005
O 5.1080000000000005 43.518 28.821000000000005
C 2.6750000000000003 43.22200000000001 29.104
C 2.922 42.05100000000001 29.927
O 2.929 40.872 29.559
O 3.4020000000000006 42.496 31.107
C 4.042 41.446 31.879000000000005
C -1.644 40.254000000000005 33.226
C -2.8540000000000005 40.300000000000004 34.139
C -2.9760000000000004 40.997 35.275
C -1.8710000000000002 41.858 35.91
C -4.259 41.023 36.116
C -5.381 41.862 35.472
C -6.659000000000001 41.095 35.134
C -7.857000000000001 41.643 36.041
C -8.569 42.873000000000005 35.304
C -8.883 40.434 36.241
C -9.266000000000002 40.292 37.68900000000001
C -10.519 39.593 37.883
C -11.312 40.074 39.145
C -12.096 38.822 39.802
C -12.423000000000002 41.128 38.89
C -11.931000000000001 42.58 39.17
C -12.258 43.532000000000004 38.014
C -12.169 45.041000000000004 38.484
C -13.504000000000001 45.81400000000001 38.325
C -10.974000000000002 45.684 37.683
H -3.718 41.86 27.156000000000002
H -2.284 43.689 21.207
H 3.792 44.48700000000001 22.828
H -0.023 41.815 30.191
H -2.6550000000000002 42.40200000000001 29.428
H -2.958 40.293 29.812000000000005
H -1.216 39.991 29.683
H -2.1850000000000005 39.85300000000001 28.287
H -1.656 44.33500000000001 29.987
H 0.054000000000000006 44.67300000000001 30.083000000000002
H -1.835 44.127 32.20100000000001
H -0.273 44.587 32.234
H -5.662000000000001 41.997 26.019000000000002
H -5.557 40.82 24.662000000000003
H -6.458 42.347 24.518000000000004
H -7.019000000000001 43.391000000000005 22.542000000000005
H -6.518000000000001 41.644 22.136
H -6.895 42.739000000000004 20.899
H -0.456 44.953 20.321
H 2.464 44.44400000000001 20.571
H 0.054000000000000006 43.470000000000006 18.738
H -0.137 42.13 19.891
H 1.4680000000000002 42.712 19.46
H 2.817 46.592 21.273
H 1.31 46.482 22.311
H -0.047 47.446 20.812000000000005
H 0.9750000000000001 46.739 19.434
H 1.443 48.20900000000001 20.212
H 5.257 45.138 24.413
H 6.078000000000001 43.671 24.864
H 5.885 44.977000000000004 26.104000000000003
H 2.489 44.102 29.721000000000004
H 4.455 41.795 32.825
H 4.724 40.789 31.339000000000002
H 3.3000000000000003 40.728 32.23
H -0.728 40.087 33.794
H -1.816 39.506 32.452
H -3.714 39.689 33.865
H -1.499 41.46900000000001 36.858
H -2.161 42.885 36.132
H -0.988 41.995 35.286
H -4.024 41.45 37.092
H -4.468 39.965 36.273
H -5.103 42.408 34.571
H -5.641 42.599000000000004 36.233
H -6.509 40.07000000000001 35.476
H -6.9110000000000005 40.994 34.078
H -7.543000000000001 42.165 36.944
H -9.522 42.5 34.929
H -8.048 43.18000000000001 34.397000000000006
H -8.82 43.715 35.95
H -8.496000000000002 39.485 35.869
H -9.762 40.674 35.642
H -9.253 41.290000000000006 38.129
H -8.421 39.76 38.126
H -10.267 38.539 37.997
H -11.207 39.635 37.039
H -10.595 40.40500000000001 39.897
H -11.608 37.87100000000001 40.016
H -13.074000000000002 38.715 39.333
H -12.441000000000003 39.18300000000001 40.77100000000001
H -13.258000000000001 40.96 39.569
H -12.736 40.972 37.858000000000004
H -10.844000000000001 42.53 39.231
H -12.219 42.926 40.163000000000004
H -13.221 43.264 37.579
H -11.611 43.376000000000005 37.151
H -11.816000000000003 45.027 39.515
H -14.219 45.36000000000001 37.639
H -13.356000000000002 46.804 37.893
H -13.936000000000002 46.067 39.292
H -10.646000000000003 46.511 38.31400000000001
H -11.251 46.112 36.72
H -10.203 44.922 37.568

