280
Bchla 11 -- Bchla 24
Mg 52.532 24.272 45.278
C 49.695 26.145 43.971000000000004
C 51.04500000000001 21.439 44.032
C 55.55800000000001 22.862000000000002 45.08400000000001
C 53.786 27.156000000000002 46.565000000000005
N 50.65200000000001 23.900000000000002 43.946
C 49.60000000000001 24.825 43.60600000000001
C 48.415 24.053000000000004 43.019
C 48.70000000000001 22.567 43.387
C 50.226000000000006 22.57 43.84
C 47.769000000000005 22.007000000000005 44.56400000000001
C 48.044000000000004 24.343000000000004 41.59400000000001
C 49.095000000000006 25.060000000000002 40.714
C 48.96900000000001 25.397 39.217
O 48.814 26.490000000000002 38.7
O 48.923 24.209 38.402
N 53.202 22.330000000000002 44.767
C 52.423 21.316000000000003 44.255
C 53.276 20.093 44.131
C 54.571000000000005 20.566 44.327
C 54.53600000000001 21.98 44.693
C 52.686 18.786 43.735
C 55.857 19.705 44.161
O 55.729000000000006 18.565 43.751
C 57.24900000000001 20.219 44.324000000000005
N 54.406 25.034 45.628
C 55.489 24.156 45.60300000000001
C 56.748000000000005 24.823000000000004 46.157
C 56.169000000000004 26.074 46.912000000000006
C 54.729 26.077000000000005 46.394000000000005
C 57.69100000000001 23.988 47.061
C 56.925 27.423000000000002 46.689
C 57.797 27.947000000000003 47.92000000000001
N 51.876 26.259 45.369
C 52.486 27.322000000000003 46.019
C 51.586 28.449000000000005 46.025
C 50.55800000000001 28.021 45.17400000000001
C 50.791000000000004 26.666000000000004 44.832
C 51.912000000000006 29.799000000000003 46.687000000000005
C 49.30500000000001 28.377 44.58200000000001
O 48.718 29.466 44.743
C 48.584 27.144 43.87700000000001
C 48.236 27.644000000000002 42.532
O 48.985 28.235 41.74700000000001
O 46.97500000000001 27.217000000000002 42.277
C 46.327 27.762 41.043000000000006
C 48.504000000000005 24.347 36.97
C 49.038000000000004 23.025 36.183
C 48.51 21.799 36.159
C 47.160000000000004 21.356 36.757
C 49.15800000000001 20.707 35.271
C 50.643 20.476 35.634
C 51.51400000000001 20.759000000000004 34.429
C 52.881 20.132000000000005 34.723
C 53.995 20.630000000000003 33.703
C 52.957 18.602 34.688
C 52.149 17.939 33.537
C 52.75600000000001 16.582 33.12
C 51.855000000000004 15.649 32.315
C 50.88900000000001 15.007000000000001 33.288
C 52.63100000000001 14.592 31.513000000000005
C 53.483000000000004 15.137 30.251
C 52.884 14.534000000000002 28.954000000000004
C 53.893 13.766 28.055000000000003
C 53.843 14.023000000000001 26.477000000000004
C 53.88300000000001 12.239000000000003 28.139000000000003
H 50.579 20.542 43.620000000000005
H 56.538000000000004 22.383000000000003 45.028
H 54.161 28.033 47.096000000000004
H 47.651 24.444 43.691
H 48.717000000000006 21.909 42.518
H 47.153 21.264 44.059
H 47.213 22.832000000000004 45.010000000000005
H 48.447 21.516 45.263
H 47.087 24.863 41.633
H 47.846000000000004 23.335000000000004 41.22800000000001
H 49.999 24.46 40.823
H 49.294000000000004 26.052 41.120000000000005
H 53.066 18.579 42.735
H 51.601 18.884 43.754
H 52.95100000000001 18.031 44.476000000000006
H 57.605000000000004 20.973000000000003 43.623000000000005
H 58.003 19.451 44.15400000000001
H 57.23 20.507000000000005 45.37500000000001
H 57.212 25.048 45.196
H 56.15200000000001 25.774000000000004 47.96
H 58.567 23.603 46.538
H 57.165 23.102 47.415000000000006
H 57.94800000000001 24.606 47.922000000000004
H 56.284 28.251000000000005 46.385
H 57.545 27.232000000000003 45.813
H 58.71300000000001 28.267000000000003 47.424
H 58.013000000000005 27.199000000000005 48.68300000000001
H 57.20100000000001 28.707 48.42400000000001
H 51.050000000000004 30.363000000000003 47.044
H 52.358000000000004 30.332000000000004 45.848000000000006
H 52.476 29.641000000000002 47.606
H 47.714 26.852 44.467
H 45.32600000000001 27.34 40.947
H 46.887 27.487 40.149
H 46.323 28.832000000000004 41.246
H 49.04600000000001 25.194000000000003 36.55
H 47.461 24.659 37.022
H 49.982000000000006 23.094 35.642
H 47.34100000000001 20.633 37.55200000000001
H 46.475 20.976 35.999
H 46.72 22.222000000000005 37.251
H 49.119 21.189 34.294
H 48.70000000000001 19.718 35.274
H 50.672 19.404 35.826
H 50.967 20.965000000000003 36.553
H 51.52900000000001 21.825000000000003 34.199
H 51.024 20.206 33.627
H 53.11800000000001 20.545000000000005 35.703
H 54.614000000000004 21.416 34.135
H 53.668000000000006 20.97 32.72
H 54.68900000000001 19.819 33.483000000000004
H 52.42100000000001 18.206 35.55
H 53.973000000000006 18.222 34.798
H 51.782000000000004 18.585 32.74
H 51.127 17.666 33.797
H 53.10000000000001 16.127 34.049
H 53.62100000000001 16.787 32.49000000000001
H 51.30500000000001 16.181 31.539
H 49.88700000000001 15.268 32.946
H 51.039 15.344 34.314
H 51.129 13.946000000000002 33.364
H 51.94 13.799000000000001 31.226000000000003
H 53.327 14.130000000000003 32.212
H 54.53 14.875 30.410000000000004
H 53.293 16.207 30.165000000000003
H 52.492000000000004 15.372000000000002 28.378
H 52.05100000000001 13.891 29.237000000000002
H 54.858000000000004 14.146 28.390000000000004
H 52.805 14.088000000000001 26.150000000000002
H 54.302 13.211000000000002 25.913000000000004
H 54.379 14.958 26.307000000000002
H 54.888000000000005 11.862000000000002 28.333
H 53.416 11.801000000000002 27.257
H 53.42400000000001 11.959 29.087
Mg -0.187 43.411 24.933
C 1.6070000000000002 43.076 28.072
C -2.898 42.36800000000001 26.644000000000002
C -1.7320000000000002 43.655 22.148
C 2.888 44.159 23.345
N -0.581 42.801 27.230000000000004
C 0.261 42.842 28.277
C -0.506 42.58400000000001 29.588
C -1.8090000000000002 41.923 28.937000000000005
C -1.8000000000000003 42.43200000000001 27.557000000000002
C -2.075 40.449 29.193
C -0.702 43.92400000000001 30.318000000000005
C -0.869 43.756 31.857000000000003
C -0.5610000000000002 42.389 32.626
O 0.469 42.062 33.17700000000001
O -1.6500000000000001 41.507 32.446
N -2.115 43.102000000000004 24.429
C -3.103 42.58200000000001 25.243000000000002
C -4.308 42.416 24.436
C -4.003 42.864 23.127
C -2.559 43.224000000000004 23.208
C -5.571000000000001 41.874 24.94
C -4.956 43.007 21.828
O -4.584 43.57 20.835000000000004
C -6.464 42.70700000000001 21.9
N 0.559 43.585 22.973
C -0.3340000000000001 43.816 22.014
C 0.263 44.224 20.694
C 1.6280000000000001 44.753 21.198
C 1.7390000000000003 43.971000000000004 22.552
C 0.44200000000000006 43.02300000000001 19.653
C 1.7620000000000002 46.328 21.331000000000003
C 0.9410000000000001 47.259 20.392000000000003
N 1.835 43.483000000000004 25.498000000000005
C 2.95 43.846 24.817
C 4.052 43.978 25.658
C 3.57 43.639 26.89
C 2.221 43.36 26.794000000000004
C 5.44 44.465 25.251
C 4.008000000000001 43.522 28.289000000000005
O 5.1080000000000005 43.518 28.821000000000005
C 2.6750000000000003 43.22200000000001 29.104
C 2.922 42.05100000000001 29.927
O 2.929 40.872 29.559
O 3.4020000000000006 42.496 31.107
C 4.042 41.446 31.879000000000005
C -1.644 40.254000000000005 33.226
C -2.8540000000000005 40.300000000000004 34.139
C -2.9760000000000004 40.997 35.275
C -1.8710000000000002 41.858 35.91
C -4.259 41.023 36.116
C -5.381 41.862 35.472
C -6.659000000000001 41.095 35.134
C -7.857000000000001 41.643 36.041
C -8.569 42.873000000000005 35.304
C -8.883 40.434 36.241
C -9.266000000000002 40.292 37.68900000000001
C -10.519 39.593 37.883
C -11.312 40.074 39.145
C -12.096 38.822 39.802
C -12.423000000000002 41.128 38.89
C -11.931000000000001 42.58 39.17
C -12.258 43.532000000000004 38.014
C -12.169 45.041000000000004 38.484
C -13.504000000000001 45.81400000000001 38.325
C -10.974000000000002 45.684 37.683
H -3.718 41.86 27.156000000000002
H -2.284 43.689 21.207
H 3.792 44.48700000000001 22.828
H -0.023 41.815 30.191
H -2.6550000000000002 42.40200000000001 29.428
H -2.958 40.293 29.812000000000005
H -1.216 39.991 29.683
H -2.1850000000000005 39.85300000000001 28.287
H -1.656 44.33500000000001 29.987
H 0.054000000000000006 44.67300000000001 30.083000000000002
H -1.835 44.127 32.20100000000001
H -0.273 44.587 32.234
H -5.662000000000001 41.997 26.019000000000002
H -5.557 40.82 24.662000000000003
H -6.458 42.347 24.518000000000004
H -7.019000000000001 43.391000000000005 22.542000000000005
H -6.518000000000001 41.644 22.136
H -6.895 42.739000000000004 20.899
H -0.456 44.953 20.321
H 2.464 44.44400000000001 20.571
H 0.054000000000000006 43.470000000000006 18.738
H -0.137 42.13 19.891
H 1.4680000000000002 42.712 19.46
H 2.817 46.592 21.273
H 1.31 46.482 22.311
H -0.047 47.446 20.812000000000005
H 0.9750000000000001 46.739 19.434
H 1.443 48.20900000000001 20.212
H 5.257 45.138 24.413
H 6.078000000000001 43.671 24.864
H 5.885 44.977000000000004 26.104000000000003
H 2.489 44.102 29.721000000000004
H 4.455 41.795 32.825
H 4.724 40.789 31.339000000000002
H 3.3000000000000003 40.728 32.23
H -0.728 40.087 33.794
H -1.816 39.506 32.452
H -3.714 39.689 33.865
H -1.499 41.46900000000001 36.858
H -2.161 42.885 36.132
H -0.988 41.995 35.286
H -4.024 41.45 37.092
H -4.468 39.965 36.273
H -5.103 42.408 34.571
H -5.641 42.599000000000004 36.233
H -6.509 40.07000000000001 35.476
H -6.9110000000000005 40.994 34.078
H -7.543000000000001 42.165 36.944
H -9.522 42.5 34.929
H -8.048 43.18000000000001 34.397000000000006
H -8.82 43.715 35.95
H -8.496000000000002 39.485 35.869
H -9.762 40.674 35.642
H -9.253 41.290000000000006 38.129
H -8.421 39.76 38.126
H -10.267 38.539 37.997
H -11.207 39.635 37.039
H -10.595 40.40500000000001 39.897
H -11.608 37.87100000000001 40.016
H -13.074000000000002 38.715 39.333
H -12.441000000000003 39.18300000000001 40.77100000000001
H -13.258000000000001 40.96 39.569
H -12.736 40.972 37.858000000000004
H -10.844000000000001 42.53 39.231
H -12.219 42.926 40.163000000000004
H -13.221 43.264 37.579
H -11.611 43.376000000000005 37.151
H -11.816000000000003 45.027 39.515
H -14.219 45.36000000000001 37.639
H -13.356000000000002 46.804 37.893
H -13.936000000000002 46.067 39.292
H -10.646000000000003 46.511 38.31400000000001
H -11.251 46.112 36.72
H -10.203 44.922 37.568

