280
Bchla 16 -- Bchla 21
Mg 41.128 41.857 26.986000000000004
C 40.12700000000001 44.179 29.640000000000004
C 41.31 39.41 29.487000000000002
C 42.362 39.821 24.759
C 40.706 44.363 24.683
N 40.967 41.85000000000001 29.292
C 40.42100000000001 42.87500000000001 30.173000000000002
C 40.337 42.444 31.653000000000002
C 40.946 40.93 31.521000000000004
C 41.116 40.672 30.011000000000003
C 42.224 40.714 32.30800000000001
C 38.879000000000005 42.588 32.185
C 38.608 41.92700000000001 33.503
C 37.806 42.656 34.558
O 36.63600000000001 42.977 34.464
O 38.578 42.832 35.656
N 41.790000000000006 39.861 27.081
C 41.782 39.01 28.192000000000004
C 42.266000000000005 37.687 27.802000000000003
C 42.58400000000001 37.776 26.385000000000005
C 42.256 39.192 25.977
C 42.314 36.43 28.746000000000002
C 43.165000000000006 36.784 25.443
O 43.357 36.978 24.250000000000004
C 43.446 35.412 25.898000000000003
N 41.39 42.02100000000001 25.045
C 42.033 41.096 24.33
C 42.18900000000001 41.492 22.843
C 41.281 42.702 22.769
C 41.150000000000006 43.123 24.284
C 43.629 41.801 22.450000000000003
C 39.923 42.668 22.117
C 38.933 41.74 22.788
N 40.641 43.879000000000005 27.096
C 40.411 44.754 26.019000000000002
C 40.010000000000005 46.038 26.539
C 39.836 45.769000000000005 27.921
C 40.241 44.456 28.228000000000005
C 39.646 47.283 25.784000000000002
C 39.341 46.432 29.167000000000005
O 38.79 47.540000000000006 29.341000000000005
C 39.558 45.418000000000006 30.288000000000004
C 40.418000000000006 46.035 31.393000000000004
O 41.619 46.436 31.367000000000004
O 39.694 45.959 32.546
C 40.382 46.431 33.769
C 37.972 43.741 36.706
C 37.574 42.791 37.816
C 37.692 43.059000000000005 39.146
C 38.107 44.419 39.656000000000006
C 37.27 41.983 40.20400000000001
C 38.272 40.807 40.183
C 37.583 39.425 40.324
C 38.098 38.728 41.57900000000001
C 37.744 37.244 41.398
C 37.615 39.345 42.96
C 38.697 40.124 43.707
C 39.469 39.301 44.73500000000001
C 38.609 38.788 45.914
C 39.059 39.431 47.20100000000001
C 38.555 37.19 45.934
C 37.278000000000006 36.605 46.585
C 36.291 36.027 45.586
C 34.878 36.459 45.868
C 34.301 37.107 44.649
C 34.079 35.17400000000001 46.352000000000004
H 41.17 38.614 30.220000000000002
H 42.832 39.178 24.012
H 40.576 45.214 24.011
H 40.932 43.17900000000001 32.195
H 40.172 40.215 31.8
H 42.06 39.902 33.017
H 42.405 41.638000000000005 32.85600000000001
H 43.161 40.691 31.752000000000002
H 38.23700000000001 42.28000000000001 31.359
H 38.658 43.649 32.302
H 39.473 41.65400000000001 34.107
H 37.991 41.044 33.339
H 41.633 35.714 28.285
H 41.971 36.635 29.760000000000005
H 43.348000000000006 36.085 28.737
H 43.925 35.361 26.876
H 44.12500000000001 35.027 25.138
H 42.456 34.986 26.058000000000003
H 41.847 40.643 22.251000000000005
H 41.737 43.523 22.215000000000003
H 43.814 41.38100000000001 21.462
H 44.334 41.357 23.152000000000005
H 43.75500000000001 42.873000000000005 22.294
H 40.06700000000001 42.457 21.057000000000002
H 39.412000000000006 43.624 22.230000000000004
H 38.398 41.123000000000005 22.067
H 38.142 42.27600000000001 23.313000000000002
H 39.38000000000001 41.041 23.495000000000005
H 38.67 47.638 26.114
H 39.6 47.281000000000006 24.695
H 40.393 48.035 26.039
H 38.593 45.21900000000001 30.755
H 40.75500000000001 45.577 34.334
H 39.563 47.0 34.209
H 41.153000000000006 47.172 33.554
H 37.073 44.294000000000004 36.435
H 38.636 44.543 37.026
H 37.258 41.783 37.548
H 37.852 45.182 38.92
H 39.181 44.437 39.841
H 37.575 44.6 40.59
H 36.238 41.705 39.993
H 37.241 42.487 41.171
H 38.955 40.972 41.016000000000005
H 38.875 40.753 39.276
H 37.849 38.959 39.376
H 36.49900000000001 39.533 40.369
H 39.186 38.801 41.592
H 36.655 37.23 41.443000000000005
H 38.13000000000001 36.814 42.322
H 38.217 36.814 40.516
H 37.123 38.539 43.505
H 36.764 39.999 42.76800000000001
H 38.214 40.962 44.21
H 39.396 40.535 42.980000000000004
H 40.363 39.85300000000001 45.027
H 39.878 38.503 44.115
H 37.558 38.994 45.71000000000001
H 39.366 38.678 47.927
H 38.265 40.061 47.602000000000004
H 39.869 40.121 46.963
H 39.413 36.793 46.475
H 38.617 36.954 44.87100000000001
H 36.802 37.453 47.078
H 37.413 35.823 47.332
H 36.381 34.948 45.718
H 36.52 36.229 44.54
H 34.71600000000001 37.315 46.523
H 34.801 38.012 44.303
H 33.254000000000005 37.348 44.831
H 34.363 36.432 43.796
H 33.919 34.388 45.614
H 33.095 35.481 46.706
H 34.47200000000001 34.646 47.221000000000004
Mg 16.411 52.367 25.566
C 18.018 50.888 28.3
C 13.924000000000001 53.471000000000004 27.634000000000004
C 14.785000000000002 53.43800000000001 22.892000000000003
C 18.977 50.989000000000004 23.494
N 16.017000000000003 52.13900000000001 27.735000000000003
C 16.814 51.56600000000001 28.701000000000004
C 16.316 51.93200000000001 30.087000000000003
C 14.871 52.50500000000001 29.805
C 15.006000000000002 52.79900000000001 28.272
C 13.752000000000002 51.51700000000001 30.109
C 17.38 52.827 30.821000000000005
C 16.866 53.425000000000004 32.16
C 15.838000000000001 52.611 32.918000000000006
O 15.994000000000002 51.421 33.21
O 14.722 53.28600000000001 33.206
N 14.673 53.30500000000001 25.313
C 13.709 53.596000000000004 26.270000000000003
C 12.514000000000001 54.21500000000001 25.67
C 12.809 54.23100000000001 24.272
C 14.132 53.632 24.117
C 11.368 54.712 26.469000000000005
C 11.91 54.75300000000001 23.181000000000004
O 12.269000000000002 54.771 21.971000000000004
C 10.567 55.354 23.496000000000002
N 16.865 52.275 23.471000000000004
C 15.997000000000002 52.81 22.612000000000002
C 16.443000000000005 52.50800000000001 21.114
C 17.818 51.656000000000006 21.31
C 17.893 51.619 22.837
C 15.275 51.720000000000006 20.391
C 19.117 52.361000000000004 20.728000000000005
C 19.408 52.107 19.221
N 18.085 51.15100000000001 25.765
C 19.116 50.754000000000005 24.873000000000005
C 20.198 50.001 25.646000000000004
C 19.782000000000004 49.96200000000001 26.973000000000003
C 18.524 50.751 27.001000000000005
C 21.485 49.44800000000001 25.119000000000003
C 20.107 49.55500000000001 28.320000000000004
O 21.06 48.92400000000001 28.788
C 19.058 50.30100000000001 29.285
C 18.453 49.377 30.317000000000004
O 17.480000000000004 48.699000000000005 30.125
O 19.026 49.591 31.591000000000005
C 18.266 49.12100000000001 32.759
C 13.709 52.63100000000001 33.997
C 12.990000000000002 53.80200000000001 34.615
C 12.516 53.86600000000001 35.887
C 12.502000000000002 52.848000000000006 36.993
C 12.049000000000001 55.211000000000006 36.379000000000005
C 10.517000000000001 55.27100000000001 36.537
C 9.842 56.512 35.811
C 9.114 57.373000000000005 36.808
C 7.743000000000001 56.738 37.167
C 8.911 58.84 36.418
C 10.201 59.705000000000005 36.212
C 10.501000000000001 60.10000000000001 34.809
C 10.535 61.638000000000005 34.593
C 10.037 61.983 33.245
C 11.935 62.23400000000001 34.708
C 11.987000000000002 63.55800000000001 35.459
C 12.917000000000002 64.588 34.763000000000005
C 14.458000000000002 64.314 34.741
C 15.269000000000002 65.316 35.556
C 14.901 64.193 33.258
H 13.193000000000001 53.709 28.410000000000004
H 14.236000000000002 53.78 22.012
H 19.732 50.45400000000001 22.914
H 16.248 51.01 30.663
H 14.638 53.45400000000001 30.289
H 13.103 52.02100000000001 30.825
H 14.2 50.58 30.439000000000004
H 13.062000000000001 51.391 29.275000000000002
H 17.737 53.448 30.0
H 18.216 52.16100000000001 31.032000000000004
H 16.462 54.391 31.857000000000003
H 17.724000000000004 53.562000000000005 32.818
H 10.557 54.062 26.141000000000002
H 11.171 55.77400000000001 26.325000000000003
H 11.382000000000001 54.601000000000006 27.554
H 10.714000000000002 56.253 24.093
H 10.128000000000002 54.498 24.01
H 9.92 55.569 22.646
H 16.628 53.525 20.766
H 17.779 50.584 21.112
H 14.414 51.50600000000001 21.024
H 15.645 50.760000000000005 20.03
H 14.907000000000002 52.394 19.618
H 19.983 52.23400000000001 21.377000000000002
H 18.924 53.431 20.798000000000002
H 19.483 53.086 18.749
H 18.627 51.45900000000001 18.823
H 20.361000000000004 51.6 19.068
H 22.271 50.105000000000004 25.492000000000004
H 21.464 49.416000000000004 24.029000000000003
H 21.784 48.45300000000001 25.448000000000004
H 19.61 51.115 29.754000000000005
H 18.447 48.047000000000004 32.793
H 17.229 49.453 32.705
H 18.688 49.637 33.621
H 14.073000000000002 51.938 34.756
H 13.003 52.05200000000001 33.401
H 13.005000000000003 54.705000000000005 34.005
H 11.453 52.58800000000001 37.134
H 12.947 53.169000000000004 37.935
H 13.039000000000001 51.968 36.638000000000005
H 12.314 56.047000000000004 35.732
H 12.449000000000002 55.43600000000001 37.36800000000001
H 10.413 55.385 37.616
H 10.103 54.32500000000001 36.189
H 9.172 56.04500000000001 35.089
H 10.541 57.105 35.221000000000004
H 9.753 57.327000000000005 37.69
H 8.005 55.92 37.837
H 7.232000000000001 56.143 36.41
H 7.039 57.446 37.604
H 8.267 59.217000000000006 37.212
H 8.338 58.772000000000006 35.494
H 11.098 59.257 36.638000000000005
H 10.158000000000001 60.632000000000005 36.784
H 9.692 59.683 34.21
H 11.488 59.70400000000001 34.568
H 9.888 62.02400000000001 35.381
H 10.51 62.803000000000004 32.705
H 8.98 62.220000000000006 33.364
H 10.123 61.156000000000006 32.54
H 12.306 62.364 33.691
H 12.635000000000002 61.56300000000001 35.205
H 12.296 63.41100000000001 36.494
H 10.975 63.931000000000004 35.624
H 12.691 65.525 35.274
H 12.583000000000002 64.816 33.751
H 14.583000000000002 63.4 35.322
H 15.801 66.007 34.902
H 15.999 64.826 36.201
H 14.617000000000003 65.841 36.25500000000001
H 14.379 64.856 32.569
H 14.937000000000001 63.13700000000001 32.99
H 15.912000000000003 64.6 33.221

