280
Bchla 10 -- Bchla 27
Mg 40.74100000000001 8.403 29.699000000000005
C 42.66 10.025000000000002 32.016
C 38.732 7.215 32.077
C 39.179 6.752000000000001 27.363
C 43.283 9.228000000000002 27.341
N 40.793 8.456 31.868
C 41.505 9.392 32.544
C 40.948 9.635 33.92
C 39.85300000000001 8.497 34.002
C 39.827 7.948 32.592
C 40.10000000000001 7.441 35.106
C 40.441 11.181 34.185
C 40.87 11.882 35.483
C 41.239 10.966000000000001 36.692
O 42.389 10.847 37.185
O 40.21 10.24 37.18
N 39.138000000000005 7.344 29.692000000000004
C 38.399 6.917 30.749
C 37.347 6.003 30.376000000000005
C 37.337 6.023000000000001 29.014000000000003
C 38.655 6.628 28.647
C 36.61 5.298 31.500000000000004
C 36.334 5.366 28.045000000000005
O 36.442 5.387 26.841000000000005
C 35.207 4.651 28.730000000000004
N 41.3 7.9190000000000005 27.672000000000004
C 40.367 7.314 26.915
C 40.80200000000001 7.264 25.447000000000003
C 41.951 8.327 25.387000000000004
C 42.232 8.498 26.894
C 41.216 5.861 24.829000000000004
C 41.580000000000005 9.724 24.761000000000003
C 40.484 10.599 25.310000000000002
N 42.572 9.481 29.570000000000004
C 43.553 9.669 28.591
C 44.679 10.463000000000001 29.099000000000004
C 44.364 10.637 30.455000000000002
C 43.08700000000001 10.022 30.648
C 45.856 11.013 28.335000000000004
C 44.788 11.17 31.668000000000003
O 45.805 11.75 32.015
C 43.616 11.012000000000002 32.671
C 44.297 10.490000000000002 33.878
O 44.637 9.318 34.057
O 44.61300000000001 11.499000000000002 34.741
C 45.545 11.240000000000002 35.843
C 40.322 9.61 38.459
C 39.478 10.410000000000002 39.513
C 40.066 11.285 40.35600000000001
C 41.54900000000001 11.746 40.477
C 39.148 11.913 41.409000000000006
C 38.818 10.836000000000002 42.484
C 37.376 10.284000000000002 42.164
C 36.427 10.664 43.31
C 36.623000000000005 9.693000000000001 44.519000000000005
C 34.979 10.71 42.929
C 34.436 12.105 43.364000000000004
C 33.108 11.999000000000002 44.133
C 33.076 12.806 45.469
C 33.07000000000001 14.319000000000003 45.179
C 34.230000000000004 12.507000000000001 46.45700000000001
C 33.805 12.254000000000001 47.882
C 34.574 11.105 48.582
C 35.685 11.55 49.534000000000006
C 36.86 12.239000000000003 48.849000000000004
C 36.138 10.376000000000001 50.43500000000001
H 37.99 7.007 32.851
H 38.681 6.27 26.520000000000003
H 43.95700000000001 9.442 26.508000000000003
H 41.68 9.37 34.683
H 38.87700000000001 8.959 34.149
H 40.485 6.532 34.644
H 39.146 7.206000000000001 35.578
H 40.83 7.874 35.79
H 39.353 11.122 34.153000000000006
H 40.807 11.842000000000002 33.4
H 40.043 12.466 35.886
H 41.65400000000001 12.608 35.268
H 37.229 4.662 32.133
H 35.89 4.51 31.28
H 36.128 6.144 31.99
H 34.675 5.325000000000001 29.401000000000003
H 35.723 3.8010000000000006 29.176000000000002
H 34.378 4.279 28.129000000000005
H 39.885000000000005 7.563 24.938000000000002
H 42.832 7.863000000000001 24.943000000000005
H 41.112 5.086 25.588
H 42.281000000000006 5.839 24.601000000000003
H 40.7 5.56 23.916
H 41.363 9.409 23.740000000000002
H 42.431 10.404 24.739000000000004
H 39.92 10.047 26.063000000000002
H 39.777 10.864 24.524000000000004
H 40.79900000000001 11.500000000000002 25.836000000000002
H 46.782 10.487 28.563000000000002
H 45.972 12.075 28.552
H 45.609 10.771 27.301000000000002
H 43.074000000000005 11.947 32.814
H 46.059 12.145000000000001 36.169
H 46.185 10.382 35.643
H 45.044 10.862 36.734
H 41.27000000000001 9.465 38.977
H 39.788 8.664000000000001 38.377
H 38.42100000000001 10.146 39.563
H 41.653000000000006 12.697000000000001 39.955
H 42.275 11.079 40.012
H 41.80700000000001 11.934000000000001 41.519000000000005
H 38.275 12.421 40.99900000000001
H 39.578 12.797 41.88000000000001
H 38.831 11.405000000000001 43.414
H 39.554 10.037 42.568
H 37.59700000000001 9.220000000000002 42.24
H 36.986 10.391000000000002 41.15200000000001
H 36.693 11.631 43.738
H 35.984 8.812 44.461000000000006
H 36.584 10.21 45.47800000000001
H 37.579 9.171 44.488
H 34.432 9.855 43.326
H 34.791 10.656 41.857
H 34.215 12.588 42.412
H 35.149 12.823000000000002 43.771
H 32.957 10.965 44.44400000000001
H 32.223 12.31 43.577000000000005
H 32.127 12.536000000000001 45.933
H 33.675 14.873000000000001 45.896
H 32.052 14.68 45.32900000000001
H 33.408 14.524 44.163
H 35.025 13.253000000000002 46.45700000000001
H 34.742 11.603000000000002 46.126
H 32.755 12.067 48.107000000000006
H 33.921 13.139000000000001 48.507
H 34.944 10.524000000000001 47.73700000000001
H 33.809 10.505000000000003 49.07600000000001
H 35.291 12.329 50.186
H 37.778 12.02 49.394
H 36.69800000000001 13.313000000000002 48.754
H 36.978 11.8 47.85900000000001
H 37.148 10.51 50.821000000000005
H 35.914 9.417 49.96600000000001
H 35.458 10.381 51.286
Mg -5.21 24.541000000000004 27.195
C -3.5410000000000004 26.384000000000004 29.693000000000005
C -6.38 22.499 29.726
C -6.783000000000001 22.591 24.876000000000005
C -3.732 26.393000000000004 24.817
N -5.009 24.475 29.485
C -4.393000000000001 25.403000000000002 30.316000000000003
C -4.7780000000000005 25.157000000000004 31.761
C -5.380000000000001 23.705 31.74
C -5.612 23.568 30.252
C -4.487 22.583 32.401
C -5.828000000000001 26.148000000000003 32.285
C -5.66 26.572 33.748
C -5.928 25.52 34.86
O -5.178000000000001 24.808000000000003 35.42
O -7.247 25.651000000000003 35.24
N -6.480000000000001 22.853 27.281
C -6.765 22.191000000000003 28.426000000000002
C -7.522000000000001 21.026000000000003 28.101000000000003
C -7.817 21.045 26.694
C -6.985000000000001 22.142 26.232000000000003
C -7.947000000000001 20.031 29.145000000000003
C -8.63 20.1 25.809
O -8.907 20.385000000000005 24.623000000000005
C -9.087 18.724 26.28
N -5.32 24.558 25.17
C -5.973000000000001 23.615 24.382
C -5.699 23.91 22.943
C -4.772 25.174000000000003 22.837
C -4.608 25.452000000000005 24.340000000000003
C -5.2490000000000006 22.679000000000002 22.100000000000005
C -5.373 26.38 22.083
C -4.944 26.457 20.605000000000004
N -3.895 26.018000000000004 27.181
C -3.3810000000000002 26.779000000000003 26.132000000000005
C -2.501 27.909000000000002 26.61
C -2.55 27.715 28.000000000000004
C -3.426 26.623 28.301
C -1.787 28.935 25.749
C -2.033 28.274000000000004 29.24
O -1.249 29.202000000000005 29.443
C -2.781 27.475000000000005 30.39
C -1.665 26.984 31.333000000000002
O -0.581 26.549 31.003000000000004
O -2.033 27.276000000000003 32.645
C -1.033 26.854 33.626
C -7.564000000000001 24.944000000000003 36.511
C -8.753 24.01 36.285
C -9.206 23.034 37.178
C -8.642 22.672000000000004 38.542
C -10.439 22.214 36.802
C -11.605 22.545 37.716
C -12.141000000000002 21.385 38.532
C -12.837 20.297 37.695
C -14.376 20.604 37.604
C -12.473 18.878 38.236
C -11.075 18.359 37.854
C -10.252 18.044000000000004 39.133
C -8.796 17.661 38.813
C -7.707000000000001 18.676 39.491
C -8.488 16.152 39.028
C -7.214 15.591 38.264
C -6.276000000000001 14.932 39.298
C -4.745 15.127000000000002 38.87
C -3.893 13.923000000000002 39.358
C -4.266 16.497 39.329
H -6.796000000000001 21.923 30.555000000000003
H -7.246000000000001 22.043 24.053000000000004
H -3.2010000000000005 26.863 23.987
H -3.9420000000000006 25.157000000000004 32.46000000000001
H -6.324000000000001 23.596 32.274
H -3.587 22.935 32.906
H -4.09 21.819000000000003 31.733000000000004
H -5.035 22.071 33.19200000000001
H -6.837 25.751000000000005 32.176
H -5.779 27.088 31.735000000000003
H -6.234000000000001 27.469 33.98
H -4.65 26.933000000000003 33.941
H -7.011000000000001 19.854 29.675000000000004
H -8.293 19.055 28.805
H -8.678 20.404 29.862000000000002
H -8.257 18.167 26.715
H -9.457 18.282 25.355000000000004
H -9.853000000000002 18.807000000000002 27.051
H -6.6690000000000005 24.060000000000002 22.468
H -3.772 24.984 22.445
H -5.161 21.829 22.777
H -4.267000000000001 22.885000000000005 21.675
H -6.057000000000001 22.545 21.38
H -5.165000000000001 27.269000000000002 22.678000000000004
H -6.454 26.277000000000005 21.986000000000004
H -4.658 25.466 20.252
H -4.057 27.051 20.384
H -5.81 26.77 20.021
H -2.5470000000000006 29.614000000000004 25.362000000000002
H -1.261 28.538 24.881
H -1.105 29.457000000000004 26.42
H -3.5050000000000003 28.048000000000002 30.969
H -1.16 25.838 34.001000000000005
H -1.124 27.594 34.421
H 0.018 26.831 33.338
H -7.981 25.702 37.173
H -6.805 24.425000000000004 37.095
H -9.302 24.101 35.348
H -8.292 21.656 38.362
H -9.496 22.631 39.219
H -7.753000000000001 23.206000000000003 38.876
H -10.150000000000002 21.164 36.741
H -10.782 22.469 35.8
H -12.41 22.862000000000002 37.052
H -11.396 23.503000000000004 38.19200000000001
H -12.859 21.829 39.222
H -11.377000000000002 20.940000000000005 39.17
H -12.531 20.202000000000005 36.653000000000006
H -14.660000000000002 21.651000000000003 37.502
H -14.864 20.149000000000004 38.46600000000001
H -14.707 20.129 36.681
H -13.228 18.159 37.915
H -12.479 19.016 39.317
H -10.479000000000001 19.056 37.265
H -11.241000000000001 17.402 37.358
H -10.608000000000002 17.17 39.678
H -10.286 18.836 39.881
H -8.582 17.67 37.744
H -7.003 18.174 40.154
H -8.335 19.35 40.074
H -7.156000000000001 19.274 38.765
H -9.352 15.546 38.758
H -8.252000000000002 16.061 40.089
H -6.637 16.369 37.763
H -7.396000000000001 14.835000000000003 37.501
H -6.461000000000001 13.864 39.412000000000006
H -6.274000000000001 15.379000000000001 40.292
H -4.618 15.064000000000002 37.789
H -4.547 13.094000000000001 39.626000000000005
H -3.447 14.255000000000003 40.295
H -3.045 13.638000000000002 38.736
H -3.37 16.434 39.947
H -4.981 16.928 40.031
H -3.993 17.069000000000003 38.442

