280
Bchla 5 -- Bchla 9
Mg 24.459 -7.804000000000001 45.73
C 26.586 -5.045000000000001 44.577
C 21.887000000000004 -6.074000000000001 44.19
C 22.841 -10.552 45.751
C 27.522000000000002 -9.37 46.768
N 24.343000000000004 -5.766 44.356
C 25.305 -4.83 44.045
C 24.688 -3.749 43.084
C 23.167000000000005 -3.9430000000000005 43.211000000000006
C 23.119 -5.331 43.95600000000001
C 22.332 -2.8730000000000007 44.03
C 25.237 -3.8220000000000005 41.618
C 25.488 -2.499 40.927
C 24.417000000000005 -2.034 39.891
O 23.317 -1.624 40.184
O 24.875000000000004 -2.272 38.628
N 22.604000000000003 -8.235 45.19100000000001
C 21.647 -7.401 44.68
C 20.381 -8.155 44.469
C 20.679 -9.472000000000001 44.906
C 22.095 -9.47 45.265
C 19.082 -7.63 43.836000000000006
C 19.818 -10.733 44.789
O 18.676 -10.595 44.359
C 20.227 -12.028 45.167
N 25.207 -9.776 45.955000000000005
C 24.194 -10.69 46.16700000000001
C 24.843000000000004 -12.02 46.714
C 26.381 -11.701 46.729
C 26.353000000000005 -10.162000000000003 46.569
C 24.303000000000004 -12.52 48.082
C 27.322000000000003 -12.424 45.683
C 27.761 -13.868 45.982
N 26.632 -7.372000000000001 45.76700000000001
C 27.69 -8.054000000000002 46.33400000000001
C 28.898000000000003 -7.265000000000001 46.339
C 28.501000000000005 -6.051000000000001 45.663
C 27.123000000000005 -6.133000000000001 45.258
C 30.216 -7.747000000000001 46.862
C 28.993000000000002 -4.841 45.175
O 30.137 -4.417 45.08200000000001
C 27.848000000000003 -4.189 44.347
C 27.671 -2.819 44.959
O 27.621000000000002 -1.7800000000000002 44.296
O 27.393 -2.803 46.385
C 26.881000000000004 -1.5110000000000001 46.839000000000006
C 23.97 -2.108 37.49000000000001
C 23.949 -3.434 36.77
C 24.911 -4.045 36.109
C 26.430000000000003 -3.609 35.953
C 24.583 -5.311 35.474
C 23.957 -5.257 34.139
C 23.241 -6.58 33.77000000000001
C 22.733000000000004 -6.697000000000001 32.370000000000005
C 21.624 -7.747000000000001 32.217
C 23.981 -6.913 31.374
C 23.822000000000003 -6.118000000000001 30.051000000000002
C 25.165000000000003 -5.529000000000001 29.557000000000002
C 25.278 -3.933 29.677000000000003
C 26.354000000000003 -3.4940000000000007 30.732
C 25.475 -3.367 28.305000000000003
C 24.156 -3.5830000000000006 27.430000000000003
C 24.512 -3.892 25.894
C 23.607 -5.058 25.347000000000005
C 24.461 -6.168 24.693000000000005
C 22.679000000000002 -4.49 24.291
H 21.044 -5.517000000000001 43.777
H 22.37 -11.509 45.98500000000001
H 28.345000000000002 -9.943 47.2
H 24.831000000000003 -2.766 43.535
H 22.699 -4.122 42.243
H 21.798 -2.303 43.27000000000001
H 22.988 -2.174 44.548
H 21.676 -3.2770000000000006 44.801
H 24.553000000000004 -4.272 40.898
H 26.195000000000004 -4.342 41.598
H 26.494 -2.546 40.510000000000005
H 25.503 -1.726 41.696
H 18.222 -8.027 44.376
H 19.151 -7.952 42.797
H 19.012 -6.547000000000001 43.928000000000004
H 20.354 -12.038000000000002 46.25
H 21.098 -12.408000000000001 44.633
H 19.4 -12.623 44.778000000000006
H 24.715000000000003 -12.875 46.051
H 26.808 -11.853 47.72
H 25.179000000000002 -12.58 48.72800000000001
H 23.876000000000005 -13.512000000000002 47.938
H 23.571000000000005 -11.76 48.358
H 28.203 -11.782000000000002 45.654
H 26.828000000000003 -12.521000000000003 44.71600000000001
H 27.326 -14.008000000000001 46.97200000000001
H 28.839000000000002 -13.929 46.138000000000005
H 27.422000000000004 -14.643 45.295
H 30.43 -8.657 46.303
H 30.177 -8.08 47.899
H 31.044 -7.089 46.598
H 28.225 -4.065000000000001 43.33200000000001
H 26.346000000000004 -1.907 47.703
H 26.354000000000003 -0.9760000000000001 46.049
H 27.739000000000004 -0.964 47.23
H 24.516 -1.3650000000000002 36.909
H 22.959 -1.7100000000000002 37.58
H 22.941 -3.849 36.776
H 26.903000000000002 -3.981 36.862
H 26.442 -2.523 36.044
H 26.811000000000003 -3.93 34.984
H 23.906 -5.93 36.062
H 25.462000000000003 -5.942 35.347
H 24.747000000000003 -5.140000000000001 33.398
H 23.269 -4.411 34.152
H 22.379 -6.564000000000001 34.436
H 23.845 -7.452000000000001 34.022
H 22.186 -5.795 32.096000000000004
H 20.892 -7.35 31.515000000000004
H 21.22 -8.011 33.194
H 21.983 -8.658 31.738
H 24.079 -7.985000000000001 31.199000000000005
H 24.932 -6.648000000000001 31.836000000000002
H 23.048 -5.36 30.178000000000004
H 23.519000000000002 -6.885 29.339
H 25.249000000000002 -5.845000000000001 28.517000000000003
H 26.041000000000004 -5.962 30.04
H 24.391 -3.509 30.146
H 25.819000000000003 -2.872 31.449
H 27.173 -2.8900000000000006 30.343
H 26.711 -4.311 31.359
H 26.354000000000003 -3.809 27.837
H 25.652000000000005 -2.296 28.409
H 23.647 -2.623 27.335
H 23.489 -4.347000000000001 27.83
H 25.570000000000004 -4.0920000000000005 25.726
H 24.341000000000005 -2.9740000000000006 25.331000000000003
H 22.994 -5.4830000000000005 26.141000000000002
H 23.82 -6.919 24.232
H 25.078 -6.549 25.507000000000005
H 25.199 -5.761000000000001 24.001
H 22.9 -3.45 24.051000000000002
H 21.674000000000003 -4.418 24.706000000000003
H 22.665000000000003 -5.104000000000001 23.39
Mg 35.716 1.255 29.884000000000004
C 33.26 2.269 32.062
C 37.975 1.1840000000000002 32.632
C 38.346000000000004 0.782 27.813
C 33.67 1.646 27.255000000000003
N 35.616 1.6870000000000003 32.102
C 34.475 2.1030000000000006 32.73400000000001
C 34.689 2.203 34.246
C 36.276 2.035 34.333
C 36.659 1.612 32.945
C 37.029 3.3020000000000005 34.882
C 33.912 1.084 35.079
C 33.167 1.39 36.356
C 33.843 2.221 37.388
O 33.42100000000001 3.3410000000000006 37.728
O 34.933 1.6400000000000001 37.876
N 37.887 0.958 30.157000000000004
C 38.55 0.788 31.322000000000003
C 39.891 0.361 31.101
C 40.027 0.20000000000000004 29.686000000000003
C 38.73 0.727 29.166000000000004
C 40.80200000000001 0.22400000000000003 32.278000000000006
C 41.264 -0.169 28.885000000000005
O 41.33400000000001 -0.005 27.663000000000004
C 42.484 -0.7440000000000001 29.583
N 36.02 1.3670000000000002 27.779000000000003
C 37.178 1.001 27.169000000000004
C 36.981 0.8910000000000001 25.658
C 35.415 1.001 25.519
C 34.996 1.352 26.933000000000003
C 37.785 1.7880000000000003 24.671000000000003
C 34.665 -0.246 24.889000000000003
C 34.104 -1.334 25.78
N 33.899 1.9220000000000002 29.647000000000002
C 33.078 1.916 28.548000000000002
C 31.778 2.415 28.813
C 31.777 2.525 30.2
C 33.078 2.193 30.658
C 30.562000000000005 2.677 27.934
C 31.029 2.8750000000000004 31.327
O 29.887 3.2940000000000005 31.372
C 31.955 2.758 32.664
C 32.02 4.078 33.279
O 32.548 5.092 32.781000000000006
O 31.387 4.147 34.48
C 31.1 5.466000000000001 35.055
C 35.582 2.283 39.059
C 36.956 1.7520000000000002 39.281
C 37.663 1.5670000000000002 40.454
C 37.082 1.906 41.858
C 39.057 0.9960000000000001 40.45000000000001
C 39.271 -0.353 41.11
C 40.193000000000005 -0.233 42.373000000000005
C 41.643 -0.44000000000000006 42.059
C 42.00600000000001 -1.9290000000000003 42.095
C 42.605 0.519 42.836
C 43.418 1.449 41.91
C 44.351 2.278 42.795
C 44.666 3.6660000000000004 42.14300000000001
C 46.05 3.6770000000000005 41.413000000000004
C 44.807 4.773 43.233
C 43.974000000000004 6.069 42.94800000000001
C 44.742 7.371 43.228
C 44.525 8.505 42.286
C 45.78600000000001 8.771 41.42400000000001
C 43.991 9.797 43.02700000000001
H 38.549 1.115 33.55800000000001
H 39.099 0.356 27.147000000000002
H 32.904 1.431 26.508000000000003
H 34.281 3.1550000000000002 34.588
H 36.555 1.259 35.046
H 37.568 3.0020000000000002 35.78
H 36.247 4.051 35.008
H 37.838 3.673 34.252
H 34.722 0.389 35.301
H 33.307 0.459 34.423
H 32.77 0.47 36.785
H 32.335 2.027 36.05800000000001
H 41.314 -0.725 32.123
H 40.23 0.11700000000000002 33.2
H 41.52900000000001 1.024 32.422
H 42.25000000000001 -1.4870000000000003 30.346000000000004
H 43.158 0.065 29.868000000000002
H 42.999 -1.3 28.799
H 37.387 -0.09500000000000001 25.431000000000004
H 35.108 1.7500000000000002 24.79
H 37.128 2.526 24.211
H 38.164 1.1220000000000003 23.896
H 38.578 2.241 25.265000000000004
H 35.37100000000001 -0.715 24.205000000000002
H 33.813 0.096 24.301
H 34.443 -2.324 25.474
H 33.014 -1.3470000000000002 25.820000000000004
H 34.482 -1.099 26.775000000000002
H 30.791000000000004 2.376 26.911000000000005
H 30.304000000000002 3.735 27.987000000000002
H 29.727 2.091 28.317
H 31.326 2.109 33.274
H 30.272000000000002 5.471 35.764
H 31.016 6.283000000000001 34.339
H 31.936 5.664 35.726
H 35.108 1.9540000000000002 39.984
H 35.775 3.3420000000000005 38.89
H 37.467 1.4470000000000003 38.368
H 37.873000000000005 2.264 42.516
H 36.72 1.008 42.359
H 36.27000000000001 2.623 41.733000000000004
H 39.772 1.6710000000000003 40.919
H 39.282 0.849 39.393
H 39.536 -1.174 40.445
H 38.274 -0.6480000000000001 41.43900000000001
H 39.775 -1.0030000000000001 43.021
H 40.001 0.6730000000000002 42.94800000000001
H 41.848 -0.15700000000000003 41.027
H 42.301 -2.254 41.097
H 41.147 -2.584 42.237
H 42.72200000000001 -2.184 42.877
H 43.228 -0.037000000000000005 43.537
H 41.94500000000001 1.215 43.355
H 42.623 2.041 41.455
H 44.03 0.9260000000000002 41.175
H 45.262 1.704 42.962
H 44.00300000000001 2.425 43.818
H 43.904 3.914 41.404
H 46.194 4.66 40.965
H 45.93600000000001 2.868 40.69200000000001
H 46.74300000000001 3.305 42.168
H 45.84 5.106000000000001 43.335
H 44.48700000000001 4.384 44.20000000000001
H 43.05700000000001 6.043000000000001 43.535
H 43.678 6.089000000000001 41.89900000000001
H 45.80100000000001 7.203 43.426
H 44.400000000000006 7.671000000000001 44.219
H 43.757000000000005 8.162 41.59300000000001
H 45.362 9.038 40.457
H 46.351000000000006 7.847 41.306000000000004
H 46.401 9.604 41.767
H 44.493 10.048000000000002 43.961
H 42.917 9.926 43.167
H 44.126000000000005 10.671 42.389

