280
Bchla 3 -- Bchla 6
Mg 1.3970000000000002 7.672 26.334
C 1.724 9.741 29.051000000000002
C 2.013 4.991 28.381000000000004
C 1.182 5.575 23.580000000000002
C 1.222 10.435 24.247
N 1.8810000000000002 7.369 28.504000000000005
C 1.8600000000000003 8.397000000000002 29.403000000000002
C 2.088 7.914 30.753000000000004
C 2.4 6.433 30.607000000000003
C 2.122 6.205 29.057
C 3.813 5.913 31.044
C 0.869 8.215 31.690000000000005
C 1.1840000000000002 8.506 33.198
C 2.4480000000000004 7.854000000000001 33.792
O 3.5250000000000004 8.347 34.18300000000001
O 2.178 6.495000000000001 34.023
N 1.4660000000000002 5.549 26.075
C 1.7190000000000003 4.629 27.078000000000003
C 1.7070000000000003 3.272 26.495
C 1.454 3.427 25.064
C 1.331 4.879 24.847
C 1.9610000000000003 1.9930000000000003 27.276000000000003
C 1.226 2.335 24.045000000000005
O 0.9420000000000001 2.6500000000000004 22.876000000000005
C 1.349 0.883 24.320000000000004
N 1.3040000000000003 7.948 24.201
C 1.17 6.942 23.332
C 0.899 7.477 21.916000000000004
C 0.6480000000000001 9.069 22.124000000000002
C 1.006 9.146 23.65
C 2.0630000000000006 7.120000000000001 20.941000000000003
C -0.806 9.555 21.874
C -1.005 10.456000000000001 20.646
N 1.524 9.708000000000002 26.541
C 1.451 10.734000000000002 25.596
C 1.565 12.05 26.263000000000005
C 1.6900000000000002 11.659000000000002 27.617000000000004
C 1.6690000000000003 10.243 27.729
C 1.493 13.371000000000002 25.672
C 1.738 12.190000000000001 28.995
O 1.6820000000000002 13.313000000000002 29.421
C 1.805 10.957 29.965000000000003
C 2.9740000000000006 11.12 30.844000000000005
O 4.122 10.981000000000002 30.392000000000003
O 2.681 11.286000000000001 32.163
C 3.771 11.252000000000002 33.133
C 3.048 5.855 35.05
C 1.9290000000000003 5.252 35.92
C 1.8690000000000002 5.066000000000001 37.262
C 2.844 5.658000000000001 38.257
C 0.649 4.441 37.846
C 0.829 3.1160000000000005 38.637
C 0.4580000000000001 1.834 37.761
C 0.426 0.43000000000000005 38.301
C -0.691 -0.398 37.669
C 1.726 -0.354 38.157
C 2.354 -0.963 39.38000000000001
C 3.109 -2.224 38.988
C 3.9870000000000005 -2.7550000000000003 40.173
C 3.1170000000000004 -3.186 41.378
C 5.137 -1.8510000000000002 40.639
C 6.399 -2.6710000000000003 41.039
C 7.463000000000001 -1.796 41.848
C 8.896 -2.176 41.372
C 9.882 -2.039 42.589
C 9.265 -1.108 40.271
H 2.211 4.159 29.060000000000002
H 1.154 4.901 22.721
H 1.034 11.27 23.569
H 2.966 8.427 31.147
H 1.6200000000000003 5.817 31.056000000000004
H 4.563 6.577000000000001 31.475000000000005
H 4.274 5.435 30.180000000000003
H 3.771 5.074 31.739
H 0.125 7.425000000000001 31.587
H 0.273 9.011 31.244
H 0.337 8.213 33.819
H 1.413 9.554 33.38900000000001
H 2.028 2.15 28.352000000000004
H 2.9130000000000003 1.543 26.993000000000002
H 1.087 1.3440000000000003 27.224000000000004
H 1.036 0.37200000000000005 23.410000000000004
H 0.748 0.547 25.166000000000004
H 2.3680000000000003 0.659 24.636
H -0.069 7.080000000000001 21.61
H 1.359 9.68 21.568
H 1.725 6.673 20.006
H 2.747 6.405000000000001 21.399000000000004
H 2.5920000000000005 8.064 20.808
H -1.226 10.107 22.714
H -1.4980000000000002 8.721 21.755
H -0.24900000000000003 10.22 19.897
H -0.863 11.489 20.962
H -2.045 10.342 20.343
H 1.2640000000000002 14.148 26.401000000000003
H 0.762 13.444000000000003 24.867000000000004
H 2.505 13.659 25.387000000000004
H 0.852 11.055 30.486000000000004
H 4.474 12.081 33.047
H 4.27 10.283 33.126
H 3.365 11.366 34.138000000000005
H 3.669 6.537000000000001 35.629
H 3.6450000000000005 5.042 34.637
H 1.141 4.853 35.281000000000006
H 2.241 6.388 38.797
H 3.6670000000000003 6.079 37.68
H 3.186 4.837 38.888
H -0.121 4.345 37.08
H 0.245 5.038 38.663
H 0.325 3.045 39.601
H 1.867 2.982 38.94
H 1.07 1.6620000000000001 36.876
H -0.538 2.056 37.377
H 0.21900000000000003 0.48100000000000004 39.37
H -1.049 0.006 36.722
H -1.532 -0.179 38.326
H -0.45000000000000007 -1.431 37.415000000000006
H 2.424 0.42000000000000004 37.837
H 1.644 -1.051 37.322
H 1.593 -1.066 40.153
H 3.027 -0.185 39.739
H 3.572 -2.108 38.00800000000001
H 2.339 -2.9940000000000007 38.93
H 4.472 -3.6260000000000003 39.732
H 2.35 -3.916 41.12100000000001
H 2.586 -2.314 41.76200000000001
H 3.6820000000000004 -3.709 42.149
H 4.662 -1.3060000000000003 41.455
H 5.377 -1.127 39.86
H 6.758000000000001 -2.9760000000000004 40.056000000000004
H 5.986000000000001 -3.5220000000000002 41.582
H 7.2540000000000004 -2.036 42.89000000000001
H 7.172000000000001 -0.748 41.771
H 9.044 -3.1110000000000007 40.833000000000006
H 9.386 -1.986 43.55800000000001
H 10.42 -1.092 42.540000000000006
H 10.532000000000002 -2.9130000000000003 42.553
H 9.459 -1.7730000000000001 39.43
H 10.177 -0.553 40.49300000000001
H 8.54 -0.302 40.162000000000006
Mg 17.054000000000002 -2.2880000000000003 27.750000000000004
C 16.548 -0.354 30.726
C 18.852000000000004 -4.529 29.657
C 18.013000000000005 -3.67 24.949000000000005
C 15.392000000000001 0.222 26.033000000000005
N 17.886 -2.277 29.962
C 17.412 -1.4370000000000003 30.933
C 17.782 -2.001 32.331
C 18.585 -3.327 31.996000000000002
C 18.484 -3.4240000000000004 30.43
C 20.102000000000004 -3.411 32.453
C 16.578 -2.2860000000000005 33.268
C 16.684 -1.8500000000000003 34.68600000000001
C 18.053 -1.523 35.396
O 18.778 -0.591 35.104
O 18.548000000000002 -2.518 36.236
N 18.305 -3.918 27.31
C 18.859 -4.819 28.219
C 19.641 -5.825 27.475000000000005
C 19.293 -5.632000000000001 26.083
C 18.516 -4.371 26.058000000000003
C 20.531000000000002 -6.871 28.075000000000003
C 19.639 -6.463000000000001 24.825
O 19.045 -6.384 23.729
C 20.630000000000003 -7.546 24.977
N 16.791 -1.754 25.844000000000005
C 17.373000000000005 -2.499 24.842
C 16.845 -2.07 23.445
C 15.703 -1.041 23.862000000000002
C 15.953 -0.843 25.347000000000005
C 17.88 -1.479 22.403
C 14.265 -1.461 23.602000000000004
C 13.502 -0.619 22.558000000000003
N 15.981000000000002 -0.538 28.255
C 15.386 0.394 27.438000000000002
C 14.878 1.514 28.241
C 15.273000000000001 1.207 29.531
C 15.938 -0.039 29.497
C 14.172000000000002 2.7510000000000003 27.793
C 15.189000000000002 1.6990000000000003 30.859000000000005
O 14.574 2.682 31.362000000000002
C 15.981000000000002 0.758 31.664
C 17.012 1.503 32.468
O 17.975 2.031 32.027
O 16.72 1.423 33.766
C 17.368 2.297 34.684
C 19.982 -2.452 36.552
C 20.408000000000005 -3.7640000000000002 37.247
C 20.356 -4.021 38.546
C 19.854 -3.0560000000000005 39.583
C 20.837 -5.333 39.057
C 22.258 -5.655 39.002
C 22.740000000000002 -6.699000000000001 40.128
C 23.734 -7.691 39.446
C 22.955000000000002 -8.755000000000003 38.715
C 24.769000000000002 -8.272 40.501
C 26.123000000000005 -7.521 40.532
C 26.806 -7.793000000000001 41.936
C 27.491000000000003 -9.18 41.978
C 26.842000000000002 -9.995 43.104000000000006
C 29.044000000000004 -9.062 42.251000000000005
C 29.902 -9.093 40.942
C 31.024 -10.168 41.003
C 31.344 -10.751 39.606
C 32.091 -9.703 38.807
C 32.157 -12.063000000000002 39.749
H 19.445 -5.281000000000001 30.182000000000002
H 18.215 -4.046000000000001 23.943000000000005
H 14.94 1.0430000000000001 25.474
H 18.422 -1.249 32.794
H 18.07 -4.189 32.419
H 20.439000000000004 -2.604 33.103
H 20.706000000000003 -3.311 31.550000000000004
H 20.311 -4.382 32.903000000000006
H 16.349 -3.349 33.352
H 15.66 -1.804 32.93300000000001
H 16.309 -2.637 35.34100000000001
H 16.049 -0.9720000000000001 34.801
H 21.524 -6.798000000000001 27.632000000000005
H 20.096000000000004 -7.833000000000001 27.804000000000002
H 20.474 -6.870000000000001 29.164
H 21.579 -7.085 25.251
H 20.755 -7.963 23.978
H 20.262 -8.353 25.61
H 16.37 -2.96 23.031000000000002
H 15.888 -0.125 23.301
H 18.88 -1.4650000000000003 22.835
H 17.571000000000005 -0.518 21.99
H 17.864 -2.133 21.531
H 13.635000000000002 -1.616 24.478000000000005
H 14.307 -2.459 23.167000000000005
H 12.479 -0.335 22.804
H 13.298000000000002 -1.281 21.716
H 13.992000000000003 0.304 22.251000000000005
H 13.755000000000003 2.656 26.790000000000003
H 14.889000000000001 3.5600000000000005 27.654
H 13.497000000000002 3.03 28.602000000000004
H 15.272000000000002 0.271 32.333
H 16.919 3.2800000000000002 34.535
H 18.417 2.432 34.42
H 17.174 2.0 35.715
H 20.182 -1.5990000000000002 37.20100000000001
H 20.542 -2.4460000000000006 35.617000000000004
H 20.690000000000005 -4.616 36.628
H 19.138 -2.4460000000000006 39.033
H 20.664 -2.451 39.99000000000001
H 19.457 -3.6820000000000004 40.382
H 20.285000000000004 -6.003 38.398
H 20.431000000000004 -5.496 40.05500000000001
H 22.825000000000003 -4.727 38.932
H 22.485 -6.0360000000000005 38.007
H 21.940000000000005 -7.281 40.58700000000001
H 23.253 -6.066000000000001 40.853
H 24.429 -7.174 38.785
H 23.377 -8.933 37.726
H 21.938 -8.39 38.577
H 22.868 -9.662000000000003 39.313
H 24.871 -9.356 40.539
H 24.367 -7.952 41.462
H 25.835000000000004 -6.482000000000001 40.376000000000005
H 26.762 -7.954 39.763000000000005
H 26.064000000000004 -7.7700000000000005 42.733
H 27.439 -6.930000000000001 42.144000000000005
H 27.284000000000002 -9.649 41.016000000000005
H 27.200000000000003 -9.702 44.09100000000001
H 27.061 -11.049 42.931
H 25.773000000000003 -9.788 43.068
H 29.359 -9.968 42.769000000000005
H 29.234000000000005 -8.137 42.79600000000001
H 30.419 -8.134 40.972
H 29.280000000000005 -9.128 40.047
H 30.802 -11.04 41.618
H 31.870000000000005 -9.865 41.62100000000001
H 30.338 -10.853 39.2
H 31.684 -9.983 37.835
H 33.179 -9.737 38.747
H 31.83 -8.679000000000002 39.075
H 33.195 -11.825 39.514
H 31.775000000000002 -12.699 38.95
H 32.036 -12.58 40.701

