280
Bchla 2 -- Bchla 6
Mg 3.1580000000000004 -0.094 44.312
C 5.981 1.967 44.127
C 1.5980000000000003 2.251 42.305
C 0.535 -2.151 44.137
C 5.149 -2.67 45.58500000000001
N 3.8870000000000005 1.897 43.132000000000005
C 5.038 2.565 43.339
C 5.131 3.8610000000000007 42.57000000000001
C 3.59 4.004 42.271
C 2.946 2.644 42.52000000000001
C 2.9550000000000005 5.033000000000001 43.244
C 6.136 3.755 41.416
C 6.21 2.461 40.579
C 6.195 2.644 39.066
O 6.007 3.6830000000000003 38.4
O 6.519 1.434 38.422
N 1.341 0.027000000000000003 43.38
C 0.8660000000000001 1.125 42.713
C -0.598 1.037 42.635
C -0.9510000000000001 -0.318 43.02
C 0.3390000000000001 -0.8550000000000001 43.551
C -1.479 2.108 41.885000000000005
C -2.325 -0.9810000000000001 42.895
O -3.285 -0.34 42.56900000000001
C -2.49 -2.436 43.227000000000004
N 2.984 -2.239 44.619
C 1.7320000000000002 -2.881 44.593
C 1.8030000000000002 -4.396 45.061
C 3.316 -4.491 45.581
C 3.8600000000000003 -3.0190000000000006 45.284000000000006
C 0.7230000000000001 -4.977 46.104
C 4.234 -5.645 44.969
C 5.28 -6.178 46.068
N 5.163000000000001 -0.356 44.84000000000001
C 5.798 -1.431 45.428
C 7.171000000000001 -1.059 45.747
C 7.330000000000001 0.289 45.334
C 6.0840000000000005 0.6530000000000001 44.707
C 8.162 -1.875 46.535000000000004
C 8.239 1.4670000000000003 45.15
O 9.427 1.5780000000000003 45.35600000000001
C 7.352 2.565 44.423
C 7.283 3.7450000000000006 45.353
O 8.218 4.569 45.513000000000005
O 6.001000000000001 3.854 45.872
C 5.729000000000001 5.056000000000001 46.587
C 6.66 1.463 36.98700000000001
C 5.302 1.318 36.431
C 5.078 0.839 35.187
C 6.152000000000001 0.257 34.231
C 3.638 0.679 34.791
C 3.1020000000000003 2.034 34.274
C 2.501 1.746 32.904
C 0.9710000000000001 2.203 32.903000000000006
C 0.118 0.988 33.3
C 0.545 2.7340000000000004 31.509
C -0.641 3.659 31.518
C -1.9110000000000003 3.091 30.741
C -2.1240000000000006 4.095 29.606
C -2.5490000000000004 5.45 30.064
C -3.1570000000000005 3.469 28.691
C -3.2780000000000005 4.168000000000001 27.279
C -2.311 3.556 26.234
C -3.025 2.423 25.43
C -2.372 1.03 25.606000000000005
C -3.0780000000000003 2.687 23.904
H 1.075 3.032 41.749
H -0.29600000000000004 -2.8360000000000003 44.319
H 5.700000000000001 -3.415 46.163
H 5.376000000000001 4.7 43.221
H 3.291 4.312 41.27000000000001
H 1.94 4.68 43.428
H 3.0400000000000005 6.042000000000001 42.84300000000001
H 3.3150000000000004 5.085000000000001 44.272
H 7.120000000000001 3.815 41.88000000000001
H 5.982000000000001 4.608 40.75500000000001
H 5.339 1.846 40.804
H 7.152000000000001 1.9640000000000002 40.809
H -1.4650000000000003 2.038 40.797
H -1.165 3.109 42.181
H -2.5300000000000002 2.1470000000000002 42.169
H -3.476 -2.809 42.94800000000001
H -2.332 -2.656 44.283
H -1.797 -2.902 42.526
H 1.6870000000000003 -4.884 44.09400000000001
H 3.35 -4.606 46.664
H -0.10700000000000001 -5.37 45.518
H 0.379 -4.207 46.794000000000004
H 1.2030000000000003 -5.755 46.69800000000001
H 4.889 -5.253 44.191
H 3.628 -6.445 44.543
H 6.307 -6.009000000000001 45.744
H 5.136000000000001 -7.248000000000001 46.215
H 5.312 -5.697 47.045
H 8.316 -2.821 46.017
H 7.758000000000001 -2.083 47.526
H 9.136 -1.391 46.605
H 7.970000000000001 2.884 43.584
H 4.675000000000001 5.078 46.863
H 6.083 5.93 46.04
H 6.206 5.066000000000001 47.56700000000001
H 7.208000000000001 0.6580000000000001 36.497
H 7.169 2.36 36.633
H 4.481 1.537 37.114
H 7.159 0.587 34.48700000000001
H 5.947 0.594 33.215
H 6.082000000000001 -0.817 34.399
H 3.0800000000000005 0.322 35.657
H 3.654 -0.10200000000000001 34.032
H 3.8880000000000003 2.7890000000000006 34.254
H 2.292 2.3260000000000005 34.942
H 2.4690000000000003 0.695 32.613
H 3.072 2.336 32.187
H 0.708 2.9930000000000003 33.605000000000004
H -0.853 1.132 32.825
H 0.121 1.044 34.388
H 0.469 0.036 32.903000000000006
H 0.332 1.915 30.822000000000003
H 1.341 3.3360000000000003 31.071000000000005
H -0.396 4.636 31.103000000000005
H -0.9350000000000002 3.809 32.556
H -2.78 2.9560000000000004 31.384000000000004
H -1.7400000000000002 2.143 30.231
H -1.152 4.354 29.187000000000005
H -1.7000000000000002 6.127000000000001 29.966000000000005
H -2.999 5.445000000000001 31.057000000000002
H -3.348 5.871 29.454
H -4.121 3.5830000000000006 29.187000000000005
H -3.0000000000000004 2.4 28.547000000000004
H -2.983 5.217 27.325
H -4.301 4.146 26.903000000000002
H -1.4470000000000003 3.1430000000000002 26.754
H -1.8910000000000002 4.318 25.577000000000005
H -4.052 2.27 25.761000000000003
H -3.1960000000000006 0.37200000000000005 25.331000000000003
H -2.13 0.909 26.662
H -1.5310000000000001 0.829 24.942
H -2.599 1.8900000000000001 23.334000000000003
H -2.646 3.649 23.627
H -4.121 2.7350000000000003 23.593000000000004
Mg 17.054000000000002 -2.2880000000000003 27.750000000000004
C 16.548 -0.354 30.726
C 18.852000000000004 -4.529 29.657
C 18.013000000000005 -3.67 24.949000000000005
C 15.392000000000001 0.222 26.033000000000005
N 17.886 -2.277 29.962
C 17.412 -1.4370000000000003 30.933
C 17.782 -2.001 32.331
C 18.585 -3.327 31.996000000000002
C 18.484 -3.4240000000000004 30.43
C 20.102000000000004 -3.411 32.453
C 16.578 -2.2860000000000005 33.268
C 16.684 -1.8500000000000003 34.68600000000001
C 18.053 -1.523 35.396
O 18.778 -0.591 35.104
O 18.548000000000002 -2.518 36.236
N 18.305 -3.918 27.31
C 18.859 -4.819 28.219
C 19.641 -5.825 27.475000000000005
C 19.293 -5.632000000000001 26.083
C 18.516 -4.371 26.058000000000003
C 20.531000000000002 -6.871 28.075000000000003
C 19.639 -6.463000000000001 24.825
O 19.045 -6.384 23.729
C 20.630000000000003 -7.546 24.977
N 16.791 -1.754 25.844000000000005
C 17.373000000000005 -2.499 24.842
C 16.845 -2.07 23.445
C 15.703 -1.041 23.862000000000002
C 15.953 -0.843 25.347000000000005
C 17.88 -1.479 22.403
C 14.265 -1.461 23.602000000000004
C 13.502 -0.619 22.558000000000003
N 15.981000000000002 -0.538 28.255
C 15.386 0.394 27.438000000000002
C 14.878 1.514 28.241
C 15.273000000000001 1.207 29.531
C 15.938 -0.039 29.497
C 14.172000000000002 2.7510000000000003 27.793
C 15.189000000000002 1.6990000000000003 30.859000000000005
O 14.574 2.682 31.362000000000002
C 15.981000000000002 0.758 31.664
C 17.012 1.503 32.468
O 17.975 2.031 32.027
O 16.72 1.423 33.766
C 17.368 2.297 34.684
C 19.982 -2.452 36.552
C 20.408000000000005 -3.7640000000000002 37.247
C 20.356 -4.021 38.546
C 19.854 -3.0560000000000005 39.583
C 20.837 -5.333 39.057
C 22.258 -5.655 39.002
C 22.740000000000002 -6.699000000000001 40.128
C 23.734 -7.691 39.446
C 22.955000000000002 -8.755000000000003 38.715
C 24.769000000000002 -8.272 40.501
C 26.123000000000005 -7.521 40.532
C 26.806 -7.793000000000001 41.936
C 27.491000000000003 -9.18 41.978
C 26.842000000000002 -9.995 43.104000000000006
C 29.044000000000004 -9.062 42.251000000000005
C 29.902 -9.093 40.942
C 31.024 -10.168 41.003
C 31.344 -10.751 39.606
C 32.091 -9.703 38.807
C 32.157 -12.063000000000002 39.749
H 19.445 -5.281000000000001 30.182000000000002
H 18.215 -4.046000000000001 23.943000000000005
H 14.94 1.0430000000000001 25.474
H 18.422 -1.249 32.794
H 18.07 -4.189 32.419
H 20.439000000000004 -2.604 33.103
H 20.706000000000003 -3.311 31.550000000000004
H 20.311 -4.382 32.903000000000006
H 16.349 -3.349 33.352
H 15.66 -1.804 32.93300000000001
H 16.309 -2.637 35.34100000000001
H 16.049 -0.9720000000000001 34.801
H 21.524 -6.798000000000001 27.632000000000005
H 20.096000000000004 -7.833000000000001 27.804000000000002
H 20.474 -6.870000000000001 29.164
H 21.579 -7.085 25.251
H 20.755 -7.963 23.978
H 20.262 -8.353 25.61
H 16.37 -2.96 23.031000000000002
H 15.888 -0.125 23.301
H 18.88 -1.4650000000000003 22.835
H 17.571000000000005 -0.518 21.99
H 17.864 -2.133 21.531
H 13.635000000000002 -1.616 24.478000000000005
H 14.307 -2.459 23.167000000000005
H 12.479 -0.335 22.804
H 13.298000000000002 -1.281 21.716
H 13.992000000000003 0.304 22.251000000000005
H 13.755000000000003 2.656 26.790000000000003
H 14.889000000000001 3.5600000000000005 27.654
H 13.497000000000002 3.03 28.602000000000004
H 15.272000000000002 0.271 32.333
H 16.919 3.2800000000000002 34.535
H 18.417 2.432 34.42
H 17.174 2.0 35.715
H 20.182 -1.5990000000000002 37.20100000000001
H 20.542 -2.4460000000000006 35.617000000000004
H 20.690000000000005 -4.616 36.628
H 19.138 -2.4460000000000006 39.033
H 20.664 -2.451 39.99000000000001
H 19.457 -3.6820000000000004 40.382
H 20.285000000000004 -6.003 38.398
H 20.431000000000004 -5.496 40.05500000000001
H 22.825000000000003 -4.727 38.932
H 22.485 -6.0360000000000005 38.007
H 21.940000000000005 -7.281 40.58700000000001
H 23.253 -6.066000000000001 40.853
H 24.429 -7.174 38.785
H 23.377 -8.933 37.726
H 21.938 -8.39 38.577
H 22.868 -9.662000000000003 39.313
H 24.871 -9.356 40.539
H 24.367 -7.952 41.462
H 25.835000000000004 -6.482000000000001 40.376000000000005
H 26.762 -7.954 39.763000000000005
H 26.064000000000004 -7.7700000000000005 42.733
H 27.439 -6.930000000000001 42.144000000000005
H 27.284000000000002 -9.649 41.016000000000005
H 27.200000000000003 -9.702 44.09100000000001
H 27.061 -11.049 42.931
H 25.773000000000003 -9.788 43.068
H 29.359 -9.968 42.769000000000005
H 29.234000000000005 -8.137 42.79600000000001
H 30.419 -8.134 40.972
H 29.280000000000005 -9.128 40.047
H 30.802 -11.04 41.618
H 31.870000000000005 -9.865 41.62100000000001
H 30.338 -10.853 39.2
H 31.684 -9.983 37.835
H 33.179 -9.737 38.747
H 31.83 -8.679000000000002 39.075
H 33.195 -11.825 39.514
H 31.775000000000002 -12.699 38.95
H 32.036 -12.58 40.701

