280
Bchla 6 -- Bchla 8
Mg 17.054000000000002 -2.2880000000000003 27.750000000000004
C 16.548 -0.354 30.726
C 18.852000000000004 -4.529 29.657
C 18.013000000000005 -3.67 24.949000000000005
C 15.392000000000001 0.222 26.033000000000005
N 17.886 -2.277 29.962
C 17.412 -1.4370000000000003 30.933
C 17.782 -2.001 32.331
C 18.585 -3.327 31.996000000000002
C 18.484 -3.4240000000000004 30.43
C 20.102000000000004 -3.411 32.453
C 16.578 -2.2860000000000005 33.268
C 16.684 -1.8500000000000003 34.68600000000001
C 18.053 -1.523 35.396
O 18.778 -0.591 35.104
O 18.548000000000002 -2.518 36.236
N 18.305 -3.918 27.31
C 18.859 -4.819 28.219
C 19.641 -5.825 27.475000000000005
C 19.293 -5.632000000000001 26.083
C 18.516 -4.371 26.058000000000003
C 20.531000000000002 -6.871 28.075000000000003
C 19.639 -6.463000000000001 24.825
O 19.045 -6.384 23.729
C 20.630000000000003 -7.546 24.977
N 16.791 -1.754 25.844000000000005
C 17.373000000000005 -2.499 24.842
C 16.845 -2.07 23.445
C 15.703 -1.041 23.862000000000002
C 15.953 -0.843 25.347000000000005
C 17.88 -1.479 22.403
C 14.265 -1.461 23.602000000000004
C 13.502 -0.619 22.558000000000003
N 15.981000000000002 -0.538 28.255
C 15.386 0.394 27.438000000000002
C 14.878 1.514 28.241
C 15.273000000000001 1.207 29.531
C 15.938 -0.039 29.497
C 14.172000000000002 2.7510000000000003 27.793
C 15.189000000000002 1.6990000000000003 30.859000000000005
O 14.574 2.682 31.362000000000002
C 15.981000000000002 0.758 31.664
C 17.012 1.503 32.468
O 17.975 2.031 32.027
O 16.72 1.423 33.766
C 17.368 2.297 34.684
C 19.982 -2.452 36.552
C 20.408000000000005 -3.7640000000000002 37.247
C 20.356 -4.021 38.546
C 19.854 -3.0560000000000005 39.583
C 20.837 -5.333 39.057
C 22.258 -5.655 39.002
C 22.740000000000002 -6.699000000000001 40.128
C 23.734 -7.691 39.446
C 22.955000000000002 -8.755000000000003 38.715
C 24.769000000000002 -8.272 40.501
C 26.123000000000005 -7.521 40.532
C 26.806 -7.793000000000001 41.936
C 27.491000000000003 -9.18 41.978
C 26.842000000000002 -9.995 43.104000000000006
C 29.044000000000004 -9.062 42.251000000000005
C 29.902 -9.093 40.942
C 31.024 -10.168 41.003
C 31.344 -10.751 39.606
C 32.091 -9.703 38.807
C 32.157 -12.063000000000002 39.749
H 19.445 -5.281000000000001 30.182000000000002
H 18.215 -4.046000000000001 23.943000000000005
H 14.94 1.0430000000000001 25.474
H 18.422 -1.249 32.794
H 18.07 -4.189 32.419
H 20.439000000000004 -2.604 33.103
H 20.706000000000003 -3.311 31.550000000000004
H 20.311 -4.382 32.903000000000006
H 16.349 -3.349 33.352
H 15.66 -1.804 32.93300000000001
H 16.309 -2.637 35.34100000000001
H 16.049 -0.9720000000000001 34.801
H 21.524 -6.798000000000001 27.632000000000005
H 20.096000000000004 -7.833000000000001 27.804000000000002
H 20.474 -6.870000000000001 29.164
H 21.579 -7.085 25.251
H 20.755 -7.963 23.978
H 20.262 -8.353 25.61
H 16.37 -2.96 23.031000000000002
H 15.888 -0.125 23.301
H 18.88 -1.4650000000000003 22.835
H 17.571000000000005 -0.518 21.99
H 17.864 -2.133 21.531
H 13.635000000000002 -1.616 24.478000000000005
H 14.307 -2.459 23.167000000000005
H 12.479 -0.335 22.804
H 13.298000000000002 -1.281 21.716
H 13.992000000000003 0.304 22.251000000000005
H 13.755000000000003 2.656 26.790000000000003
H 14.889000000000001 3.5600000000000005 27.654
H 13.497000000000002 3.03 28.602000000000004
H 15.272000000000002 0.271 32.333
H 16.919 3.2800000000000002 34.535
H 18.417 2.432 34.42
H 17.174 2.0 35.715
H 20.182 -1.5990000000000002 37.20100000000001
H 20.542 -2.4460000000000006 35.617000000000004
H 20.690000000000005 -4.616 36.628
H 19.138 -2.4460000000000006 39.033
H 20.664 -2.451 39.99000000000001
H 19.457 -3.6820000000000004 40.382
H 20.285000000000004 -6.003 38.398
H 20.431000000000004 -5.496 40.05500000000001
H 22.825000000000003 -4.727 38.932
H 22.485 -6.0360000000000005 38.007
H 21.940000000000005 -7.281 40.58700000000001
H 23.253 -6.066000000000001 40.853
H 24.429 -7.174 38.785
H 23.377 -8.933 37.726
H 21.938 -8.39 38.577
H 22.868 -9.662000000000003 39.313
H 24.871 -9.356 40.539
H 24.367 -7.952 41.462
H 25.835000000000004 -6.482000000000001 40.376000000000005
H 26.762 -7.954 39.763000000000005
H 26.064000000000004 -7.7700000000000005 42.733
H 27.439 -6.930000000000001 42.144000000000005
H 27.284000000000002 -9.649 41.016000000000005
H 27.200000000000003 -9.702 44.09100000000001
H 27.061 -11.049 42.931
H 25.773000000000003 -9.788 43.068
H 29.359 -9.968 42.769000000000005
H 29.234000000000005 -8.137 42.79600000000001
H 30.419 -8.134 40.972
H 29.280000000000005 -9.128 40.047
H 30.802 -11.04 41.618
H 31.870000000000005 -9.865 41.62100000000001
H 30.338 -10.853 39.2
H 31.684 -9.983 37.835
H 33.179 -9.737 38.747
H 31.83 -8.679000000000002 39.075
H 33.195 -11.825 39.514
H 31.775000000000002 -12.699 38.95
H 32.036 -12.58 40.701
Mg 44.805 2.872 46.678
C 42.564 5.571000000000001 46.818
C 42.138 0.792 46.357
C 47.013 0.524 46.123000000000005
C 47.342000000000006 5.378 46.178
N 42.641 3.171 46.669
C 41.94200000000001 4.344 46.717000000000006
C 40.483000000000004 4.049 46.338
C 40.34 2.59 46.757
C 41.789 2.143 46.48400000000001
C 39.961 2.426 48.247
C 40.236000000000004 4.257 44.798
C 39.269 5.454 44.334
C 39.839 6.574 43.447
O 39.909 7.800000000000001 43.735
O 40.258 6.011000000000001 42.288
N 44.607 0.937 46.236
C 43.419 0.246 46.169000000000004
C 43.72 -1.1440000000000001 46.025
C 45.14200000000001 -1.3250000000000002 46.069
C 45.676 0.066 46.14
C 42.621 -2.253 45.89
C 45.872 -2.717 46.064
O 45.23700000000001 -3.7250000000000005 46.117
C 47.314 -2.741 46.277
N 46.83800000000001 2.9540000000000006 45.9
C 47.545 1.827 46.153000000000006
C 49.019000000000005 2.09 46.412000000000006
C 49.175000000000004 3.5620000000000003 46.062000000000005
C 47.67600000000001 4.022 46.033
C 49.446000000000005 1.7830000000000001 47.895
C 49.96600000000001 3.979 44.73400000000001
C 51.333 4.607 44.784
N 45.003 4.992 46.726
C 46.077000000000005 5.865 46.51
C 45.657 7.249 46.552
C 44.294000000000004 7.169 46.699
C 43.899 5.793 46.779
C 46.537 8.416 46.37700000000001
C 43.082 7.966000000000001 46.811
O 42.95000000000001 9.194 46.88400000000001
C 41.94500000000001 6.984 47.0
C 41.328 7.264 48.36600000000001
O 42.00600000000001 7.201 49.389
O 40.001 7.707000000000001 48.253
C 39.367000000000004 8.023 49.50500000000001
C 40.734 6.971 41.278
C 40.929 6.279 39.954
C 39.94500000000001 5.903 39.081
C 38.433 6.215000000000001 39.304
C 40.231 5.164 37.78
C 40.224000000000004 3.607 38.037
C 41.57900000000001 2.8330000000000006 38.22200000000001
C 42.05100000000001 2.0440000000000005 36.889
C 42.658 0.718 37.242
C 42.953 2.919 35.90400000000001
C 42.39 2.823 34.428
C 42.039 4.130000000000001 33.765
C 42.943 4.450000000000001 32.506
C 44.09100000000001 5.479000000000001 32.843
C 42.191 4.949 31.209000000000003
C 42.21 3.914 30.017
C 43.42300000000001 4.168000000000001 29.071
C 43.036 4.286 27.586
C 44.105 5.092 26.712000000000003
C 42.825 2.982 26.907
H 41.262 0.14300000000000002 46.414
H 47.712 -0.302 46.263
H 48.13300000000001 6.13 46.13700000000001
H 39.873 4.807 46.83
H 39.59400000000001 2.1260000000000003 46.113
H 39.125 1.738 48.126
H 39.668 3.426 48.568
H 40.731 2.033 48.91100000000001
H 39.762 3.35 44.423
H 41.21000000000001 4.308 44.312
H 38.982 5.962 45.255
H 38.337 5.132 43.871
H 42.716 -2.971 45.076
H 41.68 -1.717 45.762
H 42.518 -2.8550000000000004 46.793000000000006
H 47.887 -2.174 45.543000000000006
H 47.64600000000001 -3.779 46.25800000000001
H 47.544 -2.496 47.313
H 49.67 1.444 45.822
H 49.62700000000001 4.102 46.894
H 49.918000000000006 0.808 48.01500000000001
H 48.604 1.968 48.562000000000005
H 50.202 2.521 48.16700000000001
H 49.412000000000006 4.488000000000001 43.946
H 50.095 2.959 44.371
H 52.118 3.973 44.373
H 51.6 4.817 45.82
H 51.226 5.529000000000001 44.21300000000001
H 47.399 8.096 45.791
H 46.889 8.667 47.378
H 45.995 9.266000000000002 45.965
H 41.251 7.276 46.21300000000001
H 39.04600000000001 7.156000000000001 50.083
H 38.484 8.645 49.361
H 39.982 8.613 50.184
H 41.72 7.2170000000000005 41.674
H 40.076 7.834 41.171
H 41.954 6.089000000000001 39.635
H 38.257 6.543000000000001 40.32800000000001
H 37.775 5.354 39.189
H 38.187 6.844000000000001 38.448
H 41.162 5.507 37.33
H 39.514 5.279 36.967
H 39.71600000000001 3.107 37.212
H 39.546 3.3420000000000005 38.849000000000004
H 41.62500000000001 2.262 39.15
H 42.35300000000001 3.598 38.283
H 41.131 1.716 36.406
H 42.012 -0.12 36.979
H 42.765 0.593 38.32
H 43.605000000000004 0.6220000000000001 36.711
H 44.01 2.6540000000000004 35.941
H 42.985 3.9440000000000004 36.272000000000006
H 41.403 2.362 34.48
H 43.08500000000001 2.245 33.819
H 41.986 4.989 34.433
H 41.048 4.17 33.313
H 43.49600000000001 3.5850000000000004 32.14
H 44.209 6.321 32.162
H 45.058 4.977 32.853
H 44.01400000000001 5.897 33.84700000000001
H 42.608 5.793 30.661000000000005
H 41.161 5.217 31.442
H 41.256 3.9290000000000003 29.49
H 42.306 2.9720000000000004 30.557
H 44.006 3.266 29.259000000000004
H 44.045 5.047000000000001 29.244000000000003
H 42.148 4.914 27.507
H 43.632 6.071 26.646
H 44.187000000000005 4.595000000000001 25.746000000000002
H 45.08500000000001 5.0600000000000005 27.188
H 42.13900000000001 3.354 26.145
H 42.23500000000001 2.317 27.538
H 43.741 2.6530000000000005 26.415000000000003

