280
Bchla 2 -- Bchla 3
Mg 3.1580000000000004 -0.094 44.312
C 5.981 1.967 44.127
C 1.5980000000000003 2.251 42.305
C 0.535 -2.151 44.137
C 5.149 -2.67 45.58500000000001
N 3.8870000000000005 1.897 43.132000000000005
C 5.038 2.565 43.339
C 5.131 3.8610000000000007 42.57000000000001
C 3.59 4.004 42.271
C 2.946 2.644 42.52000000000001
C 2.9550000000000005 5.033000000000001 43.244
C 6.136 3.755 41.416
C 6.21 2.461 40.579
C 6.195 2.644 39.066
O 6.007 3.6830000000000003 38.4
O 6.519 1.434 38.422
N 1.341 0.027000000000000003 43.38
C 0.8660000000000001 1.125 42.713
C -0.598 1.037 42.635
C -0.9510000000000001 -0.318 43.02
C 0.3390000000000001 -0.8550000000000001 43.551
C -1.479 2.108 41.885000000000005
C -2.325 -0.9810000000000001 42.895
O -3.285 -0.34 42.56900000000001
C -2.49 -2.436 43.227000000000004
N 2.984 -2.239 44.619
C 1.7320000000000002 -2.881 44.593
C 1.8030000000000002 -4.396 45.061
C 3.316 -4.491 45.581
C 3.8600000000000003 -3.0190000000000006 45.284000000000006
C 0.7230000000000001 -4.977 46.104
C 4.234 -5.645 44.969
C 5.28 -6.178 46.068
N 5.163000000000001 -0.356 44.84000000000001
C 5.798 -1.431 45.428
C 7.171000000000001 -1.059 45.747
C 7.330000000000001 0.289 45.334
C 6.0840000000000005 0.6530000000000001 44.707
C 8.162 -1.875 46.535000000000004
C 8.239 1.4670000000000003 45.15
O 9.427 1.5780000000000003 45.35600000000001
C 7.352 2.565 44.423
C 7.283 3.7450000000000006 45.353
O 8.218 4.569 45.513000000000005
O 6.001000000000001 3.854 45.872
C 5.729000000000001 5.056000000000001 46.587
C 6.66 1.463 36.98700000000001
C 5.302 1.318 36.431
C 5.078 0.839 35.187
C 6.152000000000001 0.257 34.231
C 3.638 0.679 34.791
C 3.1020000000000003 2.034 34.274
C 2.501 1.746 32.904
C 0.9710000000000001 2.203 32.903000000000006
C 0.118 0.988 33.3
C 0.545 2.7340000000000004 31.509
C -0.641 3.659 31.518
C -1.9110000000000003 3.091 30.741
C -2.1240000000000006 4.095 29.606
C -2.5490000000000004 5.45 30.064
C -3.1570000000000005 3.469 28.691
C -3.2780000000000005 4.168000000000001 27.279
C -2.311 3.556 26.234
C -3.025 2.423 25.43
C -2.372 1.03 25.606000000000005
C -3.0780000000000003 2.687 23.904
H 1.075 3.032 41.749
H -0.29600000000000004 -2.8360000000000003 44.319
H 5.700000000000001 -3.415 46.163
H 5.376000000000001 4.7 43.221
H 3.291 4.312 41.27000000000001
H 1.94 4.68 43.428
H 3.0400000000000005 6.042000000000001 42.84300000000001
H 3.3150000000000004 5.085000000000001 44.272
H 7.120000000000001 3.815 41.88000000000001
H 5.982000000000001 4.608 40.75500000000001
H 5.339 1.846 40.804
H 7.152000000000001 1.9640000000000002 40.809
H -1.4650000000000003 2.038 40.797
H -1.165 3.109 42.181
H -2.5300000000000002 2.1470000000000002 42.169
H -3.476 -2.809 42.94800000000001
H -2.332 -2.656 44.283
H -1.797 -2.902 42.526
H 1.6870000000000003 -4.884 44.09400000000001
H 3.35 -4.606 46.664
H -0.10700000000000001 -5.37 45.518
H 0.379 -4.207 46.794000000000004
H 1.2030000000000003 -5.755 46.69800000000001
H 4.889 -5.253 44.191
H 3.628 -6.445 44.543
H 6.307 -6.009000000000001 45.744
H 5.136000000000001 -7.248000000000001 46.215
H 5.312 -5.697 47.045
H 8.316 -2.821 46.017
H 7.758000000000001 -2.083 47.526
H 9.136 -1.391 46.605
H 7.970000000000001 2.884 43.584
H 4.675000000000001 5.078 46.863
H 6.083 5.93 46.04
H 6.206 5.066000000000001 47.56700000000001
H 7.208000000000001 0.6580000000000001 36.497
H 7.169 2.36 36.633
H 4.481 1.537 37.114
H 7.159 0.587 34.48700000000001
H 5.947 0.594 33.215
H 6.082000000000001 -0.817 34.399
H 3.0800000000000005 0.322 35.657
H 3.654 -0.10200000000000001 34.032
H 3.8880000000000003 2.7890000000000006 34.254
H 2.292 2.3260000000000005 34.942
H 2.4690000000000003 0.695 32.613
H 3.072 2.336 32.187
H 0.708 2.9930000000000003 33.605000000000004
H -0.853 1.132 32.825
H 0.121 1.044 34.388
H 0.469 0.036 32.903000000000006
H 0.332 1.915 30.822000000000003
H 1.341 3.3360000000000003 31.071000000000005
H -0.396 4.636 31.103000000000005
H -0.9350000000000002 3.809 32.556
H -2.78 2.9560000000000004 31.384000000000004
H -1.7400000000000002 2.143 30.231
H -1.152 4.354 29.187000000000005
H -1.7000000000000002 6.127000000000001 29.966000000000005
H -2.999 5.445000000000001 31.057000000000002
H -3.348 5.871 29.454
H -4.121 3.5830000000000006 29.187000000000005
H -3.0000000000000004 2.4 28.547000000000004
H -2.983 5.217 27.325
H -4.301 4.146 26.903000000000002
H -1.4470000000000003 3.1430000000000002 26.754
H -1.8910000000000002 4.318 25.577000000000005
H -4.052 2.27 25.761000000000003
H -3.1960000000000006 0.37200000000000005 25.331000000000003
H -2.13 0.909 26.662
H -1.5310000000000001 0.829 24.942
H -2.599 1.8900000000000001 23.334000000000003
H -2.646 3.649 23.627
H -4.121 2.7350000000000003 23.593000000000004
Mg 1.3970000000000002 7.672 26.334
C 1.724 9.741 29.051000000000002
C 2.013 4.991 28.381000000000004
C 1.182 5.575 23.580000000000002
C 1.222 10.435 24.247
N 1.8810000000000002 7.369 28.504000000000005
C 1.8600000000000003 8.397000000000002 29.403000000000002
C 2.088 7.914 30.753000000000004
C 2.4 6.433 30.607000000000003
C 2.122 6.205 29.057
C 3.813 5.913 31.044
C 0.869 8.215 31.690000000000005
C 1.1840000000000002 8.506 33.198
C 2.4480000000000004 7.854000000000001 33.792
O 3.5250000000000004 8.347 34.18300000000001
O 2.178 6.495000000000001 34.023
N 1.4660000000000002 5.549 26.075
C 1.7190000000000003 4.629 27.078000000000003
C 1.7070000000000003 3.272 26.495
C 1.454 3.427 25.064
C 1.331 4.879 24.847
C 1.9610000000000003 1.9930000000000003 27.276000000000003
C 1.226 2.335 24.045000000000005
O 0.9420000000000001 2.6500000000000004 22.876000000000005
C 1.349 0.883 24.320000000000004
N 1.3040000000000003 7.948 24.201
C 1.17 6.942 23.332
C 0.899 7.477 21.916000000000004
C 0.6480000000000001 9.069 22.124000000000002
C 1.006 9.146 23.65
C 2.0630000000000006 7.120000000000001 20.941000000000003
C -0.806 9.555 21.874
C -1.005 10.456000000000001 20.646
N 1.524 9.708000000000002 26.541
C 1.451 10.734000000000002 25.596
C 1.565 12.05 26.263000000000005
C 1.6900000000000002 11.659000000000002 27.617000000000004
C 1.6690000000000003 10.243 27.729
C 1.493 13.371000000000002 25.672
C 1.738 12.190000000000001 28.995
O 1.6820000000000002 13.313000000000002 29.421
C 1.805 10.957 29.965000000000003
C 2.9740000000000006 11.12 30.844000000000005
O 4.122 10.981000000000002 30.392000000000003
O 2.681 11.286000000000001 32.163
C 3.771 11.252000000000002 33.133
C 3.048 5.855 35.05
C 1.9290000000000003 5.252 35.92
C 1.8690000000000002 5.066000000000001 37.262
C 2.844 5.658000000000001 38.257
C 0.649 4.441 37.846
C 0.829 3.1160000000000005 38.637
C 0.4580000000000001 1.834 37.761
C 0.426 0.43000000000000005 38.301
C -0.691 -0.398 37.669
C 1.726 -0.354 38.157
C 2.354 -0.963 39.38000000000001
C 3.109 -2.224 38.988
C 3.9870000000000005 -2.7550000000000003 40.173
C 3.1170000000000004 -3.186 41.378
C 5.137 -1.8510000000000002 40.639
C 6.399 -2.6710000000000003 41.039
C 7.463000000000001 -1.796 41.848
C 8.896 -2.176 41.372
C 9.882 -2.039 42.589
C 9.265 -1.108 40.271
H 2.211 4.159 29.060000000000002
H 1.154 4.901 22.721
H 1.034 11.27 23.569
H 2.966 8.427 31.147
H 1.6200000000000003 5.817 31.056000000000004
H 4.563 6.577000000000001 31.475000000000005
H 4.274 5.435 30.180000000000003
H 3.771 5.074 31.739
H 0.125 7.425000000000001 31.587
H 0.273 9.011 31.244
H 0.337 8.213 33.819
H 1.413 9.554 33.38900000000001
H 2.028 2.15 28.352000000000004
H 2.9130000000000003 1.543 26.993000000000002
H 1.087 1.3440000000000003 27.224000000000004
H 1.036 0.37200000000000005 23.410000000000004
H 0.748 0.547 25.166000000000004
H 2.3680000000000003 0.659 24.636
H -0.069 7.080000000000001 21.61
H 1.359 9.68 21.568
H 1.725 6.673 20.006
H 2.747 6.405000000000001 21.399000000000004
H 2.5920000000000005 8.064 20.808
H -1.226 10.107 22.714
H -1.4980000000000002 8.721 21.755
H -0.24900000000000003 10.22 19.897
H -0.863 11.489 20.962
H -2.045 10.342 20.343
H 1.2640000000000002 14.148 26.401000000000003
H 0.762 13.444000000000003 24.867000000000004
H 2.505 13.659 25.387000000000004
H 0.852 11.055 30.486000000000004
H 4.474 12.081 33.047
H 4.27 10.283 33.126
H 3.365 11.366 34.138000000000005
H 3.669 6.537000000000001 35.629
H 3.6450000000000005 5.042 34.637
H 1.141 4.853 35.281000000000006
H 2.241 6.388 38.797
H 3.6670000000000003 6.079 37.68
H 3.186 4.837 38.888
H -0.121 4.345 37.08
H 0.245 5.038 38.663
H 0.325 3.045 39.601
H 1.867 2.982 38.94
H 1.07 1.6620000000000001 36.876
H -0.538 2.056 37.377
H 0.21900000000000003 0.48100000000000004 39.37
H -1.049 0.006 36.722
H -1.532 -0.179 38.326
H -0.45000000000000007 -1.431 37.415000000000006
H 2.424 0.42000000000000004 37.837
H 1.644 -1.051 37.322
H 1.593 -1.066 40.153
H 3.027 -0.185 39.739
H 3.572 -2.108 38.00800000000001
H 2.339 -2.9940000000000007 38.93
H 4.472 -3.6260000000000003 39.732
H 2.35 -3.916 41.12100000000001
H 2.586 -2.314 41.76200000000001
H 3.6820000000000004 -3.709 42.149
H 4.662 -1.3060000000000003 41.455
H 5.377 -1.127 39.86
H 6.758000000000001 -2.9760000000000004 40.056000000000004
H 5.986000000000001 -3.5220000000000002 41.582
H 7.2540000000000004 -2.036 42.89000000000001
H 7.172000000000001 -0.748 41.771
H 9.044 -3.1110000000000007 40.833000000000006
H 9.386 -1.986 43.55800000000001
H 10.42 -1.092 42.540000000000006
H 10.532000000000002 -2.9130000000000003 42.553
H 9.459 -1.7730000000000001 39.43
H 10.177 -0.553 40.49300000000001
H 8.54 -0.302 40.162000000000006

