280
Bchla 7 -- Bchla 19
Mg 26.07 0.323 29.175000000000004
C 27.93 0.003 32.172
C 23.237000000000002 0.373 31.222
C 24.2 0.735 26.508000000000003
C 28.899000000000004 -0.559 27.356
N 25.688 0.233 31.426
C 26.587 0.253 32.449
C 25.993 0.251 33.868
C 24.435000000000002 0.24800000000000003 33.454
C 24.487000000000002 0.27 31.955
C 23.634 -1.0230000000000001 33.943
C 26.399000000000004 1.5090000000000001 34.703
C 27.306000000000004 1.4780000000000002 35.927
C 27.075 2.414 37.106
O 26.799 3.589 37.103
O 27.375000000000004 1.786 38.263
N 24.004000000000005 0.606 28.874
C 22.986 0.524 29.835
C 21.724 0.613 29.135000000000005
C 21.973 0.8800000000000001 27.791
C 23.443 0.8040000000000002 27.683
C 20.468000000000004 0.6480000000000001 29.937000000000005
C 21.028 1.0820000000000003 26.607000000000003
O 21.392000000000003 1.281 25.444
C 19.585 1.1840000000000002 26.910000000000004
N 26.429000000000002 0.025000000000000005 27.200000000000003
C 25.570000000000004 0.4620000000000001 26.230000000000004
C 26.301000000000002 0.604 24.852000000000004
C 27.706 0.101 25.157000000000004
C 27.680000000000003 -0.24400000000000002 26.672000000000004
C 25.559000000000005 -0.10800000000000001 23.674
C 28.733000000000004 1.1830000000000003 24.79
C 29.963 0.7730000000000001 24.065000000000005
N 28.005 -0.282 29.610000000000003
C 29.056 -0.58 28.78
C 30.245 -0.868 29.525000000000002
C 29.924 -0.56 30.937
C 28.520000000000003 -0.198 30.898000000000003
C 31.586 -1.3370000000000002 28.935
C 30.407000000000004 -0.487 32.339
O 31.558 -0.586 32.797
C 29.115000000000002 -0.111 33.175
C 29.058 -1.2840000000000003 34.103
O 28.531 -2.375 33.922
O 29.56 -0.978 35.268
C 29.754000000000005 -2.038 36.287000000000006
C 27.261000000000003 2.5340000000000003 39.514
C 26.102000000000004 2.141 40.365
C 26.09 1.3450000000000002 41.476
C 27.315000000000005 0.8740000000000001 42.17100000000001
C 24.847 1.235 42.23400000000001
C 24.605 2.21 43.36200000000001
C 23.913000000000004 1.429 44.52100000000001
C 23.963 2.248 45.945
C 24.117 1.463 47.221000000000004
C 22.85 3.29 45.917
C 22.815000000000005 4.266 47.141000000000005
C 22.011 5.568 46.931000000000004
C 22.651 6.867000000000001 47.491
C 21.565000000000005 7.621000000000001 48.307
C 23.252000000000002 7.825000000000001 46.290000000000006
C 22.147000000000002 8.566 45.514
C 22.397 10.102 45.528000000000006
C 21.929 10.612000000000002 44.095000000000006
C 22.999000000000002 10.603 42.980000000000004
C 21.237 12.047 44.187000000000005
H 22.467000000000002 0.529 31.980000000000004
H 23.696 0.8160000000000001 25.543
H 29.793000000000003 -0.7640000000000001 26.764000000000003
H 26.263000000000005 -0.696 34.337
H 23.827 1.112 33.724
H 24.218000000000004 -1.8840000000000001 34.267
H 22.997 -1.39 33.139
H 22.991 -0.7240000000000001 34.771
H 25.469000000000005 1.946 35.06700000000001
H 26.901000000000003 2.237 34.067
H 28.234 1.847 35.49
H 27.279 0.421 36.192
H 19.927 1.584 29.805
H 20.678 0.536 31.001000000000005
H 19.763 -0.138 29.668
H 19.433 1.9020000000000001 27.716
H 19.189 0.275 27.363
H 18.974000000000004 1.535 26.079000000000004
H 26.253 1.6810000000000003 24.692000000000004
H 27.966 -0.748 24.525000000000002
H 24.561 -0.4670000000000001 23.925
H 26.086 -0.978 23.284
H 25.565 0.535 22.794000000000004
H 29.004000000000005 1.5860000000000003 25.765
H 28.349000000000004 1.977 24.15
H 30.78 1.1430000000000002 24.684000000000005
H 29.933 1.134 23.037
H 30.142000000000003 -0.302 24.035000000000004
H 31.6 -2.426 28.91
H 32.389 -0.9310000000000002 29.55
H 31.717 -1.014 27.902000000000005
H 29.351000000000003 0.8040000000000002 33.718
H 28.833000000000002 -2.5330000000000004 36.593
H 30.271000000000004 -1.703 37.18600000000001
H 30.410000000000004 -2.865 36.017
H 27.069000000000003 3.6010000000000004 39.394
H 28.241 2.485 39.989
H 25.156 2.6500000000000004 40.183
H 27.396 1.361 43.143
H 28.214000000000002 1.069 41.586
H 27.271 -0.20000000000000004 42.35600000000001
H 24.834 0.21100000000000002 42.608
H 24.085 1.281 41.45600000000001
H 23.995 3.006 42.93600000000001
H 25.49 2.6880000000000006 43.783
H 24.331 0.449 44.751000000000005
H 22.854 1.341 44.279
H 24.879 2.837 45.912
H 24.858000000000004 1.827 47.934
H 24.256 0.3970000000000001 47.044
H 23.099000000000004 1.595 47.588
H 21.936 2.721 46.086
H 22.810000000000002 3.756 44.93200000000001
H 23.813 4.525 47.49300000000001
H 22.402 3.71 47.983000000000004
H 21.067 5.387 47.44500000000001
H 21.804000000000002 5.709 45.87
H 23.521 6.634000000000001 48.104000000000006
H 21.837 8.677 48.30400000000001
H 21.567000000000004 7.348 49.362
H 20.538000000000004 7.443 47.987
H 23.751 7.184 45.563
H 23.951 8.476 46.815
H 21.138000000000005 8.454 45.910000000000004
H 22.077000000000005 8.186 44.495
H 23.455 10.185000000000002 45.776
H 21.848 10.524000000000001 46.371
H 21.096 10.017 43.718
H 24.032 10.427 43.281
H 23.099000000000004 11.552 42.455
H 22.762 9.823 42.256
H 21.041000000000004 12.246000000000002 45.24
H 20.247 12.030000000000001 43.731
H 21.927 12.721 43.679
Mg 26.065000000000005 50.95300000000001 26.706000000000003
C 23.951 52.215 29.088
C 28.121000000000002 49.839 29.1
C 28.157 49.986 24.246
C 24.066000000000003 52.636 24.178
N 26.141000000000002 51.278000000000006 28.897
C 25.135000000000005 51.71 29.667
C 25.495 51.528 31.230000000000004
C 26.854 50.74300000000001 31.104000000000003
C 27.116000000000003 50.625 29.589
C 28.001000000000005 51.35300000000001 31.933000000000003
C 24.408 50.766 32.04
C 24.787 50.214 33.453
C 24.268 51.007 34.712
O 23.719 52.11 34.698
O 24.641000000000002 50.306 35.88
N 27.93 50.07200000000001 26.682000000000002
C 28.561 49.60000000000001 27.737
C 29.781 48.943000000000005 27.293000000000003
C 29.903 49.05100000000001 25.875000000000004
C 28.628 49.72200000000001 25.539000000000005
C 30.861 48.38000000000001 28.202
C 31.037 48.646 24.939
O 31.095000000000002 49.077 23.791000000000004
C 32.084 47.716 25.444
N 26.12 51.313 24.517000000000003
C 27.055000000000003 50.765 23.75
C 26.752000000000002 50.943000000000005 22.253000000000004
C 25.369 51.586 22.316
C 25.2 51.889 23.758
C 27.773000000000003 51.706 21.396
C 24.299 50.82000000000001 21.58
C 23.638000000000005 51.55200000000001 20.358
N 24.377 52.102000000000004 26.606000000000005
C 23.616 52.655 25.522
C 22.390000000000004 53.257000000000005 25.998
C 22.524 53.063 27.401
C 23.716000000000005 52.38900000000001 27.695000000000004
C 21.202 53.785 25.274
C 21.720000000000002 53.18300000000001 28.591
O 20.533 53.46900000000001 28.808000000000003
C 22.59 52.785000000000004 29.757
C 22.959 54.06 30.547000000000004
O 23.296 55.163000000000004 30.090000000000003
O 22.859 53.764 31.874000000000002
C 23.135000000000005 54.861000000000004 32.855
C 24.213000000000005 51.092000000000006 37.008
C 24.358000000000004 50.357 38.372
C 25.489 50.32600000000001 39.147
C 26.819000000000003 50.83 38.775
C 25.372000000000003 49.44400000000001 40.37100000000001
C 25.554000000000002 47.93500000000001 39.982
C 26.947000000000003 47.28000000000001 40.486
C 26.801 46.108000000000004 41.519000000000005
C 26.799 44.76100000000001 40.68000000000001
C 25.539000000000005 46.252 42.443
C 25.622000000000003 45.723 43.914
C 25.32 46.732000000000006 45.14500000000001
C 26.597000000000005 47.33 45.901
C 26.665 47.038000000000004 47.405
C 26.805000000000003 48.827 45.55500000000001
C 27.300000000000004 49.013 44.098
C 28.364000000000004 50.123 43.871
C 27.962000000000003 51.542 44.435
C 26.926000000000002 52.29900000000001 43.625
C 29.211 52.393 44.631
H 28.807000000000002 49.32300000000001 29.775
H 28.858 49.892 23.414
H 23.446 52.99600000000001 23.355
H 25.654000000000003 52.548 31.578
H 26.675000000000004 49.724000000000004 31.447000000000003
H 28.522 50.52300000000001 32.409
H 27.63 51.99000000000001 32.736000000000004
H 28.681 51.921 31.298
H 24.236000000000004 49.845000000000006 31.483000000000004
H 23.534000000000002 51.402 32.18
H 25.869 50.31100000000001 33.548
H 24.402000000000005 49.199 33.545
H 30.596 48.495 29.253
H 31.799 48.905 28.023000000000003
H 31.042000000000005 47.32300000000001 28.011
H 31.535000000000004 46.89 25.897000000000002
H 32.836 48.009 26.176
H 32.723 47.329 24.651
H 26.668000000000003 49.949000000000005 21.815
H 25.436 52.54200000000001 21.797
H 27.79 51.15500000000001 20.456
H 28.731000000000005 51.77600000000001 21.911
H 27.545 52.763 21.259
H 23.5 50.72800000000001 22.315
H 24.633000000000003 49.85300000000001 21.205
H 24.061000000000003 52.551 20.249000000000002
H 22.576 51.657000000000004 20.582
H 23.656000000000002 51.00200000000001 19.417
H 21.273 53.547000000000004 24.213000000000005
H 21.298 54.869 25.324000000000005
H 20.348000000000003 53.311 25.760000000000005
H 21.961 52.11200000000001 30.340000000000003
H 24.035000000000004 55.444 32.658
H 23.152000000000005 54.540000000000006 33.896
H 22.32 55.57300000000001 32.726
H 23.164 51.370000000000005 36.904
H 24.735 52.04900000000001 36.991
H 23.435000000000002 50.003 38.831
H 26.934000000000005 50.83200000000001 37.691
H 27.435000000000002 50.019 39.163
H 27.154000000000003 51.742 39.269
H 24.409 49.542 40.872
H 26.109000000000005 49.675000000000004 41.141
H 25.546000000000003 47.88600000000001 38.893
H 24.631000000000004 47.434000000000005 40.274
H 27.574000000000005 48.018 40.986000000000004
H 27.513000000000005 46.935 39.621
H 27.663000000000004 46.207 42.179
H 27.840000000000003 44.53 40.454
H 26.335 44.86 39.699
H 26.338000000000005 44.035000000000004 41.349000000000004
H 24.71 45.665000000000006 42.047
H 25.245 47.29600000000001 42.55400000000001
H 26.594 45.278 44.129
H 24.945000000000004 44.870000000000005 43.952
H 24.594000000000005 46.364000000000004 45.87
H 24.867000000000004 47.651 44.773
H 27.498000000000005 46.864 45.502
H 26.505000000000003 47.96600000000001 47.955
H 27.673000000000002 46.681 47.61600000000001
H 25.948 46.264 47.67700000000001
H 27.542000000000005 49.20400000000001 46.264
H 25.854 49.33800000000001 45.704
H 26.411 49.34000000000001 43.559
H 27.643000000000004 48.07300000000001 43.666
H 28.532000000000004 50.217 42.79900000000001
H 29.274000000000004 49.78300000000001 44.36500000000001
H 27.622 51.463 45.467000000000006
H 27.403 52.895 42.847
H 26.347000000000005 52.897 44.329
H 26.228 51.541 43.269000000000005
H 28.882000000000005 53.376000000000005 44.293000000000006
H 30.052000000000003 51.935 44.111000000000004
H 29.556000000000004 52.321 45.663

