280
Bchla 13 -- Bchla 23
Mg 46.269 25.137 28.870000000000005
C 47.26400000000001 27.261000000000003 31.452000000000005
C 45.068 22.98 31.102000000000004
C 46.59300000000001 22.696 26.499000000000002
C 47.586000000000006 27.403 26.575000000000003
N 46.028000000000006 25.204000000000004 31.054
C 46.486000000000004 26.155000000000005 31.859
C 45.989 25.868000000000002 33.322
C 45.393 24.446000000000005 33.19
C 45.51200000000001 24.155 31.697000000000003
C 46.24000000000001 23.308 33.949
C 44.921 26.907 33.894000000000005
C 45.18 27.258 35.319
C 44.051 27.156000000000002 36.333
O 42.867 26.915 35.975
O 44.42900000000001 27.395 37.661
N 45.856 23.126 28.82
C 45.332 22.402 29.858000000000004
C 44.87200000000001 21.106 29.340000000000003
C 45.325 21.036 27.993000000000002
C 46.006 22.318 27.747
C 44.159 20.036 30.227000000000004
C 45.218 19.848 26.99
O 45.636 19.88 25.838
C 44.545 18.61 27.449000000000005
N 46.989000000000004 25.039 26.905
C 47.1 23.902 26.099
C 47.90400000000001 24.250000000000004 24.819
C 47.61600000000001 25.804000000000002 24.632000000000005
C 47.369 26.076 26.143
C 49.389 23.836 24.901
C 46.421 26.187000000000005 23.806000000000004
C 45.034 26.121 24.373000000000005
N 47.05200000000001 27.048000000000002 28.895
C 47.58500000000001 27.842000000000002 27.906
C 48.078 29.117 28.432
C 48.07000000000001 28.906 29.884000000000004
C 47.439 27.616 30.079
C 48.679 30.186 27.673000000000002
C 48.437 29.466 31.179000000000002
O 49.025 30.434 31.487
C 47.84100000000001 28.427000000000003 32.265
C 48.812 28.038000000000004 33.351
O 49.557 27.063000000000002 33.319
O 48.64800000000001 28.911 34.426
C 49.485 28.689 35.619
C 43.349000000000004 27.285000000000004 38.637
C 43.409000000000006 25.981000000000005 39.381
C 42.815000000000005 25.681000000000004 40.59
C 41.973 26.587 41.465
C 42.73400000000001 24.216 41.042
C 41.351000000000006 23.566 40.779
C 40.703 22.851 41.985
C 39.508 23.598 42.67
C 38.403 24.144000000000002 41.69800000000001
C 39.895 24.531 43.902
C 39.162 24.066000000000003 45.19
C 39.581 24.896 46.451
C 39.961 24.135000000000005 47.775
C 38.669 23.802 48.57800000000001
C 41.147 24.756 48.58800000000001
C 42.32300000000001 23.838000000000005 49.00500000000001
C 43.624 24.128000000000004 48.208
C 44.103 22.857 47.389
C 45.589000000000006 22.553 47.793
C 43.991 23.134 45.943
H 44.47200000000001 22.249 31.653000000000002
H 46.682 21.863 25.798000000000002
H 47.892 28.105000000000004 25.797000000000004
H 46.815 25.796 34.03
H 44.379 24.310000000000002 33.566
H 45.81 23.21 34.946
H 47.29 23.544 34.12
H 46.105000000000004 22.373000000000005 33.40400000000001
H 43.906 26.513000000000005 33.84
H 44.837 27.845 33.345
H 45.396 28.325 35.272
H 46.031000000000006 26.791 35.81400000000001
H 44.956 19.415 30.635000000000005
H 43.406000000000006 19.484 29.664
H 43.772000000000006 20.426 31.169000000000004
H 44.702 18.211 28.451000000000004
H 44.791 17.789 26.776
H 43.488 18.66 27.186000000000003
H 47.384 23.696 24.038000000000004
H 48.474000000000004 26.338000000000005 24.224
H 50.125 24.615000000000002 24.702
H 49.61300000000001 22.906 24.378
H 49.632000000000005 23.532000000000004 25.919000000000004
H 46.321000000000005 25.627 22.877000000000002
H 46.56100000000001 27.219 23.484
H 44.874 27.146000000000004 24.707000000000004
H 44.906 25.482 25.247
H 44.336 25.842 23.583
H 48.364000000000004 31.108000000000004 28.162000000000003
H 48.25 30.148000000000003 26.672000000000004
H 49.76500000000001 30.102000000000004 27.699
H 47.00200000000001 28.925 32.751000000000005
H 50.519 28.644 35.276
H 49.254 27.73 36.082
H 49.443 29.398 36.446
H 42.336 27.395 38.248
H 43.487 28.078000000000003 39.372
H 43.853 25.226000000000003 38.732
H 41.272000000000006 26.017000000000003 42.075
H 41.511 27.260000000000005 40.743
H 42.52300000000001 27.262000000000004 42.12
H 43.024 24.201 42.092
H 43.495 23.574 40.598
H 41.444 22.864 39.951
H 40.650000000000006 24.333 40.45000000000001
H 41.474000000000004 22.658 42.731
H 40.22200000000001 21.953 41.596000000000004
H 38.961 22.726000000000003 43.029
H 38.482 25.23 41.749
H 37.376 23.925 41.99100000000001
H 38.534 23.953000000000003 40.63300000000001
H 39.589 25.547000000000004 43.653000000000006
H 40.982 24.5 43.966
H 39.319 23.014000000000003 45.431
H 38.124 24.160000000000004 44.870000000000005
H 38.75500000000001 25.555000000000003 46.719
H 40.449 25.467 46.12200000000001
H 40.47800000000001 23.223 47.47800000000001
H 38.8 22.767 48.89200000000001
H 37.77 23.996 47.99300000000001
H 38.702 24.386000000000003 49.499
H 40.75500000000001 25.112000000000002 49.541000000000004
H 41.45 25.723000000000003 48.186
H 41.963 22.833000000000002 48.785
H 42.519 24.053000000000004 50.05500000000001
H 44.47200000000001 24.364000000000004 48.852000000000004
H 43.54 25.064 47.655
H 43.37 22.066 47.546
H 46.188 23.440000000000005 47.587
H 45.75500000000001 21.582000000000004 47.327000000000005
H 45.494 22.426 48.871
H 43.205 23.842 45.67900000000001
H 43.872 22.196 45.4
H 44.884 23.614 45.544000000000004
Mg -9.051 41.135000000000005 42.305
C -8.305 37.722 41.48700000000001
C -6.395 41.95900000000001 40.063
C -10.135000000000002 44.306 42.063
C -11.946000000000002 40.073 43.784
N -7.597 39.954 40.945
C -7.463000000000001 38.604 40.8
C -6.307 38.235 39.806
C -5.513 39.626000000000005 39.732
C -6.6000000000000005 40.578 40.205
C -4.304 39.713 40.635000000000005
C -6.799 37.608 38.512
C -6.032000000000001 36.37 37.979
C -4.965 36.511 36.796
O -3.9040000000000004 37.125 36.87
O -5.458 35.835 35.714
N -8.298000000000002 42.98100000000001 41.27000000000001
C -7.133000000000001 43.08 40.48100000000001
C -6.947000000000001 44.483 40.091
C -8.039000000000001 45.194 40.728
C -8.91 44.191 41.30200000000001
C -5.896 45.033 39.202
C -8.191000000000003 46.694 40.765
O -7.269000000000001 47.37100000000001 40.369
C -9.416 47.416 41.277
N -10.805 41.95700000000001 42.741
C -10.936000000000002 43.342 42.69200000000001
C -12.323000000000002 43.689 43.238
C -12.785000000000002 42.375 43.968
C -11.75 41.407 43.503
C -12.482 45.006 44.083
C -14.257 41.901 43.766
C -15.093 41.673 44.983
N -9.921 39.324 42.71
C -11.083 39.021 43.398
C -11.161000000000001 37.575 43.68200000000001
C -10.088 37.044 42.866
C -9.417 38.142 42.319
C -12.147000000000002 36.798 44.514
C -9.423 35.768 42.469
O -9.726 34.63 42.68900000000001
C -8.338 36.191 41.48400000000001
C -7.035 35.63000000000001 41.97
O -6.575000000000001 36.04 43.014
O -6.383000000000001 34.711 41.094
C -4.994 34.30500000000001 41.467
C -4.634 36.03 34.58
C -5.307 35.735 33.249
C -6.099000000000001 36.549 32.508
C -6.121 38.040000000000006 32.81
C -6.61 36.072 31.219
C -5.681000000000001 35.691 30.071000000000005
C -6.066000000000001 36.322 28.771000000000004
C -5.458 37.781000000000006 28.507
C -4.608 37.654 27.230000000000004
C -6.644000000000001 38.772000000000006 28.415
C -6.142000000000001 40.209 28.531
C -6.707000000000001 40.993 29.689
C -6.083 42.345 30.143000000000004
C -6.054 42.695 31.636000000000003
C -6.688000000000001 43.522 29.3
C -5.631 44.373 28.618000000000002
C -5.931000000000001 44.76 27.136
C -5.8340000000000005 46.278 26.931000000000004
C -6.247 46.796 25.524000000000004
C -4.347000000000001 46.79200000000001 27.217000000000002
H -5.558 42.253 39.426
H -10.616000000000001 45.285000000000004 42.096000000000004
H -12.779 39.789 44.43000000000001
H -5.573 37.574 40.266000000000005
H -5.285000000000001 39.900000000000006 38.702
H -4.645 39.948 41.643
H -3.6390000000000002 40.46300000000001 40.20700000000001
H -3.691 38.823 40.781
H -6.689 38.376000000000005 37.747
H -7.878 37.478 38.595
H -6.835 35.708 37.654
H -5.4830000000000005 35.835 38.754
H -5.125000000000001 45.43600000000001 39.858
H -6.291000000000001 45.90400000000001 38.679
H -5.425 44.400000000000006 38.449
H -9.416 48.49600000000001 41.131
H -9.437 47.225 42.35
H -10.403 47.092 40.949
H -12.862 43.925 42.32
H -12.529000000000002 42.468 45.02300000000001
H -11.517 45.332 44.47200000000001
H -13.223000000000003 44.867 44.870000000000005
H -12.904 45.79900000000001 43.46600000000001
H -14.251000000000001 40.982 43.18000000000001
H -14.729000000000001 42.611 43.08700000000001
H -15.224000000000002 40.601 45.129000000000005
H -16.08 42.111000000000004 44.835
H -14.721000000000002 42.061 45.931
H -11.731 35.838 44.819
H -13.036000000000001 36.669 43.89600000000001
H -12.463 37.438 45.338
H -8.66 35.877 40.491
H -5.042 33.547 42.24900000000001
H -4.445 35.144000000000005 41.894
H -4.449 33.944 40.595
H -3.796 35.334 34.602
H -4.211 37.029 34.469
H -5.309 34.769 32.745
H -7.080000000000001 38.040000000000006 33.32900000000001
H -6.199 38.534 31.841000000000005
H -5.254 38.383 33.37400000000001
H -7.3260000000000005 36.763 30.775000000000002
H -7.165 35.161 31.446000000000005
H -5.5920000000000005 34.621 29.888000000000005
H -4.708 36.024 30.432000000000002
H -7.152000000000001 36.366 28.697
H -5.700000000000001 35.614 28.028
H -4.703 38.018 29.256
H -3.7200000000000006 38.263 27.400000000000002
H -5.122 38.264 26.487
H -4.246 36.689 26.875
H -7.351000000000001 38.456 29.183000000000003
H -7.053000000000001 38.733 27.405000000000005
H -6.3580000000000005 40.726000000000006 27.596000000000004
H -5.054 40.186 28.602000000000004
H -6.858 40.358000000000004 30.562000000000005
H -7.71 41.278 29.371000000000002
H -5.019 42.195 29.957
H -6.792 43.444 31.922
H -5.133 43.22200000000001 31.883
H -6.097000000000001 41.77300000000001 32.217
H -7.379 44.04800000000001 29.959000000000003
H -7.364000000000001 43.11 28.551000000000002
H -4.675000000000001 43.869 28.761000000000003
H -5.484 45.271 29.217
H -6.948 44.532 26.817
H -5.204 44.27300000000001 26.486
H -6.481 46.793000000000006 27.641
H -6.957 47.617000000000004 25.625
H -6.864 46.098 24.959000000000003
H -5.390000000000001 46.996 24.881
H -3.695 45.92100000000001 27.165
H -4.344 47.17100000000001 28.239
H -4.026 47.56900000000001 26.523000000000003

