280
Bchla 10 -- Bchla 12
Mg 40.74100000000001 8.403 29.699000000000005
C 42.66 10.025000000000002 32.016
C 38.732 7.215 32.077
C 39.179 6.752000000000001 27.363
C 43.283 9.228000000000002 27.341
N 40.793 8.456 31.868
C 41.505 9.392 32.544
C 40.948 9.635 33.92
C 39.85300000000001 8.497 34.002
C 39.827 7.948 32.592
C 40.10000000000001 7.441 35.106
C 40.441 11.181 34.185
C 40.87 11.882 35.483
C 41.239 10.966000000000001 36.692
O 42.389 10.847 37.185
O 40.21 10.24 37.18
N 39.138000000000005 7.344 29.692000000000004
C 38.399 6.917 30.749
C 37.347 6.003 30.376000000000005
C 37.337 6.023000000000001 29.014000000000003
C 38.655 6.628 28.647
C 36.61 5.298 31.500000000000004
C 36.334 5.366 28.045000000000005
O 36.442 5.387 26.841000000000005
C 35.207 4.651 28.730000000000004
N 41.3 7.9190000000000005 27.672000000000004
C 40.367 7.314 26.915
C 40.80200000000001 7.264 25.447000000000003
C 41.951 8.327 25.387000000000004
C 42.232 8.498 26.894
C 41.216 5.861 24.829000000000004
C 41.580000000000005 9.724 24.761000000000003
C 40.484 10.599 25.310000000000002
N 42.572 9.481 29.570000000000004
C 43.553 9.669 28.591
C 44.679 10.463000000000001 29.099000000000004
C 44.364 10.637 30.455000000000002
C 43.08700000000001 10.022 30.648
C 45.856 11.013 28.335000000000004
C 44.788 11.17 31.668000000000003
O 45.805 11.75 32.015
C 43.616 11.012000000000002 32.671
C 44.297 10.490000000000002 33.878
O 44.637 9.318 34.057
O 44.61300000000001 11.499000000000002 34.741
C 45.545 11.240000000000002 35.843
C 40.322 9.61 38.459
C 39.478 10.410000000000002 39.513
C 40.066 11.285 40.35600000000001
C 41.54900000000001 11.746 40.477
C 39.148 11.913 41.409000000000006
C 38.818 10.836000000000002 42.484
C 37.376 10.284000000000002 42.164
C 36.427 10.664 43.31
C 36.623000000000005 9.693000000000001 44.519000000000005
C 34.979 10.71 42.929
C 34.436 12.105 43.364000000000004
C 33.108 11.999000000000002 44.133
C 33.076 12.806 45.469
C 33.07000000000001 14.319000000000003 45.179
C 34.230000000000004 12.507000000000001 46.45700000000001
C 33.805 12.254000000000001 47.882
C 34.574 11.105 48.582
C 35.685 11.55 49.534000000000006
C 36.86 12.239000000000003 48.849000000000004
C 36.138 10.376000000000001 50.43500000000001
H 37.99 7.007 32.851
H 38.681 6.27 26.520000000000003
H 43.95700000000001 9.442 26.508000000000003
H 41.68 9.37 34.683
H 38.87700000000001 8.959 34.149
H 40.485 6.532 34.644
H 39.146 7.206000000000001 35.578
H 40.83 7.874 35.79
H 39.353 11.122 34.153000000000006
H 40.807 11.842000000000002 33.4
H 40.043 12.466 35.886
H 41.65400000000001 12.608 35.268
H 37.229 4.662 32.133
H 35.89 4.51 31.28
H 36.128 6.144 31.99
H 34.675 5.325000000000001 29.401000000000003
H 35.723 3.8010000000000006 29.176000000000002
H 34.378 4.279 28.129000000000005
H 39.885000000000005 7.563 24.938000000000002
H 42.832 7.863000000000001 24.943000000000005
H 41.112 5.086 25.588
H 42.281000000000006 5.839 24.601000000000003
H 40.7 5.56 23.916
H 41.363 9.409 23.740000000000002
H 42.431 10.404 24.739000000000004
H 39.92 10.047 26.063000000000002
H 39.777 10.864 24.524000000000004
H 40.79900000000001 11.500000000000002 25.836000000000002
H 46.782 10.487 28.563000000000002
H 45.972 12.075 28.552
H 45.609 10.771 27.301000000000002
H 43.074000000000005 11.947 32.814
H 46.059 12.145000000000001 36.169
H 46.185 10.382 35.643
H 45.044 10.862 36.734
H 41.27000000000001 9.465 38.977
H 39.788 8.664000000000001 38.377
H 38.42100000000001 10.146 39.563
H 41.653000000000006 12.697000000000001 39.955
H 42.275 11.079 40.012
H 41.80700000000001 11.934000000000001 41.519000000000005
H 38.275 12.421 40.99900000000001
H 39.578 12.797 41.88000000000001
H 38.831 11.405000000000001 43.414
H 39.554 10.037 42.568
H 37.59700000000001 9.220000000000002 42.24
H 36.986 10.391000000000002 41.15200000000001
H 36.693 11.631 43.738
H 35.984 8.812 44.461000000000006
H 36.584 10.21 45.47800000000001
H 37.579 9.171 44.488
H 34.432 9.855 43.326
H 34.791 10.656 41.857
H 34.215 12.588 42.412
H 35.149 12.823000000000002 43.771
H 32.957 10.965 44.44400000000001
H 32.223 12.31 43.577000000000005
H 32.127 12.536000000000001 45.933
H 33.675 14.873000000000001 45.896
H 32.052 14.68 45.32900000000001
H 33.408 14.524 44.163
H 35.025 13.253000000000002 46.45700000000001
H 34.742 11.603000000000002 46.126
H 32.755 12.067 48.107000000000006
H 33.921 13.139000000000001 48.507
H 34.944 10.524000000000001 47.73700000000001
H 33.809 10.505000000000003 49.07600000000001
H 35.291 12.329 50.186
H 37.778 12.02 49.394
H 36.69800000000001 13.313000000000002 48.754
H 36.978 11.8 47.85900000000001
H 37.148 10.51 50.821000000000005
H 35.914 9.417 49.96600000000001
H 35.458 10.381 51.286
Mg 47.671 15.890000000000002 28.454
C 45.34400000000001 15.655000000000001 31.048000000000002
C 49.480000000000004 18.075000000000003 30.515000000000004
C 49.687 16.659 25.896000000000004
C 45.306 14.621000000000002 26.300000000000004
N 47.507000000000005 16.717 30.64
C 46.409000000000006 16.477 31.405
C 46.52 17.235 32.787
C 47.758 18.22 32.48
C 48.27100000000001 17.699 31.127000000000002
C 47.166 19.656 32.251
C 46.904 16.168 33.87700000000001
C 47.20400000000001 16.686 35.31
C 48.31600000000001 16.299 36.239
O 49.14300000000001 15.375 36.104
O 48.287000000000006 17.131 37.333
N 49.43000000000001 17.014 28.320000000000004
C 50.06900000000001 17.827 29.271
C 51.20000000000001 18.391 28.663000000000004
C 51.38300000000001 17.851 27.397
C 50.14500000000001 17.128 27.157
C 52.11500000000001 19.271 29.450000000000003
C 52.515 18.076 26.341
O 52.574000000000005 17.523 25.248000000000005
C 53.788 18.861 26.669
N 47.442 15.767 26.396
C 48.48400000000001 16.017000000000003 25.572
C 48.260000000000005 15.53 24.127000000000002
C 46.801 15.004 24.224
C 46.51 15.008 25.714000000000002
C 48.611000000000004 16.583 23.024
C 46.486000000000004 13.650000000000002 23.531
C 46.966 12.438000000000002 24.21
N 45.75600000000001 15.167000000000002 28.599
C 44.938 14.697 27.686
C 43.69800000000001 14.180000000000001 28.274000000000004
C 43.863 14.561000000000002 29.644
C 45.089 15.181000000000001 29.786
C 42.778 13.18 27.748000000000005
C 43.211000000000006 14.491 30.940000000000005
O 42.192 13.935000000000002 31.282
C 44.145 15.276 31.869
C 43.419 16.438 32.555
O 43.17 17.49 32.026
O 43.04200000000001 16.055 33.82
C 42.339 17.133 34.553
C 49.50200000000001 17.037 38.132000000000005
C 49.561 18.263 39.01400000000001
C 50.65100000000001 18.917 39.569
C 52.126000000000005 18.574 39.316
C 50.51500000000001 20.089000000000002 40.599
C 50.806000000000004 21.538 39.927
C 52.14200000000001 22.186 40.17600000000001
C 53.08700000000001 22.243 38.992
C 54.529 21.795000000000005 39.323
C 53.150000000000006 23.665 38.33
C 52.77100000000001 23.536 36.896
C 52.58700000000001 24.871 36.211
C 53.013000000000005 24.900000000000002 34.764
C 54.11200000000001 25.946 34.523
C 51.83 24.921000000000003 33.76
C 52.077 24.161 32.463
C 50.842 23.450000000000003 31.96
C 50.397 24.029000000000003 30.560000000000002
C 48.86600000000001 23.981 30.309000000000005
C 51.22800000000001 23.381000000000004 29.377
H 50.098 18.647 31.209000000000003
H 50.414 16.702000000000005 25.082000000000004
H 44.812000000000005 14.14 25.454000000000004
H 45.63400000000001 17.83 33.010000000000005
H 48.522 18.246 33.258
H 47.138 20.013 31.222
H 47.84 20.429 32.621
H 46.166 19.793 32.662
H 47.758 15.61 33.494
H 46.098 15.434000000000001 33.898
H 46.248 16.587 35.825
H 47.421 17.732 35.09700000000001
H 51.803 19.483 30.473
H 52.347 20.143 28.837000000000003
H 53.025000000000006 18.677 29.539000000000005
H 53.61800000000001 19.925 26.834000000000003
H 54.61200000000001 18.703 25.973000000000003
H 54.192 18.417 27.579
H 49.00300000000001 14.733 24.135000000000005
H 46.204 15.805 23.788
H 49.400000000000006 17.254 23.362
H 47.726 17.181 22.805
H 48.986000000000004 16.126 22.108000000000004
H 46.997 13.776000000000002 22.577
H 45.423 13.597000000000001 23.295
H 46.251 12.146 24.979
H 47.972 12.581 24.604
H 46.988 11.578 23.54
H 43.376000000000005 12.596 27.048000000000002
H 41.933 13.490000000000002 27.133000000000003
H 42.416 12.613000000000001 28.605
H 44.526 14.581 32.618
H 41.57800000000001 16.677 35.186
H 41.709 17.79 33.953
H 43.02300000000001 17.668 35.211
H 50.335 17.193 37.446
H 49.725 16.096 38.635000000000005
H 48.60600000000001 18.712 39.285
H 52.82 19.021 40.028
H 52.31300000000001 18.945 38.308
H 52.23800000000001 17.491 39.253
H 51.04500000000001 19.916 41.536
H 49.456 20.241000000000003 40.808
H 50.036 22.216 40.294
H 50.716 21.469 38.843
H 52.716 21.608 40.9
H 52.016 23.147 40.674
H 52.732 21.57 38.211
H 54.792 20.96 38.675
H 54.634 21.465 40.357
H 55.297 22.563 39.229
H 54.12400000000001 24.154 38.327
H 52.464000000000006 24.251000000000005 38.941
H 51.77 23.108 36.945
H 53.41100000000001 22.819 36.381
H 52.991 25.651000000000003 36.856
H 51.51400000000001 25.016 36.342
H 53.470000000000006 23.924 34.599
H 54.939 25.416000000000004 34.05
H 54.376 26.489000000000004 35.431
H 53.726 26.752000000000002 33.899
H 51.684 25.986000000000004 33.578
H 50.872 24.625000000000004 34.187
H 52.82 23.364000000000004 32.479
H 52.454 24.890000000000004 31.745
H 50.003 23.46 32.656
H 51.087 22.393 31.863
H 50.69200000000001 25.078 30.597
H 48.584 25.027000000000005 30.189000000000004
H 48.483000000000004 23.592 31.253
H 48.59300000000001 23.266 29.534000000000002
H 51.99300000000001 24.116 29.127000000000002
H 50.656 23.163 28.475
H 51.79600000000001 22.472 29.573

