280
Bchla 19 -- Bchla 23
Mg 26.065000000000005 50.95300000000001 26.706000000000003
C 23.951 52.215 29.088
C 28.121000000000002 49.839 29.1
C 28.157 49.986 24.246
C 24.066000000000003 52.636 24.178
N 26.141000000000002 51.278000000000006 28.897
C 25.135000000000005 51.71 29.667
C 25.495 51.528 31.230000000000004
C 26.854 50.74300000000001 31.104000000000003
C 27.116000000000003 50.625 29.589
C 28.001000000000005 51.35300000000001 31.933000000000003
C 24.408 50.766 32.04
C 24.787 50.214 33.453
C 24.268 51.007 34.712
O 23.719 52.11 34.698
O 24.641000000000002 50.306 35.88
N 27.93 50.07200000000001 26.682000000000002
C 28.561 49.60000000000001 27.737
C 29.781 48.943000000000005 27.293000000000003
C 29.903 49.05100000000001 25.875000000000004
C 28.628 49.72200000000001 25.539000000000005
C 30.861 48.38000000000001 28.202
C 31.037 48.646 24.939
O 31.095000000000002 49.077 23.791000000000004
C 32.084 47.716 25.444
N 26.12 51.313 24.517000000000003
C 27.055000000000003 50.765 23.75
C 26.752000000000002 50.943000000000005 22.253000000000004
C 25.369 51.586 22.316
C 25.2 51.889 23.758
C 27.773000000000003 51.706 21.396
C 24.299 50.82000000000001 21.58
C 23.638000000000005 51.55200000000001 20.358
N 24.377 52.102000000000004 26.606000000000005
C 23.616 52.655 25.522
C 22.390000000000004 53.257000000000005 25.998
C 22.524 53.063 27.401
C 23.716000000000005 52.38900000000001 27.695000000000004
C 21.202 53.785 25.274
C 21.720000000000002 53.18300000000001 28.591
O 20.533 53.46900000000001 28.808000000000003
C 22.59 52.785000000000004 29.757
C 22.959 54.06 30.547000000000004
O 23.296 55.163000000000004 30.090000000000003
O 22.859 53.764 31.874000000000002
C 23.135000000000005 54.861000000000004 32.855
C 24.213000000000005 51.092000000000006 37.008
C 24.358000000000004 50.357 38.372
C 25.489 50.32600000000001 39.147
C 26.819000000000003 50.83 38.775
C 25.372000000000003 49.44400000000001 40.37100000000001
C 25.554000000000002 47.93500000000001 39.982
C 26.947000000000003 47.28000000000001 40.486
C 26.801 46.108000000000004 41.519000000000005
C 26.799 44.76100000000001 40.68000000000001
C 25.539000000000005 46.252 42.443
C 25.622000000000003 45.723 43.914
C 25.32 46.732000000000006 45.14500000000001
C 26.597000000000005 47.33 45.901
C 26.665 47.038000000000004 47.405
C 26.805000000000003 48.827 45.55500000000001
C 27.300000000000004 49.013 44.098
C 28.364000000000004 50.123 43.871
C 27.962000000000003 51.542 44.435
C 26.926000000000002 52.29900000000001 43.625
C 29.211 52.393 44.631
H 28.807000000000002 49.32300000000001 29.775
H 28.858 49.892 23.414
H 23.446 52.99600000000001 23.355
H 25.654000000000003 52.548 31.578
H 26.675000000000004 49.724000000000004 31.447000000000003
H 28.522 50.52300000000001 32.409
H 27.63 51.99000000000001 32.736000000000004
H 28.681 51.921 31.298
H 24.236000000000004 49.845000000000006 31.483000000000004
H 23.534000000000002 51.402 32.18
H 25.869 50.31100000000001 33.548
H 24.402000000000005 49.199 33.545
H 30.596 48.495 29.253
H 31.799 48.905 28.023000000000003
H 31.042000000000005 47.32300000000001 28.011
H 31.535000000000004 46.89 25.897000000000002
H 32.836 48.009 26.176
H 32.723 47.329 24.651
H 26.668000000000003 49.949000000000005 21.815
H 25.436 52.54200000000001 21.797
H 27.79 51.15500000000001 20.456
H 28.731000000000005 51.77600000000001 21.911
H 27.545 52.763 21.259
H 23.5 50.72800000000001 22.315
H 24.633000000000003 49.85300000000001 21.205
H 24.061000000000003 52.551 20.249000000000002
H 22.576 51.657000000000004 20.582
H 23.656000000000002 51.00200000000001 19.417
H 21.273 53.547000000000004 24.213000000000005
H 21.298 54.869 25.324000000000005
H 20.348000000000003 53.311 25.760000000000005
H 21.961 52.11200000000001 30.340000000000003
H 24.035000000000004 55.444 32.658
H 23.152000000000005 54.540000000000006 33.896
H 22.32 55.57300000000001 32.726
H 23.164 51.370000000000005 36.904
H 24.735 52.04900000000001 36.991
H 23.435000000000002 50.003 38.831
H 26.934000000000005 50.83200000000001 37.691
H 27.435000000000002 50.019 39.163
H 27.154000000000003 51.742 39.269
H 24.409 49.542 40.872
H 26.109000000000005 49.675000000000004 41.141
H 25.546000000000003 47.88600000000001 38.893
H 24.631000000000004 47.434000000000005 40.274
H 27.574000000000005 48.018 40.986000000000004
H 27.513000000000005 46.935 39.621
H 27.663000000000004 46.207 42.179
H 27.840000000000003 44.53 40.454
H 26.335 44.86 39.699
H 26.338000000000005 44.035000000000004 41.349000000000004
H 24.71 45.665000000000006 42.047
H 25.245 47.29600000000001 42.55400000000001
H 26.594 45.278 44.129
H 24.945000000000004 44.870000000000005 43.952
H 24.594000000000005 46.364000000000004 45.87
H 24.867000000000004 47.651 44.773
H 27.498000000000005 46.864 45.502
H 26.505000000000003 47.96600000000001 47.955
H 27.673000000000002 46.681 47.61600000000001
H 25.948 46.264 47.67700000000001
H 27.542000000000005 49.20400000000001 46.264
H 25.854 49.33800000000001 45.704
H 26.411 49.34000000000001 43.559
H 27.643000000000004 48.07300000000001 43.666
H 28.532000000000004 50.217 42.79900000000001
H 29.274000000000004 49.78300000000001 44.36500000000001
H 27.622 51.463 45.467000000000006
H 27.403 52.895 42.847
H 26.347000000000005 52.897 44.329
H 26.228 51.541 43.269000000000005
H 28.882000000000005 53.376000000000005 44.293000000000006
H 30.052000000000003 51.935 44.111000000000004
H 29.556000000000004 52.321 45.663
Mg -9.051 41.135000000000005 42.305
C -8.305 37.722 41.48700000000001
C -6.395 41.95900000000001 40.063
C -10.135000000000002 44.306 42.063
C -11.946000000000002 40.073 43.784
N -7.597 39.954 40.945
C -7.463000000000001 38.604 40.8
C -6.307 38.235 39.806
C -5.513 39.626000000000005 39.732
C -6.6000000000000005 40.578 40.205
C -4.304 39.713 40.635000000000005
C -6.799 37.608 38.512
C -6.032000000000001 36.37 37.979
C -4.965 36.511 36.796
O -3.9040000000000004 37.125 36.87
O -5.458 35.835 35.714
N -8.298000000000002 42.98100000000001 41.27000000000001
C -7.133000000000001 43.08 40.48100000000001
C -6.947000000000001 44.483 40.091
C -8.039000000000001 45.194 40.728
C -8.91 44.191 41.30200000000001
C -5.896 45.033 39.202
C -8.191000000000003 46.694 40.765
O -7.269000000000001 47.37100000000001 40.369
C -9.416 47.416 41.277
N -10.805 41.95700000000001 42.741
C -10.936000000000002 43.342 42.69200000000001
C -12.323000000000002 43.689 43.238
C -12.785000000000002 42.375 43.968
C -11.75 41.407 43.503
C -12.482 45.006 44.083
C -14.257 41.901 43.766
C -15.093 41.673 44.983
N -9.921 39.324 42.71
C -11.083 39.021 43.398
C -11.161000000000001 37.575 43.68200000000001
C -10.088 37.044 42.866
C -9.417 38.142 42.319
C -12.147000000000002 36.798 44.514
C -9.423 35.768 42.469
O -9.726 34.63 42.68900000000001
C -8.338 36.191 41.48400000000001
C -7.035 35.63000000000001 41.97
O -6.575000000000001 36.04 43.014
O -6.383000000000001 34.711 41.094
C -4.994 34.30500000000001 41.467
C -4.634 36.03 34.58
C -5.307 35.735 33.249
C -6.099000000000001 36.549 32.508
C -6.121 38.040000000000006 32.81
C -6.61 36.072 31.219
C -5.681000000000001 35.691 30.071000000000005
C -6.066000000000001 36.322 28.771000000000004
C -5.458 37.781000000000006 28.507
C -4.608 37.654 27.230000000000004
C -6.644000000000001 38.772000000000006 28.415
C -6.142000000000001 40.209 28.531
C -6.707000000000001 40.993 29.689
C -6.083 42.345 30.143000000000004
C -6.054 42.695 31.636000000000003
C -6.688000000000001 43.522 29.3
C -5.631 44.373 28.618000000000002
C -5.931000000000001 44.76 27.136
C -5.8340000000000005 46.278 26.931000000000004
C -6.247 46.796 25.524000000000004
C -4.347000000000001 46.79200000000001 27.217000000000002
H -5.558 42.253 39.426
H -10.616000000000001 45.285000000000004 42.096000000000004
H -12.779 39.789 44.43000000000001
H -5.573 37.574 40.266000000000005
H -5.285000000000001 39.900000000000006 38.702
H -4.645 39.948 41.643
H -3.6390000000000002 40.46300000000001 40.20700000000001
H -3.691 38.823 40.781
H -6.689 38.376000000000005 37.747
H -7.878 37.478 38.595
H -6.835 35.708 37.654
H -5.4830000000000005 35.835 38.754
H -5.125000000000001 45.43600000000001 39.858
H -6.291000000000001 45.90400000000001 38.679
H -5.425 44.400000000000006 38.449
H -9.416 48.49600000000001 41.131
H -9.437 47.225 42.35
H -10.403 47.092 40.949
H -12.862 43.925 42.32
H -12.529000000000002 42.468 45.02300000000001
H -11.517 45.332 44.47200000000001
H -13.223000000000003 44.867 44.870000000000005
H -12.904 45.79900000000001 43.46600000000001
H -14.251000000000001 40.982 43.18000000000001
H -14.729000000000001 42.611 43.08700000000001
H -15.224000000000002 40.601 45.129000000000005
H -16.08 42.111000000000004 44.835
H -14.721000000000002 42.061 45.931
H -11.731 35.838 44.819
H -13.036000000000001 36.669 43.89600000000001
H -12.463 37.438 45.338
H -8.66 35.877 40.491
H -5.042 33.547 42.24900000000001
H -4.445 35.144000000000005 41.894
H -4.449 33.944 40.595
H -3.796 35.334 34.602
H -4.211 37.029 34.469
H -5.309 34.769 32.745
H -7.080000000000001 38.040000000000006 33.32900000000001
H -6.199 38.534 31.841000000000005
H -5.254 38.383 33.37400000000001
H -7.3260000000000005 36.763 30.775000000000002
H -7.165 35.161 31.446000000000005
H -5.5920000000000005 34.621 29.888000000000005
H -4.708 36.024 30.432000000000002
H -7.152000000000001 36.366 28.697
H -5.700000000000001 35.614 28.028
H -4.703 38.018 29.256
H -3.7200000000000006 38.263 27.400000000000002
H -5.122 38.264 26.487
H -4.246 36.689 26.875
H -7.351000000000001 38.456 29.183000000000003
H -7.053000000000001 38.733 27.405000000000005
H -6.3580000000000005 40.726000000000006 27.596000000000004
H -5.054 40.186 28.602000000000004
H -6.858 40.358000000000004 30.562000000000005
H -7.71 41.278 29.371000000000002
H -5.019 42.195 29.957
H -6.792 43.444 31.922
H -5.133 43.22200000000001 31.883
H -6.097000000000001 41.77300000000001 32.217
H -7.379 44.04800000000001 29.959000000000003
H -7.364000000000001 43.11 28.551000000000002
H -4.675000000000001 43.869 28.761000000000003
H -5.484 45.271 29.217
H -6.948 44.532 26.817
H -5.204 44.27300000000001 26.486
H -6.481 46.793000000000006 27.641
H -6.957 47.617000000000004 25.625
H -6.864 46.098 24.959000000000003
H -5.390000000000001 46.996 24.881
H -3.695 45.92100000000001 27.165
H -4.344 47.17100000000001 28.239
H -4.026 47.56900000000001 26.523000000000003

