280
Bchla 7 -- Bchla 17
Mg 26.07 0.323 29.175000000000004
C 27.93 0.003 32.172
C 23.237000000000002 0.373 31.222
C 24.2 0.735 26.508000000000003
C 28.899000000000004 -0.559 27.356
N 25.688 0.233 31.426
C 26.587 0.253 32.449
C 25.993 0.251 33.868
C 24.435000000000002 0.24800000000000003 33.454
C 24.487000000000002 0.27 31.955
C 23.634 -1.0230000000000001 33.943
C 26.399000000000004 1.5090000000000001 34.703
C 27.306000000000004 1.4780000000000002 35.927
C 27.075 2.414 37.106
O 26.799 3.589 37.103
O 27.375000000000004 1.786 38.263
N 24.004000000000005 0.606 28.874
C 22.986 0.524 29.835
C 21.724 0.613 29.135000000000005
C 21.973 0.8800000000000001 27.791
C 23.443 0.8040000000000002 27.683
C 20.468000000000004 0.6480000000000001 29.937000000000005
C 21.028 1.0820000000000003 26.607000000000003
O 21.392000000000003 1.281 25.444
C 19.585 1.1840000000000002 26.910000000000004
N 26.429000000000002 0.025000000000000005 27.200000000000003
C 25.570000000000004 0.4620000000000001 26.230000000000004
C 26.301000000000002 0.604 24.852000000000004
C 27.706 0.101 25.157000000000004
C 27.680000000000003 -0.24400000000000002 26.672000000000004
C 25.559000000000005 -0.10800000000000001 23.674
C 28.733000000000004 1.1830000000000003 24.79
C 29.963 0.7730000000000001 24.065000000000005
N 28.005 -0.282 29.610000000000003
C 29.056 -0.58 28.78
C 30.245 -0.868 29.525000000000002
C 29.924 -0.56 30.937
C 28.520000000000003 -0.198 30.898000000000003
C 31.586 -1.3370000000000002 28.935
C 30.407000000000004 -0.487 32.339
O 31.558 -0.586 32.797
C 29.115000000000002 -0.111 33.175
C 29.058 -1.2840000000000003 34.103
O 28.531 -2.375 33.922
O 29.56 -0.978 35.268
C 29.754000000000005 -2.038 36.287000000000006
C 27.261000000000003 2.5340000000000003 39.514
C 26.102000000000004 2.141 40.365
C 26.09 1.3450000000000002 41.476
C 27.315000000000005 0.8740000000000001 42.17100000000001
C 24.847 1.235 42.23400000000001
C 24.605 2.21 43.36200000000001
C 23.913000000000004 1.429 44.52100000000001
C 23.963 2.248 45.945
C 24.117 1.463 47.221000000000004
C 22.85 3.29 45.917
C 22.815000000000005 4.266 47.141000000000005
C 22.011 5.568 46.931000000000004
C 22.651 6.867000000000001 47.491
C 21.565000000000005 7.621000000000001 48.307
C 23.252000000000002 7.825000000000001 46.290000000000006
C 22.147000000000002 8.566 45.514
C 22.397 10.102 45.528000000000006
C 21.929 10.612000000000002 44.095000000000006
C 22.999000000000002 10.603 42.980000000000004
C 21.237 12.047 44.187000000000005
H 22.467000000000002 0.529 31.980000000000004
H 23.696 0.8160000000000001 25.543
H 29.793000000000003 -0.7640000000000001 26.764000000000003
H 26.263000000000005 -0.696 34.337
H 23.827 1.112 33.724
H 24.218000000000004 -1.8840000000000001 34.267
H 22.997 -1.39 33.139
H 22.991 -0.7240000000000001 34.771
H 25.469000000000005 1.946 35.06700000000001
H 26.901000000000003 2.237 34.067
H 28.234 1.847 35.49
H 27.279 0.421 36.192
H 19.927 1.584 29.805
H 20.678 0.536 31.001000000000005
H 19.763 -0.138 29.668
H 19.433 1.9020000000000001 27.716
H 19.189 0.275 27.363
H 18.974000000000004 1.535 26.079000000000004
H 26.253 1.6810000000000003 24.692000000000004
H 27.966 -0.748 24.525000000000002
H 24.561 -0.4670000000000001 23.925
H 26.086 -0.978 23.284
H 25.565 0.535 22.794000000000004
H 29.004000000000005 1.5860000000000003 25.765
H 28.349000000000004 1.977 24.15
H 30.78 1.1430000000000002 24.684000000000005
H 29.933 1.134 23.037
H 30.142000000000003 -0.302 24.035000000000004
H 31.6 -2.426 28.91
H 32.389 -0.9310000000000002 29.55
H 31.717 -1.014 27.902000000000005
H 29.351000000000003 0.8040000000000002 33.718
H 28.833000000000002 -2.5330000000000004 36.593
H 30.271000000000004 -1.703 37.18600000000001
H 30.410000000000004 -2.865 36.017
H 27.069000000000003 3.6010000000000004 39.394
H 28.241 2.485 39.989
H 25.156 2.6500000000000004 40.183
H 27.396 1.361 43.143
H 28.214000000000002 1.069 41.586
H 27.271 -0.20000000000000004 42.35600000000001
H 24.834 0.21100000000000002 42.608
H 24.085 1.281 41.45600000000001
H 23.995 3.006 42.93600000000001
H 25.49 2.6880000000000006 43.783
H 24.331 0.449 44.751000000000005
H 22.854 1.341 44.279
H 24.879 2.837 45.912
H 24.858000000000004 1.827 47.934
H 24.256 0.3970000000000001 47.044
H 23.099000000000004 1.595 47.588
H 21.936 2.721 46.086
H 22.810000000000002 3.756 44.93200000000001
H 23.813 4.525 47.49300000000001
H 22.402 3.71 47.983000000000004
H 21.067 5.387 47.44500000000001
H 21.804000000000002 5.709 45.87
H 23.521 6.634000000000001 48.104000000000006
H 21.837 8.677 48.30400000000001
H 21.567000000000004 7.348 49.362
H 20.538000000000004 7.443 47.987
H 23.751 7.184 45.563
H 23.951 8.476 46.815
H 21.138000000000005 8.454 45.910000000000004
H 22.077000000000005 8.186 44.495
H 23.455 10.185000000000002 45.776
H 21.848 10.524000000000001 46.371
H 21.096 10.017 43.718
H 24.032 10.427 43.281
H 23.099000000000004 11.552 42.455
H 22.762 9.823 42.256
H 21.041000000000004 12.246000000000002 45.24
H 20.247 12.030000000000001 43.731
H 21.927 12.721 43.679
Mg 29.464000000000002 59.145 41.038
C 26.578 57.38900000000001 40.289
C 31.349 56.531000000000006 39.782
C 32.15 61.189 41.086
C 27.354000000000003 61.82000000000001 41.949
N 28.992000000000004 57.292 39.871
C 27.772000000000002 56.748000000000005 39.893
C 27.779000000000003 55.38900000000001 39.127
C 29.329 54.99700000000001 39.218
C 29.967000000000002 56.344 39.732
C 29.581 53.727000000000004 40.066
C 27.374000000000002 55.594 37.685
C 26.460000000000004 54.527 37.103
C 26.578 54.02100000000001 35.616
O 26.517 52.865 35.253
O 26.748000000000005 55.106 34.848
N 31.533 58.788 40.650000000000006
C 32.11 57.714 40.08400000000001
C 33.515 57.958 40.033
C 33.806 59.24700000000001 40.574000000000005
C 32.479 59.816 40.84
C 34.477 56.891 39.661
C 35.162 59.858000000000004 40.593
O 36.13 59.214 40.224000000000004
C 35.397 61.264 41.132
N 29.713 61.282 41.565000000000005
C 30.944000000000003 61.846 41.414
C 30.859000000000005 63.33400000000001 41.52
C 29.292 63.522 41.793000000000006
C 28.699000000000005 62.136 41.849
C 31.799 63.962 42.566
C 28.518000000000004 64.48 40.783
C 27.642000000000003 65.63900000000001 41.314
N 27.437000000000005 59.547 41.14
C 26.744000000000003 60.627 41.589
C 25.412 60.28 41.819
C 25.254000000000005 58.98400000000001 41.348
C 26.489000000000004 58.611000000000004 40.88
C 24.327000000000005 61.25500000000001 42.363
C 24.372000000000003 57.928 41.168000000000006
O 23.159 57.918000000000006 41.346
C 25.149000000000004 56.755 40.397
C 25.258000000000003 55.582 41.187
O 25.993 55.31600000000001 42.141000000000005
O 24.334000000000003 54.682 40.665000000000006
C 24.175000000000004 53.35900000000001 41.24400000000001
C 27.286 54.743 33.541
C 27.201000000000004 55.98 32.679
C 27.487 56.09100000000001 31.367000000000004
C 27.642000000000003 54.99700000000001 30.343
C 27.831000000000003 57.414 30.802
C 29.234000000000005 57.897 31.172000000000004
C 29.900000000000002 58.63 29.951000000000004
C 31.150000000000002 57.87500000000001 29.42
C 30.909 57.732 27.875
C 32.502 58.702000000000005 29.749
C 33.738 57.79600000000001 29.593000000000004
C 34.432 57.44 30.908
C 34.689 55.910000000000004 31.158
C 33.435 55.077 31.692
C 35.909 55.83400000000001 32.119
C 36.959 54.842000000000006 31.612000000000002
C 37.604 55.366 30.299
C 37.293000000000006 54.33800000000001 29.090000000000003
C 38.425 53.265 28.914000000000005
C 37.182 55.138 27.798
H 31.952 55.655 39.535
H 32.919 61.96200000000001 41.153000000000006
H 26.805000000000003 62.682 42.334
H 27.083 54.71900000000001 39.631
H 29.817 54.888000000000005 38.25
H 28.669000000000004 53.37400000000001 40.547
H 30.340000000000003 53.938 40.82
H 30.006000000000004 52.972 39.405
H 28.168000000000003 55.748 36.954
H 26.927000000000003 56.588 37.67
H 25.440000000000005 54.851 37.309
H 26.664 53.691 37.772
H 34.813 56.525 40.631
H 35.297 57.28300000000001 39.059
H 34.022 56.083 39.088
H 35.106 61.939 40.327
H 36.479 61.373 41.202
H 34.844 61.421 42.058
H 31.143 63.61000000000001 40.505
H 29.109 64.048 42.73
H 32.596 64.443 41.998
H 32.191 63.234 43.277
H 31.269 64.751 43.099
H 27.851 63.867000000000004 40.17700000000001
H 29.188000000000002 65.018 40.11200000000001
H 26.690000000000005 65.116 41.404
H 27.544000000000004 66.417 40.55800000000001
H 27.779000000000003 66.009 42.33
H 24.062 61.952 41.569
H 24.634 61.907 43.181000000000004
H 23.429 60.71200000000001 42.659000000000006
H 24.616000000000003 56.618 39.456
H 23.133 53.074000000000005 41.102
H 24.529 53.25500000000001 42.27
H 24.724000000000004 52.659000000000006 40.614
H 26.795000000000005 53.95600000000001 32.968
H 28.339 54.461000000000006 33.557
H 27.135 56.889 33.277
H 26.695 54.931 29.806000000000004
H 27.834000000000003 54.05100000000001 30.849000000000004
H 28.427000000000003 55.144000000000005 29.601000000000003
H 27.097 58.161 31.103000000000005
H 27.693000000000005 57.369 29.722000000000005
H 29.805 57.063 31.582000000000004
H 29.259000000000004 58.57300000000001 32.027
H 30.19 59.606 30.340000000000003
H 29.212000000000003 58.907 29.152000000000005
H 31.139000000000003 56.854000000000006 29.800000000000004
H 29.965000000000003 57.196 27.771000000000004
H 31.776 57.213 27.468000000000004
H 30.822000000000003 58.727000000000004 27.439
H 32.362 59.035000000000004 30.777
H 32.544 59.535 29.047
H 34.437 58.43 29.049
H 33.49600000000001 56.867000000000004 29.077
H 33.738 57.685 31.712000000000003
H 35.243 58.15200000000001 31.06
H 34.932 55.43600000000001 30.208
H 33.758 54.374 32.46000000000001
H 32.928 54.621 30.842
H 32.758 55.736 32.235
H 35.486 55.470000000000006 33.056
H 36.541 56.702000000000005 32.306
H 36.673 53.790000000000006 31.572
H 37.827 54.90500000000001 32.268
H 38.688 55.432 30.396
H 37.33 56.375 29.993
H 36.322 53.851000000000006 29.182000000000002
H 39.065 53.293 29.796
H 39.059 53.357 28.033
H 37.980000000000004 52.28000000000001 28.779000000000003
H 36.111 55.29600000000001 27.675
H 37.555 54.538000000000004 26.968
H 37.607 56.13300000000001 27.929

