280
Bchla 16 -- Bchla 27
Mg 41.128 41.857 26.986000000000004
C 40.12700000000001 44.179 29.640000000000004
C 41.31 39.41 29.487000000000002
C 42.362 39.821 24.759
C 40.706 44.363 24.683
N 40.967 41.85000000000001 29.292
C 40.42100000000001 42.87500000000001 30.173000000000002
C 40.337 42.444 31.653000000000002
C 40.946 40.93 31.521000000000004
C 41.116 40.672 30.011000000000003
C 42.224 40.714 32.30800000000001
C 38.879000000000005 42.588 32.185
C 38.608 41.92700000000001 33.503
C 37.806 42.656 34.558
O 36.63600000000001 42.977 34.464
O 38.578 42.832 35.656
N 41.790000000000006 39.861 27.081
C 41.782 39.01 28.192000000000004
C 42.266000000000005 37.687 27.802000000000003
C 42.58400000000001 37.776 26.385000000000005
C 42.256 39.192 25.977
C 42.314 36.43 28.746000000000002
C 43.165000000000006 36.784 25.443
O 43.357 36.978 24.250000000000004
C 43.446 35.412 25.898000000000003
N 41.39 42.02100000000001 25.045
C 42.033 41.096 24.33
C 42.18900000000001 41.492 22.843
C 41.281 42.702 22.769
C 41.150000000000006 43.123 24.284
C 43.629 41.801 22.450000000000003
C 39.923 42.668 22.117
C 38.933 41.74 22.788
N 40.641 43.879000000000005 27.096
C 40.411 44.754 26.019000000000002
C 40.010000000000005 46.038 26.539
C 39.836 45.769000000000005 27.921
C 40.241 44.456 28.228000000000005
C 39.646 47.283 25.784000000000002
C 39.341 46.432 29.167000000000005
O 38.79 47.540000000000006 29.341000000000005
C 39.558 45.418000000000006 30.288000000000004
C 40.418000000000006 46.035 31.393000000000004
O 41.619 46.436 31.367000000000004
O 39.694 45.959 32.546
C 40.382 46.431 33.769
C 37.972 43.741 36.706
C 37.574 42.791 37.816
C 37.692 43.059000000000005 39.146
C 38.107 44.419 39.656000000000006
C 37.27 41.983 40.20400000000001
C 38.272 40.807 40.183
C 37.583 39.425 40.324
C 38.098 38.728 41.57900000000001
C 37.744 37.244 41.398
C 37.615 39.345 42.96
C 38.697 40.124 43.707
C 39.469 39.301 44.73500000000001
C 38.609 38.788 45.914
C 39.059 39.431 47.20100000000001
C 38.555 37.19 45.934
C 37.278000000000006 36.605 46.585
C 36.291 36.027 45.586
C 34.878 36.459 45.868
C 34.301 37.107 44.649
C 34.079 35.17400000000001 46.352000000000004
H 41.17 38.614 30.220000000000002
H 42.832 39.178 24.012
H 40.576 45.214 24.011
H 40.932 43.17900000000001 32.195
H 40.172 40.215 31.8
H 42.06 39.902 33.017
H 42.405 41.638000000000005 32.85600000000001
H 43.161 40.691 31.752000000000002
H 38.23700000000001 42.28000000000001 31.359
H 38.658 43.649 32.302
H 39.473 41.65400000000001 34.107
H 37.991 41.044 33.339
H 41.633 35.714 28.285
H 41.971 36.635 29.760000000000005
H 43.348000000000006 36.085 28.737
H 43.925 35.361 26.876
H 44.12500000000001 35.027 25.138
H 42.456 34.986 26.058000000000003
H 41.847 40.643 22.251000000000005
H 41.737 43.523 22.215000000000003
H 43.814 41.38100000000001 21.462
H 44.334 41.357 23.152000000000005
H 43.75500000000001 42.873000000000005 22.294
H 40.06700000000001 42.457 21.057000000000002
H 39.412000000000006 43.624 22.230000000000004
H 38.398 41.123000000000005 22.067
H 38.142 42.27600000000001 23.313000000000002
H 39.38000000000001 41.041 23.495000000000005
H 38.67 47.638 26.114
H 39.6 47.281000000000006 24.695
H 40.393 48.035 26.039
H 38.593 45.21900000000001 30.755
H 40.75500000000001 45.577 34.334
H 39.563 47.0 34.209
H 41.153000000000006 47.172 33.554
H 37.073 44.294000000000004 36.435
H 38.636 44.543 37.026
H 37.258 41.783 37.548
H 37.852 45.182 38.92
H 39.181 44.437 39.841
H 37.575 44.6 40.59
H 36.238 41.705 39.993
H 37.241 42.487 41.171
H 38.955 40.972 41.016000000000005
H 38.875 40.753 39.276
H 37.849 38.959 39.376
H 36.49900000000001 39.533 40.369
H 39.186 38.801 41.592
H 36.655 37.23 41.443000000000005
H 38.13000000000001 36.814 42.322
H 38.217 36.814 40.516
H 37.123 38.539 43.505
H 36.764 39.999 42.76800000000001
H 38.214 40.962 44.21
H 39.396 40.535 42.980000000000004
H 40.363 39.85300000000001 45.027
H 39.878 38.503 44.115
H 37.558 38.994 45.71000000000001
H 39.366 38.678 47.927
H 38.265 40.061 47.602000000000004
H 39.869 40.121 46.963
H 39.413 36.793 46.475
H 38.617 36.954 44.87100000000001
H 36.802 37.453 47.078
H 37.413 35.823 47.332
H 36.381 34.948 45.718
H 36.52 36.229 44.54
H 34.71600000000001 37.315 46.523
H 34.801 38.012 44.303
H 33.254000000000005 37.348 44.831
H 34.363 36.432 43.796
H 33.919 34.388 45.614
H 33.095 35.481 46.706
H 34.47200000000001 34.646 47.221000000000004
Mg -5.21 24.541000000000004 27.195
C -3.5410000000000004 26.384000000000004 29.693000000000005
C -6.38 22.499 29.726
C -6.783000000000001 22.591 24.876000000000005
C -3.732 26.393000000000004 24.817
N -5.009 24.475 29.485
C -4.393000000000001 25.403000000000002 30.316000000000003
C -4.7780000000000005 25.157000000000004 31.761
C -5.380000000000001 23.705 31.74
C -5.612 23.568 30.252
C -4.487 22.583 32.401
C -5.828000000000001 26.148000000000003 32.285
C -5.66 26.572 33.748
C -5.928 25.52 34.86
O -5.178000000000001 24.808000000000003 35.42
O -7.247 25.651000000000003 35.24
N -6.480000000000001 22.853 27.281
C -6.765 22.191000000000003 28.426000000000002
C -7.522000000000001 21.026000000000003 28.101000000000003
C -7.817 21.045 26.694
C -6.985000000000001 22.142 26.232000000000003
C -7.947000000000001 20.031 29.145000000000003
C -8.63 20.1 25.809
O -8.907 20.385000000000005 24.623000000000005
C -9.087 18.724 26.28
N -5.32 24.558 25.17
C -5.973000000000001 23.615 24.382
C -5.699 23.91 22.943
C -4.772 25.174000000000003 22.837
C -4.608 25.452000000000005 24.340000000000003
C -5.2490000000000006 22.679000000000002 22.100000000000005
C -5.373 26.38 22.083
C -4.944 26.457 20.605000000000004
N -3.895 26.018000000000004 27.181
C -3.3810000000000002 26.779000000000003 26.132000000000005
C -2.501 27.909000000000002 26.61
C -2.55 27.715 28.000000000000004
C -3.426 26.623 28.301
C -1.787 28.935 25.749
C -2.033 28.274000000000004 29.24
O -1.249 29.202000000000005 29.443
C -2.781 27.475000000000005 30.39
C -1.665 26.984 31.333000000000002
O -0.581 26.549 31.003000000000004
O -2.033 27.276000000000003 32.645
C -1.033 26.854 33.626
C -7.564000000000001 24.944000000000003 36.511
C -8.753 24.01 36.285
C -9.206 23.034 37.178
C -8.642 22.672000000000004 38.542
C -10.439 22.214 36.802
C -11.605 22.545 37.716
C -12.141000000000002 21.385 38.532
C -12.837 20.297 37.695
C -14.376 20.604 37.604
C -12.473 18.878 38.236
C -11.075 18.359 37.854
C -10.252 18.044000000000004 39.133
C -8.796 17.661 38.813
C -7.707000000000001 18.676 39.491
C -8.488 16.152 39.028
C -7.214 15.591 38.264
C -6.276000000000001 14.932 39.298
C -4.745 15.127000000000002 38.87
C -3.893 13.923000000000002 39.358
C -4.266 16.497 39.329
H -6.796000000000001 21.923 30.555000000000003
H -7.246000000000001 22.043 24.053000000000004
H -3.2010000000000005 26.863 23.987
H -3.9420000000000006 25.157000000000004 32.46000000000001
H -6.324000000000001 23.596 32.274
H -3.587 22.935 32.906
H -4.09 21.819000000000003 31.733000000000004
H -5.035 22.071 33.19200000000001
H -6.837 25.751000000000005 32.176
H -5.779 27.088 31.735000000000003
H -6.234000000000001 27.469 33.98
H -4.65 26.933000000000003 33.941
H -7.011000000000001 19.854 29.675000000000004
H -8.293 19.055 28.805
H -8.678 20.404 29.862000000000002
H -8.257 18.167 26.715
H -9.457 18.282 25.355000000000004
H -9.853000000000002 18.807000000000002 27.051
H -6.6690000000000005 24.060000000000002 22.468
H -3.772 24.984 22.445
H -5.161 21.829 22.777
H -4.267000000000001 22.885000000000005 21.675
H -6.057000000000001 22.545 21.38
H -5.165000000000001 27.269000000000002 22.678000000000004
H -6.454 26.277000000000005 21.986000000000004
H -4.658 25.466 20.252
H -4.057 27.051 20.384
H -5.81 26.77 20.021
H -2.5470000000000006 29.614000000000004 25.362000000000002
H -1.261 28.538 24.881
H -1.105 29.457000000000004 26.42
H -3.5050000000000003 28.048000000000002 30.969
H -1.16 25.838 34.001000000000005
H -1.124 27.594 34.421
H 0.018 26.831 33.338
H -7.981 25.702 37.173
H -6.805 24.425000000000004 37.095
H -9.302 24.101 35.348
H -8.292 21.656 38.362
H -9.496 22.631 39.219
H -7.753000000000001 23.206000000000003 38.876
H -10.150000000000002 21.164 36.741
H -10.782 22.469 35.8
H -12.41 22.862000000000002 37.052
H -11.396 23.503000000000004 38.19200000000001
H -12.859 21.829 39.222
H -11.377000000000002 20.940000000000005 39.17
H -12.531 20.202000000000005 36.653000000000006
H -14.660000000000002 21.651000000000003 37.502
H -14.864 20.149000000000004 38.46600000000001
H -14.707 20.129 36.681
H -13.228 18.159 37.915
H -12.479 19.016 39.317
H -10.479000000000001 19.056 37.265
H -11.241000000000001 17.402 37.358
H -10.608000000000002 17.17 39.678
H -10.286 18.836 39.881
H -8.582 17.67 37.744
H -7.003 18.174 40.154
H -8.335 19.35 40.074
H -7.156000000000001 19.274 38.765
H -9.352 15.546 38.758
H -8.252000000000002 16.061 40.089
H -6.637 16.369 37.763
H -7.396000000000001 14.835000000000003 37.501
H -6.461000000000001 13.864 39.412000000000006
H -6.274000000000001 15.379000000000001 40.292
H -4.618 15.064000000000002 37.789
H -4.547 13.094000000000001 39.626000000000005
H -3.447 14.255000000000003 40.295
H -3.045 13.638000000000002 38.736
H -3.37 16.434 39.947
H -4.981 16.928 40.031
H -3.993 17.069000000000003 38.442

