280
Bchla 6 -- Bchla 7
Mg 17.054000000000002 -2.2880000000000003 27.750000000000004
C 16.548 -0.354 30.726
C 18.852000000000004 -4.529 29.657
C 18.013000000000005 -3.67 24.949000000000005
C 15.392000000000001 0.222 26.033000000000005
N 17.886 -2.277 29.962
C 17.412 -1.4370000000000003 30.933
C 17.782 -2.001 32.331
C 18.585 -3.327 31.996000000000002
C 18.484 -3.4240000000000004 30.43
C 20.102000000000004 -3.411 32.453
C 16.578 -2.2860000000000005 33.268
C 16.684 -1.8500000000000003 34.68600000000001
C 18.053 -1.523 35.396
O 18.778 -0.591 35.104
O 18.548000000000002 -2.518 36.236
N 18.305 -3.918 27.31
C 18.859 -4.819 28.219
C 19.641 -5.825 27.475000000000005
C 19.293 -5.632000000000001 26.083
C 18.516 -4.371 26.058000000000003
C 20.531000000000002 -6.871 28.075000000000003
C 19.639 -6.463000000000001 24.825
O 19.045 -6.384 23.729
C 20.630000000000003 -7.546 24.977
N 16.791 -1.754 25.844000000000005
C 17.373000000000005 -2.499 24.842
C 16.845 -2.07 23.445
C 15.703 -1.041 23.862000000000002
C 15.953 -0.843 25.347000000000005
C 17.88 -1.479 22.403
C 14.265 -1.461 23.602000000000004
C 13.502 -0.619 22.558000000000003
N 15.981000000000002 -0.538 28.255
C 15.386 0.394 27.438000000000002
C 14.878 1.514 28.241
C 15.273000000000001 1.207 29.531
C 15.938 -0.039 29.497
C 14.172000000000002 2.7510000000000003 27.793
C 15.189000000000002 1.6990000000000003 30.859000000000005
O 14.574 2.682 31.362000000000002
C 15.981000000000002 0.758 31.664
C 17.012 1.503 32.468
O 17.975 2.031 32.027
O 16.72 1.423 33.766
C 17.368 2.297 34.684
C 19.982 -2.452 36.552
C 20.408000000000005 -3.7640000000000002 37.247
C 20.356 -4.021 38.546
C 19.854 -3.0560000000000005 39.583
C 20.837 -5.333 39.057
C 22.258 -5.655 39.002
C 22.740000000000002 -6.699000000000001 40.128
C 23.734 -7.691 39.446
C 22.955000000000002 -8.755000000000003 38.715
C 24.769000000000002 -8.272 40.501
C 26.123000000000005 -7.521 40.532
C 26.806 -7.793000000000001 41.936
C 27.491000000000003 -9.18 41.978
C 26.842000000000002 -9.995 43.104000000000006
C 29.044000000000004 -9.062 42.251000000000005
C 29.902 -9.093 40.942
C 31.024 -10.168 41.003
C 31.344 -10.751 39.606
C 32.091 -9.703 38.807
C 32.157 -12.063000000000002 39.749
H 19.445 -5.281000000000001 30.182000000000002
H 18.215 -4.046000000000001 23.943000000000005
H 14.94 1.0430000000000001 25.474
H 18.422 -1.249 32.794
H 18.07 -4.189 32.419
H 20.439000000000004 -2.604 33.103
H 20.706000000000003 -3.311 31.550000000000004
H 20.311 -4.382 32.903000000000006
H 16.349 -3.349 33.352
H 15.66 -1.804 32.93300000000001
H 16.309 -2.637 35.34100000000001
H 16.049 -0.9720000000000001 34.801
H 21.524 -6.798000000000001 27.632000000000005
H 20.096000000000004 -7.833000000000001 27.804000000000002
H 20.474 -6.870000000000001 29.164
H 21.579 -7.085 25.251
H 20.755 -7.963 23.978
H 20.262 -8.353 25.61
H 16.37 -2.96 23.031000000000002
H 15.888 -0.125 23.301
H 18.88 -1.4650000000000003 22.835
H 17.571000000000005 -0.518 21.99
H 17.864 -2.133 21.531
H 13.635000000000002 -1.616 24.478000000000005
H 14.307 -2.459 23.167000000000005
H 12.479 -0.335 22.804
H 13.298000000000002 -1.281 21.716
H 13.992000000000003 0.304 22.251000000000005
H 13.755000000000003 2.656 26.790000000000003
H 14.889000000000001 3.5600000000000005 27.654
H 13.497000000000002 3.03 28.602000000000004
H 15.272000000000002 0.271 32.333
H 16.919 3.2800000000000002 34.535
H 18.417 2.432 34.42
H 17.174 2.0 35.715
H 20.182 -1.5990000000000002 37.20100000000001
H 20.542 -2.4460000000000006 35.617000000000004
H 20.690000000000005 -4.616 36.628
H 19.138 -2.4460000000000006 39.033
H 20.664 -2.451 39.99000000000001
H 19.457 -3.6820000000000004 40.382
H 20.285000000000004 -6.003 38.398
H 20.431000000000004 -5.496 40.05500000000001
H 22.825000000000003 -4.727 38.932
H 22.485 -6.0360000000000005 38.007
H 21.940000000000005 -7.281 40.58700000000001
H 23.253 -6.066000000000001 40.853
H 24.429 -7.174 38.785
H 23.377 -8.933 37.726
H 21.938 -8.39 38.577
H 22.868 -9.662000000000003 39.313
H 24.871 -9.356 40.539
H 24.367 -7.952 41.462
H 25.835000000000004 -6.482000000000001 40.376000000000005
H 26.762 -7.954 39.763000000000005
H 26.064000000000004 -7.7700000000000005 42.733
H 27.439 -6.930000000000001 42.144000000000005
H 27.284000000000002 -9.649 41.016000000000005
H 27.200000000000003 -9.702 44.09100000000001
H 27.061 -11.049 42.931
H 25.773000000000003 -9.788 43.068
H 29.359 -9.968 42.769000000000005
H 29.234000000000005 -8.137 42.79600000000001
H 30.419 -8.134 40.972
H 29.280000000000005 -9.128 40.047
H 30.802 -11.04 41.618
H 31.870000000000005 -9.865 41.62100000000001
H 30.338 -10.853 39.2
H 31.684 -9.983 37.835
H 33.179 -9.737 38.747
H 31.83 -8.679000000000002 39.075
H 33.195 -11.825 39.514
H 31.775000000000002 -12.699 38.95
H 32.036 -12.58 40.701
Mg 26.07 0.323 29.175000000000004
C 27.93 0.003 32.172
C 23.237000000000002 0.373 31.222
C 24.2 0.735 26.508000000000003
C 28.899000000000004 -0.559 27.356
N 25.688 0.233 31.426
C 26.587 0.253 32.449
C 25.993 0.251 33.868
C 24.435000000000002 0.24800000000000003 33.454
C 24.487000000000002 0.27 31.955
C 23.634 -1.0230000000000001 33.943
C 26.399000000000004 1.5090000000000001 34.703
C 27.306000000000004 1.4780000000000002 35.927
C 27.075 2.414 37.106
O 26.799 3.589 37.103
O 27.375000000000004 1.786 38.263
N 24.004000000000005 0.606 28.874
C 22.986 0.524 29.835
C 21.724 0.613 29.135000000000005
C 21.973 0.8800000000000001 27.791
C 23.443 0.8040000000000002 27.683
C 20.468000000000004 0.6480000000000001 29.937000000000005
C 21.028 1.0820000000000003 26.607000000000003
O 21.392000000000003 1.281 25.444
C 19.585 1.1840000000000002 26.910000000000004
N 26.429000000000002 0.025000000000000005 27.200000000000003
C 25.570000000000004 0.4620000000000001 26.230000000000004
C 26.301000000000002 0.604 24.852000000000004
C 27.706 0.101 25.157000000000004
C 27.680000000000003 -0.24400000000000002 26.672000000000004
C 25.559000000000005 -0.10800000000000001 23.674
C 28.733000000000004 1.1830000000000003 24.79
C 29.963 0.7730000000000001 24.065000000000005
N 28.005 -0.282 29.610000000000003
C 29.056 -0.58 28.78
C 30.245 -0.868 29.525000000000002
C 29.924 -0.56 30.937
C 28.520000000000003 -0.198 30.898000000000003
C 31.586 -1.3370000000000002 28.935
C 30.407000000000004 -0.487 32.339
O 31.558 -0.586 32.797
C 29.115000000000002 -0.111 33.175
C 29.058 -1.2840000000000003 34.103
O 28.531 -2.375 33.922
O 29.56 -0.978 35.268
C 29.754000000000005 -2.038 36.287000000000006
C 27.261000000000003 2.5340000000000003 39.514
C 26.102000000000004 2.141 40.365
C 26.09 1.3450000000000002 41.476
C 27.315000000000005 0.8740000000000001 42.17100000000001
C 24.847 1.235 42.23400000000001
C 24.605 2.21 43.36200000000001
C 23.913000000000004 1.429 44.52100000000001
C 23.963 2.248 45.945
C 24.117 1.463 47.221000000000004
C 22.85 3.29 45.917
C 22.815000000000005 4.266 47.141000000000005
C 22.011 5.568 46.931000000000004
C 22.651 6.867000000000001 47.491
C 21.565000000000005 7.621000000000001 48.307
C 23.252000000000002 7.825000000000001 46.290000000000006
C 22.147000000000002 8.566 45.514
C 22.397 10.102 45.528000000000006
C 21.929 10.612000000000002 44.095000000000006
C 22.999000000000002 10.603 42.980000000000004
C 21.237 12.047 44.187000000000005
H 22.467000000000002 0.529 31.980000000000004
H 23.696 0.8160000000000001 25.543
H 29.793000000000003 -0.7640000000000001 26.764000000000003
H 26.263000000000005 -0.696 34.337
H 23.827 1.112 33.724
H 24.218000000000004 -1.8840000000000001 34.267
H 22.997 -1.39 33.139
H 22.991 -0.7240000000000001 34.771
H 25.469000000000005 1.946 35.06700000000001
H 26.901000000000003 2.237 34.067
H 28.234 1.847 35.49
H 27.279 0.421 36.192
H 19.927 1.584 29.805
H 20.678 0.536 31.001000000000005
H 19.763 -0.138 29.668
H 19.433 1.9020000000000001 27.716
H 19.189 0.275 27.363
H 18.974000000000004 1.535 26.079000000000004
H 26.253 1.6810000000000003 24.692000000000004
H 27.966 -0.748 24.525000000000002
H 24.561 -0.4670000000000001 23.925
H 26.086 -0.978 23.284
H 25.565 0.535 22.794000000000004
H 29.004000000000005 1.5860000000000003 25.765
H 28.349000000000004 1.977 24.15
H 30.78 1.1430000000000002 24.684000000000005
H 29.933 1.134 23.037
H 30.142000000000003 -0.302 24.035000000000004
H 31.6 -2.426 28.91
H 32.389 -0.9310000000000002 29.55
H 31.717 -1.014 27.902000000000005
H 29.351000000000003 0.8040000000000002 33.718
H 28.833000000000002 -2.5330000000000004 36.593
H 30.271000000000004 -1.703 37.18600000000001
H 30.410000000000004 -2.865 36.017
H 27.069000000000003 3.6010000000000004 39.394
H 28.241 2.485 39.989
H 25.156 2.6500000000000004 40.183
H 27.396 1.361 43.143
H 28.214000000000002 1.069 41.586
H 27.271 -0.20000000000000004 42.35600000000001
H 24.834 0.21100000000000002 42.608
H 24.085 1.281 41.45600000000001
H 23.995 3.006 42.93600000000001
H 25.49 2.6880000000000006 43.783
H 24.331 0.449 44.751000000000005
H 22.854 1.341 44.279
H 24.879 2.837 45.912
H 24.858000000000004 1.827 47.934
H 24.256 0.3970000000000001 47.044
H 23.099000000000004 1.595 47.588
H 21.936 2.721 46.086
H 22.810000000000002 3.756 44.93200000000001
H 23.813 4.525 47.49300000000001
H 22.402 3.71 47.983000000000004
H 21.067 5.387 47.44500000000001
H 21.804000000000002 5.709 45.87
H 23.521 6.634000000000001 48.104000000000006
H 21.837 8.677 48.30400000000001
H 21.567000000000004 7.348 49.362
H 20.538000000000004 7.443 47.987
H 23.751 7.184 45.563
H 23.951 8.476 46.815
H 21.138000000000005 8.454 45.910000000000004
H 22.077000000000005 8.186 44.495
H 23.455 10.185000000000002 45.776
H 21.848 10.524000000000001 46.371
H 21.096 10.017 43.718
H 24.032 10.427 43.281
H 23.099000000000004 11.552 42.455
H 22.762 9.823 42.256
H 21.041000000000004 12.246000000000002 45.24
H 20.247 12.030000000000001 43.731
H 21.927 12.721 43.679

