280
Bchla 4 -- Bchla 19
Mg 8.828 2.979 28.391000000000002
C 10.365 1.604 31.107
C 7.597 5.545 30.492000000000004
C 7.114000000000001 4.2330000000000005 25.802
C 10.134 0.474 26.437000000000005
N 8.693 3.351 30.578000000000003
C 9.525000000000002 2.685 31.487
C 9.406 3.272 32.922
C 8.46 4.464 32.618
C 8.161000000000001 4.436 31.13
C 7.123 4.696 33.443
C 10.760000000000002 3.7270000000000003 33.625
C 10.509000000000002 4.328000000000001 35.034
C 10.968 3.4140000000000006 36.171
O 12.221000000000002 3.189 36.417
O 9.956 2.8760000000000003 36.923
N 7.544 4.728 28.173
C 7.388 5.736 29.1
C 6.471 6.693 28.492
C 6.332 6.293000000000001 27.124000000000002
C 7.022 5.053 26.955
C 5.959 7.8500000000000005 29.26
C 5.418000000000001 7.051 26.099
O 5.12 6.601 24.974000000000004
C 4.785 8.363 26.483000000000004
N 8.635 2.4480000000000004 26.519
C 7.831000000000001 3.126 25.560000000000002
C 7.672 2.298 24.305000000000003
C 8.944 1.456 24.384
C 9.323 1.476 25.858000000000004
C 6.367000000000001 1.433 24.304000000000002
C 10.116 2.066 23.583
C 10.222 1.7510000000000001 22.115000000000002
N 9.991 1.292 28.619000000000003
C 10.573 0.454 27.746
C 11.354 -0.5110000000000001 28.462
C 11.332000000000003 -0.10700000000000001 29.78
C 10.516000000000002 1.034 29.827000000000005
C 12.085 -1.615 27.781000000000002
C 11.825 -0.42000000000000004 31.053
O 12.582000000000003 -1.291 31.436
C 11.205 0.7090000000000001 32.003
C 10.440000000000001 0.028000000000000004 33.082
O 9.421 -0.608 32.964
O 10.938 0.32100000000000006 34.287
C 10.212000000000002 -0.271 35.476
C 10.442 2.436 38.219
C 10.585000000000003 3.612 39.101
C 10.938 3.628 40.413
C 11.388 2.464 41.283
C 11.155 4.989 41.129
C 9.752 5.588000000000001 41.57600000000001
C 9.542 7.039 41.239
C 9.091000000000001 7.969 42.37200000000001
C 7.654000000000001 7.531 42.831
C 9.102 9.442 41.992000000000004
C 10.452000000000002 10.007 42.316
C 10.402000000000001 11.334 43.141
C 10.943000000000001 11.173 44.557
C 12.074 12.167000000000002 44.84100000000001
C 9.848 11.107 45.671
C 9.848 9.934 46.687000000000005
C 8.67 8.916 46.459
C 7.66 8.833 47.644000000000005
C 7.954 7.651 48.642
C 6.2490000000000006 8.709 47.233000000000004
H 7.388 6.3790000000000004 31.165000000000003
H 6.566000000000001 4.634 24.947
H 10.686 -0.275 25.866000000000003
H 8.895 2.543 33.551
H 9.005 5.4 32.744
H 6.855000000000001 5.7330000000000005 33.647
H 7.101000000000001 4.029 34.30500000000001
H 6.335000000000001 4.379 32.76
H 11.201 4.41 32.9
H 11.412000000000003 2.857 33.702
H 9.473 4.656000000000001 35.119
H 11.135 5.217 35.105
H 4.892000000000001 7.697000000000001 29.423
H 6.279 8.735 28.710000000000004
H 6.4670000000000005 7.932000000000001 30.221
H 4.238 8.773 25.634
H 5.636 9.032 26.618
H 4.162 8.37 27.377000000000002
H 7.642000000000001 2.9300000000000006 23.417
H 8.8 0.42300000000000004 24.068000000000005
H 6.4590000000000005 0.583 24.979
H 6.138 1.095 23.293
H 5.576 2.107 24.631000000000004
H 11.088000000000001 1.857 24.028
H 10.1 3.151 23.687
H 10.173000000000002 2.704 21.589
H 9.271 1.263 21.901000000000003
H 11.07 1.121 21.846
H 13.127000000000002 -1.339 27.624
H 11.639 -2.062 26.892
H 12.108 -2.4270000000000005 28.508
H 12.027000000000001 1.281 32.434
H 9.156 -0.028000000000000004 35.35600000000001
H 10.523 0.16 36.428
H 10.374 -1.349 35.46
H 11.342 1.826 38.135
H 9.578 1.846 38.525
H 10.35 4.58 38.659
H 12.457000000000003 2.253 41.271
H 10.877 1.594 40.869
H 11.041 2.646 42.3
H 11.642 5.5920000000000005 40.363
H 11.695 4.988 42.076
H 9.692 5.373 42.643
H 8.983 4.976000000000001 41.10600000000001
H 8.809000000000001 7.066 40.43300000000001
H 10.489 7.336 40.789
H 9.661 7.63 43.23700000000001
H 6.946 8.352 42.93600000000001
H 7.823000000000001 7.050000000000001 43.795
H 7.297000000000001 6.769 42.13900000000001
H 8.294 10.092 42.329
H 8.911 9.357 40.922
H 11.011 10.375 41.455
H 11.061 9.262 42.82800000000001
H 9.398 11.735 43.276
H 10.899 12.154 42.622
H 11.504000000000001 10.238 44.574
H 12.984 11.571 44.763000000000005
H 12.079000000000002 12.453000000000001 45.89300000000001
H 12.336 12.989 44.175
H 8.944 10.967 45.079
H 9.807000000000002 11.991 46.308
H 9.842 10.217 47.739000000000004
H 10.774 9.381 46.53
H 9.156 7.942 46.407
H 7.992 8.997 45.609
H 7.638 9.788 48.16700000000001
H 7.105000000000001 7.47 49.301
H 8.786000000000001 7.889 49.304
H 8.11 6.706000000000001 48.12100000000001
H 6.0360000000000005 8.417 46.205
H 5.724 9.614 47.540000000000006
H 5.699 7.869000000000001 47.658
Mg 26.065000000000005 50.95300000000001 26.706000000000003
C 23.951 52.215 29.088
C 28.121000000000002 49.839 29.1
C 28.157 49.986 24.246
C 24.066000000000003 52.636 24.178
N 26.141000000000002 51.278000000000006 28.897
C 25.135000000000005 51.71 29.667
C 25.495 51.528 31.230000000000004
C 26.854 50.74300000000001 31.104000000000003
C 27.116000000000003 50.625 29.589
C 28.001000000000005 51.35300000000001 31.933000000000003
C 24.408 50.766 32.04
C 24.787 50.214 33.453
C 24.268 51.007 34.712
O 23.719 52.11 34.698
O 24.641000000000002 50.306 35.88
N 27.93 50.07200000000001 26.682000000000002
C 28.561 49.60000000000001 27.737
C 29.781 48.943000000000005 27.293000000000003
C 29.903 49.05100000000001 25.875000000000004
C 28.628 49.72200000000001 25.539000000000005
C 30.861 48.38000000000001 28.202
C 31.037 48.646 24.939
O 31.095000000000002 49.077 23.791000000000004
C 32.084 47.716 25.444
N 26.12 51.313 24.517000000000003
C 27.055000000000003 50.765 23.75
C 26.752000000000002 50.943000000000005 22.253000000000004
C 25.369 51.586 22.316
C 25.2 51.889 23.758
C 27.773000000000003 51.706 21.396
C 24.299 50.82000000000001 21.58
C 23.638000000000005 51.55200000000001 20.358
N 24.377 52.102000000000004 26.606000000000005
C 23.616 52.655 25.522
C 22.390000000000004 53.257000000000005 25.998
C 22.524 53.063 27.401
C 23.716000000000005 52.38900000000001 27.695000000000004
C 21.202 53.785 25.274
C 21.720000000000002 53.18300000000001 28.591
O 20.533 53.46900000000001 28.808000000000003
C 22.59 52.785000000000004 29.757
C 22.959 54.06 30.547000000000004
O 23.296 55.163000000000004 30.090000000000003
O 22.859 53.764 31.874000000000002
C 23.135000000000005 54.861000000000004 32.855
C 24.213000000000005 51.092000000000006 37.008
C 24.358000000000004 50.357 38.372
C 25.489 50.32600000000001 39.147
C 26.819000000000003 50.83 38.775
C 25.372000000000003 49.44400000000001 40.37100000000001
C 25.554000000000002 47.93500000000001 39.982
C 26.947000000000003 47.28000000000001 40.486
C 26.801 46.108000000000004 41.519000000000005
C 26.799 44.76100000000001 40.68000000000001
C 25.539000000000005 46.252 42.443
C 25.622000000000003 45.723 43.914
C 25.32 46.732000000000006 45.14500000000001
C 26.597000000000005 47.33 45.901
C 26.665 47.038000000000004 47.405
C 26.805000000000003 48.827 45.55500000000001
C 27.300000000000004 49.013 44.098
C 28.364000000000004 50.123 43.871
C 27.962000000000003 51.542 44.435
C 26.926000000000002 52.29900000000001 43.625
C 29.211 52.393 44.631
H 28.807000000000002 49.32300000000001 29.775
H 28.858 49.892 23.414
H 23.446 52.99600000000001 23.355
H 25.654000000000003 52.548 31.578
H 26.675000000000004 49.724000000000004 31.447000000000003
H 28.522 50.52300000000001 32.409
H 27.63 51.99000000000001 32.736000000000004
H 28.681 51.921 31.298
H 24.236000000000004 49.845000000000006 31.483000000000004
H 23.534000000000002 51.402 32.18
H 25.869 50.31100000000001 33.548
H 24.402000000000005 49.199 33.545
H 30.596 48.495 29.253
H 31.799 48.905 28.023000000000003
H 31.042000000000005 47.32300000000001 28.011
H 31.535000000000004 46.89 25.897000000000002
H 32.836 48.009 26.176
H 32.723 47.329 24.651
H 26.668000000000003 49.949000000000005 21.815
H 25.436 52.54200000000001 21.797
H 27.79 51.15500000000001 20.456
H 28.731000000000005 51.77600000000001 21.911
H 27.545 52.763 21.259
H 23.5 50.72800000000001 22.315
H 24.633000000000003 49.85300000000001 21.205
H 24.061000000000003 52.551 20.249000000000002
H 22.576 51.657000000000004 20.582
H 23.656000000000002 51.00200000000001 19.417
H 21.273 53.547000000000004 24.213000000000005
H 21.298 54.869 25.324000000000005
H 20.348000000000003 53.311 25.760000000000005
H 21.961 52.11200000000001 30.340000000000003
H 24.035000000000004 55.444 32.658
H 23.152000000000005 54.540000000000006 33.896
H 22.32 55.57300000000001 32.726
H 23.164 51.370000000000005 36.904
H 24.735 52.04900000000001 36.991
H 23.435000000000002 50.003 38.831
H 26.934000000000005 50.83200000000001 37.691
H 27.435000000000002 50.019 39.163
H 27.154000000000003 51.742 39.269
H 24.409 49.542 40.872
H 26.109000000000005 49.675000000000004 41.141
H 25.546000000000003 47.88600000000001 38.893
H 24.631000000000004 47.434000000000005 40.274
H 27.574000000000005 48.018 40.986000000000004
H 27.513000000000005 46.935 39.621
H 27.663000000000004 46.207 42.179
H 27.840000000000003 44.53 40.454
H 26.335 44.86 39.699
H 26.338000000000005 44.035000000000004 41.349000000000004
H 24.71 45.665000000000006 42.047
H 25.245 47.29600000000001 42.55400000000001
H 26.594 45.278 44.129
H 24.945000000000004 44.870000000000005 43.952
H 24.594000000000005 46.364000000000004 45.87
H 24.867000000000004 47.651 44.773
H 27.498000000000005 46.864 45.502
H 26.505000000000003 47.96600000000001 47.955
H 27.673000000000002 46.681 47.61600000000001
H 25.948 46.264 47.67700000000001
H 27.542000000000005 49.20400000000001 46.264
H 25.854 49.33800000000001 45.704
H 26.411 49.34000000000001 43.559
H 27.643000000000004 48.07300000000001 43.666
H 28.532000000000004 50.217 42.79900000000001
H 29.274000000000004 49.78300000000001 44.36500000000001
H 27.622 51.463 45.467000000000006
H 27.403 52.895 42.847
H 26.347000000000005 52.897 44.329
H 26.228 51.541 43.269000000000005
H 28.882000000000005 53.376000000000005 44.293000000000006
H 30.052000000000003 51.935 44.111000000000004
H 29.556000000000004 52.321 45.663

