280
Bchla 1 -- Bchla 6
Mg -1.968 16.991 27.078000000000003
C -2.1850000000000005 14.773 29.879
C -3.2230000000000003 19.433 29.104
C -2.213 18.841 24.514
C -1.8220000000000003 14.167000000000002 25.041000000000004
N -2.585 16.982 29.204000000000004
C -2.562 16.083 30.183
C -2.904 16.682 31.58
C -3.7410000000000005 17.955 31.110000000000003
C -3.123 18.159 29.738000000000003
C -5.231 17.676 30.941000000000003
C -1.623 17.101 32.377
C -1.844 17.388000000000005 33.865
C -0.8000000000000002 17.024 34.811
O 0.398 16.855000000000004 34.599
O -1.38 16.867 36.028000000000006
N -2.153 18.952 26.926000000000002
C -2.6710000000000003 19.791 27.855000000000004
C -2.588 21.147 27.271
C -2.155 21.006 25.853
C -2.182 19.574 25.698000000000004
C -2.8550000000000004 22.397 28.052
C -1.787 22.004 24.801000000000002
O -1.665 21.681000000000004 23.57
C -1.658 23.405 25.241000000000003
N -2.233 16.578 25.049
C -2.247 17.56 24.141
C -2.1640000000000006 17.015 22.746
C -1.844 15.458 22.898
C -1.8820000000000001 15.359 24.443
C -3.4190000000000005 17.196 21.881
C -0.595 14.921 22.155
C 0.6580000000000001 15.501000000000001 22.772000000000002
N -1.818 14.847000000000001 27.381
C -1.795 13.855000000000002 26.39
C -1.795 12.553 27.082
C -1.835 12.880000000000003 28.436000000000003
C -1.885 14.296 28.580000000000002
C -1.819 11.276 26.455000000000002
C -1.8720000000000003 12.362000000000002 29.794
O -1.7600000000000002 11.244 30.299
C -2.223 13.563 30.779
C -1.251 13.509000000000002 31.926000000000002
O -0.037000000000000005 13.736 31.747
O -1.9300000000000002 13.435000000000002 33.081
C -1.025 13.408 34.261
C -0.516 16.468 37.138
C -0.5310000000000001 17.387 38.262
C -0.454 17.127 39.59
C -0.378 15.838000000000001 40.321
C -0.7230000000000001 18.255 40.576
C 0.451 18.789 41.50200000000001
C 1.21 20.031 40.87
C 1.469 21.168 41.94200000000001
C 0.066 21.921 42.199
C 2.7560000000000002 22.039000000000005 41.67000000000001
C 3.2430000000000003 22.867 42.872
C 4.766 22.908000000000005 42.988
C 5.267 23.085 44.478
C 6.800000000000001 23.421 44.531
C 4.85 21.941000000000003 45.489
C 3.95 22.297000000000004 46.696
C 2.527 21.696000000000005 46.703
C 1.4260000000000002 22.715 47.155
C 0.033 22.091 47.443
C 1.232 23.982 46.288
H -3.8270000000000004 20.211000000000002 29.575
H -2.186 19.444 23.604
H -1.6920000000000002 13.244 24.473000000000003
H -3.5220000000000002 16.042 32.21
H -3.553 18.822000000000003 31.743000000000002
H -5.452 16.614 31.047000000000004
H -5.479000000000001 18.018 29.936000000000003
H -5.82 18.292 31.621000000000002
H -1.299 18.087 32.044
H -0.838 16.352000000000004 32.267
H -2.8120000000000003 17.017 34.203
H -1.906 18.468 33.99900000000001
H -3.312 22.177000000000003 29.016000000000002
H -3.6190000000000007 22.954000000000004 27.510000000000005
H -1.9610000000000003 23.011 28.162000000000003
H -2.603 23.735 25.673
H -1.303 23.961000000000002 24.374000000000002
H -0.9200000000000002 23.457000000000004 26.042000000000005
H -1.36 17.492 22.187
H -2.66 14.835000000000003 22.531
H -3.2350000000000003 17.731 20.949000000000005
H -4.172000000000001 17.705 22.482000000000003
H -3.935 16.271 21.625
H -0.6120000000000001 15.232000000000001 21.111
H -0.516 13.834 22.176000000000002
H 0.746 16.469 22.28
H 1.5190000000000001 14.870000000000001 22.549
H 0.527 15.688000000000002 23.838000000000005
H -1.101 10.658000000000001 26.994000000000003
H -1.564 11.349 25.398
H -2.859 10.992 26.615000000000002
H -3.251 13.410000000000002 31.106
H -1.27 12.513000000000002 34.833
H -1.135 14.372 34.758
H 0.032 13.237000000000002 34.054
H 0.552 16.428000000000004 36.922
H -0.907 15.476 37.361
H -1.044 18.319000000000003 38.02300000000001
H -0.543 14.989 39.658
H -1.182 15.731000000000002 41.05
H 0.581 15.668 40.812
H -1.499 17.903 41.256
H -1.227 19.095 40.09700000000001
H 1.292 18.096 41.508
H 0.091 19.058 42.49400000000001
H 0.62 20.446000000000005 40.053
H 2.115 19.576 40.468
H 1.778 20.639 42.84300000000001
H 0.034 22.9 41.721
H -0.263 21.889 43.23700000000001
H -0.6930000000000001 21.476000000000003 41.556
H 2.393 22.719 40.9
H 3.556 21.429000000000002 41.25
H 2.826 22.458 43.793
H 2.891 23.896 42.79800000000001
H 5.207000000000001 23.572000000000003 42.244
H 5.175 21.964000000000002 42.62700000000001
H 4.875 24.075000000000003 44.715
H 7.330000000000001 22.497000000000003 44.3
H 7.166000000000001 23.617000000000004 45.539
H 7.126000000000001 24.262 43.92
H 5.8260000000000005 21.689000000000004 45.90400000000001
H 4.491 21.05 44.973
H 3.897 23.383 46.781
H 4.392 21.943 47.62700000000001
H 2.5140000000000002 20.877 47.422
H 2.203 21.325 45.731
H 1.7820000000000003 22.975 48.15100000000001
H -0.337 22.156 48.46600000000001
H 0.258 21.029 47.348
H -0.654 22.475 46.688
H 1.826 23.915000000000003 45.376000000000005
H 1.8130000000000002 24.727 46.832
H 0.23400000000000004 24.277 45.96
Mg 17.054000000000002 -2.2880000000000003 27.750000000000004
C 16.548 -0.354 30.726
C 18.852000000000004 -4.529 29.657
C 18.013000000000005 -3.67 24.949000000000005
C 15.392000000000001 0.222 26.033000000000005
N 17.886 -2.277 29.962
C 17.412 -1.4370000000000003 30.933
C 17.782 -2.001 32.331
C 18.585 -3.327 31.996000000000002
C 18.484 -3.4240000000000004 30.43
C 20.102000000000004 -3.411 32.453
C 16.578 -2.2860000000000005 33.268
C 16.684 -1.8500000000000003 34.68600000000001
C 18.053 -1.523 35.396
O 18.778 -0.591 35.104
O 18.548000000000002 -2.518 36.236
N 18.305 -3.918 27.31
C 18.859 -4.819 28.219
C 19.641 -5.825 27.475000000000005
C 19.293 -5.632000000000001 26.083
C 18.516 -4.371 26.058000000000003
C 20.531000000000002 -6.871 28.075000000000003
C 19.639 -6.463000000000001 24.825
O 19.045 -6.384 23.729
C 20.630000000000003 -7.546 24.977
N 16.791 -1.754 25.844000000000005
C 17.373000000000005 -2.499 24.842
C 16.845 -2.07 23.445
C 15.703 -1.041 23.862000000000002
C 15.953 -0.843 25.347000000000005
C 17.88 -1.479 22.403
C 14.265 -1.461 23.602000000000004
C 13.502 -0.619 22.558000000000003
N 15.981000000000002 -0.538 28.255
C 15.386 0.394 27.438000000000002
C 14.878 1.514 28.241
C 15.273000000000001 1.207 29.531
C 15.938 -0.039 29.497
C 14.172000000000002 2.7510000000000003 27.793
C 15.189000000000002 1.6990000000000003 30.859000000000005
O 14.574 2.682 31.362000000000002
C 15.981000000000002 0.758 31.664
C 17.012 1.503 32.468
O 17.975 2.031 32.027
O 16.72 1.423 33.766
C 17.368 2.297 34.684
C 19.982 -2.452 36.552
C 20.408000000000005 -3.7640000000000002 37.247
C 20.356 -4.021 38.546
C 19.854 -3.0560000000000005 39.583
C 20.837 -5.333 39.057
C 22.258 -5.655 39.002
C 22.740000000000002 -6.699000000000001 40.128
C 23.734 -7.691 39.446
C 22.955000000000002 -8.755000000000003 38.715
C 24.769000000000002 -8.272 40.501
C 26.123000000000005 -7.521 40.532
C 26.806 -7.793000000000001 41.936
C 27.491000000000003 -9.18 41.978
C 26.842000000000002 -9.995 43.104000000000006
C 29.044000000000004 -9.062 42.251000000000005
C 29.902 -9.093 40.942
C 31.024 -10.168 41.003
C 31.344 -10.751 39.606
C 32.091 -9.703 38.807
C 32.157 -12.063000000000002 39.749
H 19.445 -5.281000000000001 30.182000000000002
H 18.215 -4.046000000000001 23.943000000000005
H 14.94 1.0430000000000001 25.474
H 18.422 -1.249 32.794
H 18.07 -4.189 32.419
H 20.439000000000004 -2.604 33.103
H 20.706000000000003 -3.311 31.550000000000004
H 20.311 -4.382 32.903000000000006
H 16.349 -3.349 33.352
H 15.66 -1.804 32.93300000000001
H 16.309 -2.637 35.34100000000001
H 16.049 -0.9720000000000001 34.801
H 21.524 -6.798000000000001 27.632000000000005
H 20.096000000000004 -7.833000000000001 27.804000000000002
H 20.474 -6.870000000000001 29.164
H 21.579 -7.085 25.251
H 20.755 -7.963 23.978
H 20.262 -8.353 25.61
H 16.37 -2.96 23.031000000000002
H 15.888 -0.125 23.301
H 18.88 -1.4650000000000003 22.835
H 17.571000000000005 -0.518 21.99
H 17.864 -2.133 21.531
H 13.635000000000002 -1.616 24.478000000000005
H 14.307 -2.459 23.167000000000005
H 12.479 -0.335 22.804
H 13.298000000000002 -1.281 21.716
H 13.992000000000003 0.304 22.251000000000005
H 13.755000000000003 2.656 26.790000000000003
H 14.889000000000001 3.5600000000000005 27.654
H 13.497000000000002 3.03 28.602000000000004
H 15.272000000000002 0.271 32.333
H 16.919 3.2800000000000002 34.535
H 18.417 2.432 34.42
H 17.174 2.0 35.715
H 20.182 -1.5990000000000002 37.20100000000001
H 20.542 -2.4460000000000006 35.617000000000004
H 20.690000000000005 -4.616 36.628
H 19.138 -2.4460000000000006 39.033
H 20.664 -2.451 39.99000000000001
H 19.457 -3.6820000000000004 40.382
H 20.285000000000004 -6.003 38.398
H 20.431000000000004 -5.496 40.05500000000001
H 22.825000000000003 -4.727 38.932
H 22.485 -6.0360000000000005 38.007
H 21.940000000000005 -7.281 40.58700000000001
H 23.253 -6.066000000000001 40.853
H 24.429 -7.174 38.785
H 23.377 -8.933 37.726
H 21.938 -8.39 38.577
H 22.868 -9.662000000000003 39.313
H 24.871 -9.356 40.539
H 24.367 -7.952 41.462
H 25.835000000000004 -6.482000000000001 40.376000000000005
H 26.762 -7.954 39.763000000000005
H 26.064000000000004 -7.7700000000000005 42.733
H 27.439 -6.930000000000001 42.144000000000005
H 27.284000000000002 -9.649 41.016000000000005
H 27.200000000000003 -9.702 44.09100000000001
H 27.061 -11.049 42.931
H 25.773000000000003 -9.788 43.068
H 29.359 -9.968 42.769000000000005
H 29.234000000000005 -8.137 42.79600000000001
H 30.419 -8.134 40.972
H 29.280000000000005 -9.128 40.047
H 30.802 -11.04 41.618
H 31.870000000000005 -9.865 41.62100000000001
H 30.338 -10.853 39.2
H 31.684 -9.983 37.835
H 33.179 -9.737 38.747
H 31.83 -8.679000000000002 39.075
H 33.195 -11.825 39.514
H 31.775000000000002 -12.699 38.95
H 32.036 -12.58 40.701

