280
Bchla 5 -- Bchla 20
Mg 24.459 -7.804000000000001 45.73
C 26.586 -5.045000000000001 44.577
C 21.887000000000004 -6.074000000000001 44.19
C 22.841 -10.552 45.751
C 27.522000000000002 -9.37 46.768
N 24.343000000000004 -5.766 44.356
C 25.305 -4.83 44.045
C 24.688 -3.749 43.084
C 23.167000000000005 -3.9430000000000005 43.211000000000006
C 23.119 -5.331 43.95600000000001
C 22.332 -2.8730000000000007 44.03
C 25.237 -3.8220000000000005 41.618
C 25.488 -2.499 40.927
C 24.417000000000005 -2.034 39.891
O 23.317 -1.624 40.184
O 24.875000000000004 -2.272 38.628
N 22.604000000000003 -8.235 45.19100000000001
C 21.647 -7.401 44.68
C 20.381 -8.155 44.469
C 20.679 -9.472000000000001 44.906
C 22.095 -9.47 45.265
C 19.082 -7.63 43.836000000000006
C 19.818 -10.733 44.789
O 18.676 -10.595 44.359
C 20.227 -12.028 45.167
N 25.207 -9.776 45.955000000000005
C 24.194 -10.69 46.16700000000001
C 24.843000000000004 -12.02 46.714
C 26.381 -11.701 46.729
C 26.353000000000005 -10.162000000000003 46.569
C 24.303000000000004 -12.52 48.082
C 27.322000000000003 -12.424 45.683
C 27.761 -13.868 45.982
N 26.632 -7.372000000000001 45.76700000000001
C 27.69 -8.054000000000002 46.33400000000001
C 28.898000000000003 -7.265000000000001 46.339
C 28.501000000000005 -6.051000000000001 45.663
C 27.123000000000005 -6.133000000000001 45.258
C 30.216 -7.747000000000001 46.862
C 28.993000000000002 -4.841 45.175
O 30.137 -4.417 45.08200000000001
C 27.848000000000003 -4.189 44.347
C 27.671 -2.819 44.959
O 27.621000000000002 -1.7800000000000002 44.296
O 27.393 -2.803 46.385
C 26.881000000000004 -1.5110000000000001 46.839000000000006
C 23.97 -2.108 37.49000000000001
C 23.949 -3.434 36.77
C 24.911 -4.045 36.109
C 26.430000000000003 -3.609 35.953
C 24.583 -5.311 35.474
C 23.957 -5.257 34.139
C 23.241 -6.58 33.77000000000001
C 22.733000000000004 -6.697000000000001 32.370000000000005
C 21.624 -7.747000000000001 32.217
C 23.981 -6.913 31.374
C 23.822000000000003 -6.118000000000001 30.051000000000002
C 25.165000000000003 -5.529000000000001 29.557000000000002
C 25.278 -3.933 29.677000000000003
C 26.354000000000003 -3.4940000000000007 30.732
C 25.475 -3.367 28.305000000000003
C 24.156 -3.5830000000000006 27.430000000000003
C 24.512 -3.892 25.894
C 23.607 -5.058 25.347000000000005
C 24.461 -6.168 24.693000000000005
C 22.679000000000002 -4.49 24.291
H 21.044 -5.517000000000001 43.777
H 22.37 -11.509 45.98500000000001
H 28.345000000000002 -9.943 47.2
H 24.831000000000003 -2.766 43.535
H 22.699 -4.122 42.243
H 21.798 -2.303 43.27000000000001
H 22.988 -2.174 44.548
H 21.676 -3.2770000000000006 44.801
H 24.553000000000004 -4.272 40.898
H 26.195000000000004 -4.342 41.598
H 26.494 -2.546 40.510000000000005
H 25.503 -1.726 41.696
H 18.222 -8.027 44.376
H 19.151 -7.952 42.797
H 19.012 -6.547000000000001 43.928000000000004
H 20.354 -12.038000000000002 46.25
H 21.098 -12.408000000000001 44.633
H 19.4 -12.623 44.778000000000006
H 24.715000000000003 -12.875 46.051
H 26.808 -11.853 47.72
H 25.179000000000002 -12.58 48.72800000000001
H 23.876000000000005 -13.512000000000002 47.938
H 23.571000000000005 -11.76 48.358
H 28.203 -11.782000000000002 45.654
H 26.828000000000003 -12.521000000000003 44.71600000000001
H 27.326 -14.008000000000001 46.97200000000001
H 28.839000000000002 -13.929 46.138000000000005
H 27.422000000000004 -14.643 45.295
H 30.43 -8.657 46.303
H 30.177 -8.08 47.899
H 31.044 -7.089 46.598
H 28.225 -4.065000000000001 43.33200000000001
H 26.346000000000004 -1.907 47.703
H 26.354000000000003 -0.9760000000000001 46.049
H 27.739000000000004 -0.964 47.23
H 24.516 -1.3650000000000002 36.909
H 22.959 -1.7100000000000002 37.58
H 22.941 -3.849 36.776
H 26.903000000000002 -3.981 36.862
H 26.442 -2.523 36.044
H 26.811000000000003 -3.93 34.984
H 23.906 -5.93 36.062
H 25.462000000000003 -5.942 35.347
H 24.747000000000003 -5.140000000000001 33.398
H 23.269 -4.411 34.152
H 22.379 -6.564000000000001 34.436
H 23.845 -7.452000000000001 34.022
H 22.186 -5.795 32.096000000000004
H 20.892 -7.35 31.515000000000004
H 21.22 -8.011 33.194
H 21.983 -8.658 31.738
H 24.079 -7.985000000000001 31.199000000000005
H 24.932 -6.648000000000001 31.836000000000002
H 23.048 -5.36 30.178000000000004
H 23.519000000000002 -6.885 29.339
H 25.249000000000002 -5.845000000000001 28.517000000000003
H 26.041000000000004 -5.962 30.04
H 24.391 -3.509 30.146
H 25.819000000000003 -2.872 31.449
H 27.173 -2.8900000000000006 30.343
H 26.711 -4.311 31.359
H 26.354000000000003 -3.809 27.837
H 25.652000000000005 -2.296 28.409
H 23.647 -2.623 27.335
H 23.489 -4.347000000000001 27.83
H 25.570000000000004 -4.0920000000000005 25.726
H 24.341000000000005 -2.9740000000000006 25.331000000000003
H 22.994 -5.4830000000000005 26.141000000000002
H 23.82 -6.919 24.232
H 25.078 -6.549 25.507000000000005
H 25.199 -5.761000000000001 24.001
H 22.9 -3.45 24.051000000000002
H 21.674000000000003 -4.418 24.706000000000003
H 22.665000000000003 -5.104000000000001 23.39
Mg 7.142 57.546 41.51700000000001
C 6.289 54.207 41.287000000000006
C 10.288000000000002 56.721000000000004 40.38900000000001
C 7.812000000000001 60.897000000000006 41.169000000000004
C 3.941 58.30400000000001 42.532
N 8.100000000000001 55.732 40.72500000000001
C 7.55 54.468 40.808
C 8.519000000000002 53.39300000000001 40.323
C 9.885 54.17400000000001 40.37
C 9.397 55.613 40.452000000000005
C 10.941 53.738 41.48400000000001
C 8.181 52.71900000000001 38.955
C 8.311 51.211 38.915
C 9.481 50.75900000000001 38.05500000000001
O 10.648 50.52900000000001 38.453
O 9.037000000000003 50.31100000000001 36.89500000000001
N 8.804 58.605000000000004 40.858
C 9.982 58.102000000000004 40.472
C 10.932000000000002 59.166 40.197
C 10.335 60.402 40.381
C 8.908000000000001 60.029 40.772000000000006
C 12.414000000000001 58.88100000000001 39.658
C 11.019000000000002 61.80700000000001 40.278
O 12.226 61.867000000000004 39.909
C 10.280000000000001 63.06100000000001 40.55
N 5.929000000000001 59.423 41.581
C 6.46 60.624 41.577
C 5.532 61.679 42.14200000000001
C 4.204 60.944 42.529
C 4.7 59.439 42.284
C 6.082000000000001 62.754000000000005 43.13300000000001
C 2.881 61.248000000000005 41.768
C 1.6480000000000001 60.788000000000004 42.518
N 5.413 56.462 41.842
C 4.167 56.89800000000001 42.349
C 3.349 55.736 42.566
C 4.139 54.62 42.197
C 5.339 55.156 41.738
C 2.016 55.69 43.298
C 4.117 53.24300000000001 42.147
O 3.288 52.392 42.322
C 5.501 52.882 41.394000000000005
C 5.071 52.591 39.957
O 4.832 53.425000000000004 39.105
O 4.992 51.21300000000001 39.836
C 4.488000000000001 50.71300000000001 38.561
C 9.964 49.732 35.89
C 10.131 50.617000000000004 34.63
C 9.174 51.34700000000001 33.923
C 7.654000000000001 51.418 34.234
C 9.613 52.108 32.66
C 9.96 53.577000000000005 32.958
C 9.377 54.492000000000004 31.891
C 10.284000000000002 55.765 31.814
C 9.312000000000001 56.923 31.358
C 11.555 55.538 30.907
C 12.754000000000001 56.423 31.28
C 12.845000000000002 57.662000000000006 30.334000000000003
C 14.166 57.639 29.473000000000003
C 15.281000000000002 58.509 30.013000000000005
C 13.754 57.99900000000001 28.019
C 14.952000000000002 57.589000000000006 27.052
C 15.103 58.76100000000001 26.064000000000004
C 14.717000000000002 58.352000000000004 24.640000000000004
C 15.264 59.39900000000001 23.66
C 13.184000000000001 58.126 24.486000000000004
H 11.347000000000001 56.508 40.23
H 8.097 61.94400000000001 41.049
H 2.947 58.37800000000001 42.97800000000001
H 8.573 52.63000000000001 41.099
H 10.293 54.145 39.359
H 11.533 54.647000000000006 41.59
H 11.675000000000002 53.007 41.144
H 10.538 53.39 42.435
H 8.898 53.175 38.272
H 7.264 53.038 38.46
H 7.371 50.81600000000001 38.529
H 8.48 50.78 39.902
H 12.650000000000002 57.83100000000001 39.48
H 13.156 59.27900000000001 40.351
H 12.590000000000002 59.28000000000001 38.66
H 9.908 63.049 41.574
H 9.553 63.277 39.767
H 11.064 63.813 40.63000000000001
H 5.091 62.357000000000006 41.41100000000001
H 4.061 60.88100000000001 43.608000000000004
H 7.169 62.67900000000001 43.08
H 5.659 62.687 44.13600000000001
H 5.859 63.782 42.847
H 2.992 60.797 40.782
H 2.91 62.32500000000001 41.603
H 0.837 61.471000000000004 42.26400000000001
H 1.737 60.784000000000006 43.605000000000004
H 1.3270000000000002 59.827000000000005 42.116
H 1.6710000000000003 54.681 43.524
H 1.289 56.22800000000001 42.69100000000001
H 2.068 56.222 44.248000000000005
H 6.049000000000001 52.101000000000006 41.922
H 3.446 51.01 38.441
H 4.616 49.635 38.469
H 5.023 51.19800000000001 37.745
H 9.634 48.788 35.458
H 10.940000000000001 49.481 36.305
H 11.134000000000002 50.77000000000001 34.232
H 7.480000000000001 51.132 35.272
H 7.169 50.80200000000001 33.477
H 7.471000000000001 52.488 34.139
H 8.935 52.00900000000001 31.812000000000005
H 10.540000000000001 51.76500000000001 32.2
H 11.041 53.71000000000001 32.99
H 9.59 53.889 33.935
H 8.346 54.762 32.119
H 9.212 54.00600000000001 30.93
H 10.556 56.13 32.804
H 8.546 56.538000000000004 30.684000000000005
H 9.834 57.702 30.803000000000004
H 8.713 57.412 32.126000000000005
H 11.22 55.62200000000001 29.873000000000005
H 12.013 54.56400000000001 31.078000000000003
H 13.650000000000002 55.815 31.411
H 12.52 56.645 32.321
H 12.881 58.557 30.955
H 11.980000000000002 57.743 29.676000000000002
H 14.560000000000002 56.62800000000001 29.366000000000003
H 15.293000000000001 59.404 29.391
H 16.216 57.96500000000001 29.884000000000004
H 15.24 58.794000000000004 31.064000000000004
H 13.414000000000001 59.03300000000001 27.96
H 12.976 57.345000000000006 27.626000000000005
H 14.672 56.706 26.478
H 15.906000000000002 57.339 27.516
H 16.151 59.042 26.166
H 14.456 59.578 26.381
H 15.266000000000002 57.43600000000001 24.418000000000003
H 15.525000000000002 60.33200000000001 24.161
H 14.595000000000002 59.803 22.9
H 16.032000000000004 58.88100000000001 23.086
H 12.990000000000002 57.05400000000001 24.458000000000002
H 12.774000000000001 58.54500000000001 23.567
H 12.658000000000001 58.616 25.305

