280
Bchla 2 -- Bchla 7
Mg 3.1580000000000004 -0.094 44.312
C 5.981 1.967 44.127
C 1.5980000000000003 2.251 42.305
C 0.535 -2.151 44.137
C 5.149 -2.67 45.58500000000001
N 3.8870000000000005 1.897 43.132000000000005
C 5.038 2.565 43.339
C 5.131 3.8610000000000007 42.57000000000001
C 3.59 4.004 42.271
C 2.946 2.644 42.52000000000001
C 2.9550000000000005 5.033000000000001 43.244
C 6.136 3.755 41.416
C 6.21 2.461 40.579
C 6.195 2.644 39.066
O 6.007 3.6830000000000003 38.4
O 6.519 1.434 38.422
N 1.341 0.027000000000000003 43.38
C 0.8660000000000001 1.125 42.713
C -0.598 1.037 42.635
C -0.9510000000000001 -0.318 43.02
C 0.3390000000000001 -0.8550000000000001 43.551
C -1.479 2.108 41.885000000000005
C -2.325 -0.9810000000000001 42.895
O -3.285 -0.34 42.56900000000001
C -2.49 -2.436 43.227000000000004
N 2.984 -2.239 44.619
C 1.7320000000000002 -2.881 44.593
C 1.8030000000000002 -4.396 45.061
C 3.316 -4.491 45.581
C 3.8600000000000003 -3.0190000000000006 45.284000000000006
C 0.7230000000000001 -4.977 46.104
C 4.234 -5.645 44.969
C 5.28 -6.178 46.068
N 5.163000000000001 -0.356 44.84000000000001
C 5.798 -1.431 45.428
C 7.171000000000001 -1.059 45.747
C 7.330000000000001 0.289 45.334
C 6.0840000000000005 0.6530000000000001 44.707
C 8.162 -1.875 46.535000000000004
C 8.239 1.4670000000000003 45.15
O 9.427 1.5780000000000003 45.35600000000001
C 7.352 2.565 44.423
C 7.283 3.7450000000000006 45.353
O 8.218 4.569 45.513000000000005
O 6.001000000000001 3.854 45.872
C 5.729000000000001 5.056000000000001 46.587
C 6.66 1.463 36.98700000000001
C 5.302 1.318 36.431
C 5.078 0.839 35.187
C 6.152000000000001 0.257 34.231
C 3.638 0.679 34.791
C 3.1020000000000003 2.034 34.274
C 2.501 1.746 32.904
C 0.9710000000000001 2.203 32.903000000000006
C 0.118 0.988 33.3
C 0.545 2.7340000000000004 31.509
C -0.641 3.659 31.518
C -1.9110000000000003 3.091 30.741
C -2.1240000000000006 4.095 29.606
C -2.5490000000000004 5.45 30.064
C -3.1570000000000005 3.469 28.691
C -3.2780000000000005 4.168000000000001 27.279
C -2.311 3.556 26.234
C -3.025 2.423 25.43
C -2.372 1.03 25.606000000000005
C -3.0780000000000003 2.687 23.904
H 1.075 3.032 41.749
H -0.29600000000000004 -2.8360000000000003 44.319
H 5.700000000000001 -3.415 46.163
H 5.376000000000001 4.7 43.221
H 3.291 4.312 41.27000000000001
H 1.94 4.68 43.428
H 3.0400000000000005 6.042000000000001 42.84300000000001
H 3.3150000000000004 5.085000000000001 44.272
H 7.120000000000001 3.815 41.88000000000001
H 5.982000000000001 4.608 40.75500000000001
H 5.339 1.846 40.804
H 7.152000000000001 1.9640000000000002 40.809
H -1.4650000000000003 2.038 40.797
H -1.165 3.109 42.181
H -2.5300000000000002 2.1470000000000002 42.169
H -3.476 -2.809 42.94800000000001
H -2.332 -2.656 44.283
H -1.797 -2.902 42.526
H 1.6870000000000003 -4.884 44.09400000000001
H 3.35 -4.606 46.664
H -0.10700000000000001 -5.37 45.518
H 0.379 -4.207 46.794000000000004
H 1.2030000000000003 -5.755 46.69800000000001
H 4.889 -5.253 44.191
H 3.628 -6.445 44.543
H 6.307 -6.009000000000001 45.744
H 5.136000000000001 -7.248000000000001 46.215
H 5.312 -5.697 47.045
H 8.316 -2.821 46.017
H 7.758000000000001 -2.083 47.526
H 9.136 -1.391 46.605
H 7.970000000000001 2.884 43.584
H 4.675000000000001 5.078 46.863
H 6.083 5.93 46.04
H 6.206 5.066000000000001 47.56700000000001
H 7.208000000000001 0.6580000000000001 36.497
H 7.169 2.36 36.633
H 4.481 1.537 37.114
H 7.159 0.587 34.48700000000001
H 5.947 0.594 33.215
H 6.082000000000001 -0.817 34.399
H 3.0800000000000005 0.322 35.657
H 3.654 -0.10200000000000001 34.032
H 3.8880000000000003 2.7890000000000006 34.254
H 2.292 2.3260000000000005 34.942
H 2.4690000000000003 0.695 32.613
H 3.072 2.336 32.187
H 0.708 2.9930000000000003 33.605000000000004
H -0.853 1.132 32.825
H 0.121 1.044 34.388
H 0.469 0.036 32.903000000000006
H 0.332 1.915 30.822000000000003
H 1.341 3.3360000000000003 31.071000000000005
H -0.396 4.636 31.103000000000005
H -0.9350000000000002 3.809 32.556
H -2.78 2.9560000000000004 31.384000000000004
H -1.7400000000000002 2.143 30.231
H -1.152 4.354 29.187000000000005
H -1.7000000000000002 6.127000000000001 29.966000000000005
H -2.999 5.445000000000001 31.057000000000002
H -3.348 5.871 29.454
H -4.121 3.5830000000000006 29.187000000000005
H -3.0000000000000004 2.4 28.547000000000004
H -2.983 5.217 27.325
H -4.301 4.146 26.903000000000002
H -1.4470000000000003 3.1430000000000002 26.754
H -1.8910000000000002 4.318 25.577000000000005
H -4.052 2.27 25.761000000000003
H -3.1960000000000006 0.37200000000000005 25.331000000000003
H -2.13 0.909 26.662
H -1.5310000000000001 0.829 24.942
H -2.599 1.8900000000000001 23.334000000000003
H -2.646 3.649 23.627
H -4.121 2.7350000000000003 23.593000000000004
Mg 26.07 0.323 29.175000000000004
C 27.93 0.003 32.172
C 23.237000000000002 0.373 31.222
C 24.2 0.735 26.508000000000003
C 28.899000000000004 -0.559 27.356
N 25.688 0.233 31.426
C 26.587 0.253 32.449
C 25.993 0.251 33.868
C 24.435000000000002 0.24800000000000003 33.454
C 24.487000000000002 0.27 31.955
C 23.634 -1.0230000000000001 33.943
C 26.399000000000004 1.5090000000000001 34.703
C 27.306000000000004 1.4780000000000002 35.927
C 27.075 2.414 37.106
O 26.799 3.589 37.103
O 27.375000000000004 1.786 38.263
N 24.004000000000005 0.606 28.874
C 22.986 0.524 29.835
C 21.724 0.613 29.135000000000005
C 21.973 0.8800000000000001 27.791
C 23.443 0.8040000000000002 27.683
C 20.468000000000004 0.6480000000000001 29.937000000000005
C 21.028 1.0820000000000003 26.607000000000003
O 21.392000000000003 1.281 25.444
C 19.585 1.1840000000000002 26.910000000000004
N 26.429000000000002 0.025000000000000005 27.200000000000003
C 25.570000000000004 0.4620000000000001 26.230000000000004
C 26.301000000000002 0.604 24.852000000000004
C 27.706 0.101 25.157000000000004
C 27.680000000000003 -0.24400000000000002 26.672000000000004
C 25.559000000000005 -0.10800000000000001 23.674
C 28.733000000000004 1.1830000000000003 24.79
C 29.963 0.7730000000000001 24.065000000000005
N 28.005 -0.282 29.610000000000003
C 29.056 -0.58 28.78
C 30.245 -0.868 29.525000000000002
C 29.924 -0.56 30.937
C 28.520000000000003 -0.198 30.898000000000003
C 31.586 -1.3370000000000002 28.935
C 30.407000000000004 -0.487 32.339
O 31.558 -0.586 32.797
C 29.115000000000002 -0.111 33.175
C 29.058 -1.2840000000000003 34.103
O 28.531 -2.375 33.922
O 29.56 -0.978 35.268
C 29.754000000000005 -2.038 36.287000000000006
C 27.261000000000003 2.5340000000000003 39.514
C 26.102000000000004 2.141 40.365
C 26.09 1.3450000000000002 41.476
C 27.315000000000005 0.8740000000000001 42.17100000000001
C 24.847 1.235 42.23400000000001
C 24.605 2.21 43.36200000000001
C 23.913000000000004 1.429 44.52100000000001
C 23.963 2.248 45.945
C 24.117 1.463 47.221000000000004
C 22.85 3.29 45.917
C 22.815000000000005 4.266 47.141000000000005
C 22.011 5.568 46.931000000000004
C 22.651 6.867000000000001 47.491
C 21.565000000000005 7.621000000000001 48.307
C 23.252000000000002 7.825000000000001 46.290000000000006
C 22.147000000000002 8.566 45.514
C 22.397 10.102 45.528000000000006
C 21.929 10.612000000000002 44.095000000000006
C 22.999000000000002 10.603 42.980000000000004
C 21.237 12.047 44.187000000000005
H 22.467000000000002 0.529 31.980000000000004
H 23.696 0.8160000000000001 25.543
H 29.793000000000003 -0.7640000000000001 26.764000000000003
H 26.263000000000005 -0.696 34.337
H 23.827 1.112 33.724
H 24.218000000000004 -1.8840000000000001 34.267
H 22.997 -1.39 33.139
H 22.991 -0.7240000000000001 34.771
H 25.469000000000005 1.946 35.06700000000001
H 26.901000000000003 2.237 34.067
H 28.234 1.847 35.49
H 27.279 0.421 36.192
H 19.927 1.584 29.805
H 20.678 0.536 31.001000000000005
H 19.763 -0.138 29.668
H 19.433 1.9020000000000001 27.716
H 19.189 0.275 27.363
H 18.974000000000004 1.535 26.079000000000004
H 26.253 1.6810000000000003 24.692000000000004
H 27.966 -0.748 24.525000000000002
H 24.561 -0.4670000000000001 23.925
H 26.086 -0.978 23.284
H 25.565 0.535 22.794000000000004
H 29.004000000000005 1.5860000000000003 25.765
H 28.349000000000004 1.977 24.15
H 30.78 1.1430000000000002 24.684000000000005
H 29.933 1.134 23.037
H 30.142000000000003 -0.302 24.035000000000004
H 31.6 -2.426 28.91
H 32.389 -0.9310000000000002 29.55
H 31.717 -1.014 27.902000000000005
H 29.351000000000003 0.8040000000000002 33.718
H 28.833000000000002 -2.5330000000000004 36.593
H 30.271000000000004 -1.703 37.18600000000001
H 30.410000000000004 -2.865 36.017
H 27.069000000000003 3.6010000000000004 39.394
H 28.241 2.485 39.989
H 25.156 2.6500000000000004 40.183
H 27.396 1.361 43.143
H 28.214000000000002 1.069 41.586
H 27.271 -0.20000000000000004 42.35600000000001
H 24.834 0.21100000000000002 42.608
H 24.085 1.281 41.45600000000001
H 23.995 3.006 42.93600000000001
H 25.49 2.6880000000000006 43.783
H 24.331 0.449 44.751000000000005
H 22.854 1.341 44.279
H 24.879 2.837 45.912
H 24.858000000000004 1.827 47.934
H 24.256 0.3970000000000001 47.044
H 23.099000000000004 1.595 47.588
H 21.936 2.721 46.086
H 22.810000000000002 3.756 44.93200000000001
H 23.813 4.525 47.49300000000001
H 22.402 3.71 47.983000000000004
H 21.067 5.387 47.44500000000001
H 21.804000000000002 5.709 45.87
H 23.521 6.634000000000001 48.104000000000006
H 21.837 8.677 48.30400000000001
H 21.567000000000004 7.348 49.362
H 20.538000000000004 7.443 47.987
H 23.751 7.184 45.563
H 23.951 8.476 46.815
H 21.138000000000005 8.454 45.910000000000004
H 22.077000000000005 8.186 44.495
H 23.455 10.185000000000002 45.776
H 21.848 10.524000000000001 46.371
H 21.096 10.017 43.718
H 24.032 10.427 43.281
H 23.099000000000004 11.552 42.455
H 22.762 9.823 42.256
H 21.041000000000004 12.246000000000002 45.24
H 20.247 12.030000000000001 43.731
H 21.927 12.721 43.679

