280
Bchla 5 -- Bchla 6
Mg 24.459 -7.804000000000001 45.73
C 26.586 -5.045000000000001 44.577
C 21.887000000000004 -6.074000000000001 44.19
C 22.841 -10.552 45.751
C 27.522000000000002 -9.37 46.768
N 24.343000000000004 -5.766 44.356
C 25.305 -4.83 44.045
C 24.688 -3.749 43.084
C 23.167000000000005 -3.9430000000000005 43.211000000000006
C 23.119 -5.331 43.95600000000001
C 22.332 -2.8730000000000007 44.03
C 25.237 -3.8220000000000005 41.618
C 25.488 -2.499 40.927
C 24.417000000000005 -2.034 39.891
O 23.317 -1.624 40.184
O 24.875000000000004 -2.272 38.628
N 22.604000000000003 -8.235 45.19100000000001
C 21.647 -7.401 44.68
C 20.381 -8.155 44.469
C 20.679 -9.472000000000001 44.906
C 22.095 -9.47 45.265
C 19.082 -7.63 43.836000000000006
C 19.818 -10.733 44.789
O 18.676 -10.595 44.359
C 20.227 -12.028 45.167
N 25.207 -9.776 45.955000000000005
C 24.194 -10.69 46.16700000000001
C 24.843000000000004 -12.02 46.714
C 26.381 -11.701 46.729
C 26.353000000000005 -10.162000000000003 46.569
C 24.303000000000004 -12.52 48.082
C 27.322000000000003 -12.424 45.683
C 27.761 -13.868 45.982
N 26.632 -7.372000000000001 45.76700000000001
C 27.69 -8.054000000000002 46.33400000000001
C 28.898000000000003 -7.265000000000001 46.339
C 28.501000000000005 -6.051000000000001 45.663
C 27.123000000000005 -6.133000000000001 45.258
C 30.216 -7.747000000000001 46.862
C 28.993000000000002 -4.841 45.175
O 30.137 -4.417 45.08200000000001
C 27.848000000000003 -4.189 44.347
C 27.671 -2.819 44.959
O 27.621000000000002 -1.7800000000000002 44.296
O 27.393 -2.803 46.385
C 26.881000000000004 -1.5110000000000001 46.839000000000006
C 23.97 -2.108 37.49000000000001
C 23.949 -3.434 36.77
C 24.911 -4.045 36.109
C 26.430000000000003 -3.609 35.953
C 24.583 -5.311 35.474
C 23.957 -5.257 34.139
C 23.241 -6.58 33.77000000000001
C 22.733000000000004 -6.697000000000001 32.370000000000005
C 21.624 -7.747000000000001 32.217
C 23.981 -6.913 31.374
C 23.822000000000003 -6.118000000000001 30.051000000000002
C 25.165000000000003 -5.529000000000001 29.557000000000002
C 25.278 -3.933 29.677000000000003
C 26.354000000000003 -3.4940000000000007 30.732
C 25.475 -3.367 28.305000000000003
C 24.156 -3.5830000000000006 27.430000000000003
C 24.512 -3.892 25.894
C 23.607 -5.058 25.347000000000005
C 24.461 -6.168 24.693000000000005
C 22.679000000000002 -4.49 24.291
H 21.044 -5.517000000000001 43.777
H 22.37 -11.509 45.98500000000001
H 28.345000000000002 -9.943 47.2
H 24.831000000000003 -2.766 43.535
H 22.699 -4.122 42.243
H 21.798 -2.303 43.27000000000001
H 22.988 -2.174 44.548
H 21.676 -3.2770000000000006 44.801
H 24.553000000000004 -4.272 40.898
H 26.195000000000004 -4.342 41.598
H 26.494 -2.546 40.510000000000005
H 25.503 -1.726 41.696
H 18.222 -8.027 44.376
H 19.151 -7.952 42.797
H 19.012 -6.547000000000001 43.928000000000004
H 20.354 -12.038000000000002 46.25
H 21.098 -12.408000000000001 44.633
H 19.4 -12.623 44.778000000000006
H 24.715000000000003 -12.875 46.051
H 26.808 -11.853 47.72
H 25.179000000000002 -12.58 48.72800000000001
H 23.876000000000005 -13.512000000000002 47.938
H 23.571000000000005 -11.76 48.358
H 28.203 -11.782000000000002 45.654
H 26.828000000000003 -12.521000000000003 44.71600000000001
H 27.326 -14.008000000000001 46.97200000000001
H 28.839000000000002 -13.929 46.138000000000005
H 27.422000000000004 -14.643 45.295
H 30.43 -8.657 46.303
H 30.177 -8.08 47.899
H 31.044 -7.089 46.598
H 28.225 -4.065000000000001 43.33200000000001
H 26.346000000000004 -1.907 47.703
H 26.354000000000003 -0.9760000000000001 46.049
H 27.739000000000004 -0.964 47.23
H 24.516 -1.3650000000000002 36.909
H 22.959 -1.7100000000000002 37.58
H 22.941 -3.849 36.776
H 26.903000000000002 -3.981 36.862
H 26.442 -2.523 36.044
H 26.811000000000003 -3.93 34.984
H 23.906 -5.93 36.062
H 25.462000000000003 -5.942 35.347
H 24.747000000000003 -5.140000000000001 33.398
H 23.269 -4.411 34.152
H 22.379 -6.564000000000001 34.436
H 23.845 -7.452000000000001 34.022
H 22.186 -5.795 32.096000000000004
H 20.892 -7.35 31.515000000000004
H 21.22 -8.011 33.194
H 21.983 -8.658 31.738
H 24.079 -7.985000000000001 31.199000000000005
H 24.932 -6.648000000000001 31.836000000000002
H 23.048 -5.36 30.178000000000004
H 23.519000000000002 -6.885 29.339
H 25.249000000000002 -5.845000000000001 28.517000000000003
H 26.041000000000004 -5.962 30.04
H 24.391 -3.509 30.146
H 25.819000000000003 -2.872 31.449
H 27.173 -2.8900000000000006 30.343
H 26.711 -4.311 31.359
H 26.354000000000003 -3.809 27.837
H 25.652000000000005 -2.296 28.409
H 23.647 -2.623 27.335
H 23.489 -4.347000000000001 27.83
H 25.570000000000004 -4.0920000000000005 25.726
H 24.341000000000005 -2.9740000000000006 25.331000000000003
H 22.994 -5.4830000000000005 26.141000000000002
H 23.82 -6.919 24.232
H 25.078 -6.549 25.507000000000005
H 25.199 -5.761000000000001 24.001
H 22.9 -3.45 24.051000000000002
H 21.674000000000003 -4.418 24.706000000000003
H 22.665000000000003 -5.104000000000001 23.39
Mg 17.054000000000002 -2.2880000000000003 27.750000000000004
C 16.548 -0.354 30.726
C 18.852000000000004 -4.529 29.657
C 18.013000000000005 -3.67 24.949000000000005
C 15.392000000000001 0.222 26.033000000000005
N 17.886 -2.277 29.962
C 17.412 -1.4370000000000003 30.933
C 17.782 -2.001 32.331
C 18.585 -3.327 31.996000000000002
C 18.484 -3.4240000000000004 30.43
C 20.102000000000004 -3.411 32.453
C 16.578 -2.2860000000000005 33.268
C 16.684 -1.8500000000000003 34.68600000000001
C 18.053 -1.523 35.396
O 18.778 -0.591 35.104
O 18.548000000000002 -2.518 36.236
N 18.305 -3.918 27.31
C 18.859 -4.819 28.219
C 19.641 -5.825 27.475000000000005
C 19.293 -5.632000000000001 26.083
C 18.516 -4.371 26.058000000000003
C 20.531000000000002 -6.871 28.075000000000003
C 19.639 -6.463000000000001 24.825
O 19.045 -6.384 23.729
C 20.630000000000003 -7.546 24.977
N 16.791 -1.754 25.844000000000005
C 17.373000000000005 -2.499 24.842
C 16.845 -2.07 23.445
C 15.703 -1.041 23.862000000000002
C 15.953 -0.843 25.347000000000005
C 17.88 -1.479 22.403
C 14.265 -1.461 23.602000000000004
C 13.502 -0.619 22.558000000000003
N 15.981000000000002 -0.538 28.255
C 15.386 0.394 27.438000000000002
C 14.878 1.514 28.241
C 15.273000000000001 1.207 29.531
C 15.938 -0.039 29.497
C 14.172000000000002 2.7510000000000003 27.793
C 15.189000000000002 1.6990000000000003 30.859000000000005
O 14.574 2.682 31.362000000000002
C 15.981000000000002 0.758 31.664
C 17.012 1.503 32.468
O 17.975 2.031 32.027
O 16.72 1.423 33.766
C 17.368 2.297 34.684
C 19.982 -2.452 36.552
C 20.408000000000005 -3.7640000000000002 37.247
C 20.356 -4.021 38.546
C 19.854 -3.0560000000000005 39.583
C 20.837 -5.333 39.057
C 22.258 -5.655 39.002
C 22.740000000000002 -6.699000000000001 40.128
C 23.734 -7.691 39.446
C 22.955000000000002 -8.755000000000003 38.715
C 24.769000000000002 -8.272 40.501
C 26.123000000000005 -7.521 40.532
C 26.806 -7.793000000000001 41.936
C 27.491000000000003 -9.18 41.978
C 26.842000000000002 -9.995 43.104000000000006
C 29.044000000000004 -9.062 42.251000000000005
C 29.902 -9.093 40.942
C 31.024 -10.168 41.003
C 31.344 -10.751 39.606
C 32.091 -9.703 38.807
C 32.157 -12.063000000000002 39.749
H 19.445 -5.281000000000001 30.182000000000002
H 18.215 -4.046000000000001 23.943000000000005
H 14.94 1.0430000000000001 25.474
H 18.422 -1.249 32.794
H 18.07 -4.189 32.419
H 20.439000000000004 -2.604 33.103
H 20.706000000000003 -3.311 31.550000000000004
H 20.311 -4.382 32.903000000000006
H 16.349 -3.349 33.352
H 15.66 -1.804 32.93300000000001
H 16.309 -2.637 35.34100000000001
H 16.049 -0.9720000000000001 34.801
H 21.524 -6.798000000000001 27.632000000000005
H 20.096000000000004 -7.833000000000001 27.804000000000002
H 20.474 -6.870000000000001 29.164
H 21.579 -7.085 25.251
H 20.755 -7.963 23.978
H 20.262 -8.353 25.61
H 16.37 -2.96 23.031000000000002
H 15.888 -0.125 23.301
H 18.88 -1.4650000000000003 22.835
H 17.571000000000005 -0.518 21.99
H 17.864 -2.133 21.531
H 13.635000000000002 -1.616 24.478000000000005
H 14.307 -2.459 23.167000000000005
H 12.479 -0.335 22.804
H 13.298000000000002 -1.281 21.716
H 13.992000000000003 0.304 22.251000000000005
H 13.755000000000003 2.656 26.790000000000003
H 14.889000000000001 3.5600000000000005 27.654
H 13.497000000000002 3.03 28.602000000000004
H 15.272000000000002 0.271 32.333
H 16.919 3.2800000000000002 34.535
H 18.417 2.432 34.42
H 17.174 2.0 35.715
H 20.182 -1.5990000000000002 37.20100000000001
H 20.542 -2.4460000000000006 35.617000000000004
H 20.690000000000005 -4.616 36.628
H 19.138 -2.4460000000000006 39.033
H 20.664 -2.451 39.99000000000001
H 19.457 -3.6820000000000004 40.382
H 20.285000000000004 -6.003 38.398
H 20.431000000000004 -5.496 40.05500000000001
H 22.825000000000003 -4.727 38.932
H 22.485 -6.0360000000000005 38.007
H 21.940000000000005 -7.281 40.58700000000001
H 23.253 -6.066000000000001 40.853
H 24.429 -7.174 38.785
H 23.377 -8.933 37.726
H 21.938 -8.39 38.577
H 22.868 -9.662000000000003 39.313
H 24.871 -9.356 40.539
H 24.367 -7.952 41.462
H 25.835000000000004 -6.482000000000001 40.376000000000005
H 26.762 -7.954 39.763000000000005
H 26.064000000000004 -7.7700000000000005 42.733
H 27.439 -6.930000000000001 42.144000000000005
H 27.284000000000002 -9.649 41.016000000000005
H 27.200000000000003 -9.702 44.09100000000001
H 27.061 -11.049 42.931
H 25.773000000000003 -9.788 43.068
H 29.359 -9.968 42.769000000000005
H 29.234000000000005 -8.137 42.79600000000001
H 30.419 -8.134 40.972
H 29.280000000000005 -9.128 40.047
H 30.802 -11.04 41.618
H 31.870000000000005 -9.865 41.62100000000001
H 30.338 -10.853 39.2
H 31.684 -9.983 37.835
H 33.179 -9.737 38.747
H 31.83 -8.679000000000002 39.075
H 33.195 -11.825 39.514
H 31.775000000000002 -12.699 38.95
H 32.036 -12.58 40.701

