280
Bchla 4 -- Bchla 12
Mg 8.828 2.979 28.391000000000002
C 10.365 1.604 31.107
C 7.597 5.545 30.492000000000004
C 7.114000000000001 4.2330000000000005 25.802
C 10.134 0.474 26.437000000000005
N 8.693 3.351 30.578000000000003
C 9.525000000000002 2.685 31.487
C 9.406 3.272 32.922
C 8.46 4.464 32.618
C 8.161000000000001 4.436 31.13
C 7.123 4.696 33.443
C 10.760000000000002 3.7270000000000003 33.625
C 10.509000000000002 4.328000000000001 35.034
C 10.968 3.4140000000000006 36.171
O 12.221000000000002 3.189 36.417
O 9.956 2.8760000000000003 36.923
N 7.544 4.728 28.173
C 7.388 5.736 29.1
C 6.471 6.693 28.492
C 6.332 6.293000000000001 27.124000000000002
C 7.022 5.053 26.955
C 5.959 7.8500000000000005 29.26
C 5.418000000000001 7.051 26.099
O 5.12 6.601 24.974000000000004
C 4.785 8.363 26.483000000000004
N 8.635 2.4480000000000004 26.519
C 7.831000000000001 3.126 25.560000000000002
C 7.672 2.298 24.305000000000003
C 8.944 1.456 24.384
C 9.323 1.476 25.858000000000004
C 6.367000000000001 1.433 24.304000000000002
C 10.116 2.066 23.583
C 10.222 1.7510000000000001 22.115000000000002
N 9.991 1.292 28.619000000000003
C 10.573 0.454 27.746
C 11.354 -0.5110000000000001 28.462
C 11.332000000000003 -0.10700000000000001 29.78
C 10.516000000000002 1.034 29.827000000000005
C 12.085 -1.615 27.781000000000002
C 11.825 -0.42000000000000004 31.053
O 12.582000000000003 -1.291 31.436
C 11.205 0.7090000000000001 32.003
C 10.440000000000001 0.028000000000000004 33.082
O 9.421 -0.608 32.964
O 10.938 0.32100000000000006 34.287
C 10.212000000000002 -0.271 35.476
C 10.442 2.436 38.219
C 10.585000000000003 3.612 39.101
C 10.938 3.628 40.413
C 11.388 2.464 41.283
C 11.155 4.989 41.129
C 9.752 5.588000000000001 41.57600000000001
C 9.542 7.039 41.239
C 9.091000000000001 7.969 42.37200000000001
C 7.654000000000001 7.531 42.831
C 9.102 9.442 41.992000000000004
C 10.452000000000002 10.007 42.316
C 10.402000000000001 11.334 43.141
C 10.943000000000001 11.173 44.557
C 12.074 12.167000000000002 44.84100000000001
C 9.848 11.107 45.671
C 9.848 9.934 46.687000000000005
C 8.67 8.916 46.459
C 7.66 8.833 47.644000000000005
C 7.954 7.651 48.642
C 6.2490000000000006 8.709 47.233000000000004
H 7.388 6.3790000000000004 31.165000000000003
H 6.566000000000001 4.634 24.947
H 10.686 -0.275 25.866000000000003
H 8.895 2.543 33.551
H 9.005 5.4 32.744
H 6.855000000000001 5.7330000000000005 33.647
H 7.101000000000001 4.029 34.30500000000001
H 6.335000000000001 4.379 32.76
H 11.201 4.41 32.9
H 11.412000000000003 2.857 33.702
H 9.473 4.656000000000001 35.119
H 11.135 5.217 35.105
H 4.892000000000001 7.697000000000001 29.423
H 6.279 8.735 28.710000000000004
H 6.4670000000000005 7.932000000000001 30.221
H 4.238 8.773 25.634
H 5.636 9.032 26.618
H 4.162 8.37 27.377000000000002
H 7.642000000000001 2.9300000000000006 23.417
H 8.8 0.42300000000000004 24.068000000000005
H 6.4590000000000005 0.583 24.979
H 6.138 1.095 23.293
H 5.576 2.107 24.631000000000004
H 11.088000000000001 1.857 24.028
H 10.1 3.151 23.687
H 10.173000000000002 2.704 21.589
H 9.271 1.263 21.901000000000003
H 11.07 1.121 21.846
H 13.127000000000002 -1.339 27.624
H 11.639 -2.062 26.892
H 12.108 -2.4270000000000005 28.508
H 12.027000000000001 1.281 32.434
H 9.156 -0.028000000000000004 35.35600000000001
H 10.523 0.16 36.428
H 10.374 -1.349 35.46
H 11.342 1.826 38.135
H 9.578 1.846 38.525
H 10.35 4.58 38.659
H 12.457000000000003 2.253 41.271
H 10.877 1.594 40.869
H 11.041 2.646 42.3
H 11.642 5.5920000000000005 40.363
H 11.695 4.988 42.076
H 9.692 5.373 42.643
H 8.983 4.976000000000001 41.10600000000001
H 8.809000000000001 7.066 40.43300000000001
H 10.489 7.336 40.789
H 9.661 7.63 43.23700000000001
H 6.946 8.352 42.93600000000001
H 7.823000000000001 7.050000000000001 43.795
H 7.297000000000001 6.769 42.13900000000001
H 8.294 10.092 42.329
H 8.911 9.357 40.922
H 11.011 10.375 41.455
H 11.061 9.262 42.82800000000001
H 9.398 11.735 43.276
H 10.899 12.154 42.622
H 11.504000000000001 10.238 44.574
H 12.984 11.571 44.763000000000005
H 12.079000000000002 12.453000000000001 45.89300000000001
H 12.336 12.989 44.175
H 8.944 10.967 45.079
H 9.807000000000002 11.991 46.308
H 9.842 10.217 47.739000000000004
H 10.774 9.381 46.53
H 9.156 7.942 46.407
H 7.992 8.997 45.609
H 7.638 9.788 48.16700000000001
H 7.105000000000001 7.47 49.301
H 8.786000000000001 7.889 49.304
H 8.11 6.706000000000001 48.12100000000001
H 6.0360000000000005 8.417 46.205
H 5.724 9.614 47.540000000000006
H 5.699 7.869000000000001 47.658
Mg 47.671 15.890000000000002 28.454
C 45.34400000000001 15.655000000000001 31.048000000000002
C 49.480000000000004 18.075000000000003 30.515000000000004
C 49.687 16.659 25.896000000000004
C 45.306 14.621000000000002 26.300000000000004
N 47.507000000000005 16.717 30.64
C 46.409000000000006 16.477 31.405
C 46.52 17.235 32.787
C 47.758 18.22 32.48
C 48.27100000000001 17.699 31.127000000000002
C 47.166 19.656 32.251
C 46.904 16.168 33.87700000000001
C 47.20400000000001 16.686 35.31
C 48.31600000000001 16.299 36.239
O 49.14300000000001 15.375 36.104
O 48.287000000000006 17.131 37.333
N 49.43000000000001 17.014 28.320000000000004
C 50.06900000000001 17.827 29.271
C 51.20000000000001 18.391 28.663000000000004
C 51.38300000000001 17.851 27.397
C 50.14500000000001 17.128 27.157
C 52.11500000000001 19.271 29.450000000000003
C 52.515 18.076 26.341
O 52.574000000000005 17.523 25.248000000000005
C 53.788 18.861 26.669
N 47.442 15.767 26.396
C 48.48400000000001 16.017000000000003 25.572
C 48.260000000000005 15.53 24.127000000000002
C 46.801 15.004 24.224
C 46.51 15.008 25.714000000000002
C 48.611000000000004 16.583 23.024
C 46.486000000000004 13.650000000000002 23.531
C 46.966 12.438000000000002 24.21
N 45.75600000000001 15.167000000000002 28.599
C 44.938 14.697 27.686
C 43.69800000000001 14.180000000000001 28.274000000000004
C 43.863 14.561000000000002 29.644
C 45.089 15.181000000000001 29.786
C 42.778 13.18 27.748000000000005
C 43.211000000000006 14.491 30.940000000000005
O 42.192 13.935000000000002 31.282
C 44.145 15.276 31.869
C 43.419 16.438 32.555
O 43.17 17.49 32.026
O 43.04200000000001 16.055 33.82
C 42.339 17.133 34.553
C 49.50200000000001 17.037 38.132000000000005
C 49.561 18.263 39.01400000000001
C 50.65100000000001 18.917 39.569
C 52.126000000000005 18.574 39.316
C 50.51500000000001 20.089000000000002 40.599
C 50.806000000000004 21.538 39.927
C 52.14200000000001 22.186 40.17600000000001
C 53.08700000000001 22.243 38.992
C 54.529 21.795000000000005 39.323
C 53.150000000000006 23.665 38.33
C 52.77100000000001 23.536 36.896
C 52.58700000000001 24.871 36.211
C 53.013000000000005 24.900000000000002 34.764
C 54.11200000000001 25.946 34.523
C 51.83 24.921000000000003 33.76
C 52.077 24.161 32.463
C 50.842 23.450000000000003 31.96
C 50.397 24.029000000000003 30.560000000000002
C 48.86600000000001 23.981 30.309000000000005
C 51.22800000000001 23.381000000000004 29.377
H 50.098 18.647 31.209000000000003
H 50.414 16.702000000000005 25.082000000000004
H 44.812000000000005 14.14 25.454000000000004
H 45.63400000000001 17.83 33.010000000000005
H 48.522 18.246 33.258
H 47.138 20.013 31.222
H 47.84 20.429 32.621
H 46.166 19.793 32.662
H 47.758 15.61 33.494
H 46.098 15.434000000000001 33.898
H 46.248 16.587 35.825
H 47.421 17.732 35.09700000000001
H 51.803 19.483 30.473
H 52.347 20.143 28.837000000000003
H 53.025000000000006 18.677 29.539000000000005
H 53.61800000000001 19.925 26.834000000000003
H 54.61200000000001 18.703 25.973000000000003
H 54.192 18.417 27.579
H 49.00300000000001 14.733 24.135000000000005
H 46.204 15.805 23.788
H 49.400000000000006 17.254 23.362
H 47.726 17.181 22.805
H 48.986000000000004 16.126 22.108000000000004
H 46.997 13.776000000000002 22.577
H 45.423 13.597000000000001 23.295
H 46.251 12.146 24.979
H 47.972 12.581 24.604
H 46.988 11.578 23.54
H 43.376000000000005 12.596 27.048000000000002
H 41.933 13.490000000000002 27.133000000000003
H 42.416 12.613000000000001 28.605
H 44.526 14.581 32.618
H 41.57800000000001 16.677 35.186
H 41.709 17.79 33.953
H 43.02300000000001 17.668 35.211
H 50.335 17.193 37.446
H 49.725 16.096 38.635000000000005
H 48.60600000000001 18.712 39.285
H 52.82 19.021 40.028
H 52.31300000000001 18.945 38.308
H 52.23800000000001 17.491 39.253
H 51.04500000000001 19.916 41.536
H 49.456 20.241000000000003 40.808
H 50.036 22.216 40.294
H 50.716 21.469 38.843
H 52.716 21.608 40.9
H 52.016 23.147 40.674
H 52.732 21.57 38.211
H 54.792 20.96 38.675
H 54.634 21.465 40.357
H 55.297 22.563 39.229
H 54.12400000000001 24.154 38.327
H 52.464000000000006 24.251000000000005 38.941
H 51.77 23.108 36.945
H 53.41100000000001 22.819 36.381
H 52.991 25.651000000000003 36.856
H 51.51400000000001 25.016 36.342
H 53.470000000000006 23.924 34.599
H 54.939 25.416000000000004 34.05
H 54.376 26.489000000000004 35.431
H 53.726 26.752000000000002 33.899
H 51.684 25.986000000000004 33.578
H 50.872 24.625000000000004 34.187
H 52.82 23.364000000000004 32.479
H 52.454 24.890000000000004 31.745
H 50.003 23.46 32.656
H 51.087 22.393 31.863
H 50.69200000000001 25.078 30.597
H 48.584 25.027000000000005 30.189000000000004
H 48.483000000000004 23.592 31.253
H 48.59300000000001 23.266 29.534000000000002
H 51.99300000000001 24.116 29.127000000000002
H 50.656 23.163 28.475
H 51.79600000000001 22.472 29.573

