280
Bchla 4 -- Bchla 17
Mg 8.828 2.979 28.391000000000002
C 10.365 1.604 31.107
C 7.597 5.545 30.492000000000004
C 7.114000000000001 4.2330000000000005 25.802
C 10.134 0.474 26.437000000000005
N 8.693 3.351 30.578000000000003
C 9.525000000000002 2.685 31.487
C 9.406 3.272 32.922
C 8.46 4.464 32.618
C 8.161000000000001 4.436 31.13
C 7.123 4.696 33.443
C 10.760000000000002 3.7270000000000003 33.625
C 10.509000000000002 4.328000000000001 35.034
C 10.968 3.4140000000000006 36.171
O 12.221000000000002 3.189 36.417
O 9.956 2.8760000000000003 36.923
N 7.544 4.728 28.173
C 7.388 5.736 29.1
C 6.471 6.693 28.492
C 6.332 6.293000000000001 27.124000000000002
C 7.022 5.053 26.955
C 5.959 7.8500000000000005 29.26
C 5.418000000000001 7.051 26.099
O 5.12 6.601 24.974000000000004
C 4.785 8.363 26.483000000000004
N 8.635 2.4480000000000004 26.519
C 7.831000000000001 3.126 25.560000000000002
C 7.672 2.298 24.305000000000003
C 8.944 1.456 24.384
C 9.323 1.476 25.858000000000004
C 6.367000000000001 1.433 24.304000000000002
C 10.116 2.066 23.583
C 10.222 1.7510000000000001 22.115000000000002
N 9.991 1.292 28.619000000000003
C 10.573 0.454 27.746
C 11.354 -0.5110000000000001 28.462
C 11.332000000000003 -0.10700000000000001 29.78
C 10.516000000000002 1.034 29.827000000000005
C 12.085 -1.615 27.781000000000002
C 11.825 -0.42000000000000004 31.053
O 12.582000000000003 -1.291 31.436
C 11.205 0.7090000000000001 32.003
C 10.440000000000001 0.028000000000000004 33.082
O 9.421 -0.608 32.964
O 10.938 0.32100000000000006 34.287
C 10.212000000000002 -0.271 35.476
C 10.442 2.436 38.219
C 10.585000000000003 3.612 39.101
C 10.938 3.628 40.413
C 11.388 2.464 41.283
C 11.155 4.989 41.129
C 9.752 5.588000000000001 41.57600000000001
C 9.542 7.039 41.239
C 9.091000000000001 7.969 42.37200000000001
C 7.654000000000001 7.531 42.831
C 9.102 9.442 41.992000000000004
C 10.452000000000002 10.007 42.316
C 10.402000000000001 11.334 43.141
C 10.943000000000001 11.173 44.557
C 12.074 12.167000000000002 44.84100000000001
C 9.848 11.107 45.671
C 9.848 9.934 46.687000000000005
C 8.67 8.916 46.459
C 7.66 8.833 47.644000000000005
C 7.954 7.651 48.642
C 6.2490000000000006 8.709 47.233000000000004
H 7.388 6.3790000000000004 31.165000000000003
H 6.566000000000001 4.634 24.947
H 10.686 -0.275 25.866000000000003
H 8.895 2.543 33.551
H 9.005 5.4 32.744
H 6.855000000000001 5.7330000000000005 33.647
H 7.101000000000001 4.029 34.30500000000001
H 6.335000000000001 4.379 32.76
H 11.201 4.41 32.9
H 11.412000000000003 2.857 33.702
H 9.473 4.656000000000001 35.119
H 11.135 5.217 35.105
H 4.892000000000001 7.697000000000001 29.423
H 6.279 8.735 28.710000000000004
H 6.4670000000000005 7.932000000000001 30.221
H 4.238 8.773 25.634
H 5.636 9.032 26.618
H 4.162 8.37 27.377000000000002
H 7.642000000000001 2.9300000000000006 23.417
H 8.8 0.42300000000000004 24.068000000000005
H 6.4590000000000005 0.583 24.979
H 6.138 1.095 23.293
H 5.576 2.107 24.631000000000004
H 11.088000000000001 1.857 24.028
H 10.1 3.151 23.687
H 10.173000000000002 2.704 21.589
H 9.271 1.263 21.901000000000003
H 11.07 1.121 21.846
H 13.127000000000002 -1.339 27.624
H 11.639 -2.062 26.892
H 12.108 -2.4270000000000005 28.508
H 12.027000000000001 1.281 32.434
H 9.156 -0.028000000000000004 35.35600000000001
H 10.523 0.16 36.428
H 10.374 -1.349 35.46
H 11.342 1.826 38.135
H 9.578 1.846 38.525
H 10.35 4.58 38.659
H 12.457000000000003 2.253 41.271
H 10.877 1.594 40.869
H 11.041 2.646 42.3
H 11.642 5.5920000000000005 40.363
H 11.695 4.988 42.076
H 9.692 5.373 42.643
H 8.983 4.976000000000001 41.10600000000001
H 8.809000000000001 7.066 40.43300000000001
H 10.489 7.336 40.789
H 9.661 7.63 43.23700000000001
H 6.946 8.352 42.93600000000001
H 7.823000000000001 7.050000000000001 43.795
H 7.297000000000001 6.769 42.13900000000001
H 8.294 10.092 42.329
H 8.911 9.357 40.922
H 11.011 10.375 41.455
H 11.061 9.262 42.82800000000001
H 9.398 11.735 43.276
H 10.899 12.154 42.622
H 11.504000000000001 10.238 44.574
H 12.984 11.571 44.763000000000005
H 12.079000000000002 12.453000000000001 45.89300000000001
H 12.336 12.989 44.175
H 8.944 10.967 45.079
H 9.807000000000002 11.991 46.308
H 9.842 10.217 47.739000000000004
H 10.774 9.381 46.53
H 9.156 7.942 46.407
H 7.992 8.997 45.609
H 7.638 9.788 48.16700000000001
H 7.105000000000001 7.47 49.301
H 8.786000000000001 7.889 49.304
H 8.11 6.706000000000001 48.12100000000001
H 6.0360000000000005 8.417 46.205
H 5.724 9.614 47.540000000000006
H 5.699 7.869000000000001 47.658
Mg 29.464000000000002 59.145 41.038
C 26.578 57.38900000000001 40.289
C 31.349 56.531000000000006 39.782
C 32.15 61.189 41.086
C 27.354000000000003 61.82000000000001 41.949
N 28.992000000000004 57.292 39.871
C 27.772000000000002 56.748000000000005 39.893
C 27.779000000000003 55.38900000000001 39.127
C 29.329 54.99700000000001 39.218
C 29.967000000000002 56.344 39.732
C 29.581 53.727000000000004 40.066
C 27.374000000000002 55.594 37.685
C 26.460000000000004 54.527 37.103
C 26.578 54.02100000000001 35.616
O 26.517 52.865 35.253
O 26.748000000000005 55.106 34.848
N 31.533 58.788 40.650000000000006
C 32.11 57.714 40.08400000000001
C 33.515 57.958 40.033
C 33.806 59.24700000000001 40.574000000000005
C 32.479 59.816 40.84
C 34.477 56.891 39.661
C 35.162 59.858000000000004 40.593
O 36.13 59.214 40.224000000000004
C 35.397 61.264 41.132
N 29.713 61.282 41.565000000000005
C 30.944000000000003 61.846 41.414
C 30.859000000000005 63.33400000000001 41.52
C 29.292 63.522 41.793000000000006
C 28.699000000000005 62.136 41.849
C 31.799 63.962 42.566
C 28.518000000000004 64.48 40.783
C 27.642000000000003 65.63900000000001 41.314
N 27.437000000000005 59.547 41.14
C 26.744000000000003 60.627 41.589
C 25.412 60.28 41.819
C 25.254000000000005 58.98400000000001 41.348
C 26.489000000000004 58.611000000000004 40.88
C 24.327000000000005 61.25500000000001 42.363
C 24.372000000000003 57.928 41.168000000000006
O 23.159 57.918000000000006 41.346
C 25.149000000000004 56.755 40.397
C 25.258000000000003 55.582 41.187
O 25.993 55.31600000000001 42.141000000000005
O 24.334000000000003 54.682 40.665000000000006
C 24.175000000000004 53.35900000000001 41.24400000000001
C 27.286 54.743 33.541
C 27.201000000000004 55.98 32.679
C 27.487 56.09100000000001 31.367000000000004
C 27.642000000000003 54.99700000000001 30.343
C 27.831000000000003 57.414 30.802
C 29.234000000000005 57.897 31.172000000000004
C 29.900000000000002 58.63 29.951000000000004
C 31.150000000000002 57.87500000000001 29.42
C 30.909 57.732 27.875
C 32.502 58.702000000000005 29.749
C 33.738 57.79600000000001 29.593000000000004
C 34.432 57.44 30.908
C 34.689 55.910000000000004 31.158
C 33.435 55.077 31.692
C 35.909 55.83400000000001 32.119
C 36.959 54.842000000000006 31.612000000000002
C 37.604 55.366 30.299
C 37.293000000000006 54.33800000000001 29.090000000000003
C 38.425 53.265 28.914000000000005
C 37.182 55.138 27.798
H 31.952 55.655 39.535
H 32.919 61.96200000000001 41.153000000000006
H 26.805000000000003 62.682 42.334
H 27.083 54.71900000000001 39.631
H 29.817 54.888000000000005 38.25
H 28.669000000000004 53.37400000000001 40.547
H 30.340000000000003 53.938 40.82
H 30.006000000000004 52.972 39.405
H 28.168000000000003 55.748 36.954
H 26.927000000000003 56.588 37.67
H 25.440000000000005 54.851 37.309
H 26.664 53.691 37.772
H 34.813 56.525 40.631
H 35.297 57.28300000000001 39.059
H 34.022 56.083 39.088
H 35.106 61.939 40.327
H 36.479 61.373 41.202
H 34.844 61.421 42.058
H 31.143 63.61000000000001 40.505
H 29.109 64.048 42.73
H 32.596 64.443 41.998
H 32.191 63.234 43.277
H 31.269 64.751 43.099
H 27.851 63.867000000000004 40.17700000000001
H 29.188000000000002 65.018 40.11200000000001
H 26.690000000000005 65.116 41.404
H 27.544000000000004 66.417 40.55800000000001
H 27.779000000000003 66.009 42.33
H 24.062 61.952 41.569
H 24.634 61.907 43.181000000000004
H 23.429 60.71200000000001 42.659000000000006
H 24.616000000000003 56.618 39.456
H 23.133 53.074000000000005 41.102
H 24.529 53.25500000000001 42.27
H 24.724000000000004 52.659000000000006 40.614
H 26.795000000000005 53.95600000000001 32.968
H 28.339 54.461000000000006 33.557
H 27.135 56.889 33.277
H 26.695 54.931 29.806000000000004
H 27.834000000000003 54.05100000000001 30.849000000000004
H 28.427000000000003 55.144000000000005 29.601000000000003
H 27.097 58.161 31.103000000000005
H 27.693000000000005 57.369 29.722000000000005
H 29.805 57.063 31.582000000000004
H 29.259000000000004 58.57300000000001 32.027
H 30.19 59.606 30.340000000000003
H 29.212000000000003 58.907 29.152000000000005
H 31.139000000000003 56.854000000000006 29.800000000000004
H 29.965000000000003 57.196 27.771000000000004
H 31.776 57.213 27.468000000000004
H 30.822000000000003 58.727000000000004 27.439
H 32.362 59.035000000000004 30.777
H 32.544 59.535 29.047
H 34.437 58.43 29.049
H 33.49600000000001 56.867000000000004 29.077
H 33.738 57.685 31.712000000000003
H 35.243 58.15200000000001 31.06
H 34.932 55.43600000000001 30.208
H 33.758 54.374 32.46000000000001
H 32.928 54.621 30.842
H 32.758 55.736 32.235
H 35.486 55.470000000000006 33.056
H 36.541 56.702000000000005 32.306
H 36.673 53.790000000000006 31.572
H 37.827 54.90500000000001 32.268
H 38.688 55.432 30.396
H 37.33 56.375 29.993
H 36.322 53.851000000000006 29.182000000000002
H 39.065 53.293 29.796
H 39.059 53.357 28.033
H 37.980000000000004 52.28000000000001 28.779000000000003
H 36.111 55.29600000000001 27.675
H 37.555 54.538000000000004 26.968
H 37.607 56.13300000000001 27.929

