280
Bchla 18 -- Bchla 27
Mg 35.496 50.254000000000005 25.270000000000003
C 35.177 48.233 28.133
C 33.951 52.80200000000001 27.062000000000005
C 35.524 52.00900000000001 22.451000000000004
C 36.25500000000001 47.316 23.351000000000003
N 34.65 50.479 27.32
C 34.759 49.532 28.348
C 34.558 50.223000000000006 29.684000000000005
C 33.901 51.589 29.336000000000002
C 34.189 51.633 27.805
C 32.412 51.77300000000001 29.767000000000003
C 35.851 50.335 30.564
C 35.577 50.303000000000004 32.132
C 34.122 50.22500000000001 32.602
O 33.488 49.211 32.821
O 33.522 51.448 32.761
N 34.963 52.12400000000001 24.874000000000002
C 34.418 53.04500000000001 25.752000000000002
C 34.292 54.33 25.127000000000002
C 34.619 54.108000000000004 23.751
C 35.084 52.735 23.667
C 33.723 55.59000000000001 25.848
C 34.526 55.05800000000001 22.602000000000004
O 34.699 54.67600000000001 21.42
C 34.142 56.56700000000001 22.603000000000005
N 35.57000000000001 49.711 23.153000000000002
C 35.668 50.65100000000001 22.194
C 36.166 50.02300000000001 20.868
C 36.379000000000005 48.52900000000001 21.137
C 36.086 48.524 22.702000000000005
C 35.302 50.411 19.707
C 37.754 47.93500000000001 20.763
C 38.97 48.585 21.468000000000004
N 35.635 48.14500000000001 25.593000000000004
C 36.093 47.168 24.776000000000003
C 36.325 45.994 25.616000000000003
C 36.017 46.322 26.966
C 35.543 47.655 26.904000000000003
C 36.938 44.675000000000004 25.153
C 35.967 45.839 28.309
O 36.341 44.806 28.858
C 35.323 47.11200000000001 29.167000000000005
C 34.105 46.631 29.933
O 33.007 46.491 29.431000000000004
O 34.39500000000001 46.48 31.270000000000003
C 33.502 45.678 32.1
C 32.179 51.407 33.44
C 31.728000000000005 52.757000000000005 33.816
C 31.476000000000003 53.20700000000001 35.06
C 31.585 52.419000000000004 36.34
C 31.232000000000003 54.65800000000001 35.253
C 32.494 55.578 35.358000000000004
C 32.199 56.97 34.852
C 32.095 57.93800000000001 36.032
C 33.53 58.581 36.387
C 31.056000000000004 59.133 35.87400000000001
C 29.751000000000005 59.058 36.829
C 29.767000000000003 60.111 37.94
C 29.644 61.531000000000006 37.366
C 30.948 62.357000000000006 37.629000000000005
C 28.401 62.13900000000001 37.941
C 27.155000000000005 61.73500000000001 37.126000000000005
C 25.977 62.101000000000006 38.07000000000001
C 25.105000000000004 63.313 37.609
C 24.682 64.143 38.785
C 23.953000000000003 62.854 36.704
H 33.579 53.562000000000005 27.752
H 35.604 52.66100000000001 21.579
H 36.619 46.49900000000001 22.725000000000005
H 33.857 49.64500000000001 30.286000000000005
H 34.499 52.36000000000001 29.821000000000005
H 31.927000000000003 52.02300000000001 28.824000000000005
H 32.302 52.650000000000006 30.406
H 31.871000000000002 50.93900000000001 30.214
H 36.348 51.294000000000004 30.421
H 36.547 49.55500000000001 30.258000000000003
H 35.894 51.265 32.535
H 36.149 49.471 32.542
H 33.111 56.132 25.126000000000005
H 34.505 56.27400000000001 26.176
H 33.128 55.503 26.757000000000005
H 34.79 57.12800000000001 23.277
H 33.09 56.730000000000004 22.837
H 34.455 57.11 21.712000000000003
H 37.076 50.566 20.616
H 35.498 48.04500000000001 20.714000000000002
H 35.746 51.194 19.092
H 34.312 50.699000000000005 20.061
H 35.072 49.59 19.027
H 37.831 48.14500000000001 19.696
H 37.755 46.857 20.927000000000003
H 39.444 47.775 22.022
H 38.574 49.35600000000001 22.129000000000005
H 39.645 49.119 20.799
H 37.675 44.286 25.855
H 37.529 44.806 24.247
H 36.124 43.98800000000001 24.920000000000005
H 36.093 47.354 29.900000000000002
H 32.487 45.915 31.780000000000005
H 33.564 45.882 33.169
H 33.815 44.645 31.948000000000004
H 32.265 50.727000000000004 34.287
H 31.423000000000002 51.004000000000005 32.766000000000005
H 31.65 53.498000000000005 33.021
H 30.704 52.510000000000005 36.975
H 32.324 52.846000000000004 37.01700000000001
H 31.698000000000004 51.339000000000006 36.24000000000001
H 30.791000000000004 54.83800000000001 36.233
H 30.508000000000003 55.014 34.52
H 33.249 55.124 34.715
H 32.94 55.631 36.351
H 31.333000000000002 56.919000000000004 34.192
H 32.992 57.23800000000001 34.153000000000006
H 31.795000000000005 57.422000000000004 36.944
H 33.614 59.644000000000005 36.163
H 34.30500000000001 58.039 35.845
H 33.851 58.384 37.41
H 30.661000000000005 59.072 34.859
H 31.512 60.117000000000004 35.98100000000001
H 29.423 58.069 37.15
H 28.914000000000005 59.32500000000001 36.184
H 30.794 59.96000000000001 38.273
H 28.948 59.747 38.56
H 29.581 61.56700000000001 36.278
H 31.798000000000002 61.8 38.02300000000001
H 30.697000000000003 63.114 38.371
H 31.266 62.821 36.696
H 28.527000000000005 63.219 37.874
H 28.265 61.888000000000005 38.993
H 27.274 60.72200000000001 36.74
H 27.103 62.354 36.23
H 26.344 62.379 39.058
H 25.434 61.177 38.26700000000001
H 25.737000000000002 63.849000000000004 36.901
H 25.303000000000004 65.034 38.686
H 24.842 63.722 39.778000000000006
H 23.602000000000004 64.275 38.717
H 23.032 62.759 37.28
H 24.164 61.967 36.107
H 23.724000000000004 63.565000000000005 35.911
Mg -5.21 24.541000000000004 27.195
C -3.5410000000000004 26.384000000000004 29.693000000000005
C -6.38 22.499 29.726
C -6.783000000000001 22.591 24.876000000000005
C -3.732 26.393000000000004 24.817
N -5.009 24.475 29.485
C -4.393000000000001 25.403000000000002 30.316000000000003
C -4.7780000000000005 25.157000000000004 31.761
C -5.380000000000001 23.705 31.74
C -5.612 23.568 30.252
C -4.487 22.583 32.401
C -5.828000000000001 26.148000000000003 32.285
C -5.66 26.572 33.748
C -5.928 25.52 34.86
O -5.178000000000001 24.808000000000003 35.42
O -7.247 25.651000000000003 35.24
N -6.480000000000001 22.853 27.281
C -6.765 22.191000000000003 28.426000000000002
C -7.522000000000001 21.026000000000003 28.101000000000003
C -7.817 21.045 26.694
C -6.985000000000001 22.142 26.232000000000003
C -7.947000000000001 20.031 29.145000000000003
C -8.63 20.1 25.809
O -8.907 20.385000000000005 24.623000000000005
C -9.087 18.724 26.28
N -5.32 24.558 25.17
C -5.973000000000001 23.615 24.382
C -5.699 23.91 22.943
C -4.772 25.174000000000003 22.837
C -4.608 25.452000000000005 24.340000000000003
C -5.2490000000000006 22.679000000000002 22.100000000000005
C -5.373 26.38 22.083
C -4.944 26.457 20.605000000000004
N -3.895 26.018000000000004 27.181
C -3.3810000000000002 26.779000000000003 26.132000000000005
C -2.501 27.909000000000002 26.61
C -2.55 27.715 28.000000000000004
C -3.426 26.623 28.301
C -1.787 28.935 25.749
C -2.033 28.274000000000004 29.24
O -1.249 29.202000000000005 29.443
C -2.781 27.475000000000005 30.39
C -1.665 26.984 31.333000000000002
O -0.581 26.549 31.003000000000004
O -2.033 27.276000000000003 32.645
C -1.033 26.854 33.626
C -7.564000000000001 24.944000000000003 36.511
C -8.753 24.01 36.285
C -9.206 23.034 37.178
C -8.642 22.672000000000004 38.542
C -10.439 22.214 36.802
C -11.605 22.545 37.716
C -12.141000000000002 21.385 38.532
C -12.837 20.297 37.695
C -14.376 20.604 37.604
C -12.473 18.878 38.236
C -11.075 18.359 37.854
C -10.252 18.044000000000004 39.133
C -8.796 17.661 38.813
C -7.707000000000001 18.676 39.491
C -8.488 16.152 39.028
C -7.214 15.591 38.264
C -6.276000000000001 14.932 39.298
C -4.745 15.127000000000002 38.87
C -3.893 13.923000000000002 39.358
C -4.266 16.497 39.329
H -6.796000000000001 21.923 30.555000000000003
H -7.246000000000001 22.043 24.053000000000004
H -3.2010000000000005 26.863 23.987
H -3.9420000000000006 25.157000000000004 32.46000000000001
H -6.324000000000001 23.596 32.274
H -3.587 22.935 32.906
H -4.09 21.819000000000003 31.733000000000004
H -5.035 22.071 33.19200000000001
H -6.837 25.751000000000005 32.176
H -5.779 27.088 31.735000000000003
H -6.234000000000001 27.469 33.98
H -4.65 26.933000000000003 33.941
H -7.011000000000001 19.854 29.675000000000004
H -8.293 19.055 28.805
H -8.678 20.404 29.862000000000002
H -8.257 18.167 26.715
H -9.457 18.282 25.355000000000004
H -9.853000000000002 18.807000000000002 27.051
H -6.6690000000000005 24.060000000000002 22.468
H -3.772 24.984 22.445
H -5.161 21.829 22.777
H -4.267000000000001 22.885000000000005 21.675
H -6.057000000000001 22.545 21.38
H -5.165000000000001 27.269000000000002 22.678000000000004
H -6.454 26.277000000000005 21.986000000000004
H -4.658 25.466 20.252
H -4.057 27.051 20.384
H -5.81 26.77 20.021
H -2.5470000000000006 29.614000000000004 25.362000000000002
H -1.261 28.538 24.881
H -1.105 29.457000000000004 26.42
H -3.5050000000000003 28.048000000000002 30.969
H -1.16 25.838 34.001000000000005
H -1.124 27.594 34.421
H 0.018 26.831 33.338
H -7.981 25.702 37.173
H -6.805 24.425000000000004 37.095
H -9.302 24.101 35.348
H -8.292 21.656 38.362
H -9.496 22.631 39.219
H -7.753000000000001 23.206000000000003 38.876
H -10.150000000000002 21.164 36.741
H -10.782 22.469 35.8
H -12.41 22.862000000000002 37.052
H -11.396 23.503000000000004 38.19200000000001
H -12.859 21.829 39.222
H -11.377000000000002 20.940000000000005 39.17
H -12.531 20.202000000000005 36.653000000000006
H -14.660000000000002 21.651000000000003 37.502
H -14.864 20.149000000000004 38.46600000000001
H -14.707 20.129 36.681
H -13.228 18.159 37.915
H -12.479 19.016 39.317
H -10.479000000000001 19.056 37.265
H -11.241000000000001 17.402 37.358
H -10.608000000000002 17.17 39.678
H -10.286 18.836 39.881
H -8.582 17.67 37.744
H -7.003 18.174 40.154
H -8.335 19.35 40.074
H -7.156000000000001 19.274 38.765
H -9.352 15.546 38.758
H -8.252000000000002 16.061 40.089
H -6.637 16.369 37.763
H -7.396000000000001 14.835000000000003 37.501
H -6.461000000000001 13.864 39.412000000000006
H -6.274000000000001 15.379000000000001 40.292
H -4.618 15.064000000000002 37.789
H -4.547 13.094000000000001 39.626000000000005
H -3.447 14.255000000000003 40.295
H -3.045 13.638000000000002 38.736
H -3.37 16.434 39.947
H -4.981 16.928 40.031
H -3.993 17.069000000000003 38.442

