280
Bchla 13 -- Bchla 24
Mg 46.269 25.137 28.870000000000005
C 47.26400000000001 27.261000000000003 31.452000000000005
C 45.068 22.98 31.102000000000004
C 46.59300000000001 22.696 26.499000000000002
C 47.586000000000006 27.403 26.575000000000003
N 46.028000000000006 25.204000000000004 31.054
C 46.486000000000004 26.155000000000005 31.859
C 45.989 25.868000000000002 33.322
C 45.393 24.446000000000005 33.19
C 45.51200000000001 24.155 31.697000000000003
C 46.24000000000001 23.308 33.949
C 44.921 26.907 33.894000000000005
C 45.18 27.258 35.319
C 44.051 27.156000000000002 36.333
O 42.867 26.915 35.975
O 44.42900000000001 27.395 37.661
N 45.856 23.126 28.82
C 45.332 22.402 29.858000000000004
C 44.87200000000001 21.106 29.340000000000003
C 45.325 21.036 27.993000000000002
C 46.006 22.318 27.747
C 44.159 20.036 30.227000000000004
C 45.218 19.848 26.99
O 45.636 19.88 25.838
C 44.545 18.61 27.449000000000005
N 46.989000000000004 25.039 26.905
C 47.1 23.902 26.099
C 47.90400000000001 24.250000000000004 24.819
C 47.61600000000001 25.804000000000002 24.632000000000005
C 47.369 26.076 26.143
C 49.389 23.836 24.901
C 46.421 26.187000000000005 23.806000000000004
C 45.034 26.121 24.373000000000005
N 47.05200000000001 27.048000000000002 28.895
C 47.58500000000001 27.842000000000002 27.906
C 48.078 29.117 28.432
C 48.07000000000001 28.906 29.884000000000004
C 47.439 27.616 30.079
C 48.679 30.186 27.673000000000002
C 48.437 29.466 31.179000000000002
O 49.025 30.434 31.487
C 47.84100000000001 28.427000000000003 32.265
C 48.812 28.038000000000004 33.351
O 49.557 27.063000000000002 33.319
O 48.64800000000001 28.911 34.426
C 49.485 28.689 35.619
C 43.349000000000004 27.285000000000004 38.637
C 43.409000000000006 25.981000000000005 39.381
C 42.815000000000005 25.681000000000004 40.59
C 41.973 26.587 41.465
C 42.73400000000001 24.216 41.042
C 41.351000000000006 23.566 40.779
C 40.703 22.851 41.985
C 39.508 23.598 42.67
C 38.403 24.144000000000002 41.69800000000001
C 39.895 24.531 43.902
C 39.162 24.066000000000003 45.19
C 39.581 24.896 46.451
C 39.961 24.135000000000005 47.775
C 38.669 23.802 48.57800000000001
C 41.147 24.756 48.58800000000001
C 42.32300000000001 23.838000000000005 49.00500000000001
C 43.624 24.128000000000004 48.208
C 44.103 22.857 47.389
C 45.589000000000006 22.553 47.793
C 43.991 23.134 45.943
H 44.47200000000001 22.249 31.653000000000002
H 46.682 21.863 25.798000000000002
H 47.892 28.105000000000004 25.797000000000004
H 46.815 25.796 34.03
H 44.379 24.310000000000002 33.566
H 45.81 23.21 34.946
H 47.29 23.544 34.12
H 46.105000000000004 22.373000000000005 33.40400000000001
H 43.906 26.513000000000005 33.84
H 44.837 27.845 33.345
H 45.396 28.325 35.272
H 46.031000000000006 26.791 35.81400000000001
H 44.956 19.415 30.635000000000005
H 43.406000000000006 19.484 29.664
H 43.772000000000006 20.426 31.169000000000004
H 44.702 18.211 28.451000000000004
H 44.791 17.789 26.776
H 43.488 18.66 27.186000000000003
H 47.384 23.696 24.038000000000004
H 48.474000000000004 26.338000000000005 24.224
H 50.125 24.615000000000002 24.702
H 49.61300000000001 22.906 24.378
H 49.632000000000005 23.532000000000004 25.919000000000004
H 46.321000000000005 25.627 22.877000000000002
H 46.56100000000001 27.219 23.484
H 44.874 27.146000000000004 24.707000000000004
H 44.906 25.482 25.247
H 44.336 25.842 23.583
H 48.364000000000004 31.108000000000004 28.162000000000003
H 48.25 30.148000000000003 26.672000000000004
H 49.76500000000001 30.102000000000004 27.699
H 47.00200000000001 28.925 32.751000000000005
H 50.519 28.644 35.276
H 49.254 27.73 36.082
H 49.443 29.398 36.446
H 42.336 27.395 38.248
H 43.487 28.078000000000003 39.372
H 43.853 25.226000000000003 38.732
H 41.272000000000006 26.017000000000003 42.075
H 41.511 27.260000000000005 40.743
H 42.52300000000001 27.262000000000004 42.12
H 43.024 24.201 42.092
H 43.495 23.574 40.598
H 41.444 22.864 39.951
H 40.650000000000006 24.333 40.45000000000001
H 41.474000000000004 22.658 42.731
H 40.22200000000001 21.953 41.596000000000004
H 38.961 22.726000000000003 43.029
H 38.482 25.23 41.749
H 37.376 23.925 41.99100000000001
H 38.534 23.953000000000003 40.63300000000001
H 39.589 25.547000000000004 43.653000000000006
H 40.982 24.5 43.966
H 39.319 23.014000000000003 45.431
H 38.124 24.160000000000004 44.870000000000005
H 38.75500000000001 25.555000000000003 46.719
H 40.449 25.467 46.12200000000001
H 40.47800000000001 23.223 47.47800000000001
H 38.8 22.767 48.89200000000001
H 37.77 23.996 47.99300000000001
H 38.702 24.386000000000003 49.499
H 40.75500000000001 25.112000000000002 49.541000000000004
H 41.45 25.723000000000003 48.186
H 41.963 22.833000000000002 48.785
H 42.519 24.053000000000004 50.05500000000001
H 44.47200000000001 24.364000000000004 48.852000000000004
H 43.54 25.064 47.655
H 43.37 22.066 47.546
H 46.188 23.440000000000005 47.587
H 45.75500000000001 21.582000000000004 47.327000000000005
H 45.494 22.426 48.871
H 43.205 23.842 45.67900000000001
H 43.872 22.196 45.4
H 44.884 23.614 45.544000000000004
Mg -0.187 43.411 24.933
C 1.6070000000000002 43.076 28.072
C -2.898 42.36800000000001 26.644000000000002
C -1.7320000000000002 43.655 22.148
C 2.888 44.159 23.345
N -0.581 42.801 27.230000000000004
C 0.261 42.842 28.277
C -0.506 42.58400000000001 29.588
C -1.8090000000000002 41.923 28.937000000000005
C -1.8000000000000003 42.43200000000001 27.557000000000002
C -2.075 40.449 29.193
C -0.702 43.92400000000001 30.318000000000005
C -0.869 43.756 31.857000000000003
C -0.5610000000000002 42.389 32.626
O 0.469 42.062 33.17700000000001
O -1.6500000000000001 41.507 32.446
N -2.115 43.102000000000004 24.429
C -3.103 42.58200000000001 25.243000000000002
C -4.308 42.416 24.436
C -4.003 42.864 23.127
C -2.559 43.224000000000004 23.208
C -5.571000000000001 41.874 24.94
C -4.956 43.007 21.828
O -4.584 43.57 20.835000000000004
C -6.464 42.70700000000001 21.9
N 0.559 43.585 22.973
C -0.3340000000000001 43.816 22.014
C 0.263 44.224 20.694
C 1.6280000000000001 44.753 21.198
C 1.7390000000000003 43.971000000000004 22.552
C 0.44200000000000006 43.02300000000001 19.653
C 1.7620000000000002 46.328 21.331000000000003
C 0.9410000000000001 47.259 20.392000000000003
N 1.835 43.483000000000004 25.498000000000005
C 2.95 43.846 24.817
C 4.052 43.978 25.658
C 3.57 43.639 26.89
C 2.221 43.36 26.794000000000004
C 5.44 44.465 25.251
C 4.008000000000001 43.522 28.289000000000005
O 5.1080000000000005 43.518 28.821000000000005
C 2.6750000000000003 43.22200000000001 29.104
C 2.922 42.05100000000001 29.927
O 2.929 40.872 29.559
O 3.4020000000000006 42.496 31.107
C 4.042 41.446 31.879000000000005
C -1.644 40.254000000000005 33.226
C -2.8540000000000005 40.300000000000004 34.139
C -2.9760000000000004 40.997 35.275
C -1.8710000000000002 41.858 35.91
C -4.259 41.023 36.116
C -5.381 41.862 35.472
C -6.659000000000001 41.095 35.134
C -7.857000000000001 41.643 36.041
C -8.569 42.873000000000005 35.304
C -8.883 40.434 36.241
C -9.266000000000002 40.292 37.68900000000001
C -10.519 39.593 37.883
C -11.312 40.074 39.145
C -12.096 38.822 39.802
C -12.423000000000002 41.128 38.89
C -11.931000000000001 42.58 39.17
C -12.258 43.532000000000004 38.014
C -12.169 45.041000000000004 38.484
C -13.504000000000001 45.81400000000001 38.325
C -10.974000000000002 45.684 37.683
H -3.718 41.86 27.156000000000002
H -2.284 43.689 21.207
H 3.792 44.48700000000001 22.828
H -0.023 41.815 30.191
H -2.6550000000000002 42.40200000000001 29.428
H -2.958 40.293 29.812000000000005
H -1.216 39.991 29.683
H -2.1850000000000005 39.85300000000001 28.287
H -1.656 44.33500000000001 29.987
H 0.054000000000000006 44.67300000000001 30.083000000000002
H -1.835 44.127 32.20100000000001
H -0.273 44.587 32.234
H -5.662000000000001 41.997 26.019000000000002
H -5.557 40.82 24.662000000000003
H -6.458 42.347 24.518000000000004
H -7.019000000000001 43.391000000000005 22.542000000000005
H -6.518000000000001 41.644 22.136
H -6.895 42.739000000000004 20.899
H -0.456 44.953 20.321
H 2.464 44.44400000000001 20.571
H 0.054000000000000006 43.470000000000006 18.738
H -0.137 42.13 19.891
H 1.4680000000000002 42.712 19.46
H 2.817 46.592 21.273
H 1.31 46.482 22.311
H -0.047 47.446 20.812000000000005
H 0.9750000000000001 46.739 19.434
H 1.443 48.20900000000001 20.212
H 5.257 45.138 24.413
H 6.078000000000001 43.671 24.864
H 5.885 44.977000000000004 26.104000000000003
H 2.489 44.102 29.721000000000004
H 4.455 41.795 32.825
H 4.724 40.789 31.339000000000002
H 3.3000000000000003 40.728 32.23
H -0.728 40.087 33.794
H -1.816 39.506 32.452
H -3.714 39.689 33.865
H -1.499 41.46900000000001 36.858
H -2.161 42.885 36.132
H -0.988 41.995 35.286
H -4.024 41.45 37.092
H -4.468 39.965 36.273
H -5.103 42.408 34.571
H -5.641 42.599000000000004 36.233
H -6.509 40.07000000000001 35.476
H -6.9110000000000005 40.994 34.078
H -7.543000000000001 42.165 36.944
H -9.522 42.5 34.929
H -8.048 43.18000000000001 34.397000000000006
H -8.82 43.715 35.95
H -8.496000000000002 39.485 35.869
H -9.762 40.674 35.642
H -9.253 41.290000000000006 38.129
H -8.421 39.76 38.126
H -10.267 38.539 37.997
H -11.207 39.635 37.039
H -10.595 40.40500000000001 39.897
H -11.608 37.87100000000001 40.016
H -13.074000000000002 38.715 39.333
H -12.441000000000003 39.18300000000001 40.77100000000001
H -13.258000000000001 40.96 39.569
H -12.736 40.972 37.858000000000004
H -10.844000000000001 42.53 39.231
H -12.219 42.926 40.163000000000004
H -13.221 43.264 37.579
H -11.611 43.376000000000005 37.151
H -11.816000000000003 45.027 39.515
H -14.219 45.36000000000001 37.639
H -13.356000000000002 46.804 37.893
H -13.936000000000002 46.067 39.292
H -10.646000000000003 46.511 38.31400000000001
H -11.251 46.112 36.72
H -10.203 44.922 37.568

