280
Bchla 21 -- Bchla 27
Mg 16.411 52.367 25.566
C 18.018 50.888 28.3
C 13.924000000000001 53.471000000000004 27.634000000000004
C 14.785000000000002 53.43800000000001 22.892000000000003
C 18.977 50.989000000000004 23.494
N 16.017000000000003 52.13900000000001 27.735000000000003
C 16.814 51.56600000000001 28.701000000000004
C 16.316 51.93200000000001 30.087000000000003
C 14.871 52.50500000000001 29.805
C 15.006000000000002 52.79900000000001 28.272
C 13.752000000000002 51.51700000000001 30.109
C 17.38 52.827 30.821000000000005
C 16.866 53.425000000000004 32.16
C 15.838000000000001 52.611 32.918000000000006
O 15.994000000000002 51.421 33.21
O 14.722 53.28600000000001 33.206
N 14.673 53.30500000000001 25.313
C 13.709 53.596000000000004 26.270000000000003
C 12.514000000000001 54.21500000000001 25.67
C 12.809 54.23100000000001 24.272
C 14.132 53.632 24.117
C 11.368 54.712 26.469000000000005
C 11.91 54.75300000000001 23.181000000000004
O 12.269000000000002 54.771 21.971000000000004
C 10.567 55.354 23.496000000000002
N 16.865 52.275 23.471000000000004
C 15.997000000000002 52.81 22.612000000000002
C 16.443000000000005 52.50800000000001 21.114
C 17.818 51.656000000000006 21.31
C 17.893 51.619 22.837
C 15.275 51.720000000000006 20.391
C 19.117 52.361000000000004 20.728000000000005
C 19.408 52.107 19.221
N 18.085 51.15100000000001 25.765
C 19.116 50.754000000000005 24.873000000000005
C 20.198 50.001 25.646000000000004
C 19.782000000000004 49.96200000000001 26.973000000000003
C 18.524 50.751 27.001000000000005
C 21.485 49.44800000000001 25.119000000000003
C 20.107 49.55500000000001 28.320000000000004
O 21.06 48.92400000000001 28.788
C 19.058 50.30100000000001 29.285
C 18.453 49.377 30.317000000000004
O 17.480000000000004 48.699000000000005 30.125
O 19.026 49.591 31.591000000000005
C 18.266 49.12100000000001 32.759
C 13.709 52.63100000000001 33.997
C 12.990000000000002 53.80200000000001 34.615
C 12.516 53.86600000000001 35.887
C 12.502000000000002 52.848000000000006 36.993
C 12.049000000000001 55.211000000000006 36.379000000000005
C 10.517000000000001 55.27100000000001 36.537
C 9.842 56.512 35.811
C 9.114 57.373000000000005 36.808
C 7.743000000000001 56.738 37.167
C 8.911 58.84 36.418
C 10.201 59.705000000000005 36.212
C 10.501000000000001 60.10000000000001 34.809
C 10.535 61.638000000000005 34.593
C 10.037 61.983 33.245
C 11.935 62.23400000000001 34.708
C 11.987000000000002 63.55800000000001 35.459
C 12.917000000000002 64.588 34.763000000000005
C 14.458000000000002 64.314 34.741
C 15.269000000000002 65.316 35.556
C 14.901 64.193 33.258
H 13.193000000000001 53.709 28.410000000000004
H 14.236000000000002 53.78 22.012
H 19.732 50.45400000000001 22.914
H 16.248 51.01 30.663
H 14.638 53.45400000000001 30.289
H 13.103 52.02100000000001 30.825
H 14.2 50.58 30.439000000000004
H 13.062000000000001 51.391 29.275000000000002
H 17.737 53.448 30.0
H 18.216 52.16100000000001 31.032000000000004
H 16.462 54.391 31.857000000000003
H 17.724000000000004 53.562000000000005 32.818
H 10.557 54.062 26.141000000000002
H 11.171 55.77400000000001 26.325000000000003
H 11.382000000000001 54.601000000000006 27.554
H 10.714000000000002 56.253 24.093
H 10.128000000000002 54.498 24.01
H 9.92 55.569 22.646
H 16.628 53.525 20.766
H 17.779 50.584 21.112
H 14.414 51.50600000000001 21.024
H 15.645 50.760000000000005 20.03
H 14.907000000000002 52.394 19.618
H 19.983 52.23400000000001 21.377000000000002
H 18.924 53.431 20.798000000000002
H 19.483 53.086 18.749
H 18.627 51.45900000000001 18.823
H 20.361000000000004 51.6 19.068
H 22.271 50.105000000000004 25.492000000000004
H 21.464 49.416000000000004 24.029000000000003
H 21.784 48.45300000000001 25.448000000000004
H 19.61 51.115 29.754000000000005
H 18.447 48.047000000000004 32.793
H 17.229 49.453 32.705
H 18.688 49.637 33.621
H 14.073000000000002 51.938 34.756
H 13.003 52.05200000000001 33.401
H 13.005000000000003 54.705000000000005 34.005
H 11.453 52.58800000000001 37.134
H 12.947 53.169000000000004 37.935
H 13.039000000000001 51.968 36.638000000000005
H 12.314 56.047000000000004 35.732
H 12.449000000000002 55.43600000000001 37.36800000000001
H 10.413 55.385 37.616
H 10.103 54.32500000000001 36.189
H 9.172 56.04500000000001 35.089
H 10.541 57.105 35.221000000000004
H 9.753 57.327000000000005 37.69
H 8.005 55.92 37.837
H 7.232000000000001 56.143 36.41
H 7.039 57.446 37.604
H 8.267 59.217000000000006 37.212
H 8.338 58.772000000000006 35.494
H 11.098 59.257 36.638000000000005
H 10.158000000000001 60.632000000000005 36.784
H 9.692 59.683 34.21
H 11.488 59.70400000000001 34.568
H 9.888 62.02400000000001 35.381
H 10.51 62.803000000000004 32.705
H 8.98 62.220000000000006 33.364
H 10.123 61.156000000000006 32.54
H 12.306 62.364 33.691
H 12.635000000000002 61.56300000000001 35.205
H 12.296 63.41100000000001 36.494
H 10.975 63.931000000000004 35.624
H 12.691 65.525 35.274
H 12.583000000000002 64.816 33.751
H 14.583000000000002 63.4 35.322
H 15.801 66.007 34.902
H 15.999 64.826 36.201
H 14.617000000000003 65.841 36.25500000000001
H 14.379 64.856 32.569
H 14.937000000000001 63.13700000000001 32.99
H 15.912000000000003 64.6 33.221
Mg -5.21 24.541000000000004 27.195
C -3.5410000000000004 26.384000000000004 29.693000000000005
C -6.38 22.499 29.726
C -6.783000000000001 22.591 24.876000000000005
C -3.732 26.393000000000004 24.817
N -5.009 24.475 29.485
C -4.393000000000001 25.403000000000002 30.316000000000003
C -4.7780000000000005 25.157000000000004 31.761
C -5.380000000000001 23.705 31.74
C -5.612 23.568 30.252
C -4.487 22.583 32.401
C -5.828000000000001 26.148000000000003 32.285
C -5.66 26.572 33.748
C -5.928 25.52 34.86
O -5.178000000000001 24.808000000000003 35.42
O -7.247 25.651000000000003 35.24
N -6.480000000000001 22.853 27.281
C -6.765 22.191000000000003 28.426000000000002
C -7.522000000000001 21.026000000000003 28.101000000000003
C -7.817 21.045 26.694
C -6.985000000000001 22.142 26.232000000000003
C -7.947000000000001 20.031 29.145000000000003
C -8.63 20.1 25.809
O -8.907 20.385000000000005 24.623000000000005
C -9.087 18.724 26.28
N -5.32 24.558 25.17
C -5.973000000000001 23.615 24.382
C -5.699 23.91 22.943
C -4.772 25.174000000000003 22.837
C -4.608 25.452000000000005 24.340000000000003
C -5.2490000000000006 22.679000000000002 22.100000000000005
C -5.373 26.38 22.083
C -4.944 26.457 20.605000000000004
N -3.895 26.018000000000004 27.181
C -3.3810000000000002 26.779000000000003 26.132000000000005
C -2.501 27.909000000000002 26.61
C -2.55 27.715 28.000000000000004
C -3.426 26.623 28.301
C -1.787 28.935 25.749
C -2.033 28.274000000000004 29.24
O -1.249 29.202000000000005 29.443
C -2.781 27.475000000000005 30.39
C -1.665 26.984 31.333000000000002
O -0.581 26.549 31.003000000000004
O -2.033 27.276000000000003 32.645
C -1.033 26.854 33.626
C -7.564000000000001 24.944000000000003 36.511
C -8.753 24.01 36.285
C -9.206 23.034 37.178
C -8.642 22.672000000000004 38.542
C -10.439 22.214 36.802
C -11.605 22.545 37.716
C -12.141000000000002 21.385 38.532
C -12.837 20.297 37.695
C -14.376 20.604 37.604
C -12.473 18.878 38.236
C -11.075 18.359 37.854
C -10.252 18.044000000000004 39.133
C -8.796 17.661 38.813
C -7.707000000000001 18.676 39.491
C -8.488 16.152 39.028
C -7.214 15.591 38.264
C -6.276000000000001 14.932 39.298
C -4.745 15.127000000000002 38.87
C -3.893 13.923000000000002 39.358
C -4.266 16.497 39.329
H -6.796000000000001 21.923 30.555000000000003
H -7.246000000000001 22.043 24.053000000000004
H -3.2010000000000005 26.863 23.987
H -3.9420000000000006 25.157000000000004 32.46000000000001
H -6.324000000000001 23.596 32.274
H -3.587 22.935 32.906
H -4.09 21.819000000000003 31.733000000000004
H -5.035 22.071 33.19200000000001
H -6.837 25.751000000000005 32.176
H -5.779 27.088 31.735000000000003
H -6.234000000000001 27.469 33.98
H -4.65 26.933000000000003 33.941
H -7.011000000000001 19.854 29.675000000000004
H -8.293 19.055 28.805
H -8.678 20.404 29.862000000000002
H -8.257 18.167 26.715
H -9.457 18.282 25.355000000000004
H -9.853000000000002 18.807000000000002 27.051
H -6.6690000000000005 24.060000000000002 22.468
H -3.772 24.984 22.445
H -5.161 21.829 22.777
H -4.267000000000001 22.885000000000005 21.675
H -6.057000000000001 22.545 21.38
H -5.165000000000001 27.269000000000002 22.678000000000004
H -6.454 26.277000000000005 21.986000000000004
H -4.658 25.466 20.252
H -4.057 27.051 20.384
H -5.81 26.77 20.021
H -2.5470000000000006 29.614000000000004 25.362000000000002
H -1.261 28.538 24.881
H -1.105 29.457000000000004 26.42
H -3.5050000000000003 28.048000000000002 30.969
H -1.16 25.838 34.001000000000005
H -1.124 27.594 34.421
H 0.018 26.831 33.338
H -7.981 25.702 37.173
H -6.805 24.425000000000004 37.095
H -9.302 24.101 35.348
H -8.292 21.656 38.362
H -9.496 22.631 39.219
H -7.753000000000001 23.206000000000003 38.876
H -10.150000000000002 21.164 36.741
H -10.782 22.469 35.8
H -12.41 22.862000000000002 37.052
H -11.396 23.503000000000004 38.19200000000001
H -12.859 21.829 39.222
H -11.377000000000002 20.940000000000005 39.17
H -12.531 20.202000000000005 36.653000000000006
H -14.660000000000002 21.651000000000003 37.502
H -14.864 20.149000000000004 38.46600000000001
H -14.707 20.129 36.681
H -13.228 18.159 37.915
H -12.479 19.016 39.317
H -10.479000000000001 19.056 37.265
H -11.241000000000001 17.402 37.358
H -10.608000000000002 17.17 39.678
H -10.286 18.836 39.881
H -8.582 17.67 37.744
H -7.003 18.174 40.154
H -8.335 19.35 40.074
H -7.156000000000001 19.274 38.765
H -9.352 15.546 38.758
H -8.252000000000002 16.061 40.089
H -6.637 16.369 37.763
H -7.396000000000001 14.835000000000003 37.501
H -6.461000000000001 13.864 39.412000000000006
H -6.274000000000001 15.379000000000001 40.292
H -4.618 15.064000000000002 37.789
H -4.547 13.094000000000001 39.626000000000005
H -3.447 14.255000000000003 40.295
H -3.045 13.638000000000002 38.736
H -3.37 16.434 39.947
H -4.981 16.928 40.031
H -3.993 17.069000000000003 38.442

