280
Bchla 11 -- Bchla 13
Mg 52.532 24.272 45.278
C 49.695 26.145 43.971000000000004
C 51.04500000000001 21.439 44.032
C 55.55800000000001 22.862000000000002 45.08400000000001
C 53.786 27.156000000000002 46.565000000000005
N 50.65200000000001 23.900000000000002 43.946
C 49.60000000000001 24.825 43.60600000000001
C 48.415 24.053000000000004 43.019
C 48.70000000000001 22.567 43.387
C 50.226000000000006 22.57 43.84
C 47.769000000000005 22.007000000000005 44.56400000000001
C 48.044000000000004 24.343000000000004 41.59400000000001
C 49.095000000000006 25.060000000000002 40.714
C 48.96900000000001 25.397 39.217
O 48.814 26.490000000000002 38.7
O 48.923 24.209 38.402
N 53.202 22.330000000000002 44.767
C 52.423 21.316000000000003 44.255
C 53.276 20.093 44.131
C 54.571000000000005 20.566 44.327
C 54.53600000000001 21.98 44.693
C 52.686 18.786 43.735
C 55.857 19.705 44.161
O 55.729000000000006 18.565 43.751
C 57.24900000000001 20.219 44.324000000000005
N 54.406 25.034 45.628
C 55.489 24.156 45.60300000000001
C 56.748000000000005 24.823000000000004 46.157
C 56.169000000000004 26.074 46.912000000000006
C 54.729 26.077000000000005 46.394000000000005
C 57.69100000000001 23.988 47.061
C 56.925 27.423000000000002 46.689
C 57.797 27.947000000000003 47.92000000000001
N 51.876 26.259 45.369
C 52.486 27.322000000000003 46.019
C 51.586 28.449000000000005 46.025
C 50.55800000000001 28.021 45.17400000000001
C 50.791000000000004 26.666000000000004 44.832
C 51.912000000000006 29.799000000000003 46.687000000000005
C 49.30500000000001 28.377 44.58200000000001
O 48.718 29.466 44.743
C 48.584 27.144 43.87700000000001
C 48.236 27.644000000000002 42.532
O 48.985 28.235 41.74700000000001
O 46.97500000000001 27.217000000000002 42.277
C 46.327 27.762 41.043000000000006
C 48.504000000000005 24.347 36.97
C 49.038000000000004 23.025 36.183
C 48.51 21.799 36.159
C 47.160000000000004 21.356 36.757
C 49.15800000000001 20.707 35.271
C 50.643 20.476 35.634
C 51.51400000000001 20.759000000000004 34.429
C 52.881 20.132000000000005 34.723
C 53.995 20.630000000000003 33.703
C 52.957 18.602 34.688
C 52.149 17.939 33.537
C 52.75600000000001 16.582 33.12
C 51.855000000000004 15.649 32.315
C 50.88900000000001 15.007000000000001 33.288
C 52.63100000000001 14.592 31.513000000000005
C 53.483000000000004 15.137 30.251
C 52.884 14.534000000000002 28.954000000000004
C 53.893 13.766 28.055000000000003
C 53.843 14.023000000000001 26.477000000000004
C 53.88300000000001 12.239000000000003 28.139000000000003
H 50.579 20.542 43.620000000000005
H 56.538000000000004 22.383000000000003 45.028
H 54.161 28.033 47.096000000000004
H 47.651 24.444 43.691
H 48.717000000000006 21.909 42.518
H 47.153 21.264 44.059
H 47.213 22.832000000000004 45.010000000000005
H 48.447 21.516 45.263
H 47.087 24.863 41.633
H 47.846000000000004 23.335000000000004 41.22800000000001
H 49.999 24.46 40.823
H 49.294000000000004 26.052 41.120000000000005
H 53.066 18.579 42.735
H 51.601 18.884 43.754
H 52.95100000000001 18.031 44.476000000000006
H 57.605000000000004 20.973000000000003 43.623000000000005
H 58.003 19.451 44.15400000000001
H 57.23 20.507000000000005 45.37500000000001
H 57.212 25.048 45.196
H 56.15200000000001 25.774000000000004 47.96
H 58.567 23.603 46.538
H 57.165 23.102 47.415000000000006
H 57.94800000000001 24.606 47.922000000000004
H 56.284 28.251000000000005 46.385
H 57.545 27.232000000000003 45.813
H 58.71300000000001 28.267000000000003 47.424
H 58.013000000000005 27.199000000000005 48.68300000000001
H 57.20100000000001 28.707 48.42400000000001
H 51.050000000000004 30.363000000000003 47.044
H 52.358000000000004 30.332000000000004 45.848000000000006
H 52.476 29.641000000000002 47.606
H 47.714 26.852 44.467
H 45.32600000000001 27.34 40.947
H 46.887 27.487 40.149
H 46.323 28.832000000000004 41.246
H 49.04600000000001 25.194000000000003 36.55
H 47.461 24.659 37.022
H 49.982000000000006 23.094 35.642
H 47.34100000000001 20.633 37.55200000000001
H 46.475 20.976 35.999
H 46.72 22.222000000000005 37.251
H 49.119 21.189 34.294
H 48.70000000000001 19.718 35.274
H 50.672 19.404 35.826
H 50.967 20.965000000000003 36.553
H 51.52900000000001 21.825000000000003 34.199
H 51.024 20.206 33.627
H 53.11800000000001 20.545000000000005 35.703
H 54.614000000000004 21.416 34.135
H 53.668000000000006 20.97 32.72
H 54.68900000000001 19.819 33.483000000000004
H 52.42100000000001 18.206 35.55
H 53.973000000000006 18.222 34.798
H 51.782000000000004 18.585 32.74
H 51.127 17.666 33.797
H 53.10000000000001 16.127 34.049
H 53.62100000000001 16.787 32.49000000000001
H 51.30500000000001 16.181 31.539
H 49.88700000000001 15.268 32.946
H 51.039 15.344 34.314
H 51.129 13.946000000000002 33.364
H 51.94 13.799000000000001 31.226000000000003
H 53.327 14.130000000000003 32.212
H 54.53 14.875 30.410000000000004
H 53.293 16.207 30.165000000000003
H 52.492000000000004 15.372000000000002 28.378
H 52.05100000000001 13.891 29.237000000000002
H 54.858000000000004 14.146 28.390000000000004
H 52.805 14.088000000000001 26.150000000000002
H 54.302 13.211000000000002 25.913000000000004
H 54.379 14.958 26.307000000000002
H 54.888000000000005 11.862000000000002 28.333
H 53.416 11.801000000000002 27.257
H 53.42400000000001 11.959 29.087
Mg 46.269 25.137 28.870000000000005
C 47.26400000000001 27.261000000000003 31.452000000000005
C 45.068 22.98 31.102000000000004
C 46.59300000000001 22.696 26.499000000000002
C 47.586000000000006 27.403 26.575000000000003
N 46.028000000000006 25.204000000000004 31.054
C 46.486000000000004 26.155000000000005 31.859
C 45.989 25.868000000000002 33.322
C 45.393 24.446000000000005 33.19
C 45.51200000000001 24.155 31.697000000000003
C 46.24000000000001 23.308 33.949
C 44.921 26.907 33.894000000000005
C 45.18 27.258 35.319
C 44.051 27.156000000000002 36.333
O 42.867 26.915 35.975
O 44.42900000000001 27.395 37.661
N 45.856 23.126 28.82
C 45.332 22.402 29.858000000000004
C 44.87200000000001 21.106 29.340000000000003
C 45.325 21.036 27.993000000000002
C 46.006 22.318 27.747
C 44.159 20.036 30.227000000000004
C 45.218 19.848 26.99
O 45.636 19.88 25.838
C 44.545 18.61 27.449000000000005
N 46.989000000000004 25.039 26.905
C 47.1 23.902 26.099
C 47.90400000000001 24.250000000000004 24.819
C 47.61600000000001 25.804000000000002 24.632000000000005
C 47.369 26.076 26.143
C 49.389 23.836 24.901
C 46.421 26.187000000000005 23.806000000000004
C 45.034 26.121 24.373000000000005
N 47.05200000000001 27.048000000000002 28.895
C 47.58500000000001 27.842000000000002 27.906
C 48.078 29.117 28.432
C 48.07000000000001 28.906 29.884000000000004
C 47.439 27.616 30.079
C 48.679 30.186 27.673000000000002
C 48.437 29.466 31.179000000000002
O 49.025 30.434 31.487
C 47.84100000000001 28.427000000000003 32.265
C 48.812 28.038000000000004 33.351
O 49.557 27.063000000000002 33.319
O 48.64800000000001 28.911 34.426
C 49.485 28.689 35.619
C 43.349000000000004 27.285000000000004 38.637
C 43.409000000000006 25.981000000000005 39.381
C 42.815000000000005 25.681000000000004 40.59
C 41.973 26.587 41.465
C 42.73400000000001 24.216 41.042
C 41.351000000000006 23.566 40.779
C 40.703 22.851 41.985
C 39.508 23.598 42.67
C 38.403 24.144000000000002 41.69800000000001
C 39.895 24.531 43.902
C 39.162 24.066000000000003 45.19
C 39.581 24.896 46.451
C 39.961 24.135000000000005 47.775
C 38.669 23.802 48.57800000000001
C 41.147 24.756 48.58800000000001
C 42.32300000000001 23.838000000000005 49.00500000000001
C 43.624 24.128000000000004 48.208
C 44.103 22.857 47.389
C 45.589000000000006 22.553 47.793
C 43.991 23.134 45.943
H 44.47200000000001 22.249 31.653000000000002
H 46.682 21.863 25.798000000000002
H 47.892 28.105000000000004 25.797000000000004
H 46.815 25.796 34.03
H 44.379 24.310000000000002 33.566
H 45.81 23.21 34.946
H 47.29 23.544 34.12
H 46.105000000000004 22.373000000000005 33.40400000000001
H 43.906 26.513000000000005 33.84
H 44.837 27.845 33.345
H 45.396 28.325 35.272
H 46.031000000000006 26.791 35.81400000000001
H 44.956 19.415 30.635000000000005
H 43.406000000000006 19.484 29.664
H 43.772000000000006 20.426 31.169000000000004
H 44.702 18.211 28.451000000000004
H 44.791 17.789 26.776
H 43.488 18.66 27.186000000000003
H 47.384 23.696 24.038000000000004
H 48.474000000000004 26.338000000000005 24.224
H 50.125 24.615000000000002 24.702
H 49.61300000000001 22.906 24.378
H 49.632000000000005 23.532000000000004 25.919000000000004
H 46.321000000000005 25.627 22.877000000000002
H 46.56100000000001 27.219 23.484
H 44.874 27.146000000000004 24.707000000000004
H 44.906 25.482 25.247
H 44.336 25.842 23.583
H 48.364000000000004 31.108000000000004 28.162000000000003
H 48.25 30.148000000000003 26.672000000000004
H 49.76500000000001 30.102000000000004 27.699
H 47.00200000000001 28.925 32.751000000000005
H 50.519 28.644 35.276
H 49.254 27.73 36.082
H 49.443 29.398 36.446
H 42.336 27.395 38.248
H 43.487 28.078000000000003 39.372
H 43.853 25.226000000000003 38.732
H 41.272000000000006 26.017000000000003 42.075
H 41.511 27.260000000000005 40.743
H 42.52300000000001 27.262000000000004 42.12
H 43.024 24.201 42.092
H 43.495 23.574 40.598
H 41.444 22.864 39.951
H 40.650000000000006 24.333 40.45000000000001
H 41.474000000000004 22.658 42.731
H 40.22200000000001 21.953 41.596000000000004
H 38.961 22.726000000000003 43.029
H 38.482 25.23 41.749
H 37.376 23.925 41.99100000000001
H 38.534 23.953000000000003 40.63300000000001
H 39.589 25.547000000000004 43.653000000000006
H 40.982 24.5 43.966
H 39.319 23.014000000000003 45.431
H 38.124 24.160000000000004 44.870000000000005
H 38.75500000000001 25.555000000000003 46.719
H 40.449 25.467 46.12200000000001
H 40.47800000000001 23.223 47.47800000000001
H 38.8 22.767 48.89200000000001
H 37.77 23.996 47.99300000000001
H 38.702 24.386000000000003 49.499
H 40.75500000000001 25.112000000000002 49.541000000000004
H 41.45 25.723000000000003 48.186
H 41.963 22.833000000000002 48.785
H 42.519 24.053000000000004 50.05500000000001
H 44.47200000000001 24.364000000000004 48.852000000000004
H 43.54 25.064 47.655
H 43.37 22.066 47.546
H 46.188 23.440000000000005 47.587
H 45.75500000000001 21.582000000000004 47.327000000000005
H 45.494 22.426 48.871
H 43.205 23.842 45.67900000000001
H 43.872 22.196 45.4
H 44.884 23.614 45.544000000000004

