280
Bchla 23 -- Bchla 26
Mg -9.051 41.135000000000005 42.305
C -8.305 37.722 41.48700000000001
C -6.395 41.95900000000001 40.063
C -10.135000000000002 44.306 42.063
C -11.946000000000002 40.073 43.784
N -7.597 39.954 40.945
C -7.463000000000001 38.604 40.8
C -6.307 38.235 39.806
C -5.513 39.626000000000005 39.732
C -6.6000000000000005 40.578 40.205
C -4.304 39.713 40.635000000000005
C -6.799 37.608 38.512
C -6.032000000000001 36.37 37.979
C -4.965 36.511 36.796
O -3.9040000000000004 37.125 36.87
O -5.458 35.835 35.714
N -8.298000000000002 42.98100000000001 41.27000000000001
C -7.133000000000001 43.08 40.48100000000001
C -6.947000000000001 44.483 40.091
C -8.039000000000001 45.194 40.728
C -8.91 44.191 41.30200000000001
C -5.896 45.033 39.202
C -8.191000000000003 46.694 40.765
O -7.269000000000001 47.37100000000001 40.369
C -9.416 47.416 41.277
N -10.805 41.95700000000001 42.741
C -10.936000000000002 43.342 42.69200000000001
C -12.323000000000002 43.689 43.238
C -12.785000000000002 42.375 43.968
C -11.75 41.407 43.503
C -12.482 45.006 44.083
C -14.257 41.901 43.766
C -15.093 41.673 44.983
N -9.921 39.324 42.71
C -11.083 39.021 43.398
C -11.161000000000001 37.575 43.68200000000001
C -10.088 37.044 42.866
C -9.417 38.142 42.319
C -12.147000000000002 36.798 44.514
C -9.423 35.768 42.469
O -9.726 34.63 42.68900000000001
C -8.338 36.191 41.48400000000001
C -7.035 35.63000000000001 41.97
O -6.575000000000001 36.04 43.014
O -6.383000000000001 34.711 41.094
C -4.994 34.30500000000001 41.467
C -4.634 36.03 34.58
C -5.307 35.735 33.249
C -6.099000000000001 36.549 32.508
C -6.121 38.040000000000006 32.81
C -6.61 36.072 31.219
C -5.681000000000001 35.691 30.071000000000005
C -6.066000000000001 36.322 28.771000000000004
C -5.458 37.781000000000006 28.507
C -4.608 37.654 27.230000000000004
C -6.644000000000001 38.772000000000006 28.415
C -6.142000000000001 40.209 28.531
C -6.707000000000001 40.993 29.689
C -6.083 42.345 30.143000000000004
C -6.054 42.695 31.636000000000003
C -6.688000000000001 43.522 29.3
C -5.631 44.373 28.618000000000002
C -5.931000000000001 44.76 27.136
C -5.8340000000000005 46.278 26.931000000000004
C -6.247 46.796 25.524000000000004
C -4.347000000000001 46.79200000000001 27.217000000000002
H -5.558 42.253 39.426
H -10.616000000000001 45.285000000000004 42.096000000000004
H -12.779 39.789 44.43000000000001
H -5.573 37.574 40.266000000000005
H -5.285000000000001 39.900000000000006 38.702
H -4.645 39.948 41.643
H -3.6390000000000002 40.46300000000001 40.20700000000001
H -3.691 38.823 40.781
H -6.689 38.376000000000005 37.747
H -7.878 37.478 38.595
H -6.835 35.708 37.654
H -5.4830000000000005 35.835 38.754
H -5.125000000000001 45.43600000000001 39.858
H -6.291000000000001 45.90400000000001 38.679
H -5.425 44.400000000000006 38.449
H -9.416 48.49600000000001 41.131
H -9.437 47.225 42.35
H -10.403 47.092 40.949
H -12.862 43.925 42.32
H -12.529000000000002 42.468 45.02300000000001
H -11.517 45.332 44.47200000000001
H -13.223000000000003 44.867 44.870000000000005
H -12.904 45.79900000000001 43.46600000000001
H -14.251000000000001 40.982 43.18000000000001
H -14.729000000000001 42.611 43.08700000000001
H -15.224000000000002 40.601 45.129000000000005
H -16.08 42.111000000000004 44.835
H -14.721000000000002 42.061 45.931
H -11.731 35.838 44.819
H -13.036000000000001 36.669 43.89600000000001
H -12.463 37.438 45.338
H -8.66 35.877 40.491
H -5.042 33.547 42.24900000000001
H -4.445 35.144000000000005 41.894
H -4.449 33.944 40.595
H -3.796 35.334 34.602
H -4.211 37.029 34.469
H -5.309 34.769 32.745
H -7.080000000000001 38.040000000000006 33.32900000000001
H -6.199 38.534 31.841000000000005
H -5.254 38.383 33.37400000000001
H -7.3260000000000005 36.763 30.775000000000002
H -7.165 35.161 31.446000000000005
H -5.5920000000000005 34.621 29.888000000000005
H -4.708 36.024 30.432000000000002
H -7.152000000000001 36.366 28.697
H -5.700000000000001 35.614 28.028
H -4.703 38.018 29.256
H -3.7200000000000006 38.263 27.400000000000002
H -5.122 38.264 26.487
H -4.246 36.689 26.875
H -7.351000000000001 38.456 29.183000000000003
H -7.053000000000001 38.733 27.405000000000005
H -6.3580000000000005 40.726000000000006 27.596000000000004
H -5.054 40.186 28.602000000000004
H -6.858 40.358000000000004 30.562000000000005
H -7.71 41.278 29.371000000000002
H -5.019 42.195 29.957
H -6.792 43.444 31.922
H -5.133 43.22200000000001 31.883
H -6.097000000000001 41.77300000000001 32.217
H -7.379 44.04800000000001 29.959000000000003
H -7.364000000000001 43.11 28.551000000000002
H -4.675000000000001 43.869 28.761000000000003
H -5.484 45.271 29.217
H -6.948 44.532 26.817
H -5.204 44.27300000000001 26.486
H -6.481 46.793000000000006 27.641
H -6.957 47.617000000000004 25.625
H -6.864 46.098 24.959000000000003
H -5.390000000000001 46.996 24.881
H -3.695 45.92100000000001 27.165
H -4.344 47.17100000000001 28.239
H -4.026 47.56900000000001 26.523000000000003
Mg -9.126 18.730000000000004 43.07000000000001
C -5.623 18.445 42.867
C -8.711 22.083 42.24600000000001
C -12.431000000000001 19.033 42.793
C -9.303 15.266000000000002 42.957
N -7.320000000000001 20.025 42.453
C -5.9670000000000005 19.766 42.55400000000001
C -5.07 20.986000000000004 42.549
C -6.066000000000001 22.157 42.373000000000005
C -7.448000000000001 21.426 42.335
C -5.986000000000001 23.258000000000003 43.507
C -3.936 21.031 41.43
C -4.226 20.351 40.08200000000001
C -4.566 21.252 38.858
O -4.983 22.394 38.902
O -4.154 20.569000000000003 37.738
N -10.362 20.306 42.605
C -10.015 21.604 42.359
C -11.224 22.428000000000004 42.220000000000006
C -12.336 21.546 42.382
C -11.711 20.205 42.598
C -11.197 23.932 41.97500000000001
C -13.794000000000002 22.107 42.18800000000001
O -13.918 23.281 41.86800000000001
C -15.046 21.141000000000002 42.316
N -10.602 17.364 42.777
C -11.949000000000002 17.711 42.852
C -12.887000000000002 16.376 42.87100000000001
C -11.752 15.220000000000002 42.763
C -10.485 16.009 42.845000000000006
C -13.77 16.281 44.15
C -11.807 14.336000000000002 41.444
C -11.819000000000003 12.805 41.574
N -7.7620000000000005 17.118 43.062
C -7.944 15.760000000000002 43.004
C -6.617000000000001 15.110000000000001 42.96500000000001
C -5.679 16.175 43.031
C -6.456 17.367 43.038
C -6.315 13.641000000000002 42.857
C -4.231 16.453 42.988
O -3.231 15.722000000000001 43.038
C -4.164 17.97 43.083
C -3.5420000000000003 18.424 44.281
O -4.154 18.455 45.38
O -2.218 18.846 44.04800000000001
C -1.496 19.491 45.14
C -4.399 21.306000000000004 36.473
C -5.725 20.955 35.967
C -6.1370000000000005 19.839 35.287
C -5.182000000000001 18.625 34.982
C -7.544 19.696 34.631
C -8.371 18.342 34.658
C -9.373000000000001 18.281 33.396
C -10.574000000000002 19.305 33.518
C -12.010000000000002 18.792 33.242
C -10.234000000000002 20.449 32.52000000000001
C -10.952 21.722 32.66
C -10.067000000000002 23.01 32.543
C -10.386 24.031000000000002 31.351
C -9.902 25.492000000000004 31.781000000000002
C -9.853000000000002 23.521 29.945000000000004
C -10.927 23.089 28.928000000000004
C -10.649 23.747000000000003 27.590000000000003
C -11.247 22.823 26.473
C -10.677000000000001 23.281 25.195000000000004
C -12.813 23.069000000000003 26.424000000000003
H -8.639 23.169 42.161
H -13.517000000000001 19.116 42.866
H -9.445 14.184000000000001 42.983000000000004
H -4.615 20.947 43.538
H -5.923 22.509 41.352000000000004
H -5.582000000000001 24.18 43.089000000000006
H -5.326 22.85 44.27300000000001
H -6.972 23.481 43.916
H -3.1410000000000005 20.464 41.916000000000004
H -3.607 22.062000000000005 41.298
H -5.037000000000001 19.629000000000005 40.183
H -3.369 19.729 39.827
H -11.415 24.232 40.95
H -10.312 24.386000000000003 42.421
H -11.944 24.436 42.588
H -14.909 20.569000000000003 43.234
H -15.05 20.497 41.437
H -16.006 21.639 42.18
H -13.597000000000001 16.501 42.054
H -11.833 14.613 43.665000000000006
H -13.233 15.665 44.87100000000001
H -14.782000000000002 15.934 43.94100000000001
H -13.987 17.243 44.614000000000004
H -10.98 14.667000000000002 40.815
H -12.761 14.648000000000001 41.019
H -11.511 12.313 40.651
H -12.866 12.602000000000002 41.798
H -11.126000000000001 12.603 42.391
H -7.190000000000001 13.229 42.355000000000004
H -6.334 13.325 43.9
H -5.341 13.395000000000001 42.43300000000001
H -3.567 18.212000000000003 42.20400000000001
H -1.2760000000000002 18.888 46.021
H -2.039 20.376000000000005 45.473
H -0.613 19.949000000000005 44.694
H -3.676 21.036 35.703
H -4.307 22.369 36.695
H -6.495000000000001 21.722 36.05800000000001
H -5.377 17.629 35.38
H -4.238 18.924 35.438
H -5.161 18.589 33.893
H -7.388 20.052 33.613
H -8.198 20.459 35.05200000000001
H -8.936 18.469 35.581
H -7.766000000000001 17.435000000000002 34.655
H -9.842 17.3 33.317
H -8.822 18.333 32.457
H -10.601 19.869 34.451
H -12.414000000000001 19.139 32.291
H -12.603 19.111000000000004 34.099
H -12.128 17.728 33.037
H -10.602 19.957 31.619
H -9.147 20.535 32.495
H -11.314 21.746 33.688
H -11.71 21.831 31.884
H -9.041 22.649000000000004 32.464
H -10.156 23.53 33.497
H -11.451 24.201 31.196
H -9.277 25.944000000000003 31.010000000000005
H -9.433 25.501000000000005 32.765
H -10.762 26.111000000000004 32.037
H -9.307 22.588000000000005 30.088000000000005
H -9.114 24.234000000000005 29.577000000000005
H -11.878 23.463 29.306
H -11.043000000000001 22.006 28.975000000000005
H -9.564 23.803 27.501
H -11.018 24.755000000000003 27.407000000000004
H -11.044 21.759 26.592000000000002
H -10.832 24.356000000000005 25.097000000000005
H -11.183 22.865 24.324000000000005
H -9.607 23.08 25.141
H -13.052000000000001 23.493 27.399000000000004
H -13.38 22.146000000000004 26.302000000000003
H -13.14 23.826 25.711

