280
Bchla 9 -- Bchla 13
Mg 35.716 1.255 29.884000000000004
C 33.26 2.269 32.062
C 37.975 1.1840000000000002 32.632
C 38.346000000000004 0.782 27.813
C 33.67 1.646 27.255000000000003
N 35.616 1.6870000000000003 32.102
C 34.475 2.1030000000000006 32.73400000000001
C 34.689 2.203 34.246
C 36.276 2.035 34.333
C 36.659 1.612 32.945
C 37.029 3.3020000000000005 34.882
C 33.912 1.084 35.079
C 33.167 1.39 36.356
C 33.843 2.221 37.388
O 33.42100000000001 3.3410000000000006 37.728
O 34.933 1.6400000000000001 37.876
N 37.887 0.958 30.157000000000004
C 38.55 0.788 31.322000000000003
C 39.891 0.361 31.101
C 40.027 0.20000000000000004 29.686000000000003
C 38.73 0.727 29.166000000000004
C 40.80200000000001 0.22400000000000003 32.278000000000006
C 41.264 -0.169 28.885000000000005
O 41.33400000000001 -0.005 27.663000000000004
C 42.484 -0.7440000000000001 29.583
N 36.02 1.3670000000000002 27.779000000000003
C 37.178 1.001 27.169000000000004
C 36.981 0.8910000000000001 25.658
C 35.415 1.001 25.519
C 34.996 1.352 26.933000000000003
C 37.785 1.7880000000000003 24.671000000000003
C 34.665 -0.246 24.889000000000003
C 34.104 -1.334 25.78
N 33.899 1.9220000000000002 29.647000000000002
C 33.078 1.916 28.548000000000002
C 31.778 2.415 28.813
C 31.777 2.525 30.2
C 33.078 2.193 30.658
C 30.562000000000005 2.677 27.934
C 31.029 2.8750000000000004 31.327
O 29.887 3.2940000000000005 31.372
C 31.955 2.758 32.664
C 32.02 4.078 33.279
O 32.548 5.092 32.781000000000006
O 31.387 4.147 34.48
C 31.1 5.466000000000001 35.055
C 35.582 2.283 39.059
C 36.956 1.7520000000000002 39.281
C 37.663 1.5670000000000002 40.454
C 37.082 1.906 41.858
C 39.057 0.9960000000000001 40.45000000000001
C 39.271 -0.353 41.11
C 40.193000000000005 -0.233 42.373000000000005
C 41.643 -0.44000000000000006 42.059
C 42.00600000000001 -1.9290000000000003 42.095
C 42.605 0.519 42.836
C 43.418 1.449 41.91
C 44.351 2.278 42.795
C 44.666 3.6660000000000004 42.14300000000001
C 46.05 3.6770000000000005 41.413000000000004
C 44.807 4.773 43.233
C 43.974000000000004 6.069 42.94800000000001
C 44.742 7.371 43.228
C 44.525 8.505 42.286
C 45.78600000000001 8.771 41.42400000000001
C 43.991 9.797 43.02700000000001
H 38.549 1.115 33.55800000000001
H 39.099 0.356 27.147000000000002
H 32.904 1.431 26.508000000000003
H 34.281 3.1550000000000002 34.588
H 36.555 1.259 35.046
H 37.568 3.0020000000000002 35.78
H 36.247 4.051 35.008
H 37.838 3.673 34.252
H 34.722 0.389 35.301
H 33.307 0.459 34.423
H 32.77 0.47 36.785
H 32.335 2.027 36.05800000000001
H 41.314 -0.725 32.123
H 40.23 0.11700000000000002 33.2
H 41.52900000000001 1.024 32.422
H 42.25000000000001 -1.4870000000000003 30.346000000000004
H 43.158 0.065 29.868000000000002
H 42.999 -1.3 28.799
H 37.387 -0.09500000000000001 25.431000000000004
H 35.108 1.7500000000000002 24.79
H 37.128 2.526 24.211
H 38.164 1.1220000000000003 23.896
H 38.578 2.241 25.265000000000004
H 35.37100000000001 -0.715 24.205000000000002
H 33.813 0.096 24.301
H 34.443 -2.324 25.474
H 33.014 -1.3470000000000002 25.820000000000004
H 34.482 -1.099 26.775000000000002
H 30.791000000000004 2.376 26.911000000000005
H 30.304000000000002 3.735 27.987000000000002
H 29.727 2.091 28.317
H 31.326 2.109 33.274
H 30.272000000000002 5.471 35.764
H 31.016 6.283000000000001 34.339
H 31.936 5.664 35.726
H 35.108 1.9540000000000002 39.984
H 35.775 3.3420000000000005 38.89
H 37.467 1.4470000000000003 38.368
H 37.873000000000005 2.264 42.516
H 36.72 1.008 42.359
H 36.27000000000001 2.623 41.733000000000004
H 39.772 1.6710000000000003 40.919
H 39.282 0.849 39.393
H 39.536 -1.174 40.445
H 38.274 -0.6480000000000001 41.43900000000001
H 39.775 -1.0030000000000001 43.021
H 40.001 0.6730000000000002 42.94800000000001
H 41.848 -0.15700000000000003 41.027
H 42.301 -2.254 41.097
H 41.147 -2.584 42.237
H 42.72200000000001 -2.184 42.877
H 43.228 -0.037000000000000005 43.537
H 41.94500000000001 1.215 43.355
H 42.623 2.041 41.455
H 44.03 0.9260000000000002 41.175
H 45.262 1.704 42.962
H 44.00300000000001 2.425 43.818
H 43.904 3.914 41.404
H 46.194 4.66 40.965
H 45.93600000000001 2.868 40.69200000000001
H 46.74300000000001 3.305 42.168
H 45.84 5.106000000000001 43.335
H 44.48700000000001 4.384 44.20000000000001
H 43.05700000000001 6.043000000000001 43.535
H 43.678 6.089000000000001 41.89900000000001
H 45.80100000000001 7.203 43.426
H 44.400000000000006 7.671000000000001 44.219
H 43.757000000000005 8.162 41.59300000000001
H 45.362 9.038 40.457
H 46.351000000000006 7.847 41.306000000000004
H 46.401 9.604 41.767
H 44.493 10.048000000000002 43.961
H 42.917 9.926 43.167
H 44.126000000000005 10.671 42.389
Mg 46.269 25.137 28.870000000000005
C 47.26400000000001 27.261000000000003 31.452000000000005
C 45.068 22.98 31.102000000000004
C 46.59300000000001 22.696 26.499000000000002
C 47.586000000000006 27.403 26.575000000000003
N 46.028000000000006 25.204000000000004 31.054
C 46.486000000000004 26.155000000000005 31.859
C 45.989 25.868000000000002 33.322
C 45.393 24.446000000000005 33.19
C 45.51200000000001 24.155 31.697000000000003
C 46.24000000000001 23.308 33.949
C 44.921 26.907 33.894000000000005
C 45.18 27.258 35.319
C 44.051 27.156000000000002 36.333
O 42.867 26.915 35.975
O 44.42900000000001 27.395 37.661
N 45.856 23.126 28.82
C 45.332 22.402 29.858000000000004
C 44.87200000000001 21.106 29.340000000000003
C 45.325 21.036 27.993000000000002
C 46.006 22.318 27.747
C 44.159 20.036 30.227000000000004
C 45.218 19.848 26.99
O 45.636 19.88 25.838
C 44.545 18.61 27.449000000000005
N 46.989000000000004 25.039 26.905
C 47.1 23.902 26.099
C 47.90400000000001 24.250000000000004 24.819
C 47.61600000000001 25.804000000000002 24.632000000000005
C 47.369 26.076 26.143
C 49.389 23.836 24.901
C 46.421 26.187000000000005 23.806000000000004
C 45.034 26.121 24.373000000000005
N 47.05200000000001 27.048000000000002 28.895
C 47.58500000000001 27.842000000000002 27.906
C 48.078 29.117 28.432
C 48.07000000000001 28.906 29.884000000000004
C 47.439 27.616 30.079
C 48.679 30.186 27.673000000000002
C 48.437 29.466 31.179000000000002
O 49.025 30.434 31.487
C 47.84100000000001 28.427000000000003 32.265
C 48.812 28.038000000000004 33.351
O 49.557 27.063000000000002 33.319
O 48.64800000000001 28.911 34.426
C 49.485 28.689 35.619
C 43.349000000000004 27.285000000000004 38.637
C 43.409000000000006 25.981000000000005 39.381
C 42.815000000000005 25.681000000000004 40.59
C 41.973 26.587 41.465
C 42.73400000000001 24.216 41.042
C 41.351000000000006 23.566 40.779
C 40.703 22.851 41.985
C 39.508 23.598 42.67
C 38.403 24.144000000000002 41.69800000000001
C 39.895 24.531 43.902
C 39.162 24.066000000000003 45.19
C 39.581 24.896 46.451
C 39.961 24.135000000000005 47.775
C 38.669 23.802 48.57800000000001
C 41.147 24.756 48.58800000000001
C 42.32300000000001 23.838000000000005 49.00500000000001
C 43.624 24.128000000000004 48.208
C 44.103 22.857 47.389
C 45.589000000000006 22.553 47.793
C 43.991 23.134 45.943
H 44.47200000000001 22.249 31.653000000000002
H 46.682 21.863 25.798000000000002
H 47.892 28.105000000000004 25.797000000000004
H 46.815 25.796 34.03
H 44.379 24.310000000000002 33.566
H 45.81 23.21 34.946
H 47.29 23.544 34.12
H 46.105000000000004 22.373000000000005 33.40400000000001
H 43.906 26.513000000000005 33.84
H 44.837 27.845 33.345
H 45.396 28.325 35.272
H 46.031000000000006 26.791 35.81400000000001
H 44.956 19.415 30.635000000000005
H 43.406000000000006 19.484 29.664
H 43.772000000000006 20.426 31.169000000000004
H 44.702 18.211 28.451000000000004
H 44.791 17.789 26.776
H 43.488 18.66 27.186000000000003
H 47.384 23.696 24.038000000000004
H 48.474000000000004 26.338000000000005 24.224
H 50.125 24.615000000000002 24.702
H 49.61300000000001 22.906 24.378
H 49.632000000000005 23.532000000000004 25.919000000000004
H 46.321000000000005 25.627 22.877000000000002
H 46.56100000000001 27.219 23.484
H 44.874 27.146000000000004 24.707000000000004
H 44.906 25.482 25.247
H 44.336 25.842 23.583
H 48.364000000000004 31.108000000000004 28.162000000000003
H 48.25 30.148000000000003 26.672000000000004
H 49.76500000000001 30.102000000000004 27.699
H 47.00200000000001 28.925 32.751000000000005
H 50.519 28.644 35.276
H 49.254 27.73 36.082
H 49.443 29.398 36.446
H 42.336 27.395 38.248
H 43.487 28.078000000000003 39.372
H 43.853 25.226000000000003 38.732
H 41.272000000000006 26.017000000000003 42.075
H 41.511 27.260000000000005 40.743
H 42.52300000000001 27.262000000000004 42.12
H 43.024 24.201 42.092
H 43.495 23.574 40.598
H 41.444 22.864 39.951
H 40.650000000000006 24.333 40.45000000000001
H 41.474000000000004 22.658 42.731
H 40.22200000000001 21.953 41.596000000000004
H 38.961 22.726000000000003 43.029
H 38.482 25.23 41.749
H 37.376 23.925 41.99100000000001
H 38.534 23.953000000000003 40.63300000000001
H 39.589 25.547000000000004 43.653000000000006
H 40.982 24.5 43.966
H 39.319 23.014000000000003 45.431
H 38.124 24.160000000000004 44.870000000000005
H 38.75500000000001 25.555000000000003 46.719
H 40.449 25.467 46.12200000000001
H 40.47800000000001 23.223 47.47800000000001
H 38.8 22.767 48.89200000000001
H 37.77 23.996 47.99300000000001
H 38.702 24.386000000000003 49.499
H 40.75500000000001 25.112000000000002 49.541000000000004
H 41.45 25.723000000000003 48.186
H 41.963 22.833000000000002 48.785
H 42.519 24.053000000000004 50.05500000000001
H 44.47200000000001 24.364000000000004 48.852000000000004
H 43.54 25.064 47.655
H 43.37 22.066 47.546
H 46.188 23.440000000000005 47.587
H 45.75500000000001 21.582000000000004 47.327000000000005
H 45.494 22.426 48.871
H 43.205 23.842 45.67900000000001
H 43.872 22.196 45.4
H 44.884 23.614 45.544000000000004

