280
Bchla 2 -- Bchla 18
Mg 3.1580000000000004 -0.094 44.312
C 5.981 1.967 44.127
C 1.5980000000000003 2.251 42.305
C 0.535 -2.151 44.137
C 5.149 -2.67 45.58500000000001
N 3.8870000000000005 1.897 43.132000000000005
C 5.038 2.565 43.339
C 5.131 3.8610000000000007 42.57000000000001
C 3.59 4.004 42.271
C 2.946 2.644 42.52000000000001
C 2.9550000000000005 5.033000000000001 43.244
C 6.136 3.755 41.416
C 6.21 2.461 40.579
C 6.195 2.644 39.066
O 6.007 3.6830000000000003 38.4
O 6.519 1.434 38.422
N 1.341 0.027000000000000003 43.38
C 0.8660000000000001 1.125 42.713
C -0.598 1.037 42.635
C -0.9510000000000001 -0.318 43.02
C 0.3390000000000001 -0.8550000000000001 43.551
C -1.479 2.108 41.885000000000005
C -2.325 -0.9810000000000001 42.895
O -3.285 -0.34 42.56900000000001
C -2.49 -2.436 43.227000000000004
N 2.984 -2.239 44.619
C 1.7320000000000002 -2.881 44.593
C 1.8030000000000002 -4.396 45.061
C 3.316 -4.491 45.581
C 3.8600000000000003 -3.0190000000000006 45.284000000000006
C 0.7230000000000001 -4.977 46.104
C 4.234 -5.645 44.969
C 5.28 -6.178 46.068
N 5.163000000000001 -0.356 44.84000000000001
C 5.798 -1.431 45.428
C 7.171000000000001 -1.059 45.747
C 7.330000000000001 0.289 45.334
C 6.0840000000000005 0.6530000000000001 44.707
C 8.162 -1.875 46.535000000000004
C 8.239 1.4670000000000003 45.15
O 9.427 1.5780000000000003 45.35600000000001
C 7.352 2.565 44.423
C 7.283 3.7450000000000006 45.353
O 8.218 4.569 45.513000000000005
O 6.001000000000001 3.854 45.872
C 5.729000000000001 5.056000000000001 46.587
C 6.66 1.463 36.98700000000001
C 5.302 1.318 36.431
C 5.078 0.839 35.187
C 6.152000000000001 0.257 34.231
C 3.638 0.679 34.791
C 3.1020000000000003 2.034 34.274
C 2.501 1.746 32.904
C 0.9710000000000001 2.203 32.903000000000006
C 0.118 0.988 33.3
C 0.545 2.7340000000000004 31.509
C -0.641 3.659 31.518
C -1.9110000000000003 3.091 30.741
C -2.1240000000000006 4.095 29.606
C -2.5490000000000004 5.45 30.064
C -3.1570000000000005 3.469 28.691
C -3.2780000000000005 4.168000000000001 27.279
C -2.311 3.556 26.234
C -3.025 2.423 25.43
C -2.372 1.03 25.606000000000005
C -3.0780000000000003 2.687 23.904
H 1.075 3.032 41.749
H -0.29600000000000004 -2.8360000000000003 44.319
H 5.700000000000001 -3.415 46.163
H 5.376000000000001 4.7 43.221
H 3.291 4.312 41.27000000000001
H 1.94 4.68 43.428
H 3.0400000000000005 6.042000000000001 42.84300000000001
H 3.3150000000000004 5.085000000000001 44.272
H 7.120000000000001 3.815 41.88000000000001
H 5.982000000000001 4.608 40.75500000000001
H 5.339 1.846 40.804
H 7.152000000000001 1.9640000000000002 40.809
H -1.4650000000000003 2.038 40.797
H -1.165 3.109 42.181
H -2.5300000000000002 2.1470000000000002 42.169
H -3.476 -2.809 42.94800000000001
H -2.332 -2.656 44.283
H -1.797 -2.902 42.526
H 1.6870000000000003 -4.884 44.09400000000001
H 3.35 -4.606 46.664
H -0.10700000000000001 -5.37 45.518
H 0.379 -4.207 46.794000000000004
H 1.2030000000000003 -5.755 46.69800000000001
H 4.889 -5.253 44.191
H 3.628 -6.445 44.543
H 6.307 -6.009000000000001 45.744
H 5.136000000000001 -7.248000000000001 46.215
H 5.312 -5.697 47.045
H 8.316 -2.821 46.017
H 7.758000000000001 -2.083 47.526
H 9.136 -1.391 46.605
H 7.970000000000001 2.884 43.584
H 4.675000000000001 5.078 46.863
H 6.083 5.93 46.04
H 6.206 5.066000000000001 47.56700000000001
H 7.208000000000001 0.6580000000000001 36.497
H 7.169 2.36 36.633
H 4.481 1.537 37.114
H 7.159 0.587 34.48700000000001
H 5.947 0.594 33.215
H 6.082000000000001 -0.817 34.399
H 3.0800000000000005 0.322 35.657
H 3.654 -0.10200000000000001 34.032
H 3.8880000000000003 2.7890000000000006 34.254
H 2.292 2.3260000000000005 34.942
H 2.4690000000000003 0.695 32.613
H 3.072 2.336 32.187
H 0.708 2.9930000000000003 33.605000000000004
H -0.853 1.132 32.825
H 0.121 1.044 34.388
H 0.469 0.036 32.903000000000006
H 0.332 1.915 30.822000000000003
H 1.341 3.3360000000000003 31.071000000000005
H -0.396 4.636 31.103000000000005
H -0.9350000000000002 3.809 32.556
H -2.78 2.9560000000000004 31.384000000000004
H -1.7400000000000002 2.143 30.231
H -1.152 4.354 29.187000000000005
H -1.7000000000000002 6.127000000000001 29.966000000000005
H -2.999 5.445000000000001 31.057000000000002
H -3.348 5.871 29.454
H -4.121 3.5830000000000006 29.187000000000005
H -3.0000000000000004 2.4 28.547000000000004
H -2.983 5.217 27.325
H -4.301 4.146 26.903000000000002
H -1.4470000000000003 3.1430000000000002 26.754
H -1.8910000000000002 4.318 25.577000000000005
H -4.052 2.27 25.761000000000003
H -3.1960000000000006 0.37200000000000005 25.331000000000003
H -2.13 0.909 26.662
H -1.5310000000000001 0.829 24.942
H -2.599 1.8900000000000001 23.334000000000003
H -2.646 3.649 23.627
H -4.121 2.7350000000000003 23.593000000000004
Mg 35.496 50.254000000000005 25.270000000000003
C 35.177 48.233 28.133
C 33.951 52.80200000000001 27.062000000000005
C 35.524 52.00900000000001 22.451000000000004
C 36.25500000000001 47.316 23.351000000000003
N 34.65 50.479 27.32
C 34.759 49.532 28.348
C 34.558 50.223000000000006 29.684000000000005
C 33.901 51.589 29.336000000000002
C 34.189 51.633 27.805
C 32.412 51.77300000000001 29.767000000000003
C 35.851 50.335 30.564
C 35.577 50.303000000000004 32.132
C 34.122 50.22500000000001 32.602
O 33.488 49.211 32.821
O 33.522 51.448 32.761
N 34.963 52.12400000000001 24.874000000000002
C 34.418 53.04500000000001 25.752000000000002
C 34.292 54.33 25.127000000000002
C 34.619 54.108000000000004 23.751
C 35.084 52.735 23.667
C 33.723 55.59000000000001 25.848
C 34.526 55.05800000000001 22.602000000000004
O 34.699 54.67600000000001 21.42
C 34.142 56.56700000000001 22.603000000000005
N 35.57000000000001 49.711 23.153000000000002
C 35.668 50.65100000000001 22.194
C 36.166 50.02300000000001 20.868
C 36.379000000000005 48.52900000000001 21.137
C 36.086 48.524 22.702000000000005
C 35.302 50.411 19.707
C 37.754 47.93500000000001 20.763
C 38.97 48.585 21.468000000000004
N 35.635 48.14500000000001 25.593000000000004
C 36.093 47.168 24.776000000000003
C 36.325 45.994 25.616000000000003
C 36.017 46.322 26.966
C 35.543 47.655 26.904000000000003
C 36.938 44.675000000000004 25.153
C 35.967 45.839 28.309
O 36.341 44.806 28.858
C 35.323 47.11200000000001 29.167000000000005
C 34.105 46.631 29.933
O 33.007 46.491 29.431000000000004
O 34.39500000000001 46.48 31.270000000000003
C 33.502 45.678 32.1
C 32.179 51.407 33.44
C 31.728000000000005 52.757000000000005 33.816
C 31.476000000000003 53.20700000000001 35.06
C 31.585 52.419000000000004 36.34
C 31.232000000000003 54.65800000000001 35.253
C 32.494 55.578 35.358000000000004
C 32.199 56.97 34.852
C 32.095 57.93800000000001 36.032
C 33.53 58.581 36.387
C 31.056000000000004 59.133 35.87400000000001
C 29.751000000000005 59.058 36.829
C 29.767000000000003 60.111 37.94
C 29.644 61.531000000000006 37.366
C 30.948 62.357000000000006 37.629000000000005
C 28.401 62.13900000000001 37.941
C 27.155000000000005 61.73500000000001 37.126000000000005
C 25.977 62.101000000000006 38.07000000000001
C 25.105000000000004 63.313 37.609
C 24.682 64.143 38.785
C 23.953000000000003 62.854 36.704
H 33.579 53.562000000000005 27.752
H 35.604 52.66100000000001 21.579
H 36.619 46.49900000000001 22.725000000000005
H 33.857 49.64500000000001 30.286000000000005
H 34.499 52.36000000000001 29.821000000000005
H 31.927000000000003 52.02300000000001 28.824000000000005
H 32.302 52.650000000000006 30.406
H 31.871000000000002 50.93900000000001 30.214
H 36.348 51.294000000000004 30.421
H 36.547 49.55500000000001 30.258000000000003
H 35.894 51.265 32.535
H 36.149 49.471 32.542
H 33.111 56.132 25.126000000000005
H 34.505 56.27400000000001 26.176
H 33.128 55.503 26.757000000000005
H 34.79 57.12800000000001 23.277
H 33.09 56.730000000000004 22.837
H 34.455 57.11 21.712000000000003
H 37.076 50.566 20.616
H 35.498 48.04500000000001 20.714000000000002
H 35.746 51.194 19.092
H 34.312 50.699000000000005 20.061
H 35.072 49.59 19.027
H 37.831 48.14500000000001 19.696
H 37.755 46.857 20.927000000000003
H 39.444 47.775 22.022
H 38.574 49.35600000000001 22.129000000000005
H 39.645 49.119 20.799
H 37.675 44.286 25.855
H 37.529 44.806 24.247
H 36.124 43.98800000000001 24.920000000000005
H 36.093 47.354 29.900000000000002
H 32.487 45.915 31.780000000000005
H 33.564 45.882 33.169
H 33.815 44.645 31.948000000000004
H 32.265 50.727000000000004 34.287
H 31.423000000000002 51.004000000000005 32.766000000000005
H 31.65 53.498000000000005 33.021
H 30.704 52.510000000000005 36.975
H 32.324 52.846000000000004 37.01700000000001
H 31.698000000000004 51.339000000000006 36.24000000000001
H 30.791000000000004 54.83800000000001 36.233
H 30.508000000000003 55.014 34.52
H 33.249 55.124 34.715
H 32.94 55.631 36.351
H 31.333000000000002 56.919000000000004 34.192
H 32.992 57.23800000000001 34.153000000000006
H 31.795000000000005 57.422000000000004 36.944
H 33.614 59.644000000000005 36.163
H 34.30500000000001 58.039 35.845
H 33.851 58.384 37.41
H 30.661000000000005 59.072 34.859
H 31.512 60.117000000000004 35.98100000000001
H 29.423 58.069 37.15
H 28.914000000000005 59.32500000000001 36.184
H 30.794 59.96000000000001 38.273
H 28.948 59.747 38.56
H 29.581 61.56700000000001 36.278
H 31.798000000000002 61.8 38.02300000000001
H 30.697000000000003 63.114 38.371
H 31.266 62.821 36.696
H 28.527000000000005 63.219 37.874
H 28.265 61.888000000000005 38.993
H 27.274 60.72200000000001 36.74
H 27.103 62.354 36.23
H 26.344 62.379 39.058
H 25.434 61.177 38.26700000000001
H 25.737000000000002 63.849000000000004 36.901
H 25.303000000000004 65.034 38.686
H 24.842 63.722 39.778000000000006
H 23.602000000000004 64.275 38.717
H 23.032 62.759 37.28
H 24.164 61.967 36.107
H 23.724000000000004 63.565000000000005 35.911

