280
Bchla 2 -- Bchla 24
Mg 3.1580000000000004 -0.094 44.312
C 5.981 1.967 44.127
C 1.5980000000000003 2.251 42.305
C 0.535 -2.151 44.137
C 5.149 -2.67 45.58500000000001
N 3.8870000000000005 1.897 43.132000000000005
C 5.038 2.565 43.339
C 5.131 3.8610000000000007 42.57000000000001
C 3.59 4.004 42.271
C 2.946 2.644 42.52000000000001
C 2.9550000000000005 5.033000000000001 43.244
C 6.136 3.755 41.416
C 6.21 2.461 40.579
C 6.195 2.644 39.066
O 6.007 3.6830000000000003 38.4
O 6.519 1.434 38.422
N 1.341 0.027000000000000003 43.38
C 0.8660000000000001 1.125 42.713
C -0.598 1.037 42.635
C -0.9510000000000001 -0.318 43.02
C 0.3390000000000001 -0.8550000000000001 43.551
C -1.479 2.108 41.885000000000005
C -2.325 -0.9810000000000001 42.895
O -3.285 -0.34 42.56900000000001
C -2.49 -2.436 43.227000000000004
N 2.984 -2.239 44.619
C 1.7320000000000002 -2.881 44.593
C 1.8030000000000002 -4.396 45.061
C 3.316 -4.491 45.581
C 3.8600000000000003 -3.0190000000000006 45.284000000000006
C 0.7230000000000001 -4.977 46.104
C 4.234 -5.645 44.969
C 5.28 -6.178 46.068
N 5.163000000000001 -0.356 44.84000000000001
C 5.798 -1.431 45.428
C 7.171000000000001 -1.059 45.747
C 7.330000000000001 0.289 45.334
C 6.0840000000000005 0.6530000000000001 44.707
C 8.162 -1.875 46.535000000000004
C 8.239 1.4670000000000003 45.15
O 9.427 1.5780000000000003 45.35600000000001
C 7.352 2.565 44.423
C 7.283 3.7450000000000006 45.353
O 8.218 4.569 45.513000000000005
O 6.001000000000001 3.854 45.872
C 5.729000000000001 5.056000000000001 46.587
C 6.66 1.463 36.98700000000001
C 5.302 1.318 36.431
C 5.078 0.839 35.187
C 6.152000000000001 0.257 34.231
C 3.638 0.679 34.791
C 3.1020000000000003 2.034 34.274
C 2.501 1.746 32.904
C 0.9710000000000001 2.203 32.903000000000006
C 0.118 0.988 33.3
C 0.545 2.7340000000000004 31.509
C -0.641 3.659 31.518
C -1.9110000000000003 3.091 30.741
C -2.1240000000000006 4.095 29.606
C -2.5490000000000004 5.45 30.064
C -3.1570000000000005 3.469 28.691
C -3.2780000000000005 4.168000000000001 27.279
C -2.311 3.556 26.234
C -3.025 2.423 25.43
C -2.372 1.03 25.606000000000005
C -3.0780000000000003 2.687 23.904
H 1.075 3.032 41.749
H -0.29600000000000004 -2.8360000000000003 44.319
H 5.700000000000001 -3.415 46.163
H 5.376000000000001 4.7 43.221
H 3.291 4.312 41.27000000000001
H 1.94 4.68 43.428
H 3.0400000000000005 6.042000000000001 42.84300000000001
H 3.3150000000000004 5.085000000000001 44.272
H 7.120000000000001 3.815 41.88000000000001
H 5.982000000000001 4.608 40.75500000000001
H 5.339 1.846 40.804
H 7.152000000000001 1.9640000000000002 40.809
H -1.4650000000000003 2.038 40.797
H -1.165 3.109 42.181
H -2.5300000000000002 2.1470000000000002 42.169
H -3.476 -2.809 42.94800000000001
H -2.332 -2.656 44.283
H -1.797 -2.902 42.526
H 1.6870000000000003 -4.884 44.09400000000001
H 3.35 -4.606 46.664
H -0.10700000000000001 -5.37 45.518
H 0.379 -4.207 46.794000000000004
H 1.2030000000000003 -5.755 46.69800000000001
H 4.889 -5.253 44.191
H 3.628 -6.445 44.543
H 6.307 -6.009000000000001 45.744
H 5.136000000000001 -7.248000000000001 46.215
H 5.312 -5.697 47.045
H 8.316 -2.821 46.017
H 7.758000000000001 -2.083 47.526
H 9.136 -1.391 46.605
H 7.970000000000001 2.884 43.584
H 4.675000000000001 5.078 46.863
H 6.083 5.93 46.04
H 6.206 5.066000000000001 47.56700000000001
H 7.208000000000001 0.6580000000000001 36.497
H 7.169 2.36 36.633
H 4.481 1.537 37.114
H 7.159 0.587 34.48700000000001
H 5.947 0.594 33.215
H 6.082000000000001 -0.817 34.399
H 3.0800000000000005 0.322 35.657
H 3.654 -0.10200000000000001 34.032
H 3.8880000000000003 2.7890000000000006 34.254
H 2.292 2.3260000000000005 34.942
H 2.4690000000000003 0.695 32.613
H 3.072 2.336 32.187
H 0.708 2.9930000000000003 33.605000000000004
H -0.853 1.132 32.825
H 0.121 1.044 34.388
H 0.469 0.036 32.903000000000006
H 0.332 1.915 30.822000000000003
H 1.341 3.3360000000000003 31.071000000000005
H -0.396 4.636 31.103000000000005
H -0.9350000000000002 3.809 32.556
H -2.78 2.9560000000000004 31.384000000000004
H -1.7400000000000002 2.143 30.231
H -1.152 4.354 29.187000000000005
H -1.7000000000000002 6.127000000000001 29.966000000000005
H -2.999 5.445000000000001 31.057000000000002
H -3.348 5.871 29.454
H -4.121 3.5830000000000006 29.187000000000005
H -3.0000000000000004 2.4 28.547000000000004
H -2.983 5.217 27.325
H -4.301 4.146 26.903000000000002
H -1.4470000000000003 3.1430000000000002 26.754
H -1.8910000000000002 4.318 25.577000000000005
H -4.052 2.27 25.761000000000003
H -3.1960000000000006 0.37200000000000005 25.331000000000003
H -2.13 0.909 26.662
H -1.5310000000000001 0.829 24.942
H -2.599 1.8900000000000001 23.334000000000003
H -2.646 3.649 23.627
H -4.121 2.7350000000000003 23.593000000000004
Mg -0.187 43.411 24.933
C 1.6070000000000002 43.076 28.072
C -2.898 42.36800000000001 26.644000000000002
C -1.7320000000000002 43.655 22.148
C 2.888 44.159 23.345
N -0.581 42.801 27.230000000000004
C 0.261 42.842 28.277
C -0.506 42.58400000000001 29.588
C -1.8090000000000002 41.923 28.937000000000005
C -1.8000000000000003 42.43200000000001 27.557000000000002
C -2.075 40.449 29.193
C -0.702 43.92400000000001 30.318000000000005
C -0.869 43.756 31.857000000000003
C -0.5610000000000002 42.389 32.626
O 0.469 42.062 33.17700000000001
O -1.6500000000000001 41.507 32.446
N -2.115 43.102000000000004 24.429
C -3.103 42.58200000000001 25.243000000000002
C -4.308 42.416 24.436
C -4.003 42.864 23.127
C -2.559 43.224000000000004 23.208
C -5.571000000000001 41.874 24.94
C -4.956 43.007 21.828
O -4.584 43.57 20.835000000000004
C -6.464 42.70700000000001 21.9
N 0.559 43.585 22.973
C -0.3340000000000001 43.816 22.014
C 0.263 44.224 20.694
C 1.6280000000000001 44.753 21.198
C 1.7390000000000003 43.971000000000004 22.552
C 0.44200000000000006 43.02300000000001 19.653
C 1.7620000000000002 46.328 21.331000000000003
C 0.9410000000000001 47.259 20.392000000000003
N 1.835 43.483000000000004 25.498000000000005
C 2.95 43.846 24.817
C 4.052 43.978 25.658
C 3.57 43.639 26.89
C 2.221 43.36 26.794000000000004
C 5.44 44.465 25.251
C 4.008000000000001 43.522 28.289000000000005
O 5.1080000000000005 43.518 28.821000000000005
C 2.6750000000000003 43.22200000000001 29.104
C 2.922 42.05100000000001 29.927
O 2.929 40.872 29.559
O 3.4020000000000006 42.496 31.107
C 4.042 41.446 31.879000000000005
C -1.644 40.254000000000005 33.226
C -2.8540000000000005 40.300000000000004 34.139
C -2.9760000000000004 40.997 35.275
C -1.8710000000000002 41.858 35.91
C -4.259 41.023 36.116
C -5.381 41.862 35.472
C -6.659000000000001 41.095 35.134
C -7.857000000000001 41.643 36.041
C -8.569 42.873000000000005 35.304
C -8.883 40.434 36.241
C -9.266000000000002 40.292 37.68900000000001
C -10.519 39.593 37.883
C -11.312 40.074 39.145
C -12.096 38.822 39.802
C -12.423000000000002 41.128 38.89
C -11.931000000000001 42.58 39.17
C -12.258 43.532000000000004 38.014
C -12.169 45.041000000000004 38.484
C -13.504000000000001 45.81400000000001 38.325
C -10.974000000000002 45.684 37.683
H -3.718 41.86 27.156000000000002
H -2.284 43.689 21.207
H 3.792 44.48700000000001 22.828
H -0.023 41.815 30.191
H -2.6550000000000002 42.40200000000001 29.428
H -2.958 40.293 29.812000000000005
H -1.216 39.991 29.683
H -2.1850000000000005 39.85300000000001 28.287
H -1.656 44.33500000000001 29.987
H 0.054000000000000006 44.67300000000001 30.083000000000002
H -1.835 44.127 32.20100000000001
H -0.273 44.587 32.234
H -5.662000000000001 41.997 26.019000000000002
H -5.557 40.82 24.662000000000003
H -6.458 42.347 24.518000000000004
H -7.019000000000001 43.391000000000005 22.542000000000005
H -6.518000000000001 41.644 22.136
H -6.895 42.739000000000004 20.899
H -0.456 44.953 20.321
H 2.464 44.44400000000001 20.571
H 0.054000000000000006 43.470000000000006 18.738
H -0.137 42.13 19.891
H 1.4680000000000002 42.712 19.46
H 2.817 46.592 21.273
H 1.31 46.482 22.311
H -0.047 47.446 20.812000000000005
H 0.9750000000000001 46.739 19.434
H 1.443 48.20900000000001 20.212
H 5.257 45.138 24.413
H 6.078000000000001 43.671 24.864
H 5.885 44.977000000000004 26.104000000000003
H 2.489 44.102 29.721000000000004
H 4.455 41.795 32.825
H 4.724 40.789 31.339000000000002
H 3.3000000000000003 40.728 32.23
H -0.728 40.087 33.794
H -1.816 39.506 32.452
H -3.714 39.689 33.865
H -1.499 41.46900000000001 36.858
H -2.161 42.885 36.132
H -0.988 41.995 35.286
H -4.024 41.45 37.092
H -4.468 39.965 36.273
H -5.103 42.408 34.571
H -5.641 42.599000000000004 36.233
H -6.509 40.07000000000001 35.476
H -6.9110000000000005 40.994 34.078
H -7.543000000000001 42.165 36.944
H -9.522 42.5 34.929
H -8.048 43.18000000000001 34.397000000000006
H -8.82 43.715 35.95
H -8.496000000000002 39.485 35.869
H -9.762 40.674 35.642
H -9.253 41.290000000000006 38.129
H -8.421 39.76 38.126
H -10.267 38.539 37.997
H -11.207 39.635 37.039
H -10.595 40.40500000000001 39.897
H -11.608 37.87100000000001 40.016
H -13.074000000000002 38.715 39.333
H -12.441000000000003 39.18300000000001 40.77100000000001
H -13.258000000000001 40.96 39.569
H -12.736 40.972 37.858000000000004
H -10.844000000000001 42.53 39.231
H -12.219 42.926 40.163000000000004
H -13.221 43.264 37.579
H -11.611 43.376000000000005 37.151
H -11.816000000000003 45.027 39.515
H -14.219 45.36000000000001 37.639
H -13.356000000000002 46.804 37.893
H -13.936000000000002 46.067 39.292
H -10.646000000000003 46.511 38.31400000000001
H -11.251 46.112 36.72
H -10.203 44.922 37.568

