280
Bchla 13 -- Bchla 15
Mg 46.269 25.137 28.870000000000005
C 47.26400000000001 27.261000000000003 31.452000000000005
C 45.068 22.98 31.102000000000004
C 46.59300000000001 22.696 26.499000000000002
C 47.586000000000006 27.403 26.575000000000003
N 46.028000000000006 25.204000000000004 31.054
C 46.486000000000004 26.155000000000005 31.859
C 45.989 25.868000000000002 33.322
C 45.393 24.446000000000005 33.19
C 45.51200000000001 24.155 31.697000000000003
C 46.24000000000001 23.308 33.949
C 44.921 26.907 33.894000000000005
C 45.18 27.258 35.319
C 44.051 27.156000000000002 36.333
O 42.867 26.915 35.975
O 44.42900000000001 27.395 37.661
N 45.856 23.126 28.82
C 45.332 22.402 29.858000000000004
C 44.87200000000001 21.106 29.340000000000003
C 45.325 21.036 27.993000000000002
C 46.006 22.318 27.747
C 44.159 20.036 30.227000000000004
C 45.218 19.848 26.99
O 45.636 19.88 25.838
C 44.545 18.61 27.449000000000005
N 46.989000000000004 25.039 26.905
C 47.1 23.902 26.099
C 47.90400000000001 24.250000000000004 24.819
C 47.61600000000001 25.804000000000002 24.632000000000005
C 47.369 26.076 26.143
C 49.389 23.836 24.901
C 46.421 26.187000000000005 23.806000000000004
C 45.034 26.121 24.373000000000005
N 47.05200000000001 27.048000000000002 28.895
C 47.58500000000001 27.842000000000002 27.906
C 48.078 29.117 28.432
C 48.07000000000001 28.906 29.884000000000004
C 47.439 27.616 30.079
C 48.679 30.186 27.673000000000002
C 48.437 29.466 31.179000000000002
O 49.025 30.434 31.487
C 47.84100000000001 28.427000000000003 32.265
C 48.812 28.038000000000004 33.351
O 49.557 27.063000000000002 33.319
O 48.64800000000001 28.911 34.426
C 49.485 28.689 35.619
C 43.349000000000004 27.285000000000004 38.637
C 43.409000000000006 25.981000000000005 39.381
C 42.815000000000005 25.681000000000004 40.59
C 41.973 26.587 41.465
C 42.73400000000001 24.216 41.042
C 41.351000000000006 23.566 40.779
C 40.703 22.851 41.985
C 39.508 23.598 42.67
C 38.403 24.144000000000002 41.69800000000001
C 39.895 24.531 43.902
C 39.162 24.066000000000003 45.19
C 39.581 24.896 46.451
C 39.961 24.135000000000005 47.775
C 38.669 23.802 48.57800000000001
C 41.147 24.756 48.58800000000001
C 42.32300000000001 23.838000000000005 49.00500000000001
C 43.624 24.128000000000004 48.208
C 44.103 22.857 47.389
C 45.589000000000006 22.553 47.793
C 43.991 23.134 45.943
H 44.47200000000001 22.249 31.653000000000002
H 46.682 21.863 25.798000000000002
H 47.892 28.105000000000004 25.797000000000004
H 46.815 25.796 34.03
H 44.379 24.310000000000002 33.566
H 45.81 23.21 34.946
H 47.29 23.544 34.12
H 46.105000000000004 22.373000000000005 33.40400000000001
H 43.906 26.513000000000005 33.84
H 44.837 27.845 33.345
H 45.396 28.325 35.272
H 46.031000000000006 26.791 35.81400000000001
H 44.956 19.415 30.635000000000005
H 43.406000000000006 19.484 29.664
H 43.772000000000006 20.426 31.169000000000004
H 44.702 18.211 28.451000000000004
H 44.791 17.789 26.776
H 43.488 18.66 27.186000000000003
H 47.384 23.696 24.038000000000004
H 48.474000000000004 26.338000000000005 24.224
H 50.125 24.615000000000002 24.702
H 49.61300000000001 22.906 24.378
H 49.632000000000005 23.532000000000004 25.919000000000004
H 46.321000000000005 25.627 22.877000000000002
H 46.56100000000001 27.219 23.484
H 44.874 27.146000000000004 24.707000000000004
H 44.906 25.482 25.247
H 44.336 25.842 23.583
H 48.364000000000004 31.108000000000004 28.162000000000003
H 48.25 30.148000000000003 26.672000000000004
H 49.76500000000001 30.102000000000004 27.699
H 47.00200000000001 28.925 32.751000000000005
H 50.519 28.644 35.276
H 49.254 27.73 36.082
H 49.443 29.398 36.446
H 42.336 27.395 38.248
H 43.487 28.078000000000003 39.372
H 43.853 25.226000000000003 38.732
H 41.272000000000006 26.017000000000003 42.075
H 41.511 27.260000000000005 40.743
H 42.52300000000001 27.262000000000004 42.12
H 43.024 24.201 42.092
H 43.495 23.574 40.598
H 41.444 22.864 39.951
H 40.650000000000006 24.333 40.45000000000001
H 41.474000000000004 22.658 42.731
H 40.22200000000001 21.953 41.596000000000004
H 38.961 22.726000000000003 43.029
H 38.482 25.23 41.749
H 37.376 23.925 41.99100000000001
H 38.534 23.953000000000003 40.63300000000001
H 39.589 25.547000000000004 43.653000000000006
H 40.982 24.5 43.966
H 39.319 23.014000000000003 45.431
H 38.124 24.160000000000004 44.870000000000005
H 38.75500000000001 25.555000000000003 46.719
H 40.449 25.467 46.12200000000001
H 40.47800000000001 23.223 47.47800000000001
H 38.8 22.767 48.89200000000001
H 37.77 23.996 47.99300000000001
H 38.702 24.386000000000003 49.499
H 40.75500000000001 25.112000000000002 49.541000000000004
H 41.45 25.723000000000003 48.186
H 41.963 22.833000000000002 48.785
H 42.519 24.053000000000004 50.05500000000001
H 44.47200000000001 24.364000000000004 48.852000000000004
H 43.54 25.064 47.655
H 43.37 22.066 47.546
H 46.188 23.440000000000005 47.587
H 45.75500000000001 21.582000000000004 47.327000000000005
H 45.494 22.426 48.871
H 43.205 23.842 45.67900000000001
H 43.872 22.196 45.4
H 44.884 23.614 45.544000000000004
Mg 46.367000000000004 34.873 28.258000000000003
C 44.786 32.872 30.578000000000003
C 46.386 37.42 30.776000000000003
C 47.556000000000004 36.983 26.07
C 45.979 32.443 25.827000000000005
N 45.442 35.144000000000005 30.411
C 45.073 34.117 31.158
C 45.125 34.48 32.669
C 45.086000000000006 36.045 32.568
C 45.675 36.281 31.168
C 43.631 36.618 32.709
C 46.46 33.912 33.2
C 46.692 34.009 34.714
C 45.77100000000001 34.851 35.574
O 44.572 34.659 35.633
O 46.492 35.823 36.246
N 47.011 36.848 28.339
C 46.96000000000001 37.702 29.494000000000003
C 47.698 38.905 29.134
C 48.14 38.733 27.785000000000004
C 47.542 37.488 27.305
C 47.979 40.111 30.106
C 49.099000000000004 39.67100000000001 26.980000000000004
O 49.27 39.437 25.815
C 49.747 40.84400000000001 27.641
N 46.806 34.696 26.230000000000004
C 47.30800000000001 35.721 25.505
C 47.464000000000006 35.391 24.021000000000004
C 47.086 33.89200000000001 23.987
C 46.581 33.654 25.468000000000004
C 46.605 36.265 23.035
C 48.116 32.929 23.454
C 49.591 32.99 23.919
N 45.556 33.03 28.125
C 45.469 32.14 27.093000000000004
C 44.91700000000001 30.915 27.632000000000005
C 44.641000000000005 31.103000000000005 29.030000000000005
C 45.051 32.44500000000001 29.259000000000004
C 44.677 29.678000000000004 26.824000000000005
C 44.09100000000001 30.544000000000004 30.219000000000005
O 43.568 29.438 30.477000000000004
C 43.938 31.834000000000003 31.195000000000004
C 44.253 31.346000000000004 32.61
O 45.22200000000001 30.773000000000003 32.934
O 43.189 31.657000000000004 33.408
C 43.384 31.629000000000005 34.843
C 45.657 36.653000000000006 37.121
C 46.545 37.745 37.603
C 46.164 38.705 38.51
C 44.685 38.619 39.09100000000001
C 47.039 39.772 39.079
C 47.50500000000001 40.762 37.992
C 48.967 41.30200000000001 38.124
C 48.92900000000001 42.793 38.464
C 50.265 43.401 38.073
C 48.721 42.85900000000001 40.040000000000006
C 47.438 43.69800000000001 40.32900000000001
C 47.658 44.956 41.19700000000001
C 47.46000000000001 46.36500000000001 40.413
C 48.581 47.347 40.726000000000006
C 46.024 46.939 40.579
C 45.215 47.182 39.30500000000001
C 43.888 46.358 39.451
C 42.613 47.09700000000001 39.093
C 41.839000000000006 47.603 40.29
C 41.836 46.18200000000001 38.172
H 46.328 38.211 31.526
H 47.902 37.661 25.287000000000003
H 45.811 31.643000000000004 25.104000000000003
H 44.235 34.149 33.204
H 45.76700000000001 36.365 33.357
H 43.51 37.056 33.699
H 42.93300000000001 35.797 32.544
H 43.416 37.434 32.019000000000005
H 47.26100000000001 34.504000000000005 32.758
H 46.66 32.911 32.819
H 47.744 34.112 34.981
H 46.574 32.984 35.066
H 47.709 41.071 29.665
H 49.035000000000004 40.036 30.365000000000002
H 47.454 39.948 31.048000000000002
H 50.663 40.948 27.059
H 50.08200000000001 40.624 28.654000000000003
H 49.168000000000006 41.736 27.880000000000003
H 48.522 35.545 23.81
H 46.169000000000004 33.697 23.431
H 46.31700000000001 35.593 22.227
H 47.327000000000005 37.01 22.7
H 45.806 36.774 23.574
H 48.215 33.307 22.437
H 47.864 31.868 23.454
H 50.358000000000004 33.201 23.175000000000004
H 49.941 32.015 24.258000000000003
H 49.69200000000001 33.757000000000005 24.687
H 44.204 28.972 27.506000000000004
H 45.629 29.238 26.524
H 44.153000000000006 29.831000000000003 25.881000000000004
H 42.912 32.172 31.048000000000002
H 42.529 30.965000000000003 34.971
H 43.388 32.616 35.306
H 44.281 31.1 35.166
H 45.334 36.116 38.012
H 44.914 37.248000000000005 36.59
H 47.605 37.802 37.352
H 43.986000000000004 39.319 38.63300000000001
H 44.83800000000001 38.855 40.144000000000005
H 44.386 37.571 39.092
H 47.973 39.36500000000001 39.465
H 46.675 40.26 39.983
H 46.821 41.602 37.872
H 47.46000000000001 40.255 37.028
H 49.354000000000006 41.12100000000001 37.121
H 49.64 40.765 38.791
H 48.11800000000001 43.351 37.996
H 50.307 44.314 38.666
H 50.27100000000001 43.665000000000006 37.015
H 51.01400000000001 42.708000000000006 38.456
H 49.535 43.335 40.58700000000001
H 48.406000000000006 41.867000000000004 40.363
H 46.831 42.99700000000001 40.901
H 46.867000000000004 44.005 39.453
H 48.635000000000005 44.926 41.68
H 46.88000000000001 44.90100000000001 41.95900000000001
H 47.655 46.207 39.353
H 49.33700000000001 47.473 39.952
H 49.137 47.137 41.64000000000001
H 48.169000000000004 48.352000000000004 40.81400000000001
H 46.043000000000006 47.93500000000001 41.023
H 45.472 46.344 41.307
H 45.783 46.826 38.446
H 44.980000000000004 48.221 39.077
H 43.699000000000005 46.022 40.47
H 44.012 45.568 38.71000000000001
H 42.913 47.916 38.44
H 42.129000000000005 48.642 40.449
H 41.986 47.027 41.204
H 40.81 47.456 39.964
H 41.19700000000001 46.86500000000001 37.613
H 41.288 45.471 38.791
H 42.38 45.705 37.357

