280
Bchla 1 -- Bchla 10
Mg -1.968 16.991 27.078000000000003
C -2.1850000000000005 14.773 29.879
C -3.2230000000000003 19.433 29.104
C -2.213 18.841 24.514
C -1.8220000000000003 14.167000000000002 25.041000000000004
N -2.585 16.982 29.204000000000004
C -2.562 16.083 30.183
C -2.904 16.682 31.58
C -3.7410000000000005 17.955 31.110000000000003
C -3.123 18.159 29.738000000000003
C -5.231 17.676 30.941000000000003
C -1.623 17.101 32.377
C -1.844 17.388000000000005 33.865
C -0.8000000000000002 17.024 34.811
O 0.398 16.855000000000004 34.599
O -1.38 16.867 36.028000000000006
N -2.153 18.952 26.926000000000002
C -2.6710000000000003 19.791 27.855000000000004
C -2.588 21.147 27.271
C -2.155 21.006 25.853
C -2.182 19.574 25.698000000000004
C -2.8550000000000004 22.397 28.052
C -1.787 22.004 24.801000000000002
O -1.665 21.681000000000004 23.57
C -1.658 23.405 25.241000000000003
N -2.233 16.578 25.049
C -2.247 17.56 24.141
C -2.1640000000000006 17.015 22.746
C -1.844 15.458 22.898
C -1.8820000000000001 15.359 24.443
C -3.4190000000000005 17.196 21.881
C -0.595 14.921 22.155
C 0.6580000000000001 15.501000000000001 22.772000000000002
N -1.818 14.847000000000001 27.381
C -1.795 13.855000000000002 26.39
C -1.795 12.553 27.082
C -1.835 12.880000000000003 28.436000000000003
C -1.885 14.296 28.580000000000002
C -1.819 11.276 26.455000000000002
C -1.8720000000000003 12.362000000000002 29.794
O -1.7600000000000002 11.244 30.299
C -2.223 13.563 30.779
C -1.251 13.509000000000002 31.926000000000002
O -0.037000000000000005 13.736 31.747
O -1.9300000000000002 13.435000000000002 33.081
C -1.025 13.408 34.261
C -0.516 16.468 37.138
C -0.5310000000000001 17.387 38.262
C -0.454 17.127 39.59
C -0.378 15.838000000000001 40.321
C -0.7230000000000001 18.255 40.576
C 0.451 18.789 41.50200000000001
C 1.21 20.031 40.87
C 1.469 21.168 41.94200000000001
C 0.066 21.921 42.199
C 2.7560000000000002 22.039000000000005 41.67000000000001
C 3.2430000000000003 22.867 42.872
C 4.766 22.908000000000005 42.988
C 5.267 23.085 44.478
C 6.800000000000001 23.421 44.531
C 4.85 21.941000000000003 45.489
C 3.95 22.297000000000004 46.696
C 2.527 21.696000000000005 46.703
C 1.4260000000000002 22.715 47.155
C 0.033 22.091 47.443
C 1.232 23.982 46.288
H -3.8270000000000004 20.211000000000002 29.575
H -2.186 19.444 23.604
H -1.6920000000000002 13.244 24.473000000000003
H -3.5220000000000002 16.042 32.21
H -3.553 18.822000000000003 31.743000000000002
H -5.452 16.614 31.047000000000004
H -5.479000000000001 18.018 29.936000000000003
H -5.82 18.292 31.621000000000002
H -1.299 18.087 32.044
H -0.838 16.352000000000004 32.267
H -2.8120000000000003 17.017 34.203
H -1.906 18.468 33.99900000000001
H -3.312 22.177000000000003 29.016000000000002
H -3.6190000000000007 22.954000000000004 27.510000000000005
H -1.9610000000000003 23.011 28.162000000000003
H -2.603 23.735 25.673
H -1.303 23.961000000000002 24.374000000000002
H -0.9200000000000002 23.457000000000004 26.042000000000005
H -1.36 17.492 22.187
H -2.66 14.835000000000003 22.531
H -3.2350000000000003 17.731 20.949000000000005
H -4.172000000000001 17.705 22.482000000000003
H -3.935 16.271 21.625
H -0.6120000000000001 15.232000000000001 21.111
H -0.516 13.834 22.176000000000002
H 0.746 16.469 22.28
H 1.5190000000000001 14.870000000000001 22.549
H 0.527 15.688000000000002 23.838000000000005
H -1.101 10.658000000000001 26.994000000000003
H -1.564 11.349 25.398
H -2.859 10.992 26.615000000000002
H -3.251 13.410000000000002 31.106
H -1.27 12.513000000000002 34.833
H -1.135 14.372 34.758
H 0.032 13.237000000000002 34.054
H 0.552 16.428000000000004 36.922
H -0.907 15.476 37.361
H -1.044 18.319000000000003 38.02300000000001
H -0.543 14.989 39.658
H -1.182 15.731000000000002 41.05
H 0.581 15.668 40.812
H -1.499 17.903 41.256
H -1.227 19.095 40.09700000000001
H 1.292 18.096 41.508
H 0.091 19.058 42.49400000000001
H 0.62 20.446000000000005 40.053
H 2.115 19.576 40.468
H 1.778 20.639 42.84300000000001
H 0.034 22.9 41.721
H -0.263 21.889 43.23700000000001
H -0.6930000000000001 21.476000000000003 41.556
H 2.393 22.719 40.9
H 3.556 21.429000000000002 41.25
H 2.826 22.458 43.793
H 2.891 23.896 42.79800000000001
H 5.207000000000001 23.572000000000003 42.244
H 5.175 21.964000000000002 42.62700000000001
H 4.875 24.075000000000003 44.715
H 7.330000000000001 22.497000000000003 44.3
H 7.166000000000001 23.617000000000004 45.539
H 7.126000000000001 24.262 43.92
H 5.8260000000000005 21.689000000000004 45.90400000000001
H 4.491 21.05 44.973
H 3.897 23.383 46.781
H 4.392 21.943 47.62700000000001
H 2.5140000000000002 20.877 47.422
H 2.203 21.325 45.731
H 1.7820000000000003 22.975 48.15100000000001
H -0.337 22.156 48.46600000000001
H 0.258 21.029 47.348
H -0.654 22.475 46.688
H 1.826 23.915000000000003 45.376000000000005
H 1.8130000000000002 24.727 46.832
H 0.23400000000000004 24.277 45.96
Mg 40.74100000000001 8.403 29.699000000000005
C 42.66 10.025000000000002 32.016
C 38.732 7.215 32.077
C 39.179 6.752000000000001 27.363
C 43.283 9.228000000000002 27.341
N 40.793 8.456 31.868
C 41.505 9.392 32.544
C 40.948 9.635 33.92
C 39.85300000000001 8.497 34.002
C 39.827 7.948 32.592
C 40.10000000000001 7.441 35.106
C 40.441 11.181 34.185
C 40.87 11.882 35.483
C 41.239 10.966000000000001 36.692
O 42.389 10.847 37.185
O 40.21 10.24 37.18
N 39.138000000000005 7.344 29.692000000000004
C 38.399 6.917 30.749
C 37.347 6.003 30.376000000000005
C 37.337 6.023000000000001 29.014000000000003
C 38.655 6.628 28.647
C 36.61 5.298 31.500000000000004
C 36.334 5.366 28.045000000000005
O 36.442 5.387 26.841000000000005
C 35.207 4.651 28.730000000000004
N 41.3 7.9190000000000005 27.672000000000004
C 40.367 7.314 26.915
C 40.80200000000001 7.264 25.447000000000003
C 41.951 8.327 25.387000000000004
C 42.232 8.498 26.894
C 41.216 5.861 24.829000000000004
C 41.580000000000005 9.724 24.761000000000003
C 40.484 10.599 25.310000000000002
N 42.572 9.481 29.570000000000004
C 43.553 9.669 28.591
C 44.679 10.463000000000001 29.099000000000004
C 44.364 10.637 30.455000000000002
C 43.08700000000001 10.022 30.648
C 45.856 11.013 28.335000000000004
C 44.788 11.17 31.668000000000003
O 45.805 11.75 32.015
C 43.616 11.012000000000002 32.671
C 44.297 10.490000000000002 33.878
O 44.637 9.318 34.057
O 44.61300000000001 11.499000000000002 34.741
C 45.545 11.240000000000002 35.843
C 40.322 9.61 38.459
C 39.478 10.410000000000002 39.513
C 40.066 11.285 40.35600000000001
C 41.54900000000001 11.746 40.477
C 39.148 11.913 41.409000000000006
C 38.818 10.836000000000002 42.484
C 37.376 10.284000000000002 42.164
C 36.427 10.664 43.31
C 36.623000000000005 9.693000000000001 44.519000000000005
C 34.979 10.71 42.929
C 34.436 12.105 43.364000000000004
C 33.108 11.999000000000002 44.133
C 33.076 12.806 45.469
C 33.07000000000001 14.319000000000003 45.179
C 34.230000000000004 12.507000000000001 46.45700000000001
C 33.805 12.254000000000001 47.882
C 34.574 11.105 48.582
C 35.685 11.55 49.534000000000006
C 36.86 12.239000000000003 48.849000000000004
C 36.138 10.376000000000001 50.43500000000001
H 37.99 7.007 32.851
H 38.681 6.27 26.520000000000003
H 43.95700000000001 9.442 26.508000000000003
H 41.68 9.37 34.683
H 38.87700000000001 8.959 34.149
H 40.485 6.532 34.644
H 39.146 7.206000000000001 35.578
H 40.83 7.874 35.79
H 39.353 11.122 34.153000000000006
H 40.807 11.842000000000002 33.4
H 40.043 12.466 35.886
H 41.65400000000001 12.608 35.268
H 37.229 4.662 32.133
H 35.89 4.51 31.28
H 36.128 6.144 31.99
H 34.675 5.325000000000001 29.401000000000003
H 35.723 3.8010000000000006 29.176000000000002
H 34.378 4.279 28.129000000000005
H 39.885000000000005 7.563 24.938000000000002
H 42.832 7.863000000000001 24.943000000000005
H 41.112 5.086 25.588
H 42.281000000000006 5.839 24.601000000000003
H 40.7 5.56 23.916
H 41.363 9.409 23.740000000000002
H 42.431 10.404 24.739000000000004
H 39.92 10.047 26.063000000000002
H 39.777 10.864 24.524000000000004
H 40.79900000000001 11.500000000000002 25.836000000000002
H 46.782 10.487 28.563000000000002
H 45.972 12.075 28.552
H 45.609 10.771 27.301000000000002
H 43.074000000000005 11.947 32.814
H 46.059 12.145000000000001 36.169
H 46.185 10.382 35.643
H 45.044 10.862 36.734
H 41.27000000000001 9.465 38.977
H 39.788 8.664000000000001 38.377
H 38.42100000000001 10.146 39.563
H 41.653000000000006 12.697000000000001 39.955
H 42.275 11.079 40.012
H 41.80700000000001 11.934000000000001 41.519000000000005
H 38.275 12.421 40.99900000000001
H 39.578 12.797 41.88000000000001
H 38.831 11.405000000000001 43.414
H 39.554 10.037 42.568
H 37.59700000000001 9.220000000000002 42.24
H 36.986 10.391000000000002 41.15200000000001
H 36.693 11.631 43.738
H 35.984 8.812 44.461000000000006
H 36.584 10.21 45.47800000000001
H 37.579 9.171 44.488
H 34.432 9.855 43.326
H 34.791 10.656 41.857
H 34.215 12.588 42.412
H 35.149 12.823000000000002 43.771
H 32.957 10.965 44.44400000000001
H 32.223 12.31 43.577000000000005
H 32.127 12.536000000000001 45.933
H 33.675 14.873000000000001 45.896
H 32.052 14.68 45.32900000000001
H 33.408 14.524 44.163
H 35.025 13.253000000000002 46.45700000000001
H 34.742 11.603000000000002 46.126
H 32.755 12.067 48.107000000000006
H 33.921 13.139000000000001 48.507
H 34.944 10.524000000000001 47.73700000000001
H 33.809 10.505000000000003 49.07600000000001
H 35.291 12.329 50.186
H 37.778 12.02 49.394
H 36.69800000000001 13.313000000000002 48.754
H 36.978 11.8 47.85900000000001
H 37.148 10.51 50.821000000000005
H 35.914 9.417 49.96600000000001
H 35.458 10.381 51.286

