280
Bchla 4 -- Bchla 9
Mg 8.828 2.979 28.391000000000002
C 10.365 1.604 31.107
C 7.597 5.545 30.492000000000004
C 7.114000000000001 4.2330000000000005 25.802
C 10.134 0.474 26.437000000000005
N 8.693 3.351 30.578000000000003
C 9.525000000000002 2.685 31.487
C 9.406 3.272 32.922
C 8.46 4.464 32.618
C 8.161000000000001 4.436 31.13
C 7.123 4.696 33.443
C 10.760000000000002 3.7270000000000003 33.625
C 10.509000000000002 4.328000000000001 35.034
C 10.968 3.4140000000000006 36.171
O 12.221000000000002 3.189 36.417
O 9.956 2.8760000000000003 36.923
N 7.544 4.728 28.173
C 7.388 5.736 29.1
C 6.471 6.693 28.492
C 6.332 6.293000000000001 27.124000000000002
C 7.022 5.053 26.955
C 5.959 7.8500000000000005 29.26
C 5.418000000000001 7.051 26.099
O 5.12 6.601 24.974000000000004
C 4.785 8.363 26.483000000000004
N 8.635 2.4480000000000004 26.519
C 7.831000000000001 3.126 25.560000000000002
C 7.672 2.298 24.305000000000003
C 8.944 1.456 24.384
C 9.323 1.476 25.858000000000004
C 6.367000000000001 1.433 24.304000000000002
C 10.116 2.066 23.583
C 10.222 1.7510000000000001 22.115000000000002
N 9.991 1.292 28.619000000000003
C 10.573 0.454 27.746
C 11.354 -0.5110000000000001 28.462
C 11.332000000000003 -0.10700000000000001 29.78
C 10.516000000000002 1.034 29.827000000000005
C 12.085 -1.615 27.781000000000002
C 11.825 -0.42000000000000004 31.053
O 12.582000000000003 -1.291 31.436
C 11.205 0.7090000000000001 32.003
C 10.440000000000001 0.028000000000000004 33.082
O 9.421 -0.608 32.964
O 10.938 0.32100000000000006 34.287
C 10.212000000000002 -0.271 35.476
C 10.442 2.436 38.219
C 10.585000000000003 3.612 39.101
C 10.938 3.628 40.413
C 11.388 2.464 41.283
C 11.155 4.989 41.129
C 9.752 5.588000000000001 41.57600000000001
C 9.542 7.039 41.239
C 9.091000000000001 7.969 42.37200000000001
C 7.654000000000001 7.531 42.831
C 9.102 9.442 41.992000000000004
C 10.452000000000002 10.007 42.316
C 10.402000000000001 11.334 43.141
C 10.943000000000001 11.173 44.557
C 12.074 12.167000000000002 44.84100000000001
C 9.848 11.107 45.671
C 9.848 9.934 46.687000000000005
C 8.67 8.916 46.459
C 7.66 8.833 47.644000000000005
C 7.954 7.651 48.642
C 6.2490000000000006 8.709 47.233000000000004
H 7.388 6.3790000000000004 31.165000000000003
H 6.566000000000001 4.634 24.947
H 10.686 -0.275 25.866000000000003
H 8.895 2.543 33.551
H 9.005 5.4 32.744
H 6.855000000000001 5.7330000000000005 33.647
H 7.101000000000001 4.029 34.30500000000001
H 6.335000000000001 4.379 32.76
H 11.201 4.41 32.9
H 11.412000000000003 2.857 33.702
H 9.473 4.656000000000001 35.119
H 11.135 5.217 35.105
H 4.892000000000001 7.697000000000001 29.423
H 6.279 8.735 28.710000000000004
H 6.4670000000000005 7.932000000000001 30.221
H 4.238 8.773 25.634
H 5.636 9.032 26.618
H 4.162 8.37 27.377000000000002
H 7.642000000000001 2.9300000000000006 23.417
H 8.8 0.42300000000000004 24.068000000000005
H 6.4590000000000005 0.583 24.979
H 6.138 1.095 23.293
H 5.576 2.107 24.631000000000004
H 11.088000000000001 1.857 24.028
H 10.1 3.151 23.687
H 10.173000000000002 2.704 21.589
H 9.271 1.263 21.901000000000003
H 11.07 1.121 21.846
H 13.127000000000002 -1.339 27.624
H 11.639 -2.062 26.892
H 12.108 -2.4270000000000005 28.508
H 12.027000000000001 1.281 32.434
H 9.156 -0.028000000000000004 35.35600000000001
H 10.523 0.16 36.428
H 10.374 -1.349 35.46
H 11.342 1.826 38.135
H 9.578 1.846 38.525
H 10.35 4.58 38.659
H 12.457000000000003 2.253 41.271
H 10.877 1.594 40.869
H 11.041 2.646 42.3
H 11.642 5.5920000000000005 40.363
H 11.695 4.988 42.076
H 9.692 5.373 42.643
H 8.983 4.976000000000001 41.10600000000001
H 8.809000000000001 7.066 40.43300000000001
H 10.489 7.336 40.789
H 9.661 7.63 43.23700000000001
H 6.946 8.352 42.93600000000001
H 7.823000000000001 7.050000000000001 43.795
H 7.297000000000001 6.769 42.13900000000001
H 8.294 10.092 42.329
H 8.911 9.357 40.922
H 11.011 10.375 41.455
H 11.061 9.262 42.82800000000001
H 9.398 11.735 43.276
H 10.899 12.154 42.622
H 11.504000000000001 10.238 44.574
H 12.984 11.571 44.763000000000005
H 12.079000000000002 12.453000000000001 45.89300000000001
H 12.336 12.989 44.175
H 8.944 10.967 45.079
H 9.807000000000002 11.991 46.308
H 9.842 10.217 47.739000000000004
H 10.774 9.381 46.53
H 9.156 7.942 46.407
H 7.992 8.997 45.609
H 7.638 9.788 48.16700000000001
H 7.105000000000001 7.47 49.301
H 8.786000000000001 7.889 49.304
H 8.11 6.706000000000001 48.12100000000001
H 6.0360000000000005 8.417 46.205
H 5.724 9.614 47.540000000000006
H 5.699 7.869000000000001 47.658
Mg 35.716 1.255 29.884000000000004
C 33.26 2.269 32.062
C 37.975 1.1840000000000002 32.632
C 38.346000000000004 0.782 27.813
C 33.67 1.646 27.255000000000003
N 35.616 1.6870000000000003 32.102
C 34.475 2.1030000000000006 32.73400000000001
C 34.689 2.203 34.246
C 36.276 2.035 34.333
C 36.659 1.612 32.945
C 37.029 3.3020000000000005 34.882
C 33.912 1.084 35.079
C 33.167 1.39 36.356
C 33.843 2.221 37.388
O 33.42100000000001 3.3410000000000006 37.728
O 34.933 1.6400000000000001 37.876
N 37.887 0.958 30.157000000000004
C 38.55 0.788 31.322000000000003
C 39.891 0.361 31.101
C 40.027 0.20000000000000004 29.686000000000003
C 38.73 0.727 29.166000000000004
C 40.80200000000001 0.22400000000000003 32.278000000000006
C 41.264 -0.169 28.885000000000005
O 41.33400000000001 -0.005 27.663000000000004
C 42.484 -0.7440000000000001 29.583
N 36.02 1.3670000000000002 27.779000000000003
C 37.178 1.001 27.169000000000004
C 36.981 0.8910000000000001 25.658
C 35.415 1.001 25.519
C 34.996 1.352 26.933000000000003
C 37.785 1.7880000000000003 24.671000000000003
C 34.665 -0.246 24.889000000000003
C 34.104 -1.334 25.78
N 33.899 1.9220000000000002 29.647000000000002
C 33.078 1.916 28.548000000000002
C 31.778 2.415 28.813
C 31.777 2.525 30.2
C 33.078 2.193 30.658
C 30.562000000000005 2.677 27.934
C 31.029 2.8750000000000004 31.327
O 29.887 3.2940000000000005 31.372
C 31.955 2.758 32.664
C 32.02 4.078 33.279
O 32.548 5.092 32.781000000000006
O 31.387 4.147 34.48
C 31.1 5.466000000000001 35.055
C 35.582 2.283 39.059
C 36.956 1.7520000000000002 39.281
C 37.663 1.5670000000000002 40.454
C 37.082 1.906 41.858
C 39.057 0.9960000000000001 40.45000000000001
C 39.271 -0.353 41.11
C 40.193000000000005 -0.233 42.373000000000005
C 41.643 -0.44000000000000006 42.059
C 42.00600000000001 -1.9290000000000003 42.095
C 42.605 0.519 42.836
C 43.418 1.449 41.91
C 44.351 2.278 42.795
C 44.666 3.6660000000000004 42.14300000000001
C 46.05 3.6770000000000005 41.413000000000004
C 44.807 4.773 43.233
C 43.974000000000004 6.069 42.94800000000001
C 44.742 7.371 43.228
C 44.525 8.505 42.286
C 45.78600000000001 8.771 41.42400000000001
C 43.991 9.797 43.02700000000001
H 38.549 1.115 33.55800000000001
H 39.099 0.356 27.147000000000002
H 32.904 1.431 26.508000000000003
H 34.281 3.1550000000000002 34.588
H 36.555 1.259 35.046
H 37.568 3.0020000000000002 35.78
H 36.247 4.051 35.008
H 37.838 3.673 34.252
H 34.722 0.389 35.301
H 33.307 0.459 34.423
H 32.77 0.47 36.785
H 32.335 2.027 36.05800000000001
H 41.314 -0.725 32.123
H 40.23 0.11700000000000002 33.2
H 41.52900000000001 1.024 32.422
H 42.25000000000001 -1.4870000000000003 30.346000000000004
H 43.158 0.065 29.868000000000002
H 42.999 -1.3 28.799
H 37.387 -0.09500000000000001 25.431000000000004
H 35.108 1.7500000000000002 24.79
H 37.128 2.526 24.211
H 38.164 1.1220000000000003 23.896
H 38.578 2.241 25.265000000000004
H 35.37100000000001 -0.715 24.205000000000002
H 33.813 0.096 24.301
H 34.443 -2.324 25.474
H 33.014 -1.3470000000000002 25.820000000000004
H 34.482 -1.099 26.775000000000002
H 30.791000000000004 2.376 26.911000000000005
H 30.304000000000002 3.735 27.987000000000002
H 29.727 2.091 28.317
H 31.326 2.109 33.274
H 30.272000000000002 5.471 35.764
H 31.016 6.283000000000001 34.339
H 31.936 5.664 35.726
H 35.108 1.9540000000000002 39.984
H 35.775 3.3420000000000005 38.89
H 37.467 1.4470000000000003 38.368
H 37.873000000000005 2.264 42.516
H 36.72 1.008 42.359
H 36.27000000000001 2.623 41.733000000000004
H 39.772 1.6710000000000003 40.919
H 39.282 0.849 39.393
H 39.536 -1.174 40.445
H 38.274 -0.6480000000000001 41.43900000000001
H 39.775 -1.0030000000000001 43.021
H 40.001 0.6730000000000002 42.94800000000001
H 41.848 -0.15700000000000003 41.027
H 42.301 -2.254 41.097
H 41.147 -2.584 42.237
H 42.72200000000001 -2.184 42.877
H 43.228 -0.037000000000000005 43.537
H 41.94500000000001 1.215 43.355
H 42.623 2.041 41.455
H 44.03 0.9260000000000002 41.175
H 45.262 1.704 42.962
H 44.00300000000001 2.425 43.818
H 43.904 3.914 41.404
H 46.194 4.66 40.965
H 45.93600000000001 2.868 40.69200000000001
H 46.74300000000001 3.305 42.168
H 45.84 5.106000000000001 43.335
H 44.48700000000001 4.384 44.20000000000001
H 43.05700000000001 6.043000000000001 43.535
H 43.678 6.089000000000001 41.89900000000001
H 45.80100000000001 7.203 43.426
H 44.400000000000006 7.671000000000001 44.219
H 43.757000000000005 8.162 41.59300000000001
H 45.362 9.038 40.457
H 46.351000000000006 7.847 41.306000000000004
H 46.401 9.604 41.767
H 44.493 10.048000000000002 43.961
H 42.917 9.926 43.167
H 44.126000000000005 10.671 42.389

