280
Bchla 1 -- Bchla 3
Mg -1.968 16.991 27.078000000000003
C -2.1850000000000005 14.773 29.879
C -3.2230000000000003 19.433 29.104
C -2.213 18.841 24.514
C -1.8220000000000003 14.167000000000002 25.041000000000004
N -2.585 16.982 29.204000000000004
C -2.562 16.083 30.183
C -2.904 16.682 31.58
C -3.7410000000000005 17.955 31.110000000000003
C -3.123 18.159 29.738000000000003
C -5.231 17.676 30.941000000000003
C -1.623 17.101 32.377
C -1.844 17.388000000000005 33.865
C -0.8000000000000002 17.024 34.811
O 0.398 16.855000000000004 34.599
O -1.38 16.867 36.028000000000006
N -2.153 18.952 26.926000000000002
C -2.6710000000000003 19.791 27.855000000000004
C -2.588 21.147 27.271
C -2.155 21.006 25.853
C -2.182 19.574 25.698000000000004
C -2.8550000000000004 22.397 28.052
C -1.787 22.004 24.801000000000002
O -1.665 21.681000000000004 23.57
C -1.658 23.405 25.241000000000003
N -2.233 16.578 25.049
C -2.247 17.56 24.141
C -2.1640000000000006 17.015 22.746
C -1.844 15.458 22.898
C -1.8820000000000001 15.359 24.443
C -3.4190000000000005 17.196 21.881
C -0.595 14.921 22.155
C 0.6580000000000001 15.501000000000001 22.772000000000002
N -1.818 14.847000000000001 27.381
C -1.795 13.855000000000002 26.39
C -1.795 12.553 27.082
C -1.835 12.880000000000003 28.436000000000003
C -1.885 14.296 28.580000000000002
C -1.819 11.276 26.455000000000002
C -1.8720000000000003 12.362000000000002 29.794
O -1.7600000000000002 11.244 30.299
C -2.223 13.563 30.779
C -1.251 13.509000000000002 31.926000000000002
O -0.037000000000000005 13.736 31.747
O -1.9300000000000002 13.435000000000002 33.081
C -1.025 13.408 34.261
C -0.516 16.468 37.138
C -0.5310000000000001 17.387 38.262
C -0.454 17.127 39.59
C -0.378 15.838000000000001 40.321
C -0.7230000000000001 18.255 40.576
C 0.451 18.789 41.50200000000001
C 1.21 20.031 40.87
C 1.469 21.168 41.94200000000001
C 0.066 21.921 42.199
C 2.7560000000000002 22.039000000000005 41.67000000000001
C 3.2430000000000003 22.867 42.872
C 4.766 22.908000000000005 42.988
C 5.267 23.085 44.478
C 6.800000000000001 23.421 44.531
C 4.85 21.941000000000003 45.489
C 3.95 22.297000000000004 46.696
C 2.527 21.696000000000005 46.703
C 1.4260000000000002 22.715 47.155
C 0.033 22.091 47.443
C 1.232 23.982 46.288
H -3.8270000000000004 20.211000000000002 29.575
H -2.186 19.444 23.604
H -1.6920000000000002 13.244 24.473000000000003
H -3.5220000000000002 16.042 32.21
H -3.553 18.822000000000003 31.743000000000002
H -5.452 16.614 31.047000000000004
H -5.479000000000001 18.018 29.936000000000003
H -5.82 18.292 31.621000000000002
H -1.299 18.087 32.044
H -0.838 16.352000000000004 32.267
H -2.8120000000000003 17.017 34.203
H -1.906 18.468 33.99900000000001
H -3.312 22.177000000000003 29.016000000000002
H -3.6190000000000007 22.954000000000004 27.510000000000005
H -1.9610000000000003 23.011 28.162000000000003
H -2.603 23.735 25.673
H -1.303 23.961000000000002 24.374000000000002
H -0.9200000000000002 23.457000000000004 26.042000000000005
H -1.36 17.492 22.187
H -2.66 14.835000000000003 22.531
H -3.2350000000000003 17.731 20.949000000000005
H -4.172000000000001 17.705 22.482000000000003
H -3.935 16.271 21.625
H -0.6120000000000001 15.232000000000001 21.111
H -0.516 13.834 22.176000000000002
H 0.746 16.469 22.28
H 1.5190000000000001 14.870000000000001 22.549
H 0.527 15.688000000000002 23.838000000000005
H -1.101 10.658000000000001 26.994000000000003
H -1.564 11.349 25.398
H -2.859 10.992 26.615000000000002
H -3.251 13.410000000000002 31.106
H -1.27 12.513000000000002 34.833
H -1.135 14.372 34.758
H 0.032 13.237000000000002 34.054
H 0.552 16.428000000000004 36.922
H -0.907 15.476 37.361
H -1.044 18.319000000000003 38.02300000000001
H -0.543 14.989 39.658
H -1.182 15.731000000000002 41.05
H 0.581 15.668 40.812
H -1.499 17.903 41.256
H -1.227 19.095 40.09700000000001
H 1.292 18.096 41.508
H 0.091 19.058 42.49400000000001
H 0.62 20.446000000000005 40.053
H 2.115 19.576 40.468
H 1.778 20.639 42.84300000000001
H 0.034 22.9 41.721
H -0.263 21.889 43.23700000000001
H -0.6930000000000001 21.476000000000003 41.556
H 2.393 22.719 40.9
H 3.556 21.429000000000002 41.25
H 2.826 22.458 43.793
H 2.891 23.896 42.79800000000001
H 5.207000000000001 23.572000000000003 42.244
H 5.175 21.964000000000002 42.62700000000001
H 4.875 24.075000000000003 44.715
H 7.330000000000001 22.497000000000003 44.3
H 7.166000000000001 23.617000000000004 45.539
H 7.126000000000001 24.262 43.92
H 5.8260000000000005 21.689000000000004 45.90400000000001
H 4.491 21.05 44.973
H 3.897 23.383 46.781
H 4.392 21.943 47.62700000000001
H 2.5140000000000002 20.877 47.422
H 2.203 21.325 45.731
H 1.7820000000000003 22.975 48.15100000000001
H -0.337 22.156 48.46600000000001
H 0.258 21.029 47.348
H -0.654 22.475 46.688
H 1.826 23.915000000000003 45.376000000000005
H 1.8130000000000002 24.727 46.832
H 0.23400000000000004 24.277 45.96
Mg 1.3970000000000002 7.672 26.334
C 1.724 9.741 29.051000000000002
C 2.013 4.991 28.381000000000004
C 1.182 5.575 23.580000000000002
C 1.222 10.435 24.247
N 1.8810000000000002 7.369 28.504000000000005
C 1.8600000000000003 8.397000000000002 29.403000000000002
C 2.088 7.914 30.753000000000004
C 2.4 6.433 30.607000000000003
C 2.122 6.205 29.057
C 3.813 5.913 31.044
C 0.869 8.215 31.690000000000005
C 1.1840000000000002 8.506 33.198
C 2.4480000000000004 7.854000000000001 33.792
O 3.5250000000000004 8.347 34.18300000000001
O 2.178 6.495000000000001 34.023
N 1.4660000000000002 5.549 26.075
C 1.7190000000000003 4.629 27.078000000000003
C 1.7070000000000003 3.272 26.495
C 1.454 3.427 25.064
C 1.331 4.879 24.847
C 1.9610000000000003 1.9930000000000003 27.276000000000003
C 1.226 2.335 24.045000000000005
O 0.9420000000000001 2.6500000000000004 22.876000000000005
C 1.349 0.883 24.320000000000004
N 1.3040000000000003 7.948 24.201
C 1.17 6.942 23.332
C 0.899 7.477 21.916000000000004
C 0.6480000000000001 9.069 22.124000000000002
C 1.006 9.146 23.65
C 2.0630000000000006 7.120000000000001 20.941000000000003
C -0.806 9.555 21.874
C -1.005 10.456000000000001 20.646
N 1.524 9.708000000000002 26.541
C 1.451 10.734000000000002 25.596
C 1.565 12.05 26.263000000000005
C 1.6900000000000002 11.659000000000002 27.617000000000004
C 1.6690000000000003 10.243 27.729
C 1.493 13.371000000000002 25.672
C 1.738 12.190000000000001 28.995
O 1.6820000000000002 13.313000000000002 29.421
C 1.805 10.957 29.965000000000003
C 2.9740000000000006 11.12 30.844000000000005
O 4.122 10.981000000000002 30.392000000000003
O 2.681 11.286000000000001 32.163
C 3.771 11.252000000000002 33.133
C 3.048 5.855 35.05
C 1.9290000000000003 5.252 35.92
C 1.8690000000000002 5.066000000000001 37.262
C 2.844 5.658000000000001 38.257
C 0.649 4.441 37.846
C 0.829 3.1160000000000005 38.637
C 0.4580000000000001 1.834 37.761
C 0.426 0.43000000000000005 38.301
C -0.691 -0.398 37.669
C 1.726 -0.354 38.157
C 2.354 -0.963 39.38000000000001
C 3.109 -2.224 38.988
C 3.9870000000000005 -2.7550000000000003 40.173
C 3.1170000000000004 -3.186 41.378
C 5.137 -1.8510000000000002 40.639
C 6.399 -2.6710000000000003 41.039
C 7.463000000000001 -1.796 41.848
C 8.896 -2.176 41.372
C 9.882 -2.039 42.589
C 9.265 -1.108 40.271
H 2.211 4.159 29.060000000000002
H 1.154 4.901 22.721
H 1.034 11.27 23.569
H 2.966 8.427 31.147
H 1.6200000000000003 5.817 31.056000000000004
H 4.563 6.577000000000001 31.475000000000005
H 4.274 5.435 30.180000000000003
H 3.771 5.074 31.739
H 0.125 7.425000000000001 31.587
H 0.273 9.011 31.244
H 0.337 8.213 33.819
H 1.413 9.554 33.38900000000001
H 2.028 2.15 28.352000000000004
H 2.9130000000000003 1.543 26.993000000000002
H 1.087 1.3440000000000003 27.224000000000004
H 1.036 0.37200000000000005 23.410000000000004
H 0.748 0.547 25.166000000000004
H 2.3680000000000003 0.659 24.636
H -0.069 7.080000000000001 21.61
H 1.359 9.68 21.568
H 1.725 6.673 20.006
H 2.747 6.405000000000001 21.399000000000004
H 2.5920000000000005 8.064 20.808
H -1.226 10.107 22.714
H -1.4980000000000002 8.721 21.755
H -0.24900000000000003 10.22 19.897
H -0.863 11.489 20.962
H -2.045 10.342 20.343
H 1.2640000000000002 14.148 26.401000000000003
H 0.762 13.444000000000003 24.867000000000004
H 2.505 13.659 25.387000000000004
H 0.852 11.055 30.486000000000004
H 4.474 12.081 33.047
H 4.27 10.283 33.126
H 3.365 11.366 34.138000000000005
H 3.669 6.537000000000001 35.629
H 3.6450000000000005 5.042 34.637
H 1.141 4.853 35.281000000000006
H 2.241 6.388 38.797
H 3.6670000000000003 6.079 37.68
H 3.186 4.837 38.888
H -0.121 4.345 37.08
H 0.245 5.038 38.663
H 0.325 3.045 39.601
H 1.867 2.982 38.94
H 1.07 1.6620000000000001 36.876
H -0.538 2.056 37.377
H 0.21900000000000003 0.48100000000000004 39.37
H -1.049 0.006 36.722
H -1.532 -0.179 38.326
H -0.45000000000000007 -1.431 37.415000000000006
H 2.424 0.42000000000000004 37.837
H 1.644 -1.051 37.322
H 1.593 -1.066 40.153
H 3.027 -0.185 39.739
H 3.572 -2.108 38.00800000000001
H 2.339 -2.9940000000000007 38.93
H 4.472 -3.6260000000000003 39.732
H 2.35 -3.916 41.12100000000001
H 2.586 -2.314 41.76200000000001
H 3.6820000000000004 -3.709 42.149
H 4.662 -1.3060000000000003 41.455
H 5.377 -1.127 39.86
H 6.758000000000001 -2.9760000000000004 40.056000000000004
H 5.986000000000001 -3.5220000000000002 41.582
H 7.2540000000000004 -2.036 42.89000000000001
H 7.172000000000001 -0.748 41.771
H 9.044 -3.1110000000000007 40.833000000000006
H 9.386 -1.986 43.55800000000001
H 10.42 -1.092 42.540000000000006
H 10.532000000000002 -2.9130000000000003 42.553
H 9.459 -1.7730000000000001 39.43
H 10.177 -0.553 40.49300000000001
H 8.54 -0.302 40.162000000000006

