280
Bchla 7 -- Bchla 10
Mg 26.07 0.323 29.175000000000004
C 27.93 0.003 32.172
C 23.237000000000002 0.373 31.222
C 24.2 0.735 26.508000000000003
C 28.899000000000004 -0.559 27.356
N 25.688 0.233 31.426
C 26.587 0.253 32.449
C 25.993 0.251 33.868
C 24.435000000000002 0.24800000000000003 33.454
C 24.487000000000002 0.27 31.955
C 23.634 -1.0230000000000001 33.943
C 26.399000000000004 1.5090000000000001 34.703
C 27.306000000000004 1.4780000000000002 35.927
C 27.075 2.414 37.106
O 26.799 3.589 37.103
O 27.375000000000004 1.786 38.263
N 24.004000000000005 0.606 28.874
C 22.986 0.524 29.835
C 21.724 0.613 29.135000000000005
C 21.973 0.8800000000000001 27.791
C 23.443 0.8040000000000002 27.683
C 20.468000000000004 0.6480000000000001 29.937000000000005
C 21.028 1.0820000000000003 26.607000000000003
O 21.392000000000003 1.281 25.444
C 19.585 1.1840000000000002 26.910000000000004
N 26.429000000000002 0.025000000000000005 27.200000000000003
C 25.570000000000004 0.4620000000000001 26.230000000000004
C 26.301000000000002 0.604 24.852000000000004
C 27.706 0.101 25.157000000000004
C 27.680000000000003 -0.24400000000000002 26.672000000000004
C 25.559000000000005 -0.10800000000000001 23.674
C 28.733000000000004 1.1830000000000003 24.79
C 29.963 0.7730000000000001 24.065000000000005
N 28.005 -0.282 29.610000000000003
C 29.056 -0.58 28.78
C 30.245 -0.868 29.525000000000002
C 29.924 -0.56 30.937
C 28.520000000000003 -0.198 30.898000000000003
C 31.586 -1.3370000000000002 28.935
C 30.407000000000004 -0.487 32.339
O 31.558 -0.586 32.797
C 29.115000000000002 -0.111 33.175
C 29.058 -1.2840000000000003 34.103
O 28.531 -2.375 33.922
O 29.56 -0.978 35.268
C 29.754000000000005 -2.038 36.287000000000006
C 27.261000000000003 2.5340000000000003 39.514
C 26.102000000000004 2.141 40.365
C 26.09 1.3450000000000002 41.476
C 27.315000000000005 0.8740000000000001 42.17100000000001
C 24.847 1.235 42.23400000000001
C 24.605 2.21 43.36200000000001
C 23.913000000000004 1.429 44.52100000000001
C 23.963 2.248 45.945
C 24.117 1.463 47.221000000000004
C 22.85 3.29 45.917
C 22.815000000000005 4.266 47.141000000000005
C 22.011 5.568 46.931000000000004
C 22.651 6.867000000000001 47.491
C 21.565000000000005 7.621000000000001 48.307
C 23.252000000000002 7.825000000000001 46.290000000000006
C 22.147000000000002 8.566 45.514
C 22.397 10.102 45.528000000000006
C 21.929 10.612000000000002 44.095000000000006
C 22.999000000000002 10.603 42.980000000000004
C 21.237 12.047 44.187000000000005
H 22.467000000000002 0.529 31.980000000000004
H 23.696 0.8160000000000001 25.543
H 29.793000000000003 -0.7640000000000001 26.764000000000003
H 26.263000000000005 -0.696 34.337
H 23.827 1.112 33.724
H 24.218000000000004 -1.8840000000000001 34.267
H 22.997 -1.39 33.139
H 22.991 -0.7240000000000001 34.771
H 25.469000000000005 1.946 35.06700000000001
H 26.901000000000003 2.237 34.067
H 28.234 1.847 35.49
H 27.279 0.421 36.192
H 19.927 1.584 29.805
H 20.678 0.536 31.001000000000005
H 19.763 -0.138 29.668
H 19.433 1.9020000000000001 27.716
H 19.189 0.275 27.363
H 18.974000000000004 1.535 26.079000000000004
H 26.253 1.6810000000000003 24.692000000000004
H 27.966 -0.748 24.525000000000002
H 24.561 -0.4670000000000001 23.925
H 26.086 -0.978 23.284
H 25.565 0.535 22.794000000000004
H 29.004000000000005 1.5860000000000003 25.765
H 28.349000000000004 1.977 24.15
H 30.78 1.1430000000000002 24.684000000000005
H 29.933 1.134 23.037
H 30.142000000000003 -0.302 24.035000000000004
H 31.6 -2.426 28.91
H 32.389 -0.9310000000000002 29.55
H 31.717 -1.014 27.902000000000005
H 29.351000000000003 0.8040000000000002 33.718
H 28.833000000000002 -2.5330000000000004 36.593
H 30.271000000000004 -1.703 37.18600000000001
H 30.410000000000004 -2.865 36.017
H 27.069000000000003 3.6010000000000004 39.394
H 28.241 2.485 39.989
H 25.156 2.6500000000000004 40.183
H 27.396 1.361 43.143
H 28.214000000000002 1.069 41.586
H 27.271 -0.20000000000000004 42.35600000000001
H 24.834 0.21100000000000002 42.608
H 24.085 1.281 41.45600000000001
H 23.995 3.006 42.93600000000001
H 25.49 2.6880000000000006 43.783
H 24.331 0.449 44.751000000000005
H 22.854 1.341 44.279
H 24.879 2.837 45.912
H 24.858000000000004 1.827 47.934
H 24.256 0.3970000000000001 47.044
H 23.099000000000004 1.595 47.588
H 21.936 2.721 46.086
H 22.810000000000002 3.756 44.93200000000001
H 23.813 4.525 47.49300000000001
H 22.402 3.71 47.983000000000004
H 21.067 5.387 47.44500000000001
H 21.804000000000002 5.709 45.87
H 23.521 6.634000000000001 48.104000000000006
H 21.837 8.677 48.30400000000001
H 21.567000000000004 7.348 49.362
H 20.538000000000004 7.443 47.987
H 23.751 7.184 45.563
H 23.951 8.476 46.815
H 21.138000000000005 8.454 45.910000000000004
H 22.077000000000005 8.186 44.495
H 23.455 10.185000000000002 45.776
H 21.848 10.524000000000001 46.371
H 21.096 10.017 43.718
H 24.032 10.427 43.281
H 23.099000000000004 11.552 42.455
H 22.762 9.823 42.256
H 21.041000000000004 12.246000000000002 45.24
H 20.247 12.030000000000001 43.731
H 21.927 12.721 43.679
Mg 40.74100000000001 8.403 29.699000000000005
C 42.66 10.025000000000002 32.016
C 38.732 7.215 32.077
C 39.179 6.752000000000001 27.363
C 43.283 9.228000000000002 27.341
N 40.793 8.456 31.868
C 41.505 9.392 32.544
C 40.948 9.635 33.92
C 39.85300000000001 8.497 34.002
C 39.827 7.948 32.592
C 40.10000000000001 7.441 35.106
C 40.441 11.181 34.185
C 40.87 11.882 35.483
C 41.239 10.966000000000001 36.692
O 42.389 10.847 37.185
O 40.21 10.24 37.18
N 39.138000000000005 7.344 29.692000000000004
C 38.399 6.917 30.749
C 37.347 6.003 30.376000000000005
C 37.337 6.023000000000001 29.014000000000003
C 38.655 6.628 28.647
C 36.61 5.298 31.500000000000004
C 36.334 5.366 28.045000000000005
O 36.442 5.387 26.841000000000005
C 35.207 4.651 28.730000000000004
N 41.3 7.9190000000000005 27.672000000000004
C 40.367 7.314 26.915
C 40.80200000000001 7.264 25.447000000000003
C 41.951 8.327 25.387000000000004
C 42.232 8.498 26.894
C 41.216 5.861 24.829000000000004
C 41.580000000000005 9.724 24.761000000000003
C 40.484 10.599 25.310000000000002
N 42.572 9.481 29.570000000000004
C 43.553 9.669 28.591
C 44.679 10.463000000000001 29.099000000000004
C 44.364 10.637 30.455000000000002
C 43.08700000000001 10.022 30.648
C 45.856 11.013 28.335000000000004
C 44.788 11.17 31.668000000000003
O 45.805 11.75 32.015
C 43.616 11.012000000000002 32.671
C 44.297 10.490000000000002 33.878
O 44.637 9.318 34.057
O 44.61300000000001 11.499000000000002 34.741
C 45.545 11.240000000000002 35.843
C 40.322 9.61 38.459
C 39.478 10.410000000000002 39.513
C 40.066 11.285 40.35600000000001
C 41.54900000000001 11.746 40.477
C 39.148 11.913 41.409000000000006
C 38.818 10.836000000000002 42.484
C 37.376 10.284000000000002 42.164
C 36.427 10.664 43.31
C 36.623000000000005 9.693000000000001 44.519000000000005
C 34.979 10.71 42.929
C 34.436 12.105 43.364000000000004
C 33.108 11.999000000000002 44.133
C 33.076 12.806 45.469
C 33.07000000000001 14.319000000000003 45.179
C 34.230000000000004 12.507000000000001 46.45700000000001
C 33.805 12.254000000000001 47.882
C 34.574 11.105 48.582
C 35.685 11.55 49.534000000000006
C 36.86 12.239000000000003 48.849000000000004
C 36.138 10.376000000000001 50.43500000000001
H 37.99 7.007 32.851
H 38.681 6.27 26.520000000000003
H 43.95700000000001 9.442 26.508000000000003
H 41.68 9.37 34.683
H 38.87700000000001 8.959 34.149
H 40.485 6.532 34.644
H 39.146 7.206000000000001 35.578
H 40.83 7.874 35.79
H 39.353 11.122 34.153000000000006
H 40.807 11.842000000000002 33.4
H 40.043 12.466 35.886
H 41.65400000000001 12.608 35.268
H 37.229 4.662 32.133
H 35.89 4.51 31.28
H 36.128 6.144 31.99
H 34.675 5.325000000000001 29.401000000000003
H 35.723 3.8010000000000006 29.176000000000002
H 34.378 4.279 28.129000000000005
H 39.885000000000005 7.563 24.938000000000002
H 42.832 7.863000000000001 24.943000000000005
H 41.112 5.086 25.588
H 42.281000000000006 5.839 24.601000000000003
H 40.7 5.56 23.916
H 41.363 9.409 23.740000000000002
H 42.431 10.404 24.739000000000004
H 39.92 10.047 26.063000000000002
H 39.777 10.864 24.524000000000004
H 40.79900000000001 11.500000000000002 25.836000000000002
H 46.782 10.487 28.563000000000002
H 45.972 12.075 28.552
H 45.609 10.771 27.301000000000002
H 43.074000000000005 11.947 32.814
H 46.059 12.145000000000001 36.169
H 46.185 10.382 35.643
H 45.044 10.862 36.734
H 41.27000000000001 9.465 38.977
H 39.788 8.664000000000001 38.377
H 38.42100000000001 10.146 39.563
H 41.653000000000006 12.697000000000001 39.955
H 42.275 11.079 40.012
H 41.80700000000001 11.934000000000001 41.519000000000005
H 38.275 12.421 40.99900000000001
H 39.578 12.797 41.88000000000001
H 38.831 11.405000000000001 43.414
H 39.554 10.037 42.568
H 37.59700000000001 9.220000000000002 42.24
H 36.986 10.391000000000002 41.15200000000001
H 36.693 11.631 43.738
H 35.984 8.812 44.461000000000006
H 36.584 10.21 45.47800000000001
H 37.579 9.171 44.488
H 34.432 9.855 43.326
H 34.791 10.656 41.857
H 34.215 12.588 42.412
H 35.149 12.823000000000002 43.771
H 32.957 10.965 44.44400000000001
H 32.223 12.31 43.577000000000005
H 32.127 12.536000000000001 45.933
H 33.675 14.873000000000001 45.896
H 32.052 14.68 45.32900000000001
H 33.408 14.524 44.163
H 35.025 13.253000000000002 46.45700000000001
H 34.742 11.603000000000002 46.126
H 32.755 12.067 48.107000000000006
H 33.921 13.139000000000001 48.507
H 34.944 10.524000000000001 47.73700000000001
H 33.809 10.505000000000003 49.07600000000001
H 35.291 12.329 50.186
H 37.778 12.02 49.394
H 36.69800000000001 13.313000000000002 48.754
H 36.978 11.8 47.85900000000001
H 37.148 10.51 50.821000000000005
H 35.914 9.417 49.96600000000001
H 35.458 10.381 51.286

