280
Bchla 17 -- Bchla 18
Mg 29.464000000000002 59.145 41.038
C 26.578 57.38900000000001 40.289
C 31.349 56.531000000000006 39.782
C 32.15 61.189 41.086
C 27.354000000000003 61.82000000000001 41.949
N 28.992000000000004 57.292 39.871
C 27.772000000000002 56.748000000000005 39.893
C 27.779000000000003 55.38900000000001 39.127
C 29.329 54.99700000000001 39.218
C 29.967000000000002 56.344 39.732
C 29.581 53.727000000000004 40.066
C 27.374000000000002 55.594 37.685
C 26.460000000000004 54.527 37.103
C 26.578 54.02100000000001 35.616
O 26.517 52.865 35.253
O 26.748000000000005 55.106 34.848
N 31.533 58.788 40.650000000000006
C 32.11 57.714 40.08400000000001
C 33.515 57.958 40.033
C 33.806 59.24700000000001 40.574000000000005
C 32.479 59.816 40.84
C 34.477 56.891 39.661
C 35.162 59.858000000000004 40.593
O 36.13 59.214 40.224000000000004
C 35.397 61.264 41.132
N 29.713 61.282 41.565000000000005
C 30.944000000000003 61.846 41.414
C 30.859000000000005 63.33400000000001 41.52
C 29.292 63.522 41.793000000000006
C 28.699000000000005 62.136 41.849
C 31.799 63.962 42.566
C 28.518000000000004 64.48 40.783
C 27.642000000000003 65.63900000000001 41.314
N 27.437000000000005 59.547 41.14
C 26.744000000000003 60.627 41.589
C 25.412 60.28 41.819
C 25.254000000000005 58.98400000000001 41.348
C 26.489000000000004 58.611000000000004 40.88
C 24.327000000000005 61.25500000000001 42.363
C 24.372000000000003 57.928 41.168000000000006
O 23.159 57.918000000000006 41.346
C 25.149000000000004 56.755 40.397
C 25.258000000000003 55.582 41.187
O 25.993 55.31600000000001 42.141000000000005
O 24.334000000000003 54.682 40.665000000000006
C 24.175000000000004 53.35900000000001 41.24400000000001
C 27.286 54.743 33.541
C 27.201000000000004 55.98 32.679
C 27.487 56.09100000000001 31.367000000000004
C 27.642000000000003 54.99700000000001 30.343
C 27.831000000000003 57.414 30.802
C 29.234000000000005 57.897 31.172000000000004
C 29.900000000000002 58.63 29.951000000000004
C 31.150000000000002 57.87500000000001 29.42
C 30.909 57.732 27.875
C 32.502 58.702000000000005 29.749
C 33.738 57.79600000000001 29.593000000000004
C 34.432 57.44 30.908
C 34.689 55.910000000000004 31.158
C 33.435 55.077 31.692
C 35.909 55.83400000000001 32.119
C 36.959 54.842000000000006 31.612000000000002
C 37.604 55.366 30.299
C 37.293000000000006 54.33800000000001 29.090000000000003
C 38.425 53.265 28.914000000000005
C 37.182 55.138 27.798
H 31.952 55.655 39.535
H 32.919 61.96200000000001 41.153000000000006
H 26.805000000000003 62.682 42.334
H 27.083 54.71900000000001 39.631
H 29.817 54.888000000000005 38.25
H 28.669000000000004 53.37400000000001 40.547
H 30.340000000000003 53.938 40.82
H 30.006000000000004 52.972 39.405
H 28.168000000000003 55.748 36.954
H 26.927000000000003 56.588 37.67
H 25.440000000000005 54.851 37.309
H 26.664 53.691 37.772
H 34.813 56.525 40.631
H 35.297 57.28300000000001 39.059
H 34.022 56.083 39.088
H 35.106 61.939 40.327
H 36.479 61.373 41.202
H 34.844 61.421 42.058
H 31.143 63.61000000000001 40.505
H 29.109 64.048 42.73
H 32.596 64.443 41.998
H 32.191 63.234 43.277
H 31.269 64.751 43.099
H 27.851 63.867000000000004 40.17700000000001
H 29.188000000000002 65.018 40.11200000000001
H 26.690000000000005 65.116 41.404
H 27.544000000000004 66.417 40.55800000000001
H 27.779000000000003 66.009 42.33
H 24.062 61.952 41.569
H 24.634 61.907 43.181000000000004
H 23.429 60.71200000000001 42.659000000000006
H 24.616000000000003 56.618 39.456
H 23.133 53.074000000000005 41.102
H 24.529 53.25500000000001 42.27
H 24.724000000000004 52.659000000000006 40.614
H 26.795000000000005 53.95600000000001 32.968
H 28.339 54.461000000000006 33.557
H 27.135 56.889 33.277
H 26.695 54.931 29.806000000000004
H 27.834000000000003 54.05100000000001 30.849000000000004
H 28.427000000000003 55.144000000000005 29.601000000000003
H 27.097 58.161 31.103000000000005
H 27.693000000000005 57.369 29.722000000000005
H 29.805 57.063 31.582000000000004
H 29.259000000000004 58.57300000000001 32.027
H 30.19 59.606 30.340000000000003
H 29.212000000000003 58.907 29.152000000000005
H 31.139000000000003 56.854000000000006 29.800000000000004
H 29.965000000000003 57.196 27.771000000000004
H 31.776 57.213 27.468000000000004
H 30.822000000000003 58.727000000000004 27.439
H 32.362 59.035000000000004 30.777
H 32.544 59.535 29.047
H 34.437 58.43 29.049
H 33.49600000000001 56.867000000000004 29.077
H 33.738 57.685 31.712000000000003
H 35.243 58.15200000000001 31.06
H 34.932 55.43600000000001 30.208
H 33.758 54.374 32.46000000000001
H 32.928 54.621 30.842
H 32.758 55.736 32.235
H 35.486 55.470000000000006 33.056
H 36.541 56.702000000000005 32.306
H 36.673 53.790000000000006 31.572
H 37.827 54.90500000000001 32.268
H 38.688 55.432 30.396
H 37.33 56.375 29.993
H 36.322 53.851000000000006 29.182000000000002
H 39.065 53.293 29.796
H 39.059 53.357 28.033
H 37.980000000000004 52.28000000000001 28.779000000000003
H 36.111 55.29600000000001 27.675
H 37.555 54.538000000000004 26.968
H 37.607 56.13300000000001 27.929
Mg 35.496 50.254000000000005 25.270000000000003
C 35.177 48.233 28.133
C 33.951 52.80200000000001 27.062000000000005
C 35.524 52.00900000000001 22.451000000000004
C 36.25500000000001 47.316 23.351000000000003
N 34.65 50.479 27.32
C 34.759 49.532 28.348
C 34.558 50.223000000000006 29.684000000000005
C 33.901 51.589 29.336000000000002
C 34.189 51.633 27.805
C 32.412 51.77300000000001 29.767000000000003
C 35.851 50.335 30.564
C 35.577 50.303000000000004 32.132
C 34.122 50.22500000000001 32.602
O 33.488 49.211 32.821
O 33.522 51.448 32.761
N 34.963 52.12400000000001 24.874000000000002
C 34.418 53.04500000000001 25.752000000000002
C 34.292 54.33 25.127000000000002
C 34.619 54.108000000000004 23.751
C 35.084 52.735 23.667
C 33.723 55.59000000000001 25.848
C 34.526 55.05800000000001 22.602000000000004
O 34.699 54.67600000000001 21.42
C 34.142 56.56700000000001 22.603000000000005
N 35.57000000000001 49.711 23.153000000000002
C 35.668 50.65100000000001 22.194
C 36.166 50.02300000000001 20.868
C 36.379000000000005 48.52900000000001 21.137
C 36.086 48.524 22.702000000000005
C 35.302 50.411 19.707
C 37.754 47.93500000000001 20.763
C 38.97 48.585 21.468000000000004
N 35.635 48.14500000000001 25.593000000000004
C 36.093 47.168 24.776000000000003
C 36.325 45.994 25.616000000000003
C 36.017 46.322 26.966
C 35.543 47.655 26.904000000000003
C 36.938 44.675000000000004 25.153
C 35.967 45.839 28.309
O 36.341 44.806 28.858
C 35.323 47.11200000000001 29.167000000000005
C 34.105 46.631 29.933
O 33.007 46.491 29.431000000000004
O 34.39500000000001 46.48 31.270000000000003
C 33.502 45.678 32.1
C 32.179 51.407 33.44
C 31.728000000000005 52.757000000000005 33.816
C 31.476000000000003 53.20700000000001 35.06
C 31.585 52.419000000000004 36.34
C 31.232000000000003 54.65800000000001 35.253
C 32.494 55.578 35.358000000000004
C 32.199 56.97 34.852
C 32.095 57.93800000000001 36.032
C 33.53 58.581 36.387
C 31.056000000000004 59.133 35.87400000000001
C 29.751000000000005 59.058 36.829
C 29.767000000000003 60.111 37.94
C 29.644 61.531000000000006 37.366
C 30.948 62.357000000000006 37.629000000000005
C 28.401 62.13900000000001 37.941
C 27.155000000000005 61.73500000000001 37.126000000000005
C 25.977 62.101000000000006 38.07000000000001
C 25.105000000000004 63.313 37.609
C 24.682 64.143 38.785
C 23.953000000000003 62.854 36.704
H 33.579 53.562000000000005 27.752
H 35.604 52.66100000000001 21.579
H 36.619 46.49900000000001 22.725000000000005
H 33.857 49.64500000000001 30.286000000000005
H 34.499 52.36000000000001 29.821000000000005
H 31.927000000000003 52.02300000000001 28.824000000000005
H 32.302 52.650000000000006 30.406
H 31.871000000000002 50.93900000000001 30.214
H 36.348 51.294000000000004 30.421
H 36.547 49.55500000000001 30.258000000000003
H 35.894 51.265 32.535
H 36.149 49.471 32.542
H 33.111 56.132 25.126000000000005
H 34.505 56.27400000000001 26.176
H 33.128 55.503 26.757000000000005
H 34.79 57.12800000000001 23.277
H 33.09 56.730000000000004 22.837
H 34.455 57.11 21.712000000000003
H 37.076 50.566 20.616
H 35.498 48.04500000000001 20.714000000000002
H 35.746 51.194 19.092
H 34.312 50.699000000000005 20.061
H 35.072 49.59 19.027
H 37.831 48.14500000000001 19.696
H 37.755 46.857 20.927000000000003
H 39.444 47.775 22.022
H 38.574 49.35600000000001 22.129000000000005
H 39.645 49.119 20.799
H 37.675 44.286 25.855
H 37.529 44.806 24.247
H 36.124 43.98800000000001 24.920000000000005
H 36.093 47.354 29.900000000000002
H 32.487 45.915 31.780000000000005
H 33.564 45.882 33.169
H 33.815 44.645 31.948000000000004
H 32.265 50.727000000000004 34.287
H 31.423000000000002 51.004000000000005 32.766000000000005
H 31.65 53.498000000000005 33.021
H 30.704 52.510000000000005 36.975
H 32.324 52.846000000000004 37.01700000000001
H 31.698000000000004 51.339000000000006 36.24000000000001
H 30.791000000000004 54.83800000000001 36.233
H 30.508000000000003 55.014 34.52
H 33.249 55.124 34.715
H 32.94 55.631 36.351
H 31.333000000000002 56.919000000000004 34.192
H 32.992 57.23800000000001 34.153000000000006
H 31.795000000000005 57.422000000000004 36.944
H 33.614 59.644000000000005 36.163
H 34.30500000000001 58.039 35.845
H 33.851 58.384 37.41
H 30.661000000000005 59.072 34.859
H 31.512 60.117000000000004 35.98100000000001
H 29.423 58.069 37.15
H 28.914000000000005 59.32500000000001 36.184
H 30.794 59.96000000000001 38.273
H 28.948 59.747 38.56
H 29.581 61.56700000000001 36.278
H 31.798000000000002 61.8 38.02300000000001
H 30.697000000000003 63.114 38.371
H 31.266 62.821 36.696
H 28.527000000000005 63.219 37.874
H 28.265 61.888000000000005 38.993
H 27.274 60.72200000000001 36.74
H 27.103 62.354 36.23
H 26.344 62.379 39.058
H 25.434 61.177 38.26700000000001
H 25.737000000000002 63.849000000000004 36.901
H 25.303000000000004 65.034 38.686
H 24.842 63.722 39.778000000000006
H 23.602000000000004 64.275 38.717
H 23.032 62.759 37.28
H 24.164 61.967 36.107
H 23.724000000000004 63.565000000000005 35.911

