280
Bchla 8 -- Bchla 15
Mg 44.805 2.872 46.678
C 42.564 5.571000000000001 46.818
C 42.138 0.792 46.357
C 47.013 0.524 46.123000000000005
C 47.342000000000006 5.378 46.178
N 42.641 3.171 46.669
C 41.94200000000001 4.344 46.717000000000006
C 40.483000000000004 4.049 46.338
C 40.34 2.59 46.757
C 41.789 2.143 46.48400000000001
C 39.961 2.426 48.247
C 40.236000000000004 4.257 44.798
C 39.269 5.454 44.334
C 39.839 6.574 43.447
O 39.909 7.800000000000001 43.735
O 40.258 6.011000000000001 42.288
N 44.607 0.937 46.236
C 43.419 0.246 46.169000000000004
C 43.72 -1.1440000000000001 46.025
C 45.14200000000001 -1.3250000000000002 46.069
C 45.676 0.066 46.14
C 42.621 -2.253 45.89
C 45.872 -2.717 46.064
O 45.23700000000001 -3.7250000000000005 46.117
C 47.314 -2.741 46.277
N 46.83800000000001 2.9540000000000006 45.9
C 47.545 1.827 46.153000000000006
C 49.019000000000005 2.09 46.412000000000006
C 49.175000000000004 3.5620000000000003 46.062000000000005
C 47.67600000000001 4.022 46.033
C 49.446000000000005 1.7830000000000001 47.895
C 49.96600000000001 3.979 44.73400000000001
C 51.333 4.607 44.784
N 45.003 4.992 46.726
C 46.077000000000005 5.865 46.51
C 45.657 7.249 46.552
C 44.294000000000004 7.169 46.699
C 43.899 5.793 46.779
C 46.537 8.416 46.37700000000001
C 43.082 7.966000000000001 46.811
O 42.95000000000001 9.194 46.88400000000001
C 41.94500000000001 6.984 47.0
C 41.328 7.264 48.36600000000001
O 42.00600000000001 7.201 49.389
O 40.001 7.707000000000001 48.253
C 39.367000000000004 8.023 49.50500000000001
C 40.734 6.971 41.278
C 40.929 6.279 39.954
C 39.94500000000001 5.903 39.081
C 38.433 6.215000000000001 39.304
C 40.231 5.164 37.78
C 40.224000000000004 3.607 38.037
C 41.57900000000001 2.8330000000000006 38.22200000000001
C 42.05100000000001 2.0440000000000005 36.889
C 42.658 0.718 37.242
C 42.953 2.919 35.90400000000001
C 42.39 2.823 34.428
C 42.039 4.130000000000001 33.765
C 42.943 4.450000000000001 32.506
C 44.09100000000001 5.479000000000001 32.843
C 42.191 4.949 31.209000000000003
C 42.21 3.914 30.017
C 43.42300000000001 4.168000000000001 29.071
C 43.036 4.286 27.586
C 44.105 5.092 26.712000000000003
C 42.825 2.982 26.907
H 41.262 0.14300000000000002 46.414
H 47.712 -0.302 46.263
H 48.13300000000001 6.13 46.13700000000001
H 39.873 4.807 46.83
H 39.59400000000001 2.1260000000000003 46.113
H 39.125 1.738 48.126
H 39.668 3.426 48.568
H 40.731 2.033 48.91100000000001
H 39.762 3.35 44.423
H 41.21000000000001 4.308 44.312
H 38.982 5.962 45.255
H 38.337 5.132 43.871
H 42.716 -2.971 45.076
H 41.68 -1.717 45.762
H 42.518 -2.8550000000000004 46.793000000000006
H 47.887 -2.174 45.543000000000006
H 47.64600000000001 -3.779 46.25800000000001
H 47.544 -2.496 47.313
H 49.67 1.444 45.822
H 49.62700000000001 4.102 46.894
H 49.918000000000006 0.808 48.01500000000001
H 48.604 1.968 48.562000000000005
H 50.202 2.521 48.16700000000001
H 49.412000000000006 4.488000000000001 43.946
H 50.095 2.959 44.371
H 52.118 3.973 44.373
H 51.6 4.817 45.82
H 51.226 5.529000000000001 44.21300000000001
H 47.399 8.096 45.791
H 46.889 8.667 47.378
H 45.995 9.266000000000002 45.965
H 41.251 7.276 46.21300000000001
H 39.04600000000001 7.156000000000001 50.083
H 38.484 8.645 49.361
H 39.982 8.613 50.184
H 41.72 7.2170000000000005 41.674
H 40.076 7.834 41.171
H 41.954 6.089000000000001 39.635
H 38.257 6.543000000000001 40.32800000000001
H 37.775 5.354 39.189
H 38.187 6.844000000000001 38.448
H 41.162 5.507 37.33
H 39.514 5.279 36.967
H 39.71600000000001 3.107 37.212
H 39.546 3.3420000000000005 38.849000000000004
H 41.62500000000001 2.262 39.15
H 42.35300000000001 3.598 38.283
H 41.131 1.716 36.406
H 42.012 -0.12 36.979
H 42.765 0.593 38.32
H 43.605000000000004 0.6220000000000001 36.711
H 44.01 2.6540000000000004 35.941
H 42.985 3.9440000000000004 36.272000000000006
H 41.403 2.362 34.48
H 43.08500000000001 2.245 33.819
H 41.986 4.989 34.433
H 41.048 4.17 33.313
H 43.49600000000001 3.5850000000000004 32.14
H 44.209 6.321 32.162
H 45.058 4.977 32.853
H 44.01400000000001 5.897 33.84700000000001
H 42.608 5.793 30.661000000000005
H 41.161 5.217 31.442
H 41.256 3.9290000000000003 29.49
H 42.306 2.9720000000000004 30.557
H 44.006 3.266 29.259000000000004
H 44.045 5.047000000000001 29.244000000000003
H 42.148 4.914 27.507
H 43.632 6.071 26.646
H 44.187000000000005 4.595000000000001 25.746000000000002
H 45.08500000000001 5.0600000000000005 27.188
H 42.13900000000001 3.354 26.145
H 42.23500000000001 2.317 27.538
H 43.741 2.6530000000000005 26.415000000000003
Mg 46.367000000000004 34.873 28.258000000000003
C 44.786 32.872 30.578000000000003
C 46.386 37.42 30.776000000000003
C 47.556000000000004 36.983 26.07
C 45.979 32.443 25.827000000000005
N 45.442 35.144000000000005 30.411
C 45.073 34.117 31.158
C 45.125 34.48 32.669
C 45.086000000000006 36.045 32.568
C 45.675 36.281 31.168
C 43.631 36.618 32.709
C 46.46 33.912 33.2
C 46.692 34.009 34.714
C 45.77100000000001 34.851 35.574
O 44.572 34.659 35.633
O 46.492 35.823 36.246
N 47.011 36.848 28.339
C 46.96000000000001 37.702 29.494000000000003
C 47.698 38.905 29.134
C 48.14 38.733 27.785000000000004
C 47.542 37.488 27.305
C 47.979 40.111 30.106
C 49.099000000000004 39.67100000000001 26.980000000000004
O 49.27 39.437 25.815
C 49.747 40.84400000000001 27.641
N 46.806 34.696 26.230000000000004
C 47.30800000000001 35.721 25.505
C 47.464000000000006 35.391 24.021000000000004
C 47.086 33.89200000000001 23.987
C 46.581 33.654 25.468000000000004
C 46.605 36.265 23.035
C 48.116 32.929 23.454
C 49.591 32.99 23.919
N 45.556 33.03 28.125
C 45.469 32.14 27.093000000000004
C 44.91700000000001 30.915 27.632000000000005
C 44.641000000000005 31.103000000000005 29.030000000000005
C 45.051 32.44500000000001 29.259000000000004
C 44.677 29.678000000000004 26.824000000000005
C 44.09100000000001 30.544000000000004 30.219000000000005
O 43.568 29.438 30.477000000000004
C 43.938 31.834000000000003 31.195000000000004
C 44.253 31.346000000000004 32.61
O 45.22200000000001 30.773000000000003 32.934
O 43.189 31.657000000000004 33.408
C 43.384 31.629000000000005 34.843
C 45.657 36.653000000000006 37.121
C 46.545 37.745 37.603
C 46.164 38.705 38.51
C 44.685 38.619 39.09100000000001
C 47.039 39.772 39.079
C 47.50500000000001 40.762 37.992
C 48.967 41.30200000000001 38.124
C 48.92900000000001 42.793 38.464
C 50.265 43.401 38.073
C 48.721 42.85900000000001 40.040000000000006
C 47.438 43.69800000000001 40.32900000000001
C 47.658 44.956 41.19700000000001
C 47.46000000000001 46.36500000000001 40.413
C 48.581 47.347 40.726000000000006
C 46.024 46.939 40.579
C 45.215 47.182 39.30500000000001
C 43.888 46.358 39.451
C 42.613 47.09700000000001 39.093
C 41.839000000000006 47.603 40.29
C 41.836 46.18200000000001 38.172
H 46.328 38.211 31.526
H 47.902 37.661 25.287000000000003
H 45.811 31.643000000000004 25.104000000000003
H 44.235 34.149 33.204
H 45.76700000000001 36.365 33.357
H 43.51 37.056 33.699
H 42.93300000000001 35.797 32.544
H 43.416 37.434 32.019000000000005
H 47.26100000000001 34.504000000000005 32.758
H 46.66 32.911 32.819
H 47.744 34.112 34.981
H 46.574 32.984 35.066
H 47.709 41.071 29.665
H 49.035000000000004 40.036 30.365000000000002
H 47.454 39.948 31.048000000000002
H 50.663 40.948 27.059
H 50.08200000000001 40.624 28.654000000000003
H 49.168000000000006 41.736 27.880000000000003
H 48.522 35.545 23.81
H 46.169000000000004 33.697 23.431
H 46.31700000000001 35.593 22.227
H 47.327000000000005 37.01 22.7
H 45.806 36.774 23.574
H 48.215 33.307 22.437
H 47.864 31.868 23.454
H 50.358000000000004 33.201 23.175000000000004
H 49.941 32.015 24.258000000000003
H 49.69200000000001 33.757000000000005 24.687
H 44.204 28.972 27.506000000000004
H 45.629 29.238 26.524
H 44.153000000000006 29.831000000000003 25.881000000000004
H 42.912 32.172 31.048000000000002
H 42.529 30.965000000000003 34.971
H 43.388 32.616 35.306
H 44.281 31.1 35.166
H 45.334 36.116 38.012
H 44.914 37.248000000000005 36.59
H 47.605 37.802 37.352
H 43.986000000000004 39.319 38.63300000000001
H 44.83800000000001 38.855 40.144000000000005
H 44.386 37.571 39.092
H 47.973 39.36500000000001 39.465
H 46.675 40.26 39.983
H 46.821 41.602 37.872
H 47.46000000000001 40.255 37.028
H 49.354000000000006 41.12100000000001 37.121
H 49.64 40.765 38.791
H 48.11800000000001 43.351 37.996
H 50.307 44.314 38.666
H 50.27100000000001 43.665000000000006 37.015
H 51.01400000000001 42.708000000000006 38.456
H 49.535 43.335 40.58700000000001
H 48.406000000000006 41.867000000000004 40.363
H 46.831 42.99700000000001 40.901
H 46.867000000000004 44.005 39.453
H 48.635000000000005 44.926 41.68
H 46.88000000000001 44.90100000000001 41.95900000000001
H 47.655 46.207 39.353
H 49.33700000000001 47.473 39.952
H 49.137 47.137 41.64000000000001
H 48.169000000000004 48.352000000000004 40.81400000000001
H 46.043000000000006 47.93500000000001 41.023
H 45.472 46.344 41.307
H 45.783 46.826 38.446
H 44.980000000000004 48.221 39.077
H 43.699000000000005 46.022 40.47
H 44.012 45.568 38.71000000000001
H 42.913 47.916 38.44
H 42.129000000000005 48.642 40.449
H 41.986 47.027 41.204
H 40.81 47.456 39.964
H 41.19700000000001 46.86500000000001 37.613
H 41.288 45.471 38.791
H 42.38 45.705 37.357

