280
Bchla 21 -- Bchla 23
Mg 16.411 52.367 25.566
C 18.018 50.888 28.3
C 13.924000000000001 53.471000000000004 27.634000000000004
C 14.785000000000002 53.43800000000001 22.892000000000003
C 18.977 50.989000000000004 23.494
N 16.017000000000003 52.13900000000001 27.735000000000003
C 16.814 51.56600000000001 28.701000000000004
C 16.316 51.93200000000001 30.087000000000003
C 14.871 52.50500000000001 29.805
C 15.006000000000002 52.79900000000001 28.272
C 13.752000000000002 51.51700000000001 30.109
C 17.38 52.827 30.821000000000005
C 16.866 53.425000000000004 32.16
C 15.838000000000001 52.611 32.918000000000006
O 15.994000000000002 51.421 33.21
O 14.722 53.28600000000001 33.206
N 14.673 53.30500000000001 25.313
C 13.709 53.596000000000004 26.270000000000003
C 12.514000000000001 54.21500000000001 25.67
C 12.809 54.23100000000001 24.272
C 14.132 53.632 24.117
C 11.368 54.712 26.469000000000005
C 11.91 54.75300000000001 23.181000000000004
O 12.269000000000002 54.771 21.971000000000004
C 10.567 55.354 23.496000000000002
N 16.865 52.275 23.471000000000004
C 15.997000000000002 52.81 22.612000000000002
C 16.443000000000005 52.50800000000001 21.114
C 17.818 51.656000000000006 21.31
C 17.893 51.619 22.837
C 15.275 51.720000000000006 20.391
C 19.117 52.361000000000004 20.728000000000005
C 19.408 52.107 19.221
N 18.085 51.15100000000001 25.765
C 19.116 50.754000000000005 24.873000000000005
C 20.198 50.001 25.646000000000004
C 19.782000000000004 49.96200000000001 26.973000000000003
C 18.524 50.751 27.001000000000005
C 21.485 49.44800000000001 25.119000000000003
C 20.107 49.55500000000001 28.320000000000004
O 21.06 48.92400000000001 28.788
C 19.058 50.30100000000001 29.285
C 18.453 49.377 30.317000000000004
O 17.480000000000004 48.699000000000005 30.125
O 19.026 49.591 31.591000000000005
C 18.266 49.12100000000001 32.759
C 13.709 52.63100000000001 33.997
C 12.990000000000002 53.80200000000001 34.615
C 12.516 53.86600000000001 35.887
C 12.502000000000002 52.848000000000006 36.993
C 12.049000000000001 55.211000000000006 36.379000000000005
C 10.517000000000001 55.27100000000001 36.537
C 9.842 56.512 35.811
C 9.114 57.373000000000005 36.808
C 7.743000000000001 56.738 37.167
C 8.911 58.84 36.418
C 10.201 59.705000000000005 36.212
C 10.501000000000001 60.10000000000001 34.809
C 10.535 61.638000000000005 34.593
C 10.037 61.983 33.245
C 11.935 62.23400000000001 34.708
C 11.987000000000002 63.55800000000001 35.459
C 12.917000000000002 64.588 34.763000000000005
C 14.458000000000002 64.314 34.741
C 15.269000000000002 65.316 35.556
C 14.901 64.193 33.258
H 13.193000000000001 53.709 28.410000000000004
H 14.236000000000002 53.78 22.012
H 19.732 50.45400000000001 22.914
H 16.248 51.01 30.663
H 14.638 53.45400000000001 30.289
H 13.103 52.02100000000001 30.825
H 14.2 50.58 30.439000000000004
H 13.062000000000001 51.391 29.275000000000002
H 17.737 53.448 30.0
H 18.216 52.16100000000001 31.032000000000004
H 16.462 54.391 31.857000000000003
H 17.724000000000004 53.562000000000005 32.818
H 10.557 54.062 26.141000000000002
H 11.171 55.77400000000001 26.325000000000003
H 11.382000000000001 54.601000000000006 27.554
H 10.714000000000002 56.253 24.093
H 10.128000000000002 54.498 24.01
H 9.92 55.569 22.646
H 16.628 53.525 20.766
H 17.779 50.584 21.112
H 14.414 51.50600000000001 21.024
H 15.645 50.760000000000005 20.03
H 14.907000000000002 52.394 19.618
H 19.983 52.23400000000001 21.377000000000002
H 18.924 53.431 20.798000000000002
H 19.483 53.086 18.749
H 18.627 51.45900000000001 18.823
H 20.361000000000004 51.6 19.068
H 22.271 50.105000000000004 25.492000000000004
H 21.464 49.416000000000004 24.029000000000003
H 21.784 48.45300000000001 25.448000000000004
H 19.61 51.115 29.754000000000005
H 18.447 48.047000000000004 32.793
H 17.229 49.453 32.705
H 18.688 49.637 33.621
H 14.073000000000002 51.938 34.756
H 13.003 52.05200000000001 33.401
H 13.005000000000003 54.705000000000005 34.005
H 11.453 52.58800000000001 37.134
H 12.947 53.169000000000004 37.935
H 13.039000000000001 51.968 36.638000000000005
H 12.314 56.047000000000004 35.732
H 12.449000000000002 55.43600000000001 37.36800000000001
H 10.413 55.385 37.616
H 10.103 54.32500000000001 36.189
H 9.172 56.04500000000001 35.089
H 10.541 57.105 35.221000000000004
H 9.753 57.327000000000005 37.69
H 8.005 55.92 37.837
H 7.232000000000001 56.143 36.41
H 7.039 57.446 37.604
H 8.267 59.217000000000006 37.212
H 8.338 58.772000000000006 35.494
H 11.098 59.257 36.638000000000005
H 10.158000000000001 60.632000000000005 36.784
H 9.692 59.683 34.21
H 11.488 59.70400000000001 34.568
H 9.888 62.02400000000001 35.381
H 10.51 62.803000000000004 32.705
H 8.98 62.220000000000006 33.364
H 10.123 61.156000000000006 32.54
H 12.306 62.364 33.691
H 12.635000000000002 61.56300000000001 35.205
H 12.296 63.41100000000001 36.494
H 10.975 63.931000000000004 35.624
H 12.691 65.525 35.274
H 12.583000000000002 64.816 33.751
H 14.583000000000002 63.4 35.322
H 15.801 66.007 34.902
H 15.999 64.826 36.201
H 14.617000000000003 65.841 36.25500000000001
H 14.379 64.856 32.569
H 14.937000000000001 63.13700000000001 32.99
H 15.912000000000003 64.6 33.221
Mg -9.051 41.135000000000005 42.305
C -8.305 37.722 41.48700000000001
C -6.395 41.95900000000001 40.063
C -10.135000000000002 44.306 42.063
C -11.946000000000002 40.073 43.784
N -7.597 39.954 40.945
C -7.463000000000001 38.604 40.8
C -6.307 38.235 39.806
C -5.513 39.626000000000005 39.732
C -6.6000000000000005 40.578 40.205
C -4.304 39.713 40.635000000000005
C -6.799 37.608 38.512
C -6.032000000000001 36.37 37.979
C -4.965 36.511 36.796
O -3.9040000000000004 37.125 36.87
O -5.458 35.835 35.714
N -8.298000000000002 42.98100000000001 41.27000000000001
C -7.133000000000001 43.08 40.48100000000001
C -6.947000000000001 44.483 40.091
C -8.039000000000001 45.194 40.728
C -8.91 44.191 41.30200000000001
C -5.896 45.033 39.202
C -8.191000000000003 46.694 40.765
O -7.269000000000001 47.37100000000001 40.369
C -9.416 47.416 41.277
N -10.805 41.95700000000001 42.741
C -10.936000000000002 43.342 42.69200000000001
C -12.323000000000002 43.689 43.238
C -12.785000000000002 42.375 43.968
C -11.75 41.407 43.503
C -12.482 45.006 44.083
C -14.257 41.901 43.766
C -15.093 41.673 44.983
N -9.921 39.324 42.71
C -11.083 39.021 43.398
C -11.161000000000001 37.575 43.68200000000001
C -10.088 37.044 42.866
C -9.417 38.142 42.319
C -12.147000000000002 36.798 44.514
C -9.423 35.768 42.469
O -9.726 34.63 42.68900000000001
C -8.338 36.191 41.48400000000001
C -7.035 35.63000000000001 41.97
O -6.575000000000001 36.04 43.014
O -6.383000000000001 34.711 41.094
C -4.994 34.30500000000001 41.467
C -4.634 36.03 34.58
C -5.307 35.735 33.249
C -6.099000000000001 36.549 32.508
C -6.121 38.040000000000006 32.81
C -6.61 36.072 31.219
C -5.681000000000001 35.691 30.071000000000005
C -6.066000000000001 36.322 28.771000000000004
C -5.458 37.781000000000006 28.507
C -4.608 37.654 27.230000000000004
C -6.644000000000001 38.772000000000006 28.415
C -6.142000000000001 40.209 28.531
C -6.707000000000001 40.993 29.689
C -6.083 42.345 30.143000000000004
C -6.054 42.695 31.636000000000003
C -6.688000000000001 43.522 29.3
C -5.631 44.373 28.618000000000002
C -5.931000000000001 44.76 27.136
C -5.8340000000000005 46.278 26.931000000000004
C -6.247 46.796 25.524000000000004
C -4.347000000000001 46.79200000000001 27.217000000000002
H -5.558 42.253 39.426
H -10.616000000000001 45.285000000000004 42.096000000000004
H -12.779 39.789 44.43000000000001
H -5.573 37.574 40.266000000000005
H -5.285000000000001 39.900000000000006 38.702
H -4.645 39.948 41.643
H -3.6390000000000002 40.46300000000001 40.20700000000001
H -3.691 38.823 40.781
H -6.689 38.376000000000005 37.747
H -7.878 37.478 38.595
H -6.835 35.708 37.654
H -5.4830000000000005 35.835 38.754
H -5.125000000000001 45.43600000000001 39.858
H -6.291000000000001 45.90400000000001 38.679
H -5.425 44.400000000000006 38.449
H -9.416 48.49600000000001 41.131
H -9.437 47.225 42.35
H -10.403 47.092 40.949
H -12.862 43.925 42.32
H -12.529000000000002 42.468 45.02300000000001
H -11.517 45.332 44.47200000000001
H -13.223000000000003 44.867 44.870000000000005
H -12.904 45.79900000000001 43.46600000000001
H -14.251000000000001 40.982 43.18000000000001
H -14.729000000000001 42.611 43.08700000000001
H -15.224000000000002 40.601 45.129000000000005
H -16.08 42.111000000000004 44.835
H -14.721000000000002 42.061 45.931
H -11.731 35.838 44.819
H -13.036000000000001 36.669 43.89600000000001
H -12.463 37.438 45.338
H -8.66 35.877 40.491
H -5.042 33.547 42.24900000000001
H -4.445 35.144000000000005 41.894
H -4.449 33.944 40.595
H -3.796 35.334 34.602
H -4.211 37.029 34.469
H -5.309 34.769 32.745
H -7.080000000000001 38.040000000000006 33.32900000000001
H -6.199 38.534 31.841000000000005
H -5.254 38.383 33.37400000000001
H -7.3260000000000005 36.763 30.775000000000002
H -7.165 35.161 31.446000000000005
H -5.5920000000000005 34.621 29.888000000000005
H -4.708 36.024 30.432000000000002
H -7.152000000000001 36.366 28.697
H -5.700000000000001 35.614 28.028
H -4.703 38.018 29.256
H -3.7200000000000006 38.263 27.400000000000002
H -5.122 38.264 26.487
H -4.246 36.689 26.875
H -7.351000000000001 38.456 29.183000000000003
H -7.053000000000001 38.733 27.405000000000005
H -6.3580000000000005 40.726000000000006 27.596000000000004
H -5.054 40.186 28.602000000000004
H -6.858 40.358000000000004 30.562000000000005
H -7.71 41.278 29.371000000000002
H -5.019 42.195 29.957
H -6.792 43.444 31.922
H -5.133 43.22200000000001 31.883
H -6.097000000000001 41.77300000000001 32.217
H -7.379 44.04800000000001 29.959000000000003
H -7.364000000000001 43.11 28.551000000000002
H -4.675000000000001 43.869 28.761000000000003
H -5.484 45.271 29.217
H -6.948 44.532 26.817
H -5.204 44.27300000000001 26.486
H -6.481 46.793000000000006 27.641
H -6.957 47.617000000000004 25.625
H -6.864 46.098 24.959000000000003
H -5.390000000000001 46.996 24.881
H -3.695 45.92100000000001 27.165
H -4.344 47.17100000000001 28.239
H -4.026 47.56900000000001 26.523000000000003

