280
Bchla 3 -- Bchla 16
Mg 1.3970000000000002 7.672 26.334
C 1.724 9.741 29.051000000000002
C 2.013 4.991 28.381000000000004
C 1.182 5.575 23.580000000000002
C 1.222 10.435 24.247
N 1.8810000000000002 7.369 28.504000000000005
C 1.8600000000000003 8.397000000000002 29.403000000000002
C 2.088 7.914 30.753000000000004
C 2.4 6.433 30.607000000000003
C 2.122 6.205 29.057
C 3.813 5.913 31.044
C 0.869 8.215 31.690000000000005
C 1.1840000000000002 8.506 33.198
C 2.4480000000000004 7.854000000000001 33.792
O 3.5250000000000004 8.347 34.18300000000001
O 2.178 6.495000000000001 34.023
N 1.4660000000000002 5.549 26.075
C 1.7190000000000003 4.629 27.078000000000003
C 1.7070000000000003 3.272 26.495
C 1.454 3.427 25.064
C 1.331 4.879 24.847
C 1.9610000000000003 1.9930000000000003 27.276000000000003
C 1.226 2.335 24.045000000000005
O 0.9420000000000001 2.6500000000000004 22.876000000000005
C 1.349 0.883 24.320000000000004
N 1.3040000000000003 7.948 24.201
C 1.17 6.942 23.332
C 0.899 7.477 21.916000000000004
C 0.6480000000000001 9.069 22.124000000000002
C 1.006 9.146 23.65
C 2.0630000000000006 7.120000000000001 20.941000000000003
C -0.806 9.555 21.874
C -1.005 10.456000000000001 20.646
N 1.524 9.708000000000002 26.541
C 1.451 10.734000000000002 25.596
C 1.565 12.05 26.263000000000005
C 1.6900000000000002 11.659000000000002 27.617000000000004
C 1.6690000000000003 10.243 27.729
C 1.493 13.371000000000002 25.672
C 1.738 12.190000000000001 28.995
O 1.6820000000000002 13.313000000000002 29.421
C 1.805 10.957 29.965000000000003
C 2.9740000000000006 11.12 30.844000000000005
O 4.122 10.981000000000002 30.392000000000003
O 2.681 11.286000000000001 32.163
C 3.771 11.252000000000002 33.133
C 3.048 5.855 35.05
C 1.9290000000000003 5.252 35.92
C 1.8690000000000002 5.066000000000001 37.262
C 2.844 5.658000000000001 38.257
C 0.649 4.441 37.846
C 0.829 3.1160000000000005 38.637
C 0.4580000000000001 1.834 37.761
C 0.426 0.43000000000000005 38.301
C -0.691 -0.398 37.669
C 1.726 -0.354 38.157
C 2.354 -0.963 39.38000000000001
C 3.109 -2.224 38.988
C 3.9870000000000005 -2.7550000000000003 40.173
C 3.1170000000000004 -3.186 41.378
C 5.137 -1.8510000000000002 40.639
C 6.399 -2.6710000000000003 41.039
C 7.463000000000001 -1.796 41.848
C 8.896 -2.176 41.372
C 9.882 -2.039 42.589
C 9.265 -1.108 40.271
H 2.211 4.159 29.060000000000002
H 1.154 4.901 22.721
H 1.034 11.27 23.569
H 2.966 8.427 31.147
H 1.6200000000000003 5.817 31.056000000000004
H 4.563 6.577000000000001 31.475000000000005
H 4.274 5.435 30.180000000000003
H 3.771 5.074 31.739
H 0.125 7.425000000000001 31.587
H 0.273 9.011 31.244
H 0.337 8.213 33.819
H 1.413 9.554 33.38900000000001
H 2.028 2.15 28.352000000000004
H 2.9130000000000003 1.543 26.993000000000002
H 1.087 1.3440000000000003 27.224000000000004
H 1.036 0.37200000000000005 23.410000000000004
H 0.748 0.547 25.166000000000004
H 2.3680000000000003 0.659 24.636
H -0.069 7.080000000000001 21.61
H 1.359 9.68 21.568
H 1.725 6.673 20.006
H 2.747 6.405000000000001 21.399000000000004
H 2.5920000000000005 8.064 20.808
H -1.226 10.107 22.714
H -1.4980000000000002 8.721 21.755
H -0.24900000000000003 10.22 19.897
H -0.863 11.489 20.962
H -2.045 10.342 20.343
H 1.2640000000000002 14.148 26.401000000000003
H 0.762 13.444000000000003 24.867000000000004
H 2.505 13.659 25.387000000000004
H 0.852 11.055 30.486000000000004
H 4.474 12.081 33.047
H 4.27 10.283 33.126
H 3.365 11.366 34.138000000000005
H 3.669 6.537000000000001 35.629
H 3.6450000000000005 5.042 34.637
H 1.141 4.853 35.281000000000006
H 2.241 6.388 38.797
H 3.6670000000000003 6.079 37.68
H 3.186 4.837 38.888
H -0.121 4.345 37.08
H 0.245 5.038 38.663
H 0.325 3.045 39.601
H 1.867 2.982 38.94
H 1.07 1.6620000000000001 36.876
H -0.538 2.056 37.377
H 0.21900000000000003 0.48100000000000004 39.37
H -1.049 0.006 36.722
H -1.532 -0.179 38.326
H -0.45000000000000007 -1.431 37.415000000000006
H 2.424 0.42000000000000004 37.837
H 1.644 -1.051 37.322
H 1.593 -1.066 40.153
H 3.027 -0.185 39.739
H 3.572 -2.108 38.00800000000001
H 2.339 -2.9940000000000007 38.93
H 4.472 -3.6260000000000003 39.732
H 2.35 -3.916 41.12100000000001
H 2.586 -2.314 41.76200000000001
H 3.6820000000000004 -3.709 42.149
H 4.662 -1.3060000000000003 41.455
H 5.377 -1.127 39.86
H 6.758000000000001 -2.9760000000000004 40.056000000000004
H 5.986000000000001 -3.5220000000000002 41.582
H 7.2540000000000004 -2.036 42.89000000000001
H 7.172000000000001 -0.748 41.771
H 9.044 -3.1110000000000007 40.833000000000006
H 9.386 -1.986 43.55800000000001
H 10.42 -1.092 42.540000000000006
H 10.532000000000002 -2.9130000000000003 42.553
H 9.459 -1.7730000000000001 39.43
H 10.177 -0.553 40.49300000000001
H 8.54 -0.302 40.162000000000006
Mg 41.128 41.857 26.986000000000004
C 40.12700000000001 44.179 29.640000000000004
C 41.31 39.41 29.487000000000002
C 42.362 39.821 24.759
C 40.706 44.363 24.683
N 40.967 41.85000000000001 29.292
C 40.42100000000001 42.87500000000001 30.173000000000002
C 40.337 42.444 31.653000000000002
C 40.946 40.93 31.521000000000004
C 41.116 40.672 30.011000000000003
C 42.224 40.714 32.30800000000001
C 38.879000000000005 42.588 32.185
C 38.608 41.92700000000001 33.503
C 37.806 42.656 34.558
O 36.63600000000001 42.977 34.464
O 38.578 42.832 35.656
N 41.790000000000006 39.861 27.081
C 41.782 39.01 28.192000000000004
C 42.266000000000005 37.687 27.802000000000003
C 42.58400000000001 37.776 26.385000000000005
C 42.256 39.192 25.977
C 42.314 36.43 28.746000000000002
C 43.165000000000006 36.784 25.443
O 43.357 36.978 24.250000000000004
C 43.446 35.412 25.898000000000003
N 41.39 42.02100000000001 25.045
C 42.033 41.096 24.33
C 42.18900000000001 41.492 22.843
C 41.281 42.702 22.769
C 41.150000000000006 43.123 24.284
C 43.629 41.801 22.450000000000003
C 39.923 42.668 22.117
C 38.933 41.74 22.788
N 40.641 43.879000000000005 27.096
C 40.411 44.754 26.019000000000002
C 40.010000000000005 46.038 26.539
C 39.836 45.769000000000005 27.921
C 40.241 44.456 28.228000000000005
C 39.646 47.283 25.784000000000002
C 39.341 46.432 29.167000000000005
O 38.79 47.540000000000006 29.341000000000005
C 39.558 45.418000000000006 30.288000000000004
C 40.418000000000006 46.035 31.393000000000004
O 41.619 46.436 31.367000000000004
O 39.694 45.959 32.546
C 40.382 46.431 33.769
C 37.972 43.741 36.706
C 37.574 42.791 37.816
C 37.692 43.059000000000005 39.146
C 38.107 44.419 39.656000000000006
C 37.27 41.983 40.20400000000001
C 38.272 40.807 40.183
C 37.583 39.425 40.324
C 38.098 38.728 41.57900000000001
C 37.744 37.244 41.398
C 37.615 39.345 42.96
C 38.697 40.124 43.707
C 39.469 39.301 44.73500000000001
C 38.609 38.788 45.914
C 39.059 39.431 47.20100000000001
C 38.555 37.19 45.934
C 37.278000000000006 36.605 46.585
C 36.291 36.027 45.586
C 34.878 36.459 45.868
C 34.301 37.107 44.649
C 34.079 35.17400000000001 46.352000000000004
H 41.17 38.614 30.220000000000002
H 42.832 39.178 24.012
H 40.576 45.214 24.011
H 40.932 43.17900000000001 32.195
H 40.172 40.215 31.8
H 42.06 39.902 33.017
H 42.405 41.638000000000005 32.85600000000001
H 43.161 40.691 31.752000000000002
H 38.23700000000001 42.28000000000001 31.359
H 38.658 43.649 32.302
H 39.473 41.65400000000001 34.107
H 37.991 41.044 33.339
H 41.633 35.714 28.285
H 41.971 36.635 29.760000000000005
H 43.348000000000006 36.085 28.737
H 43.925 35.361 26.876
H 44.12500000000001 35.027 25.138
H 42.456 34.986 26.058000000000003
H 41.847 40.643 22.251000000000005
H 41.737 43.523 22.215000000000003
H 43.814 41.38100000000001 21.462
H 44.334 41.357 23.152000000000005
H 43.75500000000001 42.873000000000005 22.294
H 40.06700000000001 42.457 21.057000000000002
H 39.412000000000006 43.624 22.230000000000004
H 38.398 41.123000000000005 22.067
H 38.142 42.27600000000001 23.313000000000002
H 39.38000000000001 41.041 23.495000000000005
H 38.67 47.638 26.114
H 39.6 47.281000000000006 24.695
H 40.393 48.035 26.039
H 38.593 45.21900000000001 30.755
H 40.75500000000001 45.577 34.334
H 39.563 47.0 34.209
H 41.153000000000006 47.172 33.554
H 37.073 44.294000000000004 36.435
H 38.636 44.543 37.026
H 37.258 41.783 37.548
H 37.852 45.182 38.92
H 39.181 44.437 39.841
H 37.575 44.6 40.59
H 36.238 41.705 39.993
H 37.241 42.487 41.171
H 38.955 40.972 41.016000000000005
H 38.875 40.753 39.276
H 37.849 38.959 39.376
H 36.49900000000001 39.533 40.369
H 39.186 38.801 41.592
H 36.655 37.23 41.443000000000005
H 38.13000000000001 36.814 42.322
H 38.217 36.814 40.516
H 37.123 38.539 43.505
H 36.764 39.999 42.76800000000001
H 38.214 40.962 44.21
H 39.396 40.535 42.980000000000004
H 40.363 39.85300000000001 45.027
H 39.878 38.503 44.115
H 37.558 38.994 45.71000000000001
H 39.366 38.678 47.927
H 38.265 40.061 47.602000000000004
H 39.869 40.121 46.963
H 39.413 36.793 46.475
H 38.617 36.954 44.87100000000001
H 36.802 37.453 47.078
H 37.413 35.823 47.332
H 36.381 34.948 45.718
H 36.52 36.229 44.54
H 34.71600000000001 37.315 46.523
H 34.801 38.012 44.303
H 33.254000000000005 37.348 44.831
H 34.363 36.432 43.796
H 33.919 34.388 45.614
H 33.095 35.481 46.706
H 34.47200000000001 34.646 47.221000000000004

