280
Bchla 7 -- Bchla 20
Mg 26.07 0.323 29.175000000000004
C 27.93 0.003 32.172
C 23.237000000000002 0.373 31.222
C 24.2 0.735 26.508000000000003
C 28.899000000000004 -0.559 27.356
N 25.688 0.233 31.426
C 26.587 0.253 32.449
C 25.993 0.251 33.868
C 24.435000000000002 0.24800000000000003 33.454
C 24.487000000000002 0.27 31.955
C 23.634 -1.0230000000000001 33.943
C 26.399000000000004 1.5090000000000001 34.703
C 27.306000000000004 1.4780000000000002 35.927
C 27.075 2.414 37.106
O 26.799 3.589 37.103
O 27.375000000000004 1.786 38.263
N 24.004000000000005 0.606 28.874
C 22.986 0.524 29.835
C 21.724 0.613 29.135000000000005
C 21.973 0.8800000000000001 27.791
C 23.443 0.8040000000000002 27.683
C 20.468000000000004 0.6480000000000001 29.937000000000005
C 21.028 1.0820000000000003 26.607000000000003
O 21.392000000000003 1.281 25.444
C 19.585 1.1840000000000002 26.910000000000004
N 26.429000000000002 0.025000000000000005 27.200000000000003
C 25.570000000000004 0.4620000000000001 26.230000000000004
C 26.301000000000002 0.604 24.852000000000004
C 27.706 0.101 25.157000000000004
C 27.680000000000003 -0.24400000000000002 26.672000000000004
C 25.559000000000005 -0.10800000000000001 23.674
C 28.733000000000004 1.1830000000000003 24.79
C 29.963 0.7730000000000001 24.065000000000005
N 28.005 -0.282 29.610000000000003
C 29.056 -0.58 28.78
C 30.245 -0.868 29.525000000000002
C 29.924 -0.56 30.937
C 28.520000000000003 -0.198 30.898000000000003
C 31.586 -1.3370000000000002 28.935
C 30.407000000000004 -0.487 32.339
O 31.558 -0.586 32.797
C 29.115000000000002 -0.111 33.175
C 29.058 -1.2840000000000003 34.103
O 28.531 -2.375 33.922
O 29.56 -0.978 35.268
C 29.754000000000005 -2.038 36.287000000000006
C 27.261000000000003 2.5340000000000003 39.514
C 26.102000000000004 2.141 40.365
C 26.09 1.3450000000000002 41.476
C 27.315000000000005 0.8740000000000001 42.17100000000001
C 24.847 1.235 42.23400000000001
C 24.605 2.21 43.36200000000001
C 23.913000000000004 1.429 44.52100000000001
C 23.963 2.248 45.945
C 24.117 1.463 47.221000000000004
C 22.85 3.29 45.917
C 22.815000000000005 4.266 47.141000000000005
C 22.011 5.568 46.931000000000004
C 22.651 6.867000000000001 47.491
C 21.565000000000005 7.621000000000001 48.307
C 23.252000000000002 7.825000000000001 46.290000000000006
C 22.147000000000002 8.566 45.514
C 22.397 10.102 45.528000000000006
C 21.929 10.612000000000002 44.095000000000006
C 22.999000000000002 10.603 42.980000000000004
C 21.237 12.047 44.187000000000005
H 22.467000000000002 0.529 31.980000000000004
H 23.696 0.8160000000000001 25.543
H 29.793000000000003 -0.7640000000000001 26.764000000000003
H 26.263000000000005 -0.696 34.337
H 23.827 1.112 33.724
H 24.218000000000004 -1.8840000000000001 34.267
H 22.997 -1.39 33.139
H 22.991 -0.7240000000000001 34.771
H 25.469000000000005 1.946 35.06700000000001
H 26.901000000000003 2.237 34.067
H 28.234 1.847 35.49
H 27.279 0.421 36.192
H 19.927 1.584 29.805
H 20.678 0.536 31.001000000000005
H 19.763 -0.138 29.668
H 19.433 1.9020000000000001 27.716
H 19.189 0.275 27.363
H 18.974000000000004 1.535 26.079000000000004
H 26.253 1.6810000000000003 24.692000000000004
H 27.966 -0.748 24.525000000000002
H 24.561 -0.4670000000000001 23.925
H 26.086 -0.978 23.284
H 25.565 0.535 22.794000000000004
H 29.004000000000005 1.5860000000000003 25.765
H 28.349000000000004 1.977 24.15
H 30.78 1.1430000000000002 24.684000000000005
H 29.933 1.134 23.037
H 30.142000000000003 -0.302 24.035000000000004
H 31.6 -2.426 28.91
H 32.389 -0.9310000000000002 29.55
H 31.717 -1.014 27.902000000000005
H 29.351000000000003 0.8040000000000002 33.718
H 28.833000000000002 -2.5330000000000004 36.593
H 30.271000000000004 -1.703 37.18600000000001
H 30.410000000000004 -2.865 36.017
H 27.069000000000003 3.6010000000000004 39.394
H 28.241 2.485 39.989
H 25.156 2.6500000000000004 40.183
H 27.396 1.361 43.143
H 28.214000000000002 1.069 41.586
H 27.271 -0.20000000000000004 42.35600000000001
H 24.834 0.21100000000000002 42.608
H 24.085 1.281 41.45600000000001
H 23.995 3.006 42.93600000000001
H 25.49 2.6880000000000006 43.783
H 24.331 0.449 44.751000000000005
H 22.854 1.341 44.279
H 24.879 2.837 45.912
H 24.858000000000004 1.827 47.934
H 24.256 0.3970000000000001 47.044
H 23.099000000000004 1.595 47.588
H 21.936 2.721 46.086
H 22.810000000000002 3.756 44.93200000000001
H 23.813 4.525 47.49300000000001
H 22.402 3.71 47.983000000000004
H 21.067 5.387 47.44500000000001
H 21.804000000000002 5.709 45.87
H 23.521 6.634000000000001 48.104000000000006
H 21.837 8.677 48.30400000000001
H 21.567000000000004 7.348 49.362
H 20.538000000000004 7.443 47.987
H 23.751 7.184 45.563
H 23.951 8.476 46.815
H 21.138000000000005 8.454 45.910000000000004
H 22.077000000000005 8.186 44.495
H 23.455 10.185000000000002 45.776
H 21.848 10.524000000000001 46.371
H 21.096 10.017 43.718
H 24.032 10.427 43.281
H 23.099000000000004 11.552 42.455
H 22.762 9.823 42.256
H 21.041000000000004 12.246000000000002 45.24
H 20.247 12.030000000000001 43.731
H 21.927 12.721 43.679
Mg 7.142 57.546 41.51700000000001
C 6.289 54.207 41.287000000000006
C 10.288000000000002 56.721000000000004 40.38900000000001
C 7.812000000000001 60.897000000000006 41.169000000000004
C 3.941 58.30400000000001 42.532
N 8.100000000000001 55.732 40.72500000000001
C 7.55 54.468 40.808
C 8.519000000000002 53.39300000000001 40.323
C 9.885 54.17400000000001 40.37
C 9.397 55.613 40.452000000000005
C 10.941 53.738 41.48400000000001
C 8.181 52.71900000000001 38.955
C 8.311 51.211 38.915
C 9.481 50.75900000000001 38.05500000000001
O 10.648 50.52900000000001 38.453
O 9.037000000000003 50.31100000000001 36.89500000000001
N 8.804 58.605000000000004 40.858
C 9.982 58.102000000000004 40.472
C 10.932000000000002 59.166 40.197
C 10.335 60.402 40.381
C 8.908000000000001 60.029 40.772000000000006
C 12.414000000000001 58.88100000000001 39.658
C 11.019000000000002 61.80700000000001 40.278
O 12.226 61.867000000000004 39.909
C 10.280000000000001 63.06100000000001 40.55
N 5.929000000000001 59.423 41.581
C 6.46 60.624 41.577
C 5.532 61.679 42.14200000000001
C 4.204 60.944 42.529
C 4.7 59.439 42.284
C 6.082000000000001 62.754000000000005 43.13300000000001
C 2.881 61.248000000000005 41.768
C 1.6480000000000001 60.788000000000004 42.518
N 5.413 56.462 41.842
C 4.167 56.89800000000001 42.349
C 3.349 55.736 42.566
C 4.139 54.62 42.197
C 5.339 55.156 41.738
C 2.016 55.69 43.298
C 4.117 53.24300000000001 42.147
O 3.288 52.392 42.322
C 5.501 52.882 41.394000000000005
C 5.071 52.591 39.957
O 4.832 53.425000000000004 39.105
O 4.992 51.21300000000001 39.836
C 4.488000000000001 50.71300000000001 38.561
C 9.964 49.732 35.89
C 10.131 50.617000000000004 34.63
C 9.174 51.34700000000001 33.923
C 7.654000000000001 51.418 34.234
C 9.613 52.108 32.66
C 9.96 53.577000000000005 32.958
C 9.377 54.492000000000004 31.891
C 10.284000000000002 55.765 31.814
C 9.312000000000001 56.923 31.358
C 11.555 55.538 30.907
C 12.754000000000001 56.423 31.28
C 12.845000000000002 57.662000000000006 30.334000000000003
C 14.166 57.639 29.473000000000003
C 15.281000000000002 58.509 30.013000000000005
C 13.754 57.99900000000001 28.019
C 14.952000000000002 57.589000000000006 27.052
C 15.103 58.76100000000001 26.064000000000004
C 14.717000000000002 58.352000000000004 24.640000000000004
C 15.264 59.39900000000001 23.66
C 13.184000000000001 58.126 24.486000000000004
H 11.347000000000001 56.508 40.23
H 8.097 61.94400000000001 41.049
H 2.947 58.37800000000001 42.97800000000001
H 8.573 52.63000000000001 41.099
H 10.293 54.145 39.359
H 11.533 54.647000000000006 41.59
H 11.675000000000002 53.007 41.144
H 10.538 53.39 42.435
H 8.898 53.175 38.272
H 7.264 53.038 38.46
H 7.371 50.81600000000001 38.529
H 8.48 50.78 39.902
H 12.650000000000002 57.83100000000001 39.48
H 13.156 59.27900000000001 40.351
H 12.590000000000002 59.28000000000001 38.66
H 9.908 63.049 41.574
H 9.553 63.277 39.767
H 11.064 63.813 40.63000000000001
H 5.091 62.357000000000006 41.41100000000001
H 4.061 60.88100000000001 43.608000000000004
H 7.169 62.67900000000001 43.08
H 5.659 62.687 44.13600000000001
H 5.859 63.782 42.847
H 2.992 60.797 40.782
H 2.91 62.32500000000001 41.603
H 0.837 61.471000000000004 42.26400000000001
H 1.737 60.784000000000006 43.605000000000004
H 1.3270000000000002 59.827000000000005 42.116
H 1.6710000000000003 54.681 43.524
H 1.289 56.22800000000001 42.69100000000001
H 2.068 56.222 44.248000000000005
H 6.049000000000001 52.101000000000006 41.922
H 3.446 51.01 38.441
H 4.616 49.635 38.469
H 5.023 51.19800000000001 37.745
H 9.634 48.788 35.458
H 10.940000000000001 49.481 36.305
H 11.134000000000002 50.77000000000001 34.232
H 7.480000000000001 51.132 35.272
H 7.169 50.80200000000001 33.477
H 7.471000000000001 52.488 34.139
H 8.935 52.00900000000001 31.812000000000005
H 10.540000000000001 51.76500000000001 32.2
H 11.041 53.71000000000001 32.99
H 9.59 53.889 33.935
H 8.346 54.762 32.119
H 9.212 54.00600000000001 30.93
H 10.556 56.13 32.804
H 8.546 56.538000000000004 30.684000000000005
H 9.834 57.702 30.803000000000004
H 8.713 57.412 32.126000000000005
H 11.22 55.62200000000001 29.873000000000005
H 12.013 54.56400000000001 31.078000000000003
H 13.650000000000002 55.815 31.411
H 12.52 56.645 32.321
H 12.881 58.557 30.955
H 11.980000000000002 57.743 29.676000000000002
H 14.560000000000002 56.62800000000001 29.366000000000003
H 15.293000000000001 59.404 29.391
H 16.216 57.96500000000001 29.884000000000004
H 15.24 58.794000000000004 31.064000000000004
H 13.414000000000001 59.03300000000001 27.96
H 12.976 57.345000000000006 27.626000000000005
H 14.672 56.706 26.478
H 15.906000000000002 57.339 27.516
H 16.151 59.042 26.166
H 14.456 59.578 26.381
H 15.266000000000002 57.43600000000001 24.418000000000003
H 15.525000000000002 60.33200000000001 24.161
H 14.595000000000002 59.803 22.9
H 16.032000000000004 58.88100000000001 23.086
H 12.990000000000002 57.05400000000001 24.458000000000002
H 12.774000000000001 58.54500000000001 23.567
H 12.658000000000001 58.616 25.305

