280
Bchla 14 -- Bchla 23
Mg 46.693 44.583000000000006 44.387
C 43.25500000000001 44.724 43.60300000000001
C 46.826 41.397000000000006 42.973
C 50.08 44.926 44.229
C 46.416 48.036 45.29800000000001
N 45.217 43.253 43.458
C 43.915 43.522 43.224000000000004
C 43.244 42.376 42.399
C 44.333 41.221 42.58
C 45.596 41.99100000000001 43.08500000000001
C 44.097 40.057 43.569
C 43.052 42.863 40.913
C 41.752 42.343 40.239000000000004
C 41.896 41.904 38.72500000000001
O 42.035 40.757000000000005 38.333
O 41.726 42.97800000000001 37.892
N 48.30200000000001 43.231 43.873
C 48.096 41.97500000000001 43.367
C 49.37200000000001 41.386 43.215
C 50.37100000000001 42.366 43.492
C 49.618 43.584 43.943000000000005
C 49.623 39.97500000000001 42.73800000000001
C 51.834 42.251000000000005 43.23
O 52.315000000000005 41.279 42.67
C 52.807 43.268 43.533
N 48.039 46.33200000000001 44.626000000000005
C 49.424 46.113 44.664
C 50.137 47.336 45.15
C 48.993 48.37700000000001 45.439
C 47.744 47.576 45.114000000000004
C 50.982 46.967 46.376
C 49.23100000000001 49.78300000000001 44.77
C 49.254 50.97200000000001 45.682
N 45.147000000000006 46.13 44.494
C 45.211 47.43000000000001 44.93200000000001
C 43.854 48.013000000000005 45.018
C 43.095 46.966 44.431000000000004
C 43.894000000000005 45.857 44.225
C 43.427 49.418000000000006 45.413
C 41.786 46.667 43.914
O 40.774 47.382 43.84700000000001
C 41.78 45.236000000000004 43.37700000000001
C 40.729 44.42700000000001 44.022
O 39.867 43.906 43.412
O 40.962 44.18 45.34400000000001
C 40.02400000000001 43.159 45.85900000000001
C 41.77700000000001 42.73 36.408
C 43.154 43.14800000000001 35.869
C 44.189 42.476 35.324
C 44.396 40.979 35.259
C 45.43500000000001 43.175 34.81
C 45.594 43.174 33.187
C 45.257 44.50500000000001 32.513
C 45.455 44.397000000000006 30.956000000000003
C 45.84400000000001 45.82 30.468000000000004
C 44.26100000000001 43.879000000000005 30.205000000000002
C 44.58 42.848 29.11
C 43.908 43.294 27.771000000000004
C 45.002 43.772000000000006 26.724
C 44.535 45.099000000000004 26.116
C 45.384 42.712 25.647000000000002
C 46.94400000000001 42.991 25.235000000000003
C 47.05100000000001 43.07000000000001 23.695
C 47.458 41.714 23.016000000000002
C 48.963 41.54800000000001 23.15
C 46.873 41.676 21.522000000000002
H 46.89 40.369 42.609
H 51.17100000000001 44.934000000000005 44.244
H 46.143 49.074 45.502
H 42.284 42.145 42.861000000000004
H 44.788 40.86200000000001 41.657000000000004
H 43.419 40.367 44.36500000000001
H 44.986 39.616 44.02
H 43.583 39.286 42.99600000000001
H 43.92400000000001 42.613 40.308
H 43.016 43.95 40.986000000000004
H 41.07 43.189 40.32600000000001
H 41.42600000000001 41.56 40.92400000000001
H 50.584 39.537 43.00800000000001
H 49.534000000000006 40.056000000000004 41.65500000000001
H 48.816 39.25800000000001 42.88900000000001
H 52.778 43.418 44.61300000000001
H 52.61 44.182 42.972
H 53.790000000000006 42.90400000000001 43.234
H 50.70700000000001 47.794 44.342
H 48.71000000000001 48.541 46.479
H 51.115 45.89200000000001 46.5
H 50.522 47.312000000000005 47.302
H 52.019000000000005 47.252 46.201
H 48.42600000000001 49.876000000000005 44.041
H 50.214 49.895 44.314
H 48.516000000000005 51.679 45.304
H 50.215 51.486000000000004 45.655
H 49.14300000000001 50.70900000000001 46.734
H 43.51500000000001 50.13100000000001 44.593
H 43.932 49.786 46.307
H 42.35600000000001 49.27300000000001 45.554
H 41.466 45.23800000000001 42.334
H 40.254000000000005 43.001 46.913
H 40.121 42.229 45.29900000000001
H 38.985 43.48400000000001 45.901
H 41.105000000000004 43.531000000000006 36.101
H 41.387 41.797 36.0
H 43.17 44.238 35.847
H 44.30500000000001 40.669 34.218
H 43.7 40.37400000000001 35.84
H 45.378 40.564 35.485
H 46.348 42.701 35.171
H 45.392 44.221 35.111
H 44.977000000000004 42.35 32.83
H 46.588 42.81400000000001 32.922
H 45.977 45.156 33.010000000000005
H 44.267 44.908 32.724
H 46.337 43.80400000000001 30.713000000000005
H 46.47 46.34 31.193000000000005
H 44.912 46.378 30.375
H 46.39200000000001 45.655 29.540000000000003
H 43.646 44.722 29.890000000000004
H 43.551 43.429 30.898000000000003
H 44.15 41.886 29.389000000000003
H 45.64800000000001 42.68 28.968000000000004
H 43.201 44.089 28.007000000000005
H 43.37400000000001 42.455 27.324
H 45.823 43.95 27.419000000000004
H 45.026 45.315000000000005 25.167
H 44.88700000000001 45.78600000000001 26.885000000000005
H 43.452 45.123 25.998
H 44.629000000000005 42.577 24.873000000000005
H 45.515 41.74300000000001 26.129
H 47.565 42.178 25.612
H 47.33800000000001 43.917 25.653000000000002
H 47.678000000000004 43.882000000000005 23.327000000000005
H 46.04 43.245 23.326
H 46.94 40.928 23.567
H 49.30700000000001 42.35300000000001 23.800000000000004
H 49.43300000000001 41.543 22.167
H 49.187000000000005 40.623 23.68
H 46.471000000000004 42.638 21.206
H 46.239 40.822 21.284
H 47.748 41.617 20.875
Mg -9.051 41.135000000000005 42.305
C -8.305 37.722 41.48700000000001
C -6.395 41.95900000000001 40.063
C -10.135000000000002 44.306 42.063
C -11.946000000000002 40.073 43.784
N -7.597 39.954 40.945
C -7.463000000000001 38.604 40.8
C -6.307 38.235 39.806
C -5.513 39.626000000000005 39.732
C -6.6000000000000005 40.578 40.205
C -4.304 39.713 40.635000000000005
C -6.799 37.608 38.512
C -6.032000000000001 36.37 37.979
C -4.965 36.511 36.796
O -3.9040000000000004 37.125 36.87
O -5.458 35.835 35.714
N -8.298000000000002 42.98100000000001 41.27000000000001
C -7.133000000000001 43.08 40.48100000000001
C -6.947000000000001 44.483 40.091
C -8.039000000000001 45.194 40.728
C -8.91 44.191 41.30200000000001
C -5.896 45.033 39.202
C -8.191000000000003 46.694 40.765
O -7.269000000000001 47.37100000000001 40.369
C -9.416 47.416 41.277
N -10.805 41.95700000000001 42.741
C -10.936000000000002 43.342 42.69200000000001
C -12.323000000000002 43.689 43.238
C -12.785000000000002 42.375 43.968
C -11.75 41.407 43.503
C -12.482 45.006 44.083
C -14.257 41.901 43.766
C -15.093 41.673 44.983
N -9.921 39.324 42.71
C -11.083 39.021 43.398
C -11.161000000000001 37.575 43.68200000000001
C -10.088 37.044 42.866
C -9.417 38.142 42.319
C -12.147000000000002 36.798 44.514
C -9.423 35.768 42.469
O -9.726 34.63 42.68900000000001
C -8.338 36.191 41.48400000000001
C -7.035 35.63000000000001 41.97
O -6.575000000000001 36.04 43.014
O -6.383000000000001 34.711 41.094
C -4.994 34.30500000000001 41.467
C -4.634 36.03 34.58
C -5.307 35.735 33.249
C -6.099000000000001 36.549 32.508
C -6.121 38.040000000000006 32.81
C -6.61 36.072 31.219
C -5.681000000000001 35.691 30.071000000000005
C -6.066000000000001 36.322 28.771000000000004
C -5.458 37.781000000000006 28.507
C -4.608 37.654 27.230000000000004
C -6.644000000000001 38.772000000000006 28.415
C -6.142000000000001 40.209 28.531
C -6.707000000000001 40.993 29.689
C -6.083 42.345 30.143000000000004
C -6.054 42.695 31.636000000000003
C -6.688000000000001 43.522 29.3
C -5.631 44.373 28.618000000000002
C -5.931000000000001 44.76 27.136
C -5.8340000000000005 46.278 26.931000000000004
C -6.247 46.796 25.524000000000004
C -4.347000000000001 46.79200000000001 27.217000000000002
H -5.558 42.253 39.426
H -10.616000000000001 45.285000000000004 42.096000000000004
H -12.779 39.789 44.43000000000001
H -5.573 37.574 40.266000000000005
H -5.285000000000001 39.900000000000006 38.702
H -4.645 39.948 41.643
H -3.6390000000000002 40.46300000000001 40.20700000000001
H -3.691 38.823 40.781
H -6.689 38.376000000000005 37.747
H -7.878 37.478 38.595
H -6.835 35.708 37.654
H -5.4830000000000005 35.835 38.754
H -5.125000000000001 45.43600000000001 39.858
H -6.291000000000001 45.90400000000001 38.679
H -5.425 44.400000000000006 38.449
H -9.416 48.49600000000001 41.131
H -9.437 47.225 42.35
H -10.403 47.092 40.949
H -12.862 43.925 42.32
H -12.529000000000002 42.468 45.02300000000001
H -11.517 45.332 44.47200000000001
H -13.223000000000003 44.867 44.870000000000005
H -12.904 45.79900000000001 43.46600000000001
H -14.251000000000001 40.982 43.18000000000001
H -14.729000000000001 42.611 43.08700000000001
H -15.224000000000002 40.601 45.129000000000005
H -16.08 42.111000000000004 44.835
H -14.721000000000002 42.061 45.931
H -11.731 35.838 44.819
H -13.036000000000001 36.669 43.89600000000001
H -12.463 37.438 45.338
H -8.66 35.877 40.491
H -5.042 33.547 42.24900000000001
H -4.445 35.144000000000005 41.894
H -4.449 33.944 40.595
H -3.796 35.334 34.602
H -4.211 37.029 34.469
H -5.309 34.769 32.745
H -7.080000000000001 38.040000000000006 33.32900000000001
H -6.199 38.534 31.841000000000005
H -5.254 38.383 33.37400000000001
H -7.3260000000000005 36.763 30.775000000000002
H -7.165 35.161 31.446000000000005
H -5.5920000000000005 34.621 29.888000000000005
H -4.708 36.024 30.432000000000002
H -7.152000000000001 36.366 28.697
H -5.700000000000001 35.614 28.028
H -4.703 38.018 29.256
H -3.7200000000000006 38.263 27.400000000000002
H -5.122 38.264 26.487
H -4.246 36.689 26.875
H -7.351000000000001 38.456 29.183000000000003
H -7.053000000000001 38.733 27.405000000000005
H -6.3580000000000005 40.726000000000006 27.596000000000004
H -5.054 40.186 28.602000000000004
H -6.858 40.358000000000004 30.562000000000005
H -7.71 41.278 29.371000000000002
H -5.019 42.195 29.957
H -6.792 43.444 31.922
H -5.133 43.22200000000001 31.883
H -6.097000000000001 41.77300000000001 32.217
H -7.379 44.04800000000001 29.959000000000003
H -7.364000000000001 43.11 28.551000000000002
H -4.675000000000001 43.869 28.761000000000003
H -5.484 45.271 29.217
H -6.948 44.532 26.817
H -5.204 44.27300000000001 26.486
H -6.481 46.793000000000006 27.641
H -6.957 47.617000000000004 25.625
H -6.864 46.098 24.959000000000003
H -5.390000000000001 46.996 24.881
H -3.695 45.92100000000001 27.165
H -4.344 47.17100000000001 28.239
H -4.026 47.56900000000001 26.523000000000003

