280
Bchla 14 -- Bchla 22
Mg 46.693 44.583000000000006 44.387
C 43.25500000000001 44.724 43.60300000000001
C 46.826 41.397000000000006 42.973
C 50.08 44.926 44.229
C 46.416 48.036 45.29800000000001
N 45.217 43.253 43.458
C 43.915 43.522 43.224000000000004
C 43.244 42.376 42.399
C 44.333 41.221 42.58
C 45.596 41.99100000000001 43.08500000000001
C 44.097 40.057 43.569
C 43.052 42.863 40.913
C 41.752 42.343 40.239000000000004
C 41.896 41.904 38.72500000000001
O 42.035 40.757000000000005 38.333
O 41.726 42.97800000000001 37.892
N 48.30200000000001 43.231 43.873
C 48.096 41.97500000000001 43.367
C 49.37200000000001 41.386 43.215
C 50.37100000000001 42.366 43.492
C 49.618 43.584 43.943000000000005
C 49.623 39.97500000000001 42.73800000000001
C 51.834 42.251000000000005 43.23
O 52.315000000000005 41.279 42.67
C 52.807 43.268 43.533
N 48.039 46.33200000000001 44.626000000000005
C 49.424 46.113 44.664
C 50.137 47.336 45.15
C 48.993 48.37700000000001 45.439
C 47.744 47.576 45.114000000000004
C 50.982 46.967 46.376
C 49.23100000000001 49.78300000000001 44.77
C 49.254 50.97200000000001 45.682
N 45.147000000000006 46.13 44.494
C 45.211 47.43000000000001 44.93200000000001
C 43.854 48.013000000000005 45.018
C 43.095 46.966 44.431000000000004
C 43.894000000000005 45.857 44.225
C 43.427 49.418000000000006 45.413
C 41.786 46.667 43.914
O 40.774 47.382 43.84700000000001
C 41.78 45.236000000000004 43.37700000000001
C 40.729 44.42700000000001 44.022
O 39.867 43.906 43.412
O 40.962 44.18 45.34400000000001
C 40.02400000000001 43.159 45.85900000000001
C 41.77700000000001 42.73 36.408
C 43.154 43.14800000000001 35.869
C 44.189 42.476 35.324
C 44.396 40.979 35.259
C 45.43500000000001 43.175 34.81
C 45.594 43.174 33.187
C 45.257 44.50500000000001 32.513
C 45.455 44.397000000000006 30.956000000000003
C 45.84400000000001 45.82 30.468000000000004
C 44.26100000000001 43.879000000000005 30.205000000000002
C 44.58 42.848 29.11
C 43.908 43.294 27.771000000000004
C 45.002 43.772000000000006 26.724
C 44.535 45.099000000000004 26.116
C 45.384 42.712 25.647000000000002
C 46.94400000000001 42.991 25.235000000000003
C 47.05100000000001 43.07000000000001 23.695
C 47.458 41.714 23.016000000000002
C 48.963 41.54800000000001 23.15
C 46.873 41.676 21.522000000000002
H 46.89 40.369 42.609
H 51.17100000000001 44.934000000000005 44.244
H 46.143 49.074 45.502
H 42.284 42.145 42.861000000000004
H 44.788 40.86200000000001 41.657000000000004
H 43.419 40.367 44.36500000000001
H 44.986 39.616 44.02
H 43.583 39.286 42.99600000000001
H 43.92400000000001 42.613 40.308
H 43.016 43.95 40.986000000000004
H 41.07 43.189 40.32600000000001
H 41.42600000000001 41.56 40.92400000000001
H 50.584 39.537 43.00800000000001
H 49.534000000000006 40.056000000000004 41.65500000000001
H 48.816 39.25800000000001 42.88900000000001
H 52.778 43.418 44.61300000000001
H 52.61 44.182 42.972
H 53.790000000000006 42.90400000000001 43.234
H 50.70700000000001 47.794 44.342
H 48.71000000000001 48.541 46.479
H 51.115 45.89200000000001 46.5
H 50.522 47.312000000000005 47.302
H 52.019000000000005 47.252 46.201
H 48.42600000000001 49.876000000000005 44.041
H 50.214 49.895 44.314
H 48.516000000000005 51.679 45.304
H 50.215 51.486000000000004 45.655
H 49.14300000000001 50.70900000000001 46.734
H 43.51500000000001 50.13100000000001 44.593
H 43.932 49.786 46.307
H 42.35600000000001 49.27300000000001 45.554
H 41.466 45.23800000000001 42.334
H 40.254000000000005 43.001 46.913
H 40.121 42.229 45.29900000000001
H 38.985 43.48400000000001 45.901
H 41.105000000000004 43.531000000000006 36.101
H 41.387 41.797 36.0
H 43.17 44.238 35.847
H 44.30500000000001 40.669 34.218
H 43.7 40.37400000000001 35.84
H 45.378 40.564 35.485
H 46.348 42.701 35.171
H 45.392 44.221 35.111
H 44.977000000000004 42.35 32.83
H 46.588 42.81400000000001 32.922
H 45.977 45.156 33.010000000000005
H 44.267 44.908 32.724
H 46.337 43.80400000000001 30.713000000000005
H 46.47 46.34 31.193000000000005
H 44.912 46.378 30.375
H 46.39200000000001 45.655 29.540000000000003
H 43.646 44.722 29.890000000000004
H 43.551 43.429 30.898000000000003
H 44.15 41.886 29.389000000000003
H 45.64800000000001 42.68 28.968000000000004
H 43.201 44.089 28.007000000000005
H 43.37400000000001 42.455 27.324
H 45.823 43.95 27.419000000000004
H 45.026 45.315000000000005 25.167
H 44.88700000000001 45.78600000000001 26.885000000000005
H 43.452 45.123 25.998
H 44.629000000000005 42.577 24.873000000000005
H 45.515 41.74300000000001 26.129
H 47.565 42.178 25.612
H 47.33800000000001 43.917 25.653000000000002
H 47.678000000000004 43.882000000000005 23.327000000000005
H 46.04 43.245 23.326
H 46.94 40.928 23.567
H 49.30700000000001 42.35300000000001 23.800000000000004
H 49.43300000000001 41.543 22.167
H 49.187000000000005 40.623 23.68
H 46.471000000000004 42.638 21.206
H 46.239 40.822 21.284
H 47.748 41.617 20.875
Mg 9.201 48.63300000000001 24.807000000000002
C 7.006000000000001 48.653000000000006 27.545
C 11.642 49.941 26.665
C 11.050000000000002 48.611000000000004 22.151
C 6.242000000000001 48.219 22.767
N 9.225 49.31100000000001 26.852
C 8.336000000000002 49.092 27.829
C 8.789 49.672 29.144000000000002
C 10.106 50.447 28.737
C 10.361 49.870000000000005 27.358000000000004
C 10.084 52.010000000000005 28.747000000000003
C 9.147 48.495 30.188000000000002
C 8.515 48.705 31.603
C 8.635 47.367 32.515
O 9.543 46.552 32.437
O 7.6160000000000005 47.272 33.46
N 11.098 48.95 24.524000000000004
C 12.008000000000001 49.464000000000006 25.432000000000002
C 13.329000000000002 49.316 24.886
C 13.242000000000003 48.876 23.502000000000002
C 11.752 48.67100000000001 23.337
C 14.548000000000002 49.789 25.729000000000003
C 14.235 48.59100000000001 22.381
O 13.968 48.124 21.259
C 15.645 48.82300000000001 22.795
N 8.623 48.59400000000001 22.783
C 9.671 48.607000000000006 21.896
C 9.166 48.63700000000001 20.453000000000003
C 7.690000000000001 48.19700000000001 20.638
C 7.46 48.399 22.137
C 9.462 50.048 19.806
C 7.338 46.721 20.171
C 5.872000000000001 46.443000000000005 19.802
N 7.050000000000001 48.42700000000001 25.054
C 6.046 48.27100000000001 24.147
C 4.779 48.040000000000006 24.804
C 5.157 48.117000000000004 26.157000000000004
C 6.523 48.415 26.264000000000003
C 3.3590000000000004 47.773 24.254
C 4.636 47.99600000000001 27.490000000000002
O 3.59 47.604 27.937000000000005
C 5.825 48.51800000000001 28.452
C 5.773000000000001 47.514 29.518000000000004
O 6.284000000000001 46.36600000000001 29.55
O 5.03 48.07600000000001 30.487000000000002
C 4.757 47.293000000000006 31.693
C 7.633000000000001 45.983000000000004 34.224
C 8.521 46.019 35.427
C 8.133 46.32000000000001 36.675
C 6.837 47.05 37.108
C 9.004 45.882 37.843
C 9.698 47.088 38.629
C 11.264000000000001 46.891 38.825
C 11.669 46.286 40.178000000000004
C 11.503 47.286 41.307
C 13.074000000000002 45.659 40.24900000000001
C 12.989 44.406 41.174
C 14.237000000000002 44.304 42.176
C 13.775000000000002 43.623000000000005 43.462
C 14.631 42.324 43.746
C 13.768000000000002 44.60900000000001 44.635
C 12.381000000000002 45.016 45.107
C 12.234 46.452 45.684
C 12.147000000000002 46.532 47.24600000000001
C 11.638 47.847 47.7
C 13.596000000000002 46.264 47.898
H 12.472000000000001 50.28300000000001 27.287
H 11.679000000000002 48.528000000000006 21.262000000000004
H 5.399000000000001 48.001000000000005 22.108000000000004
H 8.059 50.306 29.648000000000003
H 11.005 50.19100000000001 29.298000000000002
H 10.135000000000002 52.348 27.712000000000003
H 10.989000000000003 52.301 29.280000000000005
H 9.223 52.518 29.18
H 10.208000000000002 48.275000000000006 30.312
H 8.827 47.566 29.716000000000005
H 7.46 48.964 31.516000000000002
H 9.004 49.456 32.223
H 14.89 48.94400000000001 26.325000000000003
H 14.281000000000002 50.458 26.548
H 15.303000000000003 50.38600000000001 25.218000000000004
H 15.985 48.19800000000001 23.62
H 15.64 49.89000000000001 23.021
H 16.365 48.703 21.985
H 9.759 47.888000000000005 19.928
H 7.047 48.839000000000006 20.036
H 8.538 50.617000000000004 19.704
H 9.907 50.08500000000001 18.812
H 10.061 50.742000000000004 20.396
H 7.494000000000001 46.141 21.081
H 7.929 46.293 19.361
H 5.399000000000001 45.746 20.495
H 5.638 46.051 18.812
H 5.349 47.381 19.983
H 3.3430000000000004 48.211000000000006 23.256
H 2.599 48.226000000000006 24.892000000000003
H 3.2580000000000005 46.69 24.184
H 5.551 49.482 28.881
H 5.304000000000001 47.73800000000001 32.524
H 4.921 46.227000000000004 31.539
H 3.71 47.436 31.96
H 7.996 45.195 33.564
H 6.685 45.57300000000001 34.574
H 9.382 45.357 35.34100000000001
H 7.126000000000001 47.882 37.75
H 6.209 46.321000000000005 37.619
H 6.390000000000001 47.442 36.194
H 9.664 45.128 37.415000000000006
H 8.399 45.251000000000005 38.493
H 9.238 47.263000000000005 39.602
H 9.496 48.02900000000001 38.117000000000004
H 11.653 47.906000000000006 38.739
H 11.604 46.21200000000001 38.043
H 10.913000000000002 45.52300000000001 40.361000000000004
H 10.535 47.24 41.806
H 11.724 48.291000000000004 40.948
H 12.245 47.11200000000001 42.086
H 13.718000000000002 46.30500000000001 40.84400000000001
H 13.609 45.48100000000001 39.316
H 12.978000000000002 43.57 40.475
H 12.103000000000002 44.41 41.81
H 14.773 45.239000000000004 42.336
H 15.023 43.671 41.766
H 12.754000000000001 43.28 43.297
H 15.551000000000002 42.239 43.167
H 14.033 41.419 43.643
H 14.857 42.274 44.81100000000001
H 14.488000000000001 45.416 44.498
H 14.128 44.162 45.562
H 12.153 44.382000000000005 45.964
H 11.612 44.67100000000001 44.416000000000004
H 11.297 46.882000000000005 45.32900000000001
H 13.005000000000003 47.01700000000001 45.16100000000001
H 11.488 45.724000000000004 47.564
H 10.79 47.702 48.369
H 11.144 48.45300000000001 46.941
H 12.428 48.33 48.276
H 13.923000000000002 45.224000000000004 47.922000000000004
H 13.673000000000002 46.658 48.91100000000001
H 14.271000000000003 46.732000000000006 47.182

