280
Bchla 1 -- Bchla 22
Mg -1.968 16.991 27.078000000000003
C -2.1850000000000005 14.773 29.879
C -3.2230000000000003 19.433 29.104
C -2.213 18.841 24.514
C -1.8220000000000003 14.167000000000002 25.041000000000004
N -2.585 16.982 29.204000000000004
C -2.562 16.083 30.183
C -2.904 16.682 31.58
C -3.7410000000000005 17.955 31.110000000000003
C -3.123 18.159 29.738000000000003
C -5.231 17.676 30.941000000000003
C -1.623 17.101 32.377
C -1.844 17.388000000000005 33.865
C -0.8000000000000002 17.024 34.811
O 0.398 16.855000000000004 34.599
O -1.38 16.867 36.028000000000006
N -2.153 18.952 26.926000000000002
C -2.6710000000000003 19.791 27.855000000000004
C -2.588 21.147 27.271
C -2.155 21.006 25.853
C -2.182 19.574 25.698000000000004
C -2.8550000000000004 22.397 28.052
C -1.787 22.004 24.801000000000002
O -1.665 21.681000000000004 23.57
C -1.658 23.405 25.241000000000003
N -2.233 16.578 25.049
C -2.247 17.56 24.141
C -2.1640000000000006 17.015 22.746
C -1.844 15.458 22.898
C -1.8820000000000001 15.359 24.443
C -3.4190000000000005 17.196 21.881
C -0.595 14.921 22.155
C 0.6580000000000001 15.501000000000001 22.772000000000002
N -1.818 14.847000000000001 27.381
C -1.795 13.855000000000002 26.39
C -1.795 12.553 27.082
C -1.835 12.880000000000003 28.436000000000003
C -1.885 14.296 28.580000000000002
C -1.819 11.276 26.455000000000002
C -1.8720000000000003 12.362000000000002 29.794
O -1.7600000000000002 11.244 30.299
C -2.223 13.563 30.779
C -1.251 13.509000000000002 31.926000000000002
O -0.037000000000000005 13.736 31.747
O -1.9300000000000002 13.435000000000002 33.081
C -1.025 13.408 34.261
C -0.516 16.468 37.138
C -0.5310000000000001 17.387 38.262
C -0.454 17.127 39.59
C -0.378 15.838000000000001 40.321
C -0.7230000000000001 18.255 40.576
C 0.451 18.789 41.50200000000001
C 1.21 20.031 40.87
C 1.469 21.168 41.94200000000001
C 0.066 21.921 42.199
C 2.7560000000000002 22.039000000000005 41.67000000000001
C 3.2430000000000003 22.867 42.872
C 4.766 22.908000000000005 42.988
C 5.267 23.085 44.478
C 6.800000000000001 23.421 44.531
C 4.85 21.941000000000003 45.489
C 3.95 22.297000000000004 46.696
C 2.527 21.696000000000005 46.703
C 1.4260000000000002 22.715 47.155
C 0.033 22.091 47.443
C 1.232 23.982 46.288
H -3.8270000000000004 20.211000000000002 29.575
H -2.186 19.444 23.604
H -1.6920000000000002 13.244 24.473000000000003
H -3.5220000000000002 16.042 32.21
H -3.553 18.822000000000003 31.743000000000002
H -5.452 16.614 31.047000000000004
H -5.479000000000001 18.018 29.936000000000003
H -5.82 18.292 31.621000000000002
H -1.299 18.087 32.044
H -0.838 16.352000000000004 32.267
H -2.8120000000000003 17.017 34.203
H -1.906 18.468 33.99900000000001
H -3.312 22.177000000000003 29.016000000000002
H -3.6190000000000007 22.954000000000004 27.510000000000005
H -1.9610000000000003 23.011 28.162000000000003
H -2.603 23.735 25.673
H -1.303 23.961000000000002 24.374000000000002
H -0.9200000000000002 23.457000000000004 26.042000000000005
H -1.36 17.492 22.187
H -2.66 14.835000000000003 22.531
H -3.2350000000000003 17.731 20.949000000000005
H -4.172000000000001 17.705 22.482000000000003
H -3.935 16.271 21.625
H -0.6120000000000001 15.232000000000001 21.111
H -0.516 13.834 22.176000000000002
H 0.746 16.469 22.28
H 1.5190000000000001 14.870000000000001 22.549
H 0.527 15.688000000000002 23.838000000000005
H -1.101 10.658000000000001 26.994000000000003
H -1.564 11.349 25.398
H -2.859 10.992 26.615000000000002
H -3.251 13.410000000000002 31.106
H -1.27 12.513000000000002 34.833
H -1.135 14.372 34.758
H 0.032 13.237000000000002 34.054
H 0.552 16.428000000000004 36.922
H -0.907 15.476 37.361
H -1.044 18.319000000000003 38.02300000000001
H -0.543 14.989 39.658
H -1.182 15.731000000000002 41.05
H 0.581 15.668 40.812
H -1.499 17.903 41.256
H -1.227 19.095 40.09700000000001
H 1.292 18.096 41.508
H 0.091 19.058 42.49400000000001
H 0.62 20.446000000000005 40.053
H 2.115 19.576 40.468
H 1.778 20.639 42.84300000000001
H 0.034 22.9 41.721
H -0.263 21.889 43.23700000000001
H -0.6930000000000001 21.476000000000003 41.556
H 2.393 22.719 40.9
H 3.556 21.429000000000002 41.25
H 2.826 22.458 43.793
H 2.891 23.896 42.79800000000001
H 5.207000000000001 23.572000000000003 42.244
H 5.175 21.964000000000002 42.62700000000001
H 4.875 24.075000000000003 44.715
H 7.330000000000001 22.497000000000003 44.3
H 7.166000000000001 23.617000000000004 45.539
H 7.126000000000001 24.262 43.92
H 5.8260000000000005 21.689000000000004 45.90400000000001
H 4.491 21.05 44.973
H 3.897 23.383 46.781
H 4.392 21.943 47.62700000000001
H 2.5140000000000002 20.877 47.422
H 2.203 21.325 45.731
H 1.7820000000000003 22.975 48.15100000000001
H -0.337 22.156 48.46600000000001
H 0.258 21.029 47.348
H -0.654 22.475 46.688
H 1.826 23.915000000000003 45.376000000000005
H 1.8130000000000002 24.727 46.832
H 0.23400000000000004 24.277 45.96
Mg 9.201 48.63300000000001 24.807000000000002
C 7.006000000000001 48.653000000000006 27.545
C 11.642 49.941 26.665
C 11.050000000000002 48.611000000000004 22.151
C 6.242000000000001 48.219 22.767
N 9.225 49.31100000000001 26.852
C 8.336000000000002 49.092 27.829
C 8.789 49.672 29.144000000000002
C 10.106 50.447 28.737
C 10.361 49.870000000000005 27.358000000000004
C 10.084 52.010000000000005 28.747000000000003
C 9.147 48.495 30.188000000000002
C 8.515 48.705 31.603
C 8.635 47.367 32.515
O 9.543 46.552 32.437
O 7.6160000000000005 47.272 33.46
N 11.098 48.95 24.524000000000004
C 12.008000000000001 49.464000000000006 25.432000000000002
C 13.329000000000002 49.316 24.886
C 13.242000000000003 48.876 23.502000000000002
C 11.752 48.67100000000001 23.337
C 14.548000000000002 49.789 25.729000000000003
C 14.235 48.59100000000001 22.381
O 13.968 48.124 21.259
C 15.645 48.82300000000001 22.795
N 8.623 48.59400000000001 22.783
C 9.671 48.607000000000006 21.896
C 9.166 48.63700000000001 20.453000000000003
C 7.690000000000001 48.19700000000001 20.638
C 7.46 48.399 22.137
C 9.462 50.048 19.806
C 7.338 46.721 20.171
C 5.872000000000001 46.443000000000005 19.802
N 7.050000000000001 48.42700000000001 25.054
C 6.046 48.27100000000001 24.147
C 4.779 48.040000000000006 24.804
C 5.157 48.117000000000004 26.157000000000004
C 6.523 48.415 26.264000000000003
C 3.3590000000000004 47.773 24.254
C 4.636 47.99600000000001 27.490000000000002
O 3.59 47.604 27.937000000000005
C 5.825 48.51800000000001 28.452
C 5.773000000000001 47.514 29.518000000000004
O 6.284000000000001 46.36600000000001 29.55
O 5.03 48.07600000000001 30.487000000000002
C 4.757 47.293000000000006 31.693
C 7.633000000000001 45.983000000000004 34.224
C 8.521 46.019 35.427
C 8.133 46.32000000000001 36.675
C 6.837 47.05 37.108
C 9.004 45.882 37.843
C 9.698 47.088 38.629
C 11.264000000000001 46.891 38.825
C 11.669 46.286 40.178000000000004
C 11.503 47.286 41.307
C 13.074000000000002 45.659 40.24900000000001
C 12.989 44.406 41.174
C 14.237000000000002 44.304 42.176
C 13.775000000000002 43.623000000000005 43.462
C 14.631 42.324 43.746
C 13.768000000000002 44.60900000000001 44.635
C 12.381000000000002 45.016 45.107
C 12.234 46.452 45.684
C 12.147000000000002 46.532 47.24600000000001
C 11.638 47.847 47.7
C 13.596000000000002 46.264 47.898
H 12.472000000000001 50.28300000000001 27.287
H 11.679000000000002 48.528000000000006 21.262000000000004
H 5.399000000000001 48.001000000000005 22.108000000000004
H 8.059 50.306 29.648000000000003
H 11.005 50.19100000000001 29.298000000000002
H 10.135000000000002 52.348 27.712000000000003
H 10.989000000000003 52.301 29.280000000000005
H 9.223 52.518 29.18
H 10.208000000000002 48.275000000000006 30.312
H 8.827 47.566 29.716000000000005
H 7.46 48.964 31.516000000000002
H 9.004 49.456 32.223
H 14.89 48.94400000000001 26.325000000000003
H 14.281000000000002 50.458 26.548
H 15.303000000000003 50.38600000000001 25.218000000000004
H 15.985 48.19800000000001 23.62
H 15.64 49.89000000000001 23.021
H 16.365 48.703 21.985
H 9.759 47.888000000000005 19.928
H 7.047 48.839000000000006 20.036
H 8.538 50.617000000000004 19.704
H 9.907 50.08500000000001 18.812
H 10.061 50.742000000000004 20.396
H 7.494000000000001 46.141 21.081
H 7.929 46.293 19.361
H 5.399000000000001 45.746 20.495
H 5.638 46.051 18.812
H 5.349 47.381 19.983
H 3.3430000000000004 48.211000000000006 23.256
H 2.599 48.226000000000006 24.892000000000003
H 3.2580000000000005 46.69 24.184
H 5.551 49.482 28.881
H 5.304000000000001 47.73800000000001 32.524
H 4.921 46.227000000000004 31.539
H 3.71 47.436 31.96
H 7.996 45.195 33.564
H 6.685 45.57300000000001 34.574
H 9.382 45.357 35.34100000000001
H 7.126000000000001 47.882 37.75
H 6.209 46.321000000000005 37.619
H 6.390000000000001 47.442 36.194
H 9.664 45.128 37.415000000000006
H 8.399 45.251000000000005 38.493
H 9.238 47.263000000000005 39.602
H 9.496 48.02900000000001 38.117000000000004
H 11.653 47.906000000000006 38.739
H 11.604 46.21200000000001 38.043
H 10.913000000000002 45.52300000000001 40.361000000000004
H 10.535 47.24 41.806
H 11.724 48.291000000000004 40.948
H 12.245 47.11200000000001 42.086
H 13.718000000000002 46.30500000000001 40.84400000000001
H 13.609 45.48100000000001 39.316
H 12.978000000000002 43.57 40.475
H 12.103000000000002 44.41 41.81
H 14.773 45.239000000000004 42.336
H 15.023 43.671 41.766
H 12.754000000000001 43.28 43.297
H 15.551000000000002 42.239 43.167
H 14.033 41.419 43.643
H 14.857 42.274 44.81100000000001
H 14.488000000000001 45.416 44.498
H 14.128 44.162 45.562
H 12.153 44.382000000000005 45.964
H 11.612 44.67100000000001 44.416000000000004
H 11.297 46.882000000000005 45.32900000000001
H 13.005000000000003 47.01700000000001 45.16100000000001
H 11.488 45.724000000000004 47.564
H 10.79 47.702 48.369
H 11.144 48.45300000000001 46.941
H 12.428 48.33 48.276
H 13.923000000000002 45.224000000000004 47.922000000000004
H 13.673000000000002 46.658 48.91100000000001
H 14.271000000000003 46.732000000000006 47.182

