280
Bchla 20 -- Bchla 26
Mg 7.142 57.546 41.51700000000001
C 6.289 54.207 41.287000000000006
C 10.288000000000002 56.721000000000004 40.38900000000001
C 7.812000000000001 60.897000000000006 41.169000000000004
C 3.941 58.30400000000001 42.532
N 8.100000000000001 55.732 40.72500000000001
C 7.55 54.468 40.808
C 8.519000000000002 53.39300000000001 40.323
C 9.885 54.17400000000001 40.37
C 9.397 55.613 40.452000000000005
C 10.941 53.738 41.48400000000001
C 8.181 52.71900000000001 38.955
C 8.311 51.211 38.915
C 9.481 50.75900000000001 38.05500000000001
O 10.648 50.52900000000001 38.453
O 9.037000000000003 50.31100000000001 36.89500000000001
N 8.804 58.605000000000004 40.858
C 9.982 58.102000000000004 40.472
C 10.932000000000002 59.166 40.197
C 10.335 60.402 40.381
C 8.908000000000001 60.029 40.772000000000006
C 12.414000000000001 58.88100000000001 39.658
C 11.019000000000002 61.80700000000001 40.278
O 12.226 61.867000000000004 39.909
C 10.280000000000001 63.06100000000001 40.55
N 5.929000000000001 59.423 41.581
C 6.46 60.624 41.577
C 5.532 61.679 42.14200000000001
C 4.204 60.944 42.529
C 4.7 59.439 42.284
C 6.082000000000001 62.754000000000005 43.13300000000001
C 2.881 61.248000000000005 41.768
C 1.6480000000000001 60.788000000000004 42.518
N 5.413 56.462 41.842
C 4.167 56.89800000000001 42.349
C 3.349 55.736 42.566
C 4.139 54.62 42.197
C 5.339 55.156 41.738
C 2.016 55.69 43.298
C 4.117 53.24300000000001 42.147
O 3.288 52.392 42.322
C 5.501 52.882 41.394000000000005
C 5.071 52.591 39.957
O 4.832 53.425000000000004 39.105
O 4.992 51.21300000000001 39.836
C 4.488000000000001 50.71300000000001 38.561
C 9.964 49.732 35.89
C 10.131 50.617000000000004 34.63
C 9.174 51.34700000000001 33.923
C 7.654000000000001 51.418 34.234
C 9.613 52.108 32.66
C 9.96 53.577000000000005 32.958
C 9.377 54.492000000000004 31.891
C 10.284000000000002 55.765 31.814
C 9.312000000000001 56.923 31.358
C 11.555 55.538 30.907
C 12.754000000000001 56.423 31.28
C 12.845000000000002 57.662000000000006 30.334000000000003
C 14.166 57.639 29.473000000000003
C 15.281000000000002 58.509 30.013000000000005
C 13.754 57.99900000000001 28.019
C 14.952000000000002 57.589000000000006 27.052
C 15.103 58.76100000000001 26.064000000000004
C 14.717000000000002 58.352000000000004 24.640000000000004
C 15.264 59.39900000000001 23.66
C 13.184000000000001 58.126 24.486000000000004
H 11.347000000000001 56.508 40.23
H 8.097 61.94400000000001 41.049
H 2.947 58.37800000000001 42.97800000000001
H 8.573 52.63000000000001 41.099
H 10.293 54.145 39.359
H 11.533 54.647000000000006 41.59
H 11.675000000000002 53.007 41.144
H 10.538 53.39 42.435
H 8.898 53.175 38.272
H 7.264 53.038 38.46
H 7.371 50.81600000000001 38.529
H 8.48 50.78 39.902
H 12.650000000000002 57.83100000000001 39.48
H 13.156 59.27900000000001 40.351
H 12.590000000000002 59.28000000000001 38.66
H 9.908 63.049 41.574
H 9.553 63.277 39.767
H 11.064 63.813 40.63000000000001
H 5.091 62.357000000000006 41.41100000000001
H 4.061 60.88100000000001 43.608000000000004
H 7.169 62.67900000000001 43.08
H 5.659 62.687 44.13600000000001
H 5.859 63.782 42.847
H 2.992 60.797 40.782
H 2.91 62.32500000000001 41.603
H 0.837 61.471000000000004 42.26400000000001
H 1.737 60.784000000000006 43.605000000000004
H 1.3270000000000002 59.827000000000005 42.116
H 1.6710000000000003 54.681 43.524
H 1.289 56.22800000000001 42.69100000000001
H 2.068 56.222 44.248000000000005
H 6.049000000000001 52.101000000000006 41.922
H 3.446 51.01 38.441
H 4.616 49.635 38.469
H 5.023 51.19800000000001 37.745
H 9.634 48.788 35.458
H 10.940000000000001 49.481 36.305
H 11.134000000000002 50.77000000000001 34.232
H 7.480000000000001 51.132 35.272
H 7.169 50.80200000000001 33.477
H 7.471000000000001 52.488 34.139
H 8.935 52.00900000000001 31.812000000000005
H 10.540000000000001 51.76500000000001 32.2
H 11.041 53.71000000000001 32.99
H 9.59 53.889 33.935
H 8.346 54.762 32.119
H 9.212 54.00600000000001 30.93
H 10.556 56.13 32.804
H 8.546 56.538000000000004 30.684000000000005
H 9.834 57.702 30.803000000000004
H 8.713 57.412 32.126000000000005
H 11.22 55.62200000000001 29.873000000000005
H 12.013 54.56400000000001 31.078000000000003
H 13.650000000000002 55.815 31.411
H 12.52 56.645 32.321
H 12.881 58.557 30.955
H 11.980000000000002 57.743 29.676000000000002
H 14.560000000000002 56.62800000000001 29.366000000000003
H 15.293000000000001 59.404 29.391
H 16.216 57.96500000000001 29.884000000000004
H 15.24 58.794000000000004 31.064000000000004
H 13.414000000000001 59.03300000000001 27.96
H 12.976 57.345000000000006 27.626000000000005
H 14.672 56.706 26.478
H 15.906000000000002 57.339 27.516
H 16.151 59.042 26.166
H 14.456 59.578 26.381
H 15.266000000000002 57.43600000000001 24.418000000000003
H 15.525000000000002 60.33200000000001 24.161
H 14.595000000000002 59.803 22.9
H 16.032000000000004 58.88100000000001 23.086
H 12.990000000000002 57.05400000000001 24.458000000000002
H 12.774000000000001 58.54500000000001 23.567
H 12.658000000000001 58.616 25.305
Mg -9.126 18.730000000000004 43.07000000000001
C -5.623 18.445 42.867
C -8.711 22.083 42.24600000000001
C -12.431000000000001 19.033 42.793
C -9.303 15.266000000000002 42.957
N -7.320000000000001 20.025 42.453
C -5.9670000000000005 19.766 42.55400000000001
C -5.07 20.986000000000004 42.549
C -6.066000000000001 22.157 42.373000000000005
C -7.448000000000001 21.426 42.335
C -5.986000000000001 23.258000000000003 43.507
C -3.936 21.031 41.43
C -4.226 20.351 40.08200000000001
C -4.566 21.252 38.858
O -4.983 22.394 38.902
O -4.154 20.569000000000003 37.738
N -10.362 20.306 42.605
C -10.015 21.604 42.359
C -11.224 22.428000000000004 42.220000000000006
C -12.336 21.546 42.382
C -11.711 20.205 42.598
C -11.197 23.932 41.97500000000001
C -13.794000000000002 22.107 42.18800000000001
O -13.918 23.281 41.86800000000001
C -15.046 21.141000000000002 42.316
N -10.602 17.364 42.777
C -11.949000000000002 17.711 42.852
C -12.887000000000002 16.376 42.87100000000001
C -11.752 15.220000000000002 42.763
C -10.485 16.009 42.845000000000006
C -13.77 16.281 44.15
C -11.807 14.336000000000002 41.444
C -11.819000000000003 12.805 41.574
N -7.7620000000000005 17.118 43.062
C -7.944 15.760000000000002 43.004
C -6.617000000000001 15.110000000000001 42.96500000000001
C -5.679 16.175 43.031
C -6.456 17.367 43.038
C -6.315 13.641000000000002 42.857
C -4.231 16.453 42.988
O -3.231 15.722000000000001 43.038
C -4.164 17.97 43.083
C -3.5420000000000003 18.424 44.281
O -4.154 18.455 45.38
O -2.218 18.846 44.04800000000001
C -1.496 19.491 45.14
C -4.399 21.306000000000004 36.473
C -5.725 20.955 35.967
C -6.1370000000000005 19.839 35.287
C -5.182000000000001 18.625 34.982
C -7.544 19.696 34.631
C -8.371 18.342 34.658
C -9.373000000000001 18.281 33.396
C -10.574000000000002 19.305 33.518
C -12.010000000000002 18.792 33.242
C -10.234000000000002 20.449 32.52000000000001
C -10.952 21.722 32.66
C -10.067000000000002 23.01 32.543
C -10.386 24.031000000000002 31.351
C -9.902 25.492000000000004 31.781000000000002
C -9.853000000000002 23.521 29.945000000000004
C -10.927 23.089 28.928000000000004
C -10.649 23.747000000000003 27.590000000000003
C -11.247 22.823 26.473
C -10.677000000000001 23.281 25.195000000000004
C -12.813 23.069000000000003 26.424000000000003
H -8.639 23.169 42.161
H -13.517000000000001 19.116 42.866
H -9.445 14.184000000000001 42.983000000000004
H -4.615 20.947 43.538
H -5.923 22.509 41.352000000000004
H -5.582000000000001 24.18 43.089000000000006
H -5.326 22.85 44.27300000000001
H -6.972 23.481 43.916
H -3.1410000000000005 20.464 41.916000000000004
H -3.607 22.062000000000005 41.298
H -5.037000000000001 19.629000000000005 40.183
H -3.369 19.729 39.827
H -11.415 24.232 40.95
H -10.312 24.386000000000003 42.421
H -11.944 24.436 42.588
H -14.909 20.569000000000003 43.234
H -15.05 20.497 41.437
H -16.006 21.639 42.18
H -13.597000000000001 16.501 42.054
H -11.833 14.613 43.665000000000006
H -13.233 15.665 44.87100000000001
H -14.782000000000002 15.934 43.94100000000001
H -13.987 17.243 44.614000000000004
H -10.98 14.667000000000002 40.815
H -12.761 14.648000000000001 41.019
H -11.511 12.313 40.651
H -12.866 12.602000000000002 41.798
H -11.126000000000001 12.603 42.391
H -7.190000000000001 13.229 42.355000000000004
H -6.334 13.325 43.9
H -5.341 13.395000000000001 42.43300000000001
H -3.567 18.212000000000003 42.20400000000001
H -1.2760000000000002 18.888 46.021
H -2.039 20.376000000000005 45.473
H -0.613 19.949000000000005 44.694
H -3.676 21.036 35.703
H -4.307 22.369 36.695
H -6.495000000000001 21.722 36.05800000000001
H -5.377 17.629 35.38
H -4.238 18.924 35.438
H -5.161 18.589 33.893
H -7.388 20.052 33.613
H -8.198 20.459 35.05200000000001
H -8.936 18.469 35.581
H -7.766000000000001 17.435000000000002 34.655
H -9.842 17.3 33.317
H -8.822 18.333 32.457
H -10.601 19.869 34.451
H -12.414000000000001 19.139 32.291
H -12.603 19.111000000000004 34.099
H -12.128 17.728 33.037
H -10.602 19.957 31.619
H -9.147 20.535 32.495
H -11.314 21.746 33.688
H -11.71 21.831 31.884
H -9.041 22.649000000000004 32.464
H -10.156 23.53 33.497
H -11.451 24.201 31.196
H -9.277 25.944000000000003 31.010000000000005
H -9.433 25.501000000000005 32.765
H -10.762 26.111000000000004 32.037
H -9.307 22.588000000000005 30.088000000000005
H -9.114 24.234000000000005 29.577000000000005
H -11.878 23.463 29.306
H -11.043000000000001 22.006 28.975000000000005
H -9.564 23.803 27.501
H -11.018 24.755000000000003 27.407000000000004
H -11.044 21.759 26.592000000000002
H -10.832 24.356000000000005 25.097000000000005
H -11.183 22.865 24.324000000000005
H -9.607 23.08 25.141
H -13.052000000000001 23.493 27.399000000000004
H -13.38 22.146000000000004 26.302000000000003
H -13.14 23.826 25.711

