280
Bchla 15 -- Bchla 27
Mg 46.367000000000004 34.873 28.258000000000003
C 44.786 32.872 30.578000000000003
C 46.386 37.42 30.776000000000003
C 47.556000000000004 36.983 26.07
C 45.979 32.443 25.827000000000005
N 45.442 35.144000000000005 30.411
C 45.073 34.117 31.158
C 45.125 34.48 32.669
C 45.086000000000006 36.045 32.568
C 45.675 36.281 31.168
C 43.631 36.618 32.709
C 46.46 33.912 33.2
C 46.692 34.009 34.714
C 45.77100000000001 34.851 35.574
O 44.572 34.659 35.633
O 46.492 35.823 36.246
N 47.011 36.848 28.339
C 46.96000000000001 37.702 29.494000000000003
C 47.698 38.905 29.134
C 48.14 38.733 27.785000000000004
C 47.542 37.488 27.305
C 47.979 40.111 30.106
C 49.099000000000004 39.67100000000001 26.980000000000004
O 49.27 39.437 25.815
C 49.747 40.84400000000001 27.641
N 46.806 34.696 26.230000000000004
C 47.30800000000001 35.721 25.505
C 47.464000000000006 35.391 24.021000000000004
C 47.086 33.89200000000001 23.987
C 46.581 33.654 25.468000000000004
C 46.605 36.265 23.035
C 48.116 32.929 23.454
C 49.591 32.99 23.919
N 45.556 33.03 28.125
C 45.469 32.14 27.093000000000004
C 44.91700000000001 30.915 27.632000000000005
C 44.641000000000005 31.103000000000005 29.030000000000005
C 45.051 32.44500000000001 29.259000000000004
C 44.677 29.678000000000004 26.824000000000005
C 44.09100000000001 30.544000000000004 30.219000000000005
O 43.568 29.438 30.477000000000004
C 43.938 31.834000000000003 31.195000000000004
C 44.253 31.346000000000004 32.61
O 45.22200000000001 30.773000000000003 32.934
O 43.189 31.657000000000004 33.408
C 43.384 31.629000000000005 34.843
C 45.657 36.653000000000006 37.121
C 46.545 37.745 37.603
C 46.164 38.705 38.51
C 44.685 38.619 39.09100000000001
C 47.039 39.772 39.079
C 47.50500000000001 40.762 37.992
C 48.967 41.30200000000001 38.124
C 48.92900000000001 42.793 38.464
C 50.265 43.401 38.073
C 48.721 42.85900000000001 40.040000000000006
C 47.438 43.69800000000001 40.32900000000001
C 47.658 44.956 41.19700000000001
C 47.46000000000001 46.36500000000001 40.413
C 48.581 47.347 40.726000000000006
C 46.024 46.939 40.579
C 45.215 47.182 39.30500000000001
C 43.888 46.358 39.451
C 42.613 47.09700000000001 39.093
C 41.839000000000006 47.603 40.29
C 41.836 46.18200000000001 38.172
H 46.328 38.211 31.526
H 47.902 37.661 25.287000000000003
H 45.811 31.643000000000004 25.104000000000003
H 44.235 34.149 33.204
H 45.76700000000001 36.365 33.357
H 43.51 37.056 33.699
H 42.93300000000001 35.797 32.544
H 43.416 37.434 32.019000000000005
H 47.26100000000001 34.504000000000005 32.758
H 46.66 32.911 32.819
H 47.744 34.112 34.981
H 46.574 32.984 35.066
H 47.709 41.071 29.665
H 49.035000000000004 40.036 30.365000000000002
H 47.454 39.948 31.048000000000002
H 50.663 40.948 27.059
H 50.08200000000001 40.624 28.654000000000003
H 49.168000000000006 41.736 27.880000000000003
H 48.522 35.545 23.81
H 46.169000000000004 33.697 23.431
H 46.31700000000001 35.593 22.227
H 47.327000000000005 37.01 22.7
H 45.806 36.774 23.574
H 48.215 33.307 22.437
H 47.864 31.868 23.454
H 50.358000000000004 33.201 23.175000000000004
H 49.941 32.015 24.258000000000003
H 49.69200000000001 33.757000000000005 24.687
H 44.204 28.972 27.506000000000004
H 45.629 29.238 26.524
H 44.153000000000006 29.831000000000003 25.881000000000004
H 42.912 32.172 31.048000000000002
H 42.529 30.965000000000003 34.971
H 43.388 32.616 35.306
H 44.281 31.1 35.166
H 45.334 36.116 38.012
H 44.914 37.248000000000005 36.59
H 47.605 37.802 37.352
H 43.986000000000004 39.319 38.63300000000001
H 44.83800000000001 38.855 40.144000000000005
H 44.386 37.571 39.092
H 47.973 39.36500000000001 39.465
H 46.675 40.26 39.983
H 46.821 41.602 37.872
H 47.46000000000001 40.255 37.028
H 49.354000000000006 41.12100000000001 37.121
H 49.64 40.765 38.791
H 48.11800000000001 43.351 37.996
H 50.307 44.314 38.666
H 50.27100000000001 43.665000000000006 37.015
H 51.01400000000001 42.708000000000006 38.456
H 49.535 43.335 40.58700000000001
H 48.406000000000006 41.867000000000004 40.363
H 46.831 42.99700000000001 40.901
H 46.867000000000004 44.005 39.453
H 48.635000000000005 44.926 41.68
H 46.88000000000001 44.90100000000001 41.95900000000001
H 47.655 46.207 39.353
H 49.33700000000001 47.473 39.952
H 49.137 47.137 41.64000000000001
H 48.169000000000004 48.352000000000004 40.81400000000001
H 46.043000000000006 47.93500000000001 41.023
H 45.472 46.344 41.307
H 45.783 46.826 38.446
H 44.980000000000004 48.221 39.077
H 43.699000000000005 46.022 40.47
H 44.012 45.568 38.71000000000001
H 42.913 47.916 38.44
H 42.129000000000005 48.642 40.449
H 41.986 47.027 41.204
H 40.81 47.456 39.964
H 41.19700000000001 46.86500000000001 37.613
H 41.288 45.471 38.791
H 42.38 45.705 37.357
Mg -5.21 24.541000000000004 27.195
C -3.5410000000000004 26.384000000000004 29.693000000000005
C -6.38 22.499 29.726
C -6.783000000000001 22.591 24.876000000000005
C -3.732 26.393000000000004 24.817
N -5.009 24.475 29.485
C -4.393000000000001 25.403000000000002 30.316000000000003
C -4.7780000000000005 25.157000000000004 31.761
C -5.380000000000001 23.705 31.74
C -5.612 23.568 30.252
C -4.487 22.583 32.401
C -5.828000000000001 26.148000000000003 32.285
C -5.66 26.572 33.748
C -5.928 25.52 34.86
O -5.178000000000001 24.808000000000003 35.42
O -7.247 25.651000000000003 35.24
N -6.480000000000001 22.853 27.281
C -6.765 22.191000000000003 28.426000000000002
C -7.522000000000001 21.026000000000003 28.101000000000003
C -7.817 21.045 26.694
C -6.985000000000001 22.142 26.232000000000003
C -7.947000000000001 20.031 29.145000000000003
C -8.63 20.1 25.809
O -8.907 20.385000000000005 24.623000000000005
C -9.087 18.724 26.28
N -5.32 24.558 25.17
C -5.973000000000001 23.615 24.382
C -5.699 23.91 22.943
C -4.772 25.174000000000003 22.837
C -4.608 25.452000000000005 24.340000000000003
C -5.2490000000000006 22.679000000000002 22.100000000000005
C -5.373 26.38 22.083
C -4.944 26.457 20.605000000000004
N -3.895 26.018000000000004 27.181
C -3.3810000000000002 26.779000000000003 26.132000000000005
C -2.501 27.909000000000002 26.61
C -2.55 27.715 28.000000000000004
C -3.426 26.623 28.301
C -1.787 28.935 25.749
C -2.033 28.274000000000004 29.24
O -1.249 29.202000000000005 29.443
C -2.781 27.475000000000005 30.39
C -1.665 26.984 31.333000000000002
O -0.581 26.549 31.003000000000004
O -2.033 27.276000000000003 32.645
C -1.033 26.854 33.626
C -7.564000000000001 24.944000000000003 36.511
C -8.753 24.01 36.285
C -9.206 23.034 37.178
C -8.642 22.672000000000004 38.542
C -10.439 22.214 36.802
C -11.605 22.545 37.716
C -12.141000000000002 21.385 38.532
C -12.837 20.297 37.695
C -14.376 20.604 37.604
C -12.473 18.878 38.236
C -11.075 18.359 37.854
C -10.252 18.044000000000004 39.133
C -8.796 17.661 38.813
C -7.707000000000001 18.676 39.491
C -8.488 16.152 39.028
C -7.214 15.591 38.264
C -6.276000000000001 14.932 39.298
C -4.745 15.127000000000002 38.87
C -3.893 13.923000000000002 39.358
C -4.266 16.497 39.329
H -6.796000000000001 21.923 30.555000000000003
H -7.246000000000001 22.043 24.053000000000004
H -3.2010000000000005 26.863 23.987
H -3.9420000000000006 25.157000000000004 32.46000000000001
H -6.324000000000001 23.596 32.274
H -3.587 22.935 32.906
H -4.09 21.819000000000003 31.733000000000004
H -5.035 22.071 33.19200000000001
H -6.837 25.751000000000005 32.176
H -5.779 27.088 31.735000000000003
H -6.234000000000001 27.469 33.98
H -4.65 26.933000000000003 33.941
H -7.011000000000001 19.854 29.675000000000004
H -8.293 19.055 28.805
H -8.678 20.404 29.862000000000002
H -8.257 18.167 26.715
H -9.457 18.282 25.355000000000004
H -9.853000000000002 18.807000000000002 27.051
H -6.6690000000000005 24.060000000000002 22.468
H -3.772 24.984 22.445
H -5.161 21.829 22.777
H -4.267000000000001 22.885000000000005 21.675
H -6.057000000000001 22.545 21.38
H -5.165000000000001 27.269000000000002 22.678000000000004
H -6.454 26.277000000000005 21.986000000000004
H -4.658 25.466 20.252
H -4.057 27.051 20.384
H -5.81 26.77 20.021
H -2.5470000000000006 29.614000000000004 25.362000000000002
H -1.261 28.538 24.881
H -1.105 29.457000000000004 26.42
H -3.5050000000000003 28.048000000000002 30.969
H -1.16 25.838 34.001000000000005
H -1.124 27.594 34.421
H 0.018 26.831 33.338
H -7.981 25.702 37.173
H -6.805 24.425000000000004 37.095
H -9.302 24.101 35.348
H -8.292 21.656 38.362
H -9.496 22.631 39.219
H -7.753000000000001 23.206000000000003 38.876
H -10.150000000000002 21.164 36.741
H -10.782 22.469 35.8
H -12.41 22.862000000000002 37.052
H -11.396 23.503000000000004 38.19200000000001
H -12.859 21.829 39.222
H -11.377000000000002 20.940000000000005 39.17
H -12.531 20.202000000000005 36.653000000000006
H -14.660000000000002 21.651000000000003 37.502
H -14.864 20.149000000000004 38.46600000000001
H -14.707 20.129 36.681
H -13.228 18.159 37.915
H -12.479 19.016 39.317
H -10.479000000000001 19.056 37.265
H -11.241000000000001 17.402 37.358
H -10.608000000000002 17.17 39.678
H -10.286 18.836 39.881
H -8.582 17.67 37.744
H -7.003 18.174 40.154
H -8.335 19.35 40.074
H -7.156000000000001 19.274 38.765
H -9.352 15.546 38.758
H -8.252000000000002 16.061 40.089
H -6.637 16.369 37.763
H -7.396000000000001 14.835000000000003 37.501
H -6.461000000000001 13.864 39.412000000000006
H -6.274000000000001 15.379000000000001 40.292
H -4.618 15.064000000000002 37.789
H -4.547 13.094000000000001 39.626000000000005
H -3.447 14.255000000000003 40.295
H -3.045 13.638000000000002 38.736
H -3.37 16.434 39.947
H -4.981 16.928 40.031
H -3.993 17.069000000000003 38.442

