280
Bchla 6 -- Bchla 22
Mg 17.054000000000002 -2.2880000000000003 27.750000000000004
C 16.548 -0.354 30.726
C 18.852000000000004 -4.529 29.657
C 18.013000000000005 -3.67 24.949000000000005
C 15.392000000000001 0.222 26.033000000000005
N 17.886 -2.277 29.962
C 17.412 -1.4370000000000003 30.933
C 17.782 -2.001 32.331
C 18.585 -3.327 31.996000000000002
C 18.484 -3.4240000000000004 30.43
C 20.102000000000004 -3.411 32.453
C 16.578 -2.2860000000000005 33.268
C 16.684 -1.8500000000000003 34.68600000000001
C 18.053 -1.523 35.396
O 18.778 -0.591 35.104
O 18.548000000000002 -2.518 36.236
N 18.305 -3.918 27.31
C 18.859 -4.819 28.219
C 19.641 -5.825 27.475000000000005
C 19.293 -5.632000000000001 26.083
C 18.516 -4.371 26.058000000000003
C 20.531000000000002 -6.871 28.075000000000003
C 19.639 -6.463000000000001 24.825
O 19.045 -6.384 23.729
C 20.630000000000003 -7.546 24.977
N 16.791 -1.754 25.844000000000005
C 17.373000000000005 -2.499 24.842
C 16.845 -2.07 23.445
C 15.703 -1.041 23.862000000000002
C 15.953 -0.843 25.347000000000005
C 17.88 -1.479 22.403
C 14.265 -1.461 23.602000000000004
C 13.502 -0.619 22.558000000000003
N 15.981000000000002 -0.538 28.255
C 15.386 0.394 27.438000000000002
C 14.878 1.514 28.241
C 15.273000000000001 1.207 29.531
C 15.938 -0.039 29.497
C 14.172000000000002 2.7510000000000003 27.793
C 15.189000000000002 1.6990000000000003 30.859000000000005
O 14.574 2.682 31.362000000000002
C 15.981000000000002 0.758 31.664
C 17.012 1.503 32.468
O 17.975 2.031 32.027
O 16.72 1.423 33.766
C 17.368 2.297 34.684
C 19.982 -2.452 36.552
C 20.408000000000005 -3.7640000000000002 37.247
C 20.356 -4.021 38.546
C 19.854 -3.0560000000000005 39.583
C 20.837 -5.333 39.057
C 22.258 -5.655 39.002
C 22.740000000000002 -6.699000000000001 40.128
C 23.734 -7.691 39.446
C 22.955000000000002 -8.755000000000003 38.715
C 24.769000000000002 -8.272 40.501
C 26.123000000000005 -7.521 40.532
C 26.806 -7.793000000000001 41.936
C 27.491000000000003 -9.18 41.978
C 26.842000000000002 -9.995 43.104000000000006
C 29.044000000000004 -9.062 42.251000000000005
C 29.902 -9.093 40.942
C 31.024 -10.168 41.003
C 31.344 -10.751 39.606
C 32.091 -9.703 38.807
C 32.157 -12.063000000000002 39.749
H 19.445 -5.281000000000001 30.182000000000002
H 18.215 -4.046000000000001 23.943000000000005
H 14.94 1.0430000000000001 25.474
H 18.422 -1.249 32.794
H 18.07 -4.189 32.419
H 20.439000000000004 -2.604 33.103
H 20.706000000000003 -3.311 31.550000000000004
H 20.311 -4.382 32.903000000000006
H 16.349 -3.349 33.352
H 15.66 -1.804 32.93300000000001
H 16.309 -2.637 35.34100000000001
H 16.049 -0.9720000000000001 34.801
H 21.524 -6.798000000000001 27.632000000000005
H 20.096000000000004 -7.833000000000001 27.804000000000002
H 20.474 -6.870000000000001 29.164
H 21.579 -7.085 25.251
H 20.755 -7.963 23.978
H 20.262 -8.353 25.61
H 16.37 -2.96 23.031000000000002
H 15.888 -0.125 23.301
H 18.88 -1.4650000000000003 22.835
H 17.571000000000005 -0.518 21.99
H 17.864 -2.133 21.531
H 13.635000000000002 -1.616 24.478000000000005
H 14.307 -2.459 23.167000000000005
H 12.479 -0.335 22.804
H 13.298000000000002 -1.281 21.716
H 13.992000000000003 0.304 22.251000000000005
H 13.755000000000003 2.656 26.790000000000003
H 14.889000000000001 3.5600000000000005 27.654
H 13.497000000000002 3.03 28.602000000000004
H 15.272000000000002 0.271 32.333
H 16.919 3.2800000000000002 34.535
H 18.417 2.432 34.42
H 17.174 2.0 35.715
H 20.182 -1.5990000000000002 37.20100000000001
H 20.542 -2.4460000000000006 35.617000000000004
H 20.690000000000005 -4.616 36.628
H 19.138 -2.4460000000000006 39.033
H 20.664 -2.451 39.99000000000001
H 19.457 -3.6820000000000004 40.382
H 20.285000000000004 -6.003 38.398
H 20.431000000000004 -5.496 40.05500000000001
H 22.825000000000003 -4.727 38.932
H 22.485 -6.0360000000000005 38.007
H 21.940000000000005 -7.281 40.58700000000001
H 23.253 -6.066000000000001 40.853
H 24.429 -7.174 38.785
H 23.377 -8.933 37.726
H 21.938 -8.39 38.577
H 22.868 -9.662000000000003 39.313
H 24.871 -9.356 40.539
H 24.367 -7.952 41.462
H 25.835000000000004 -6.482000000000001 40.376000000000005
H 26.762 -7.954 39.763000000000005
H 26.064000000000004 -7.7700000000000005 42.733
H 27.439 -6.930000000000001 42.144000000000005
H 27.284000000000002 -9.649 41.016000000000005
H 27.200000000000003 -9.702 44.09100000000001
H 27.061 -11.049 42.931
H 25.773000000000003 -9.788 43.068
H 29.359 -9.968 42.769000000000005
H 29.234000000000005 -8.137 42.79600000000001
H 30.419 -8.134 40.972
H 29.280000000000005 -9.128 40.047
H 30.802 -11.04 41.618
H 31.870000000000005 -9.865 41.62100000000001
H 30.338 -10.853 39.2
H 31.684 -9.983 37.835
H 33.179 -9.737 38.747
H 31.83 -8.679000000000002 39.075
H 33.195 -11.825 39.514
H 31.775000000000002 -12.699 38.95
H 32.036 -12.58 40.701
Mg 9.201 48.63300000000001 24.807000000000002
C 7.006000000000001 48.653000000000006 27.545
C 11.642 49.941 26.665
C 11.050000000000002 48.611000000000004 22.151
C 6.242000000000001 48.219 22.767
N 9.225 49.31100000000001 26.852
C 8.336000000000002 49.092 27.829
C 8.789 49.672 29.144000000000002
C 10.106 50.447 28.737
C 10.361 49.870000000000005 27.358000000000004
C 10.084 52.010000000000005 28.747000000000003
C 9.147 48.495 30.188000000000002
C 8.515 48.705 31.603
C 8.635 47.367 32.515
O 9.543 46.552 32.437
O 7.6160000000000005 47.272 33.46
N 11.098 48.95 24.524000000000004
C 12.008000000000001 49.464000000000006 25.432000000000002
C 13.329000000000002 49.316 24.886
C 13.242000000000003 48.876 23.502000000000002
C 11.752 48.67100000000001 23.337
C 14.548000000000002 49.789 25.729000000000003
C 14.235 48.59100000000001 22.381
O 13.968 48.124 21.259
C 15.645 48.82300000000001 22.795
N 8.623 48.59400000000001 22.783
C 9.671 48.607000000000006 21.896
C 9.166 48.63700000000001 20.453000000000003
C 7.690000000000001 48.19700000000001 20.638
C 7.46 48.399 22.137
C 9.462 50.048 19.806
C 7.338 46.721 20.171
C 5.872000000000001 46.443000000000005 19.802
N 7.050000000000001 48.42700000000001 25.054
C 6.046 48.27100000000001 24.147
C 4.779 48.040000000000006 24.804
C 5.157 48.117000000000004 26.157000000000004
C 6.523 48.415 26.264000000000003
C 3.3590000000000004 47.773 24.254
C 4.636 47.99600000000001 27.490000000000002
O 3.59 47.604 27.937000000000005
C 5.825 48.51800000000001 28.452
C 5.773000000000001 47.514 29.518000000000004
O 6.284000000000001 46.36600000000001 29.55
O 5.03 48.07600000000001 30.487000000000002
C 4.757 47.293000000000006 31.693
C 7.633000000000001 45.983000000000004 34.224
C 8.521 46.019 35.427
C 8.133 46.32000000000001 36.675
C 6.837 47.05 37.108
C 9.004 45.882 37.843
C 9.698 47.088 38.629
C 11.264000000000001 46.891 38.825
C 11.669 46.286 40.178000000000004
C 11.503 47.286 41.307
C 13.074000000000002 45.659 40.24900000000001
C 12.989 44.406 41.174
C 14.237000000000002 44.304 42.176
C 13.775000000000002 43.623000000000005 43.462
C 14.631 42.324 43.746
C 13.768000000000002 44.60900000000001 44.635
C 12.381000000000002 45.016 45.107
C 12.234 46.452 45.684
C 12.147000000000002 46.532 47.24600000000001
C 11.638 47.847 47.7
C 13.596000000000002 46.264 47.898
H 12.472000000000001 50.28300000000001 27.287
H 11.679000000000002 48.528000000000006 21.262000000000004
H 5.399000000000001 48.001000000000005 22.108000000000004
H 8.059 50.306 29.648000000000003
H 11.005 50.19100000000001 29.298000000000002
H 10.135000000000002 52.348 27.712000000000003
H 10.989000000000003 52.301 29.280000000000005
H 9.223 52.518 29.18
H 10.208000000000002 48.275000000000006 30.312
H 8.827 47.566 29.716000000000005
H 7.46 48.964 31.516000000000002
H 9.004 49.456 32.223
H 14.89 48.94400000000001 26.325000000000003
H 14.281000000000002 50.458 26.548
H 15.303000000000003 50.38600000000001 25.218000000000004
H 15.985 48.19800000000001 23.62
H 15.64 49.89000000000001 23.021
H 16.365 48.703 21.985
H 9.759 47.888000000000005 19.928
H 7.047 48.839000000000006 20.036
H 8.538 50.617000000000004 19.704
H 9.907 50.08500000000001 18.812
H 10.061 50.742000000000004 20.396
H 7.494000000000001 46.141 21.081
H 7.929 46.293 19.361
H 5.399000000000001 45.746 20.495
H 5.638 46.051 18.812
H 5.349 47.381 19.983
H 3.3430000000000004 48.211000000000006 23.256
H 2.599 48.226000000000006 24.892000000000003
H 3.2580000000000005 46.69 24.184
H 5.551 49.482 28.881
H 5.304000000000001 47.73800000000001 32.524
H 4.921 46.227000000000004 31.539
H 3.71 47.436 31.96
H 7.996 45.195 33.564
H 6.685 45.57300000000001 34.574
H 9.382 45.357 35.34100000000001
H 7.126000000000001 47.882 37.75
H 6.209 46.321000000000005 37.619
H 6.390000000000001 47.442 36.194
H 9.664 45.128 37.415000000000006
H 8.399 45.251000000000005 38.493
H 9.238 47.263000000000005 39.602
H 9.496 48.02900000000001 38.117000000000004
H 11.653 47.906000000000006 38.739
H 11.604 46.21200000000001 38.043
H 10.913000000000002 45.52300000000001 40.361000000000004
H 10.535 47.24 41.806
H 11.724 48.291000000000004 40.948
H 12.245 47.11200000000001 42.086
H 13.718000000000002 46.30500000000001 40.84400000000001
H 13.609 45.48100000000001 39.316
H 12.978000000000002 43.57 40.475
H 12.103000000000002 44.41 41.81
H 14.773 45.239000000000004 42.336
H 15.023 43.671 41.766
H 12.754000000000001 43.28 43.297
H 15.551000000000002 42.239 43.167
H 14.033 41.419 43.643
H 14.857 42.274 44.81100000000001
H 14.488000000000001 45.416 44.498
H 14.128 44.162 45.562
H 12.153 44.382000000000005 45.964
H 11.612 44.67100000000001 44.416000000000004
H 11.297 46.882000000000005 45.32900000000001
H 13.005000000000003 47.01700000000001 45.16100000000001
H 11.488 45.724000000000004 47.564
H 10.79 47.702 48.369
H 11.144 48.45300000000001 46.941
H 12.428 48.33 48.276
H 13.923000000000002 45.224000000000004 47.922000000000004
H 13.673000000000002 46.658 48.91100000000001
H 14.271000000000003 46.732000000000006 47.182

