280
Bchla 21 -- Bchla 25
Mg 16.411 52.367 25.566
C 18.018 50.888 28.3
C 13.924000000000001 53.471000000000004 27.634000000000004
C 14.785000000000002 53.43800000000001 22.892000000000003
C 18.977 50.989000000000004 23.494
N 16.017000000000003 52.13900000000001 27.735000000000003
C 16.814 51.56600000000001 28.701000000000004
C 16.316 51.93200000000001 30.087000000000003
C 14.871 52.50500000000001 29.805
C 15.006000000000002 52.79900000000001 28.272
C 13.752000000000002 51.51700000000001 30.109
C 17.38 52.827 30.821000000000005
C 16.866 53.425000000000004 32.16
C 15.838000000000001 52.611 32.918000000000006
O 15.994000000000002 51.421 33.21
O 14.722 53.28600000000001 33.206
N 14.673 53.30500000000001 25.313
C 13.709 53.596000000000004 26.270000000000003
C 12.514000000000001 54.21500000000001 25.67
C 12.809 54.23100000000001 24.272
C 14.132 53.632 24.117
C 11.368 54.712 26.469000000000005
C 11.91 54.75300000000001 23.181000000000004
O 12.269000000000002 54.771 21.971000000000004
C 10.567 55.354 23.496000000000002
N 16.865 52.275 23.471000000000004
C 15.997000000000002 52.81 22.612000000000002
C 16.443000000000005 52.50800000000001 21.114
C 17.818 51.656000000000006 21.31
C 17.893 51.619 22.837
C 15.275 51.720000000000006 20.391
C 19.117 52.361000000000004 20.728000000000005
C 19.408 52.107 19.221
N 18.085 51.15100000000001 25.765
C 19.116 50.754000000000005 24.873000000000005
C 20.198 50.001 25.646000000000004
C 19.782000000000004 49.96200000000001 26.973000000000003
C 18.524 50.751 27.001000000000005
C 21.485 49.44800000000001 25.119000000000003
C 20.107 49.55500000000001 28.320000000000004
O 21.06 48.92400000000001 28.788
C 19.058 50.30100000000001 29.285
C 18.453 49.377 30.317000000000004
O 17.480000000000004 48.699000000000005 30.125
O 19.026 49.591 31.591000000000005
C 18.266 49.12100000000001 32.759
C 13.709 52.63100000000001 33.997
C 12.990000000000002 53.80200000000001 34.615
C 12.516 53.86600000000001 35.887
C 12.502000000000002 52.848000000000006 36.993
C 12.049000000000001 55.211000000000006 36.379000000000005
C 10.517000000000001 55.27100000000001 36.537
C 9.842 56.512 35.811
C 9.114 57.373000000000005 36.808
C 7.743000000000001 56.738 37.167
C 8.911 58.84 36.418
C 10.201 59.705000000000005 36.212
C 10.501000000000001 60.10000000000001 34.809
C 10.535 61.638000000000005 34.593
C 10.037 61.983 33.245
C 11.935 62.23400000000001 34.708
C 11.987000000000002 63.55800000000001 35.459
C 12.917000000000002 64.588 34.763000000000005
C 14.458000000000002 64.314 34.741
C 15.269000000000002 65.316 35.556
C 14.901 64.193 33.258
H 13.193000000000001 53.709 28.410000000000004
H 14.236000000000002 53.78 22.012
H 19.732 50.45400000000001 22.914
H 16.248 51.01 30.663
H 14.638 53.45400000000001 30.289
H 13.103 52.02100000000001 30.825
H 14.2 50.58 30.439000000000004
H 13.062000000000001 51.391 29.275000000000002
H 17.737 53.448 30.0
H 18.216 52.16100000000001 31.032000000000004
H 16.462 54.391 31.857000000000003
H 17.724000000000004 53.562000000000005 32.818
H 10.557 54.062 26.141000000000002
H 11.171 55.77400000000001 26.325000000000003
H 11.382000000000001 54.601000000000006 27.554
H 10.714000000000002 56.253 24.093
H 10.128000000000002 54.498 24.01
H 9.92 55.569 22.646
H 16.628 53.525 20.766
H 17.779 50.584 21.112
H 14.414 51.50600000000001 21.024
H 15.645 50.760000000000005 20.03
H 14.907000000000002 52.394 19.618
H 19.983 52.23400000000001 21.377000000000002
H 18.924 53.431 20.798000000000002
H 19.483 53.086 18.749
H 18.627 51.45900000000001 18.823
H 20.361000000000004 51.6 19.068
H 22.271 50.105000000000004 25.492000000000004
H 21.464 49.416000000000004 24.029000000000003
H 21.784 48.45300000000001 25.448000000000004
H 19.61 51.115 29.754000000000005
H 18.447 48.047000000000004 32.793
H 17.229 49.453 32.705
H 18.688 49.637 33.621
H 14.073000000000002 51.938 34.756
H 13.003 52.05200000000001 33.401
H 13.005000000000003 54.705000000000005 34.005
H 11.453 52.58800000000001 37.134
H 12.947 53.169000000000004 37.935
H 13.039000000000001 51.968 36.638000000000005
H 12.314 56.047000000000004 35.732
H 12.449000000000002 55.43600000000001 37.36800000000001
H 10.413 55.385 37.616
H 10.103 54.32500000000001 36.189
H 9.172 56.04500000000001 35.089
H 10.541 57.105 35.221000000000004
H 9.753 57.327000000000005 37.69
H 8.005 55.92 37.837
H 7.232000000000001 56.143 36.41
H 7.039 57.446 37.604
H 8.267 59.217000000000006 37.212
H 8.338 58.772000000000006 35.494
H 11.098 59.257 36.638000000000005
H 10.158000000000001 60.632000000000005 36.784
H 9.692 59.683 34.21
H 11.488 59.70400000000001 34.568
H 9.888 62.02400000000001 35.381
H 10.51 62.803000000000004 32.705
H 8.98 62.220000000000006 33.364
H 10.123 61.156000000000006 32.54
H 12.306 62.364 33.691
H 12.635000000000002 61.56300000000001 35.205
H 12.296 63.41100000000001 36.494
H 10.975 63.931000000000004 35.624
H 12.691 65.525 35.274
H 12.583000000000002 64.816 33.751
H 14.583000000000002 63.4 35.322
H 15.801 66.007 34.902
H 15.999 64.826 36.201
H 14.617000000000003 65.841 36.25500000000001
H 14.379 64.856 32.569
H 14.937000000000001 63.13700000000001 32.99
H 15.912000000000003 64.6 33.221
Mg -2.59 34.017 26.794000000000004
C -3.6200000000000006 32.414 29.773
C -1.153 36.458 28.719
C -2.2060000000000004 35.825 24.046000000000003
C -4.517 31.709 25.002
N -2.5520000000000005 34.47200000000001 29.003
C -2.952 33.593 30.013000000000005
C -2.377 34.057 31.374
C -1.602 35.375 31.007
C -1.716 35.466 29.46
C -1.9140000000000001 36.614 31.828000000000003
C -1.5090000000000001 33.042 32.134
C -1.9890000000000003 32.76400000000001 33.585
C -0.958 32.997 34.667
O 0.23000000000000004 32.67400000000001 34.656000000000006
O -1.4470000000000003 33.677 35.743
N -1.7020000000000002 35.86 26.449
C -1.192 36.749 27.349
C -0.5510000000000002 37.807 26.605000000000004
C -0.9850000000000001 37.71 25.214
C -1.6800000000000002 36.432 25.232
C 0.22600000000000003 39.027 27.325
C -1.036 38.702 24.133
O -1.4060000000000001 38.534 23.006
C -0.576 40.11 24.499
N -3.466 33.878 24.823000000000004
C -3.083 34.73100000000001 23.853000000000005
C -3.5250000000000004 34.222 22.479
C -3.9270000000000005 32.767 22.769
C -3.9450000000000003 32.737 24.281000000000002
C -4.74 35.083 21.901000000000003
C -2.7700000000000005 31.795000000000005 22.205
C -1.443 31.788000000000004 23.012
N -3.752 32.293000000000006 27.191000000000003
C -4.441 31.482 26.372
C -5.055 30.455000000000002 27.170000000000005
C -4.721 30.752000000000002 28.478
C -3.9690000000000003 31.93 28.477
C -5.921000000000001 29.290000000000003 26.73
C -4.97 30.275 29.841
O -5.630000000000001 29.441000000000003 30.394000000000002
C -4.203 31.284 30.736000000000004
C -5.222000000000001 31.862 31.647
O -6.224 32.38 31.222
O -4.941 31.662 32.989
C -6.056 31.947000000000003 33.953
C -0.532 33.967 36.843
C -1.148 34.905 37.927
C -0.49800000000000005 35.682 38.837
C 1.005 35.92 39.103
C -1.4170000000000003 36.45 39.81
C -1.154 36.246 41.313
C -1.252 37.518 42.152
C -0.9570000000000001 37.309 43.654
C -2.264 37.101 44.496
C -0.125 38.52 44.27
C 1.4060000000000001 38.147000000000006 44.234
C 2.057 37.958 45.716
C 2.54 36.521 45.970000000000006
C 2.9970000000000003 36.305 47.453
C 3.775 36.238 45.03900000000001
C 3.468 35.083 44.103
C 3.8470000000000004 35.57000000000001 42.61500000000001
C 5.048 34.843 41.92
C 6.362000000000001 35.175 42.715
C 5.156 35.126 40.381
H -0.526 37.10900000000001 29.332
H -2.0060000000000002 36.32 23.093
H -4.957000000000001 30.834000000000003 24.519000000000002
H -3.2030000000000003 34.376 32.01
H -0.555 35.232 31.275
H -2.846 36.497 32.379
H -1.9520000000000002 37.532 31.241000000000003
H -1.135 36.669 32.588
H -0.4580000000000001 33.284000000000006 32.292
H -1.474 32.091 31.603
H -2.465 31.787 33.668
H -2.7730000000000006 33.485 33.813
H 1.186 39.15100000000001 26.824000000000005
H 0.479 38.885 28.375000000000004
H -0.267 39.997 27.389000000000003
H 0.469 39.967 24.775
H -1.197 40.391000000000005 25.349000000000004
H -0.593 40.824 23.675
H -2.716 34.179 21.749000000000002
H -4.902 32.392 22.457
H -4.665 35.043 20.814
H -4.797000000000001 36.142 22.155
H -5.626000000000001 34.539 22.228
H -2.5310000000000006 31.986000000000004 21.159
H -3.07 30.756 22.342
H -0.61 31.269 22.539
H -1.6390000000000002 31.283 23.958
H -1.179 32.82600000000001 23.217
H -5.416 28.574 26.082
H -6.720000000000001 29.767000000000003 26.163000000000004
H -6.408 28.788 27.566000000000003
H -3.527 30.646000000000004 31.305
H -5.485000000000001 32.486 34.709
H -6.484000000000001 31.045 34.39
H -6.924000000000001 32.524 33.635000000000005
H 0.358 34.454 36.445
H -0.25 33.021 37.305
H -2.233 34.905 37.82600000000001
H 1.252 36.981 39.124
H 1.5180000000000002 35.467 38.255
H 1.3660000000000003 35.32 39.939
H -2.443 36.134 39.62400000000001
H -1.351 37.52000000000001 39.612
H -0.164 35.898 41.607
H -1.94 35.61 41.721
H -2.273 37.892 42.073
H -0.7640000000000001 38.351 41.646
H -0.36 36.413 43.823
H -3.2030000000000003 37.086 43.944
H -2.434 37.799 45.316
H -2.143 36.138 44.992000000000004
H -0.44300000000000006 38.662 45.303
H -0.374 39.444 43.747
H 1.9430000000000003 38.958 43.74300000000001
H 1.6100000000000003 37.256 43.64
H 1.2560000000000002 38.259 46.391
H 2.891 38.616 45.963
H 1.697 35.837 45.87800000000001
H 3.7400000000000007 35.50800000000001 47.47800000000001
H 2.262 35.811 48.089000000000006
H 3.408 37.198 47.924
H 4.565 35.802 45.650000000000006
H 4.198 37.172 44.669
H 2.392 34.925 44.02900000000001
H 3.951 34.144 44.374
H 4.002 36.646 42.541000000000004
H 2.95 35.3 42.058
H 4.875 33.769 41.985
H 6.227 35.987 43.43
H 7.173 35.472 42.04900000000001
H 6.718000000000001 34.282 43.228
H 4.578 34.348 39.882
H 6.179000000000001 35.078 40.00800000000001
H 4.649 36.067 40.168

