280
Bchla 2 -- Bchla 22
Mg 3.1580000000000004 -0.094 44.312
C 5.981 1.967 44.127
C 1.5980000000000003 2.251 42.305
C 0.535 -2.151 44.137
C 5.149 -2.67 45.58500000000001
N 3.8870000000000005 1.897 43.132000000000005
C 5.038 2.565 43.339
C 5.131 3.8610000000000007 42.57000000000001
C 3.59 4.004 42.271
C 2.946 2.644 42.52000000000001
C 2.9550000000000005 5.033000000000001 43.244
C 6.136 3.755 41.416
C 6.21 2.461 40.579
C 6.195 2.644 39.066
O 6.007 3.6830000000000003 38.4
O 6.519 1.434 38.422
N 1.341 0.027000000000000003 43.38
C 0.8660000000000001 1.125 42.713
C -0.598 1.037 42.635
C -0.9510000000000001 -0.318 43.02
C 0.3390000000000001 -0.8550000000000001 43.551
C -1.479 2.108 41.885000000000005
C -2.325 -0.9810000000000001 42.895
O -3.285 -0.34 42.56900000000001
C -2.49 -2.436 43.227000000000004
N 2.984 -2.239 44.619
C 1.7320000000000002 -2.881 44.593
C 1.8030000000000002 -4.396 45.061
C 3.316 -4.491 45.581
C 3.8600000000000003 -3.0190000000000006 45.284000000000006
C 0.7230000000000001 -4.977 46.104
C 4.234 -5.645 44.969
C 5.28 -6.178 46.068
N 5.163000000000001 -0.356 44.84000000000001
C 5.798 -1.431 45.428
C 7.171000000000001 -1.059 45.747
C 7.330000000000001 0.289 45.334
C 6.0840000000000005 0.6530000000000001 44.707
C 8.162 -1.875 46.535000000000004
C 8.239 1.4670000000000003 45.15
O 9.427 1.5780000000000003 45.35600000000001
C 7.352 2.565 44.423
C 7.283 3.7450000000000006 45.353
O 8.218 4.569 45.513000000000005
O 6.001000000000001 3.854 45.872
C 5.729000000000001 5.056000000000001 46.587
C 6.66 1.463 36.98700000000001
C 5.302 1.318 36.431
C 5.078 0.839 35.187
C 6.152000000000001 0.257 34.231
C 3.638 0.679 34.791
C 3.1020000000000003 2.034 34.274
C 2.501 1.746 32.904
C 0.9710000000000001 2.203 32.903000000000006
C 0.118 0.988 33.3
C 0.545 2.7340000000000004 31.509
C -0.641 3.659 31.518
C -1.9110000000000003 3.091 30.741
C -2.1240000000000006 4.095 29.606
C -2.5490000000000004 5.45 30.064
C -3.1570000000000005 3.469 28.691
C -3.2780000000000005 4.168000000000001 27.279
C -2.311 3.556 26.234
C -3.025 2.423 25.43
C -2.372 1.03 25.606000000000005
C -3.0780000000000003 2.687 23.904
H 1.075 3.032 41.749
H -0.29600000000000004 -2.8360000000000003 44.319
H 5.700000000000001 -3.415 46.163
H 5.376000000000001 4.7 43.221
H 3.291 4.312 41.27000000000001
H 1.94 4.68 43.428
H 3.0400000000000005 6.042000000000001 42.84300000000001
H 3.3150000000000004 5.085000000000001 44.272
H 7.120000000000001 3.815 41.88000000000001
H 5.982000000000001 4.608 40.75500000000001
H 5.339 1.846 40.804
H 7.152000000000001 1.9640000000000002 40.809
H -1.4650000000000003 2.038 40.797
H -1.165 3.109 42.181
H -2.5300000000000002 2.1470000000000002 42.169
H -3.476 -2.809 42.94800000000001
H -2.332 -2.656 44.283
H -1.797 -2.902 42.526
H 1.6870000000000003 -4.884 44.09400000000001
H 3.35 -4.606 46.664
H -0.10700000000000001 -5.37 45.518
H 0.379 -4.207 46.794000000000004
H 1.2030000000000003 -5.755 46.69800000000001
H 4.889 -5.253 44.191
H 3.628 -6.445 44.543
H 6.307 -6.009000000000001 45.744
H 5.136000000000001 -7.248000000000001 46.215
H 5.312 -5.697 47.045
H 8.316 -2.821 46.017
H 7.758000000000001 -2.083 47.526
H 9.136 -1.391 46.605
H 7.970000000000001 2.884 43.584
H 4.675000000000001 5.078 46.863
H 6.083 5.93 46.04
H 6.206 5.066000000000001 47.56700000000001
H 7.208000000000001 0.6580000000000001 36.497
H 7.169 2.36 36.633
H 4.481 1.537 37.114
H 7.159 0.587 34.48700000000001
H 5.947 0.594 33.215
H 6.082000000000001 -0.817 34.399
H 3.0800000000000005 0.322 35.657
H 3.654 -0.10200000000000001 34.032
H 3.8880000000000003 2.7890000000000006 34.254
H 2.292 2.3260000000000005 34.942
H 2.4690000000000003 0.695 32.613
H 3.072 2.336 32.187
H 0.708 2.9930000000000003 33.605000000000004
H -0.853 1.132 32.825
H 0.121 1.044 34.388
H 0.469 0.036 32.903000000000006
H 0.332 1.915 30.822000000000003
H 1.341 3.3360000000000003 31.071000000000005
H -0.396 4.636 31.103000000000005
H -0.9350000000000002 3.809 32.556
H -2.78 2.9560000000000004 31.384000000000004
H -1.7400000000000002 2.143 30.231
H -1.152 4.354 29.187000000000005
H -1.7000000000000002 6.127000000000001 29.966000000000005
H -2.999 5.445000000000001 31.057000000000002
H -3.348 5.871 29.454
H -4.121 3.5830000000000006 29.187000000000005
H -3.0000000000000004 2.4 28.547000000000004
H -2.983 5.217 27.325
H -4.301 4.146 26.903000000000002
H -1.4470000000000003 3.1430000000000002 26.754
H -1.8910000000000002 4.318 25.577000000000005
H -4.052 2.27 25.761000000000003
H -3.1960000000000006 0.37200000000000005 25.331000000000003
H -2.13 0.909 26.662
H -1.5310000000000001 0.829 24.942
H -2.599 1.8900000000000001 23.334000000000003
H -2.646 3.649 23.627
H -4.121 2.7350000000000003 23.593000000000004
Mg 9.201 48.63300000000001 24.807000000000002
C 7.006000000000001 48.653000000000006 27.545
C 11.642 49.941 26.665
C 11.050000000000002 48.611000000000004 22.151
C 6.242000000000001 48.219 22.767
N 9.225 49.31100000000001 26.852
C 8.336000000000002 49.092 27.829
C 8.789 49.672 29.144000000000002
C 10.106 50.447 28.737
C 10.361 49.870000000000005 27.358000000000004
C 10.084 52.010000000000005 28.747000000000003
C 9.147 48.495 30.188000000000002
C 8.515 48.705 31.603
C 8.635 47.367 32.515
O 9.543 46.552 32.437
O 7.6160000000000005 47.272 33.46
N 11.098 48.95 24.524000000000004
C 12.008000000000001 49.464000000000006 25.432000000000002
C 13.329000000000002 49.316 24.886
C 13.242000000000003 48.876 23.502000000000002
C 11.752 48.67100000000001 23.337
C 14.548000000000002 49.789 25.729000000000003
C 14.235 48.59100000000001 22.381
O 13.968 48.124 21.259
C 15.645 48.82300000000001 22.795
N 8.623 48.59400000000001 22.783
C 9.671 48.607000000000006 21.896
C 9.166 48.63700000000001 20.453000000000003
C 7.690000000000001 48.19700000000001 20.638
C 7.46 48.399 22.137
C 9.462 50.048 19.806
C 7.338 46.721 20.171
C 5.872000000000001 46.443000000000005 19.802
N 7.050000000000001 48.42700000000001 25.054
C 6.046 48.27100000000001 24.147
C 4.779 48.040000000000006 24.804
C 5.157 48.117000000000004 26.157000000000004
C 6.523 48.415 26.264000000000003
C 3.3590000000000004 47.773 24.254
C 4.636 47.99600000000001 27.490000000000002
O 3.59 47.604 27.937000000000005
C 5.825 48.51800000000001 28.452
C 5.773000000000001 47.514 29.518000000000004
O 6.284000000000001 46.36600000000001 29.55
O 5.03 48.07600000000001 30.487000000000002
C 4.757 47.293000000000006 31.693
C 7.633000000000001 45.983000000000004 34.224
C 8.521 46.019 35.427
C 8.133 46.32000000000001 36.675
C 6.837 47.05 37.108
C 9.004 45.882 37.843
C 9.698 47.088 38.629
C 11.264000000000001 46.891 38.825
C 11.669 46.286 40.178000000000004
C 11.503 47.286 41.307
C 13.074000000000002 45.659 40.24900000000001
C 12.989 44.406 41.174
C 14.237000000000002 44.304 42.176
C 13.775000000000002 43.623000000000005 43.462
C 14.631 42.324 43.746
C 13.768000000000002 44.60900000000001 44.635
C 12.381000000000002 45.016 45.107
C 12.234 46.452 45.684
C 12.147000000000002 46.532 47.24600000000001
C 11.638 47.847 47.7
C 13.596000000000002 46.264 47.898
H 12.472000000000001 50.28300000000001 27.287
H 11.679000000000002 48.528000000000006 21.262000000000004
H 5.399000000000001 48.001000000000005 22.108000000000004
H 8.059 50.306 29.648000000000003
H 11.005 50.19100000000001 29.298000000000002
H 10.135000000000002 52.348 27.712000000000003
H 10.989000000000003 52.301 29.280000000000005
H 9.223 52.518 29.18
H 10.208000000000002 48.275000000000006 30.312
H 8.827 47.566 29.716000000000005
H 7.46 48.964 31.516000000000002
H 9.004 49.456 32.223
H 14.89 48.94400000000001 26.325000000000003
H 14.281000000000002 50.458 26.548
H 15.303000000000003 50.38600000000001 25.218000000000004
H 15.985 48.19800000000001 23.62
H 15.64 49.89000000000001 23.021
H 16.365 48.703 21.985
H 9.759 47.888000000000005 19.928
H 7.047 48.839000000000006 20.036
H 8.538 50.617000000000004 19.704
H 9.907 50.08500000000001 18.812
H 10.061 50.742000000000004 20.396
H 7.494000000000001 46.141 21.081
H 7.929 46.293 19.361
H 5.399000000000001 45.746 20.495
H 5.638 46.051 18.812
H 5.349 47.381 19.983
H 3.3430000000000004 48.211000000000006 23.256
H 2.599 48.226000000000006 24.892000000000003
H 3.2580000000000005 46.69 24.184
H 5.551 49.482 28.881
H 5.304000000000001 47.73800000000001 32.524
H 4.921 46.227000000000004 31.539
H 3.71 47.436 31.96
H 7.996 45.195 33.564
H 6.685 45.57300000000001 34.574
H 9.382 45.357 35.34100000000001
H 7.126000000000001 47.882 37.75
H 6.209 46.321000000000005 37.619
H 6.390000000000001 47.442 36.194
H 9.664 45.128 37.415000000000006
H 8.399 45.251000000000005 38.493
H 9.238 47.263000000000005 39.602
H 9.496 48.02900000000001 38.117000000000004
H 11.653 47.906000000000006 38.739
H 11.604 46.21200000000001 38.043
H 10.913000000000002 45.52300000000001 40.361000000000004
H 10.535 47.24 41.806
H 11.724 48.291000000000004 40.948
H 12.245 47.11200000000001 42.086
H 13.718000000000002 46.30500000000001 40.84400000000001
H 13.609 45.48100000000001 39.316
H 12.978000000000002 43.57 40.475
H 12.103000000000002 44.41 41.81
H 14.773 45.239000000000004 42.336
H 15.023 43.671 41.766
H 12.754000000000001 43.28 43.297
H 15.551000000000002 42.239 43.167
H 14.033 41.419 43.643
H 14.857 42.274 44.81100000000001
H 14.488000000000001 45.416 44.498
H 14.128 44.162 45.562
H 12.153 44.382000000000005 45.964
H 11.612 44.67100000000001 44.416000000000004
H 11.297 46.882000000000005 45.32900000000001
H 13.005000000000003 47.01700000000001 45.16100000000001
H 11.488 45.724000000000004 47.564
H 10.79 47.702 48.369
H 11.144 48.45300000000001 46.941
H 12.428 48.33 48.276
H 13.923000000000002 45.224000000000004 47.922000000000004
H 13.673000000000002 46.658 48.91100000000001
H 14.271000000000003 46.732000000000006 47.182

