280
Bchla 17 -- Bchla 26
Mg 29.464000000000002 59.145 41.038
C 26.578 57.38900000000001 40.289
C 31.349 56.531000000000006 39.782
C 32.15 61.189 41.086
C 27.354000000000003 61.82000000000001 41.949
N 28.992000000000004 57.292 39.871
C 27.772000000000002 56.748000000000005 39.893
C 27.779000000000003 55.38900000000001 39.127
C 29.329 54.99700000000001 39.218
C 29.967000000000002 56.344 39.732
C 29.581 53.727000000000004 40.066
C 27.374000000000002 55.594 37.685
C 26.460000000000004 54.527 37.103
C 26.578 54.02100000000001 35.616
O 26.517 52.865 35.253
O 26.748000000000005 55.106 34.848
N 31.533 58.788 40.650000000000006
C 32.11 57.714 40.08400000000001
C 33.515 57.958 40.033
C 33.806 59.24700000000001 40.574000000000005
C 32.479 59.816 40.84
C 34.477 56.891 39.661
C 35.162 59.858000000000004 40.593
O 36.13 59.214 40.224000000000004
C 35.397 61.264 41.132
N 29.713 61.282 41.565000000000005
C 30.944000000000003 61.846 41.414
C 30.859000000000005 63.33400000000001 41.52
C 29.292 63.522 41.793000000000006
C 28.699000000000005 62.136 41.849
C 31.799 63.962 42.566
C 28.518000000000004 64.48 40.783
C 27.642000000000003 65.63900000000001 41.314
N 27.437000000000005 59.547 41.14
C 26.744000000000003 60.627 41.589
C 25.412 60.28 41.819
C 25.254000000000005 58.98400000000001 41.348
C 26.489000000000004 58.611000000000004 40.88
C 24.327000000000005 61.25500000000001 42.363
C 24.372000000000003 57.928 41.168000000000006
O 23.159 57.918000000000006 41.346
C 25.149000000000004 56.755 40.397
C 25.258000000000003 55.582 41.187
O 25.993 55.31600000000001 42.141000000000005
O 24.334000000000003 54.682 40.665000000000006
C 24.175000000000004 53.35900000000001 41.24400000000001
C 27.286 54.743 33.541
C 27.201000000000004 55.98 32.679
C 27.487 56.09100000000001 31.367000000000004
C 27.642000000000003 54.99700000000001 30.343
C 27.831000000000003 57.414 30.802
C 29.234000000000005 57.897 31.172000000000004
C 29.900000000000002 58.63 29.951000000000004
C 31.150000000000002 57.87500000000001 29.42
C 30.909 57.732 27.875
C 32.502 58.702000000000005 29.749
C 33.738 57.79600000000001 29.593000000000004
C 34.432 57.44 30.908
C 34.689 55.910000000000004 31.158
C 33.435 55.077 31.692
C 35.909 55.83400000000001 32.119
C 36.959 54.842000000000006 31.612000000000002
C 37.604 55.366 30.299
C 37.293000000000006 54.33800000000001 29.090000000000003
C 38.425 53.265 28.914000000000005
C 37.182 55.138 27.798
H 31.952 55.655 39.535
H 32.919 61.96200000000001 41.153000000000006
H 26.805000000000003 62.682 42.334
H 27.083 54.71900000000001 39.631
H 29.817 54.888000000000005 38.25
H 28.669000000000004 53.37400000000001 40.547
H 30.340000000000003 53.938 40.82
H 30.006000000000004 52.972 39.405
H 28.168000000000003 55.748 36.954
H 26.927000000000003 56.588 37.67
H 25.440000000000005 54.851 37.309
H 26.664 53.691 37.772
H 34.813 56.525 40.631
H 35.297 57.28300000000001 39.059
H 34.022 56.083 39.088
H 35.106 61.939 40.327
H 36.479 61.373 41.202
H 34.844 61.421 42.058
H 31.143 63.61000000000001 40.505
H 29.109 64.048 42.73
H 32.596 64.443 41.998
H 32.191 63.234 43.277
H 31.269 64.751 43.099
H 27.851 63.867000000000004 40.17700000000001
H 29.188000000000002 65.018 40.11200000000001
H 26.690000000000005 65.116 41.404
H 27.544000000000004 66.417 40.55800000000001
H 27.779000000000003 66.009 42.33
H 24.062 61.952 41.569
H 24.634 61.907 43.181000000000004
H 23.429 60.71200000000001 42.659000000000006
H 24.616000000000003 56.618 39.456
H 23.133 53.074000000000005 41.102
H 24.529 53.25500000000001 42.27
H 24.724000000000004 52.659000000000006 40.614
H 26.795000000000005 53.95600000000001 32.968
H 28.339 54.461000000000006 33.557
H 27.135 56.889 33.277
H 26.695 54.931 29.806000000000004
H 27.834000000000003 54.05100000000001 30.849000000000004
H 28.427000000000003 55.144000000000005 29.601000000000003
H 27.097 58.161 31.103000000000005
H 27.693000000000005 57.369 29.722000000000005
H 29.805 57.063 31.582000000000004
H 29.259000000000004 58.57300000000001 32.027
H 30.19 59.606 30.340000000000003
H 29.212000000000003 58.907 29.152000000000005
H 31.139000000000003 56.854000000000006 29.800000000000004
H 29.965000000000003 57.196 27.771000000000004
H 31.776 57.213 27.468000000000004
H 30.822000000000003 58.727000000000004 27.439
H 32.362 59.035000000000004 30.777
H 32.544 59.535 29.047
H 34.437 58.43 29.049
H 33.49600000000001 56.867000000000004 29.077
H 33.738 57.685 31.712000000000003
H 35.243 58.15200000000001 31.06
H 34.932 55.43600000000001 30.208
H 33.758 54.374 32.46000000000001
H 32.928 54.621 30.842
H 32.758 55.736 32.235
H 35.486 55.470000000000006 33.056
H 36.541 56.702000000000005 32.306
H 36.673 53.790000000000006 31.572
H 37.827 54.90500000000001 32.268
H 38.688 55.432 30.396
H 37.33 56.375 29.993
H 36.322 53.851000000000006 29.182000000000002
H 39.065 53.293 29.796
H 39.059 53.357 28.033
H 37.980000000000004 52.28000000000001 28.779000000000003
H 36.111 55.29600000000001 27.675
H 37.555 54.538000000000004 26.968
H 37.607 56.13300000000001 27.929
Mg -9.126 18.730000000000004 43.07000000000001
C -5.623 18.445 42.867
C -8.711 22.083 42.24600000000001
C -12.431000000000001 19.033 42.793
C -9.303 15.266000000000002 42.957
N -7.320000000000001 20.025 42.453
C -5.9670000000000005 19.766 42.55400000000001
C -5.07 20.986000000000004 42.549
C -6.066000000000001 22.157 42.373000000000005
C -7.448000000000001 21.426 42.335
C -5.986000000000001 23.258000000000003 43.507
C -3.936 21.031 41.43
C -4.226 20.351 40.08200000000001
C -4.566 21.252 38.858
O -4.983 22.394 38.902
O -4.154 20.569000000000003 37.738
N -10.362 20.306 42.605
C -10.015 21.604 42.359
C -11.224 22.428000000000004 42.220000000000006
C -12.336 21.546 42.382
C -11.711 20.205 42.598
C -11.197 23.932 41.97500000000001
C -13.794000000000002 22.107 42.18800000000001
O -13.918 23.281 41.86800000000001
C -15.046 21.141000000000002 42.316
N -10.602 17.364 42.777
C -11.949000000000002 17.711 42.852
C -12.887000000000002 16.376 42.87100000000001
C -11.752 15.220000000000002 42.763
C -10.485 16.009 42.845000000000006
C -13.77 16.281 44.15
C -11.807 14.336000000000002 41.444
C -11.819000000000003 12.805 41.574
N -7.7620000000000005 17.118 43.062
C -7.944 15.760000000000002 43.004
C -6.617000000000001 15.110000000000001 42.96500000000001
C -5.679 16.175 43.031
C -6.456 17.367 43.038
C -6.315 13.641000000000002 42.857
C -4.231 16.453 42.988
O -3.231 15.722000000000001 43.038
C -4.164 17.97 43.083
C -3.5420000000000003 18.424 44.281
O -4.154 18.455 45.38
O -2.218 18.846 44.04800000000001
C -1.496 19.491 45.14
C -4.399 21.306000000000004 36.473
C -5.725 20.955 35.967
C -6.1370000000000005 19.839 35.287
C -5.182000000000001 18.625 34.982
C -7.544 19.696 34.631
C -8.371 18.342 34.658
C -9.373000000000001 18.281 33.396
C -10.574000000000002 19.305 33.518
C -12.010000000000002 18.792 33.242
C -10.234000000000002 20.449 32.52000000000001
C -10.952 21.722 32.66
C -10.067000000000002 23.01 32.543
C -10.386 24.031000000000002 31.351
C -9.902 25.492000000000004 31.781000000000002
C -9.853000000000002 23.521 29.945000000000004
C -10.927 23.089 28.928000000000004
C -10.649 23.747000000000003 27.590000000000003
C -11.247 22.823 26.473
C -10.677000000000001 23.281 25.195000000000004
C -12.813 23.069000000000003 26.424000000000003
H -8.639 23.169 42.161
H -13.517000000000001 19.116 42.866
H -9.445 14.184000000000001 42.983000000000004
H -4.615 20.947 43.538
H -5.923 22.509 41.352000000000004
H -5.582000000000001 24.18 43.089000000000006
H -5.326 22.85 44.27300000000001
H -6.972 23.481 43.916
H -3.1410000000000005 20.464 41.916000000000004
H -3.607 22.062000000000005 41.298
H -5.037000000000001 19.629000000000005 40.183
H -3.369 19.729 39.827
H -11.415 24.232 40.95
H -10.312 24.386000000000003 42.421
H -11.944 24.436 42.588
H -14.909 20.569000000000003 43.234
H -15.05 20.497 41.437
H -16.006 21.639 42.18
H -13.597000000000001 16.501 42.054
H -11.833 14.613 43.665000000000006
H -13.233 15.665 44.87100000000001
H -14.782000000000002 15.934 43.94100000000001
H -13.987 17.243 44.614000000000004
H -10.98 14.667000000000002 40.815
H -12.761 14.648000000000001 41.019
H -11.511 12.313 40.651
H -12.866 12.602000000000002 41.798
H -11.126000000000001 12.603 42.391
H -7.190000000000001 13.229 42.355000000000004
H -6.334 13.325 43.9
H -5.341 13.395000000000001 42.43300000000001
H -3.567 18.212000000000003 42.20400000000001
H -1.2760000000000002 18.888 46.021
H -2.039 20.376000000000005 45.473
H -0.613 19.949000000000005 44.694
H -3.676 21.036 35.703
H -4.307 22.369 36.695
H -6.495000000000001 21.722 36.05800000000001
H -5.377 17.629 35.38
H -4.238 18.924 35.438
H -5.161 18.589 33.893
H -7.388 20.052 33.613
H -8.198 20.459 35.05200000000001
H -8.936 18.469 35.581
H -7.766000000000001 17.435000000000002 34.655
H -9.842 17.3 33.317
H -8.822 18.333 32.457
H -10.601 19.869 34.451
H -12.414000000000001 19.139 32.291
H -12.603 19.111000000000004 34.099
H -12.128 17.728 33.037
H -10.602 19.957 31.619
H -9.147 20.535 32.495
H -11.314 21.746 33.688
H -11.71 21.831 31.884
H -9.041 22.649000000000004 32.464
H -10.156 23.53 33.497
H -11.451 24.201 31.196
H -9.277 25.944000000000003 31.010000000000005
H -9.433 25.501000000000005 32.765
H -10.762 26.111000000000004 32.037
H -9.307 22.588000000000005 30.088000000000005
H -9.114 24.234000000000005 29.577000000000005
H -11.878 23.463 29.306
H -11.043000000000001 22.006 28.975000000000005
H -9.564 23.803 27.501
H -11.018 24.755000000000003 27.407000000000004
H -11.044 21.759 26.592000000000002
H -10.832 24.356000000000005 25.097000000000005
H -11.183 22.865 24.324000000000005
H -9.607 23.08 25.141
H -13.052000000000001 23.493 27.399000000000004
H -13.38 22.146000000000004 26.302000000000003
H -13.14 23.826 25.711

