280
Bchla 1 -- Bchla 23
Mg -1.968 16.991 27.078000000000003
C -2.1850000000000005 14.773 29.879
C -3.2230000000000003 19.433 29.104
C -2.213 18.841 24.514
C -1.8220000000000003 14.167000000000002 25.041000000000004
N -2.585 16.982 29.204000000000004
C -2.562 16.083 30.183
C -2.904 16.682 31.58
C -3.7410000000000005 17.955 31.110000000000003
C -3.123 18.159 29.738000000000003
C -5.231 17.676 30.941000000000003
C -1.623 17.101 32.377
C -1.844 17.388000000000005 33.865
C -0.8000000000000002 17.024 34.811
O 0.398 16.855000000000004 34.599
O -1.38 16.867 36.028000000000006
N -2.153 18.952 26.926000000000002
C -2.6710000000000003 19.791 27.855000000000004
C -2.588 21.147 27.271
C -2.155 21.006 25.853
C -2.182 19.574 25.698000000000004
C -2.8550000000000004 22.397 28.052
C -1.787 22.004 24.801000000000002
O -1.665 21.681000000000004 23.57
C -1.658 23.405 25.241000000000003
N -2.233 16.578 25.049
C -2.247 17.56 24.141
C -2.1640000000000006 17.015 22.746
C -1.844 15.458 22.898
C -1.8820000000000001 15.359 24.443
C -3.4190000000000005 17.196 21.881
C -0.595 14.921 22.155
C 0.6580000000000001 15.501000000000001 22.772000000000002
N -1.818 14.847000000000001 27.381
C -1.795 13.855000000000002 26.39
C -1.795 12.553 27.082
C -1.835 12.880000000000003 28.436000000000003
C -1.885 14.296 28.580000000000002
C -1.819 11.276 26.455000000000002
C -1.8720000000000003 12.362000000000002 29.794
O -1.7600000000000002 11.244 30.299
C -2.223 13.563 30.779
C -1.251 13.509000000000002 31.926000000000002
O -0.037000000000000005 13.736 31.747
O -1.9300000000000002 13.435000000000002 33.081
C -1.025 13.408 34.261
C -0.516 16.468 37.138
C -0.5310000000000001 17.387 38.262
C -0.454 17.127 39.59
C -0.378 15.838000000000001 40.321
C -0.7230000000000001 18.255 40.576
C 0.451 18.789 41.50200000000001
C 1.21 20.031 40.87
C 1.469 21.168 41.94200000000001
C 0.066 21.921 42.199
C 2.7560000000000002 22.039000000000005 41.67000000000001
C 3.2430000000000003 22.867 42.872
C 4.766 22.908000000000005 42.988
C 5.267 23.085 44.478
C 6.800000000000001 23.421 44.531
C 4.85 21.941000000000003 45.489
C 3.95 22.297000000000004 46.696
C 2.527 21.696000000000005 46.703
C 1.4260000000000002 22.715 47.155
C 0.033 22.091 47.443
C 1.232 23.982 46.288
H -3.8270000000000004 20.211000000000002 29.575
H -2.186 19.444 23.604
H -1.6920000000000002 13.244 24.473000000000003
H -3.5220000000000002 16.042 32.21
H -3.553 18.822000000000003 31.743000000000002
H -5.452 16.614 31.047000000000004
H -5.479000000000001 18.018 29.936000000000003
H -5.82 18.292 31.621000000000002
H -1.299 18.087 32.044
H -0.838 16.352000000000004 32.267
H -2.8120000000000003 17.017 34.203
H -1.906 18.468 33.99900000000001
H -3.312 22.177000000000003 29.016000000000002
H -3.6190000000000007 22.954000000000004 27.510000000000005
H -1.9610000000000003 23.011 28.162000000000003
H -2.603 23.735 25.673
H -1.303 23.961000000000002 24.374000000000002
H -0.9200000000000002 23.457000000000004 26.042000000000005
H -1.36 17.492 22.187
H -2.66 14.835000000000003 22.531
H -3.2350000000000003 17.731 20.949000000000005
H -4.172000000000001 17.705 22.482000000000003
H -3.935 16.271 21.625
H -0.6120000000000001 15.232000000000001 21.111
H -0.516 13.834 22.176000000000002
H 0.746 16.469 22.28
H 1.5190000000000001 14.870000000000001 22.549
H 0.527 15.688000000000002 23.838000000000005
H -1.101 10.658000000000001 26.994000000000003
H -1.564 11.349 25.398
H -2.859 10.992 26.615000000000002
H -3.251 13.410000000000002 31.106
H -1.27 12.513000000000002 34.833
H -1.135 14.372 34.758
H 0.032 13.237000000000002 34.054
H 0.552 16.428000000000004 36.922
H -0.907 15.476 37.361
H -1.044 18.319000000000003 38.02300000000001
H -0.543 14.989 39.658
H -1.182 15.731000000000002 41.05
H 0.581 15.668 40.812
H -1.499 17.903 41.256
H -1.227 19.095 40.09700000000001
H 1.292 18.096 41.508
H 0.091 19.058 42.49400000000001
H 0.62 20.446000000000005 40.053
H 2.115 19.576 40.468
H 1.778 20.639 42.84300000000001
H 0.034 22.9 41.721
H -0.263 21.889 43.23700000000001
H -0.6930000000000001 21.476000000000003 41.556
H 2.393 22.719 40.9
H 3.556 21.429000000000002 41.25
H 2.826 22.458 43.793
H 2.891 23.896 42.79800000000001
H 5.207000000000001 23.572000000000003 42.244
H 5.175 21.964000000000002 42.62700000000001
H 4.875 24.075000000000003 44.715
H 7.330000000000001 22.497000000000003 44.3
H 7.166000000000001 23.617000000000004 45.539
H 7.126000000000001 24.262 43.92
H 5.8260000000000005 21.689000000000004 45.90400000000001
H 4.491 21.05 44.973
H 3.897 23.383 46.781
H 4.392 21.943 47.62700000000001
H 2.5140000000000002 20.877 47.422
H 2.203 21.325 45.731
H 1.7820000000000003 22.975 48.15100000000001
H -0.337 22.156 48.46600000000001
H 0.258 21.029 47.348
H -0.654 22.475 46.688
H 1.826 23.915000000000003 45.376000000000005
H 1.8130000000000002 24.727 46.832
H 0.23400000000000004 24.277 45.96
Mg -9.051 41.135000000000005 42.305
C -8.305 37.722 41.48700000000001
C -6.395 41.95900000000001 40.063
C -10.135000000000002 44.306 42.063
C -11.946000000000002 40.073 43.784
N -7.597 39.954 40.945
C -7.463000000000001 38.604 40.8
C -6.307 38.235 39.806
C -5.513 39.626000000000005 39.732
C -6.6000000000000005 40.578 40.205
C -4.304 39.713 40.635000000000005
C -6.799 37.608 38.512
C -6.032000000000001 36.37 37.979
C -4.965 36.511 36.796
O -3.9040000000000004 37.125 36.87
O -5.458 35.835 35.714
N -8.298000000000002 42.98100000000001 41.27000000000001
C -7.133000000000001 43.08 40.48100000000001
C -6.947000000000001 44.483 40.091
C -8.039000000000001 45.194 40.728
C -8.91 44.191 41.30200000000001
C -5.896 45.033 39.202
C -8.191000000000003 46.694 40.765
O -7.269000000000001 47.37100000000001 40.369
C -9.416 47.416 41.277
N -10.805 41.95700000000001 42.741
C -10.936000000000002 43.342 42.69200000000001
C -12.323000000000002 43.689 43.238
C -12.785000000000002 42.375 43.968
C -11.75 41.407 43.503
C -12.482 45.006 44.083
C -14.257 41.901 43.766
C -15.093 41.673 44.983
N -9.921 39.324 42.71
C -11.083 39.021 43.398
C -11.161000000000001 37.575 43.68200000000001
C -10.088 37.044 42.866
C -9.417 38.142 42.319
C -12.147000000000002 36.798 44.514
C -9.423 35.768 42.469
O -9.726 34.63 42.68900000000001
C -8.338 36.191 41.48400000000001
C -7.035 35.63000000000001 41.97
O -6.575000000000001 36.04 43.014
O -6.383000000000001 34.711 41.094
C -4.994 34.30500000000001 41.467
C -4.634 36.03 34.58
C -5.307 35.735 33.249
C -6.099000000000001 36.549 32.508
C -6.121 38.040000000000006 32.81
C -6.61 36.072 31.219
C -5.681000000000001 35.691 30.071000000000005
C -6.066000000000001 36.322 28.771000000000004
C -5.458 37.781000000000006 28.507
C -4.608 37.654 27.230000000000004
C -6.644000000000001 38.772000000000006 28.415
C -6.142000000000001 40.209 28.531
C -6.707000000000001 40.993 29.689
C -6.083 42.345 30.143000000000004
C -6.054 42.695 31.636000000000003
C -6.688000000000001 43.522 29.3
C -5.631 44.373 28.618000000000002
C -5.931000000000001 44.76 27.136
C -5.8340000000000005 46.278 26.931000000000004
C -6.247 46.796 25.524000000000004
C -4.347000000000001 46.79200000000001 27.217000000000002
H -5.558 42.253 39.426
H -10.616000000000001 45.285000000000004 42.096000000000004
H -12.779 39.789 44.43000000000001
H -5.573 37.574 40.266000000000005
H -5.285000000000001 39.900000000000006 38.702
H -4.645 39.948 41.643
H -3.6390000000000002 40.46300000000001 40.20700000000001
H -3.691 38.823 40.781
H -6.689 38.376000000000005 37.747
H -7.878 37.478 38.595
H -6.835 35.708 37.654
H -5.4830000000000005 35.835 38.754
H -5.125000000000001 45.43600000000001 39.858
H -6.291000000000001 45.90400000000001 38.679
H -5.425 44.400000000000006 38.449
H -9.416 48.49600000000001 41.131
H -9.437 47.225 42.35
H -10.403 47.092 40.949
H -12.862 43.925 42.32
H -12.529000000000002 42.468 45.02300000000001
H -11.517 45.332 44.47200000000001
H -13.223000000000003 44.867 44.870000000000005
H -12.904 45.79900000000001 43.46600000000001
H -14.251000000000001 40.982 43.18000000000001
H -14.729000000000001 42.611 43.08700000000001
H -15.224000000000002 40.601 45.129000000000005
H -16.08 42.111000000000004 44.835
H -14.721000000000002 42.061 45.931
H -11.731 35.838 44.819
H -13.036000000000001 36.669 43.89600000000001
H -12.463 37.438 45.338
H -8.66 35.877 40.491
H -5.042 33.547 42.24900000000001
H -4.445 35.144000000000005 41.894
H -4.449 33.944 40.595
H -3.796 35.334 34.602
H -4.211 37.029 34.469
H -5.309 34.769 32.745
H -7.080000000000001 38.040000000000006 33.32900000000001
H -6.199 38.534 31.841000000000005
H -5.254 38.383 33.37400000000001
H -7.3260000000000005 36.763 30.775000000000002
H -7.165 35.161 31.446000000000005
H -5.5920000000000005 34.621 29.888000000000005
H -4.708 36.024 30.432000000000002
H -7.152000000000001 36.366 28.697
H -5.700000000000001 35.614 28.028
H -4.703 38.018 29.256
H -3.7200000000000006 38.263 27.400000000000002
H -5.122 38.264 26.487
H -4.246 36.689 26.875
H -7.351000000000001 38.456 29.183000000000003
H -7.053000000000001 38.733 27.405000000000005
H -6.3580000000000005 40.726000000000006 27.596000000000004
H -5.054 40.186 28.602000000000004
H -6.858 40.358000000000004 30.562000000000005
H -7.71 41.278 29.371000000000002
H -5.019 42.195 29.957
H -6.792 43.444 31.922
H -5.133 43.22200000000001 31.883
H -6.097000000000001 41.77300000000001 32.217
H -7.379 44.04800000000001 29.959000000000003
H -7.364000000000001 43.11 28.551000000000002
H -4.675000000000001 43.869 28.761000000000003
H -5.484 45.271 29.217
H -6.948 44.532 26.817
H -5.204 44.27300000000001 26.486
H -6.481 46.793000000000006 27.641
H -6.957 47.617000000000004 25.625
H -6.864 46.098 24.959000000000003
H -5.390000000000001 46.996 24.881
H -3.695 45.92100000000001 27.165
H -4.344 47.17100000000001 28.239
H -4.026 47.56900000000001 26.523000000000003

