280
Bchla 19 -- Bchla 20
Mg 26.065000000000005 50.95300000000001 26.706000000000003
C 23.951 52.215 29.088
C 28.121000000000002 49.839 29.1
C 28.157 49.986 24.246
C 24.066000000000003 52.636 24.178
N 26.141000000000002 51.278000000000006 28.897
C 25.135000000000005 51.71 29.667
C 25.495 51.528 31.230000000000004
C 26.854 50.74300000000001 31.104000000000003
C 27.116000000000003 50.625 29.589
C 28.001000000000005 51.35300000000001 31.933000000000003
C 24.408 50.766 32.04
C 24.787 50.214 33.453
C 24.268 51.007 34.712
O 23.719 52.11 34.698
O 24.641000000000002 50.306 35.88
N 27.93 50.07200000000001 26.682000000000002
C 28.561 49.60000000000001 27.737
C 29.781 48.943000000000005 27.293000000000003
C 29.903 49.05100000000001 25.875000000000004
C 28.628 49.72200000000001 25.539000000000005
C 30.861 48.38000000000001 28.202
C 31.037 48.646 24.939
O 31.095000000000002 49.077 23.791000000000004
C 32.084 47.716 25.444
N 26.12 51.313 24.517000000000003
C 27.055000000000003 50.765 23.75
C 26.752000000000002 50.943000000000005 22.253000000000004
C 25.369 51.586 22.316
C 25.2 51.889 23.758
C 27.773000000000003 51.706 21.396
C 24.299 50.82000000000001 21.58
C 23.638000000000005 51.55200000000001 20.358
N 24.377 52.102000000000004 26.606000000000005
C 23.616 52.655 25.522
C 22.390000000000004 53.257000000000005 25.998
C 22.524 53.063 27.401
C 23.716000000000005 52.38900000000001 27.695000000000004
C 21.202 53.785 25.274
C 21.720000000000002 53.18300000000001 28.591
O 20.533 53.46900000000001 28.808000000000003
C 22.59 52.785000000000004 29.757
C 22.959 54.06 30.547000000000004
O 23.296 55.163000000000004 30.090000000000003
O 22.859 53.764 31.874000000000002
C 23.135000000000005 54.861000000000004 32.855
C 24.213000000000005 51.092000000000006 37.008
C 24.358000000000004 50.357 38.372
C 25.489 50.32600000000001 39.147
C 26.819000000000003 50.83 38.775
C 25.372000000000003 49.44400000000001 40.37100000000001
C 25.554000000000002 47.93500000000001 39.982
C 26.947000000000003 47.28000000000001 40.486
C 26.801 46.108000000000004 41.519000000000005
C 26.799 44.76100000000001 40.68000000000001
C 25.539000000000005 46.252 42.443
C 25.622000000000003 45.723 43.914
C 25.32 46.732000000000006 45.14500000000001
C 26.597000000000005 47.33 45.901
C 26.665 47.038000000000004 47.405
C 26.805000000000003 48.827 45.55500000000001
C 27.300000000000004 49.013 44.098
C 28.364000000000004 50.123 43.871
C 27.962000000000003 51.542 44.435
C 26.926000000000002 52.29900000000001 43.625
C 29.211 52.393 44.631
H 28.807000000000002 49.32300000000001 29.775
H 28.858 49.892 23.414
H 23.446 52.99600000000001 23.355
H 25.654000000000003 52.548 31.578
H 26.675000000000004 49.724000000000004 31.447000000000003
H 28.522 50.52300000000001 32.409
H 27.63 51.99000000000001 32.736000000000004
H 28.681 51.921 31.298
H 24.236000000000004 49.845000000000006 31.483000000000004
H 23.534000000000002 51.402 32.18
H 25.869 50.31100000000001 33.548
H 24.402000000000005 49.199 33.545
H 30.596 48.495 29.253
H 31.799 48.905 28.023000000000003
H 31.042000000000005 47.32300000000001 28.011
H 31.535000000000004 46.89 25.897000000000002
H 32.836 48.009 26.176
H 32.723 47.329 24.651
H 26.668000000000003 49.949000000000005 21.815
H 25.436 52.54200000000001 21.797
H 27.79 51.15500000000001 20.456
H 28.731000000000005 51.77600000000001 21.911
H 27.545 52.763 21.259
H 23.5 50.72800000000001 22.315
H 24.633000000000003 49.85300000000001 21.205
H 24.061000000000003 52.551 20.249000000000002
H 22.576 51.657000000000004 20.582
H 23.656000000000002 51.00200000000001 19.417
H 21.273 53.547000000000004 24.213000000000005
H 21.298 54.869 25.324000000000005
H 20.348000000000003 53.311 25.760000000000005
H 21.961 52.11200000000001 30.340000000000003
H 24.035000000000004 55.444 32.658
H 23.152000000000005 54.540000000000006 33.896
H 22.32 55.57300000000001 32.726
H 23.164 51.370000000000005 36.904
H 24.735 52.04900000000001 36.991
H 23.435000000000002 50.003 38.831
H 26.934000000000005 50.83200000000001 37.691
H 27.435000000000002 50.019 39.163
H 27.154000000000003 51.742 39.269
H 24.409 49.542 40.872
H 26.109000000000005 49.675000000000004 41.141
H 25.546000000000003 47.88600000000001 38.893
H 24.631000000000004 47.434000000000005 40.274
H 27.574000000000005 48.018 40.986000000000004
H 27.513000000000005 46.935 39.621
H 27.663000000000004 46.207 42.179
H 27.840000000000003 44.53 40.454
H 26.335 44.86 39.699
H 26.338000000000005 44.035000000000004 41.349000000000004
H 24.71 45.665000000000006 42.047
H 25.245 47.29600000000001 42.55400000000001
H 26.594 45.278 44.129
H 24.945000000000004 44.870000000000005 43.952
H 24.594000000000005 46.364000000000004 45.87
H 24.867000000000004 47.651 44.773
H 27.498000000000005 46.864 45.502
H 26.505000000000003 47.96600000000001 47.955
H 27.673000000000002 46.681 47.61600000000001
H 25.948 46.264 47.67700000000001
H 27.542000000000005 49.20400000000001 46.264
H 25.854 49.33800000000001 45.704
H 26.411 49.34000000000001 43.559
H 27.643000000000004 48.07300000000001 43.666
H 28.532000000000004 50.217 42.79900000000001
H 29.274000000000004 49.78300000000001 44.36500000000001
H 27.622 51.463 45.467000000000006
H 27.403 52.895 42.847
H 26.347000000000005 52.897 44.329
H 26.228 51.541 43.269000000000005
H 28.882000000000005 53.376000000000005 44.293000000000006
H 30.052000000000003 51.935 44.111000000000004
H 29.556000000000004 52.321 45.663
Mg 7.142 57.546 41.51700000000001
C 6.289 54.207 41.287000000000006
C 10.288000000000002 56.721000000000004 40.38900000000001
C 7.812000000000001 60.897000000000006 41.169000000000004
C 3.941 58.30400000000001 42.532
N 8.100000000000001 55.732 40.72500000000001
C 7.55 54.468 40.808
C 8.519000000000002 53.39300000000001 40.323
C 9.885 54.17400000000001 40.37
C 9.397 55.613 40.452000000000005
C 10.941 53.738 41.48400000000001
C 8.181 52.71900000000001 38.955
C 8.311 51.211 38.915
C 9.481 50.75900000000001 38.05500000000001
O 10.648 50.52900000000001 38.453
O 9.037000000000003 50.31100000000001 36.89500000000001
N 8.804 58.605000000000004 40.858
C 9.982 58.102000000000004 40.472
C 10.932000000000002 59.166 40.197
C 10.335 60.402 40.381
C 8.908000000000001 60.029 40.772000000000006
C 12.414000000000001 58.88100000000001 39.658
C 11.019000000000002 61.80700000000001 40.278
O 12.226 61.867000000000004 39.909
C 10.280000000000001 63.06100000000001 40.55
N 5.929000000000001 59.423 41.581
C 6.46 60.624 41.577
C 5.532 61.679 42.14200000000001
C 4.204 60.944 42.529
C 4.7 59.439 42.284
C 6.082000000000001 62.754000000000005 43.13300000000001
C 2.881 61.248000000000005 41.768
C 1.6480000000000001 60.788000000000004 42.518
N 5.413 56.462 41.842
C 4.167 56.89800000000001 42.349
C 3.349 55.736 42.566
C 4.139 54.62 42.197
C 5.339 55.156 41.738
C 2.016 55.69 43.298
C 4.117 53.24300000000001 42.147
O 3.288 52.392 42.322
C 5.501 52.882 41.394000000000005
C 5.071 52.591 39.957
O 4.832 53.425000000000004 39.105
O 4.992 51.21300000000001 39.836
C 4.488000000000001 50.71300000000001 38.561
C 9.964 49.732 35.89
C 10.131 50.617000000000004 34.63
C 9.174 51.34700000000001 33.923
C 7.654000000000001 51.418 34.234
C 9.613 52.108 32.66
C 9.96 53.577000000000005 32.958
C 9.377 54.492000000000004 31.891
C 10.284000000000002 55.765 31.814
C 9.312000000000001 56.923 31.358
C 11.555 55.538 30.907
C 12.754000000000001 56.423 31.28
C 12.845000000000002 57.662000000000006 30.334000000000003
C 14.166 57.639 29.473000000000003
C 15.281000000000002 58.509 30.013000000000005
C 13.754 57.99900000000001 28.019
C 14.952000000000002 57.589000000000006 27.052
C 15.103 58.76100000000001 26.064000000000004
C 14.717000000000002 58.352000000000004 24.640000000000004
C 15.264 59.39900000000001 23.66
C 13.184000000000001 58.126 24.486000000000004
H 11.347000000000001 56.508 40.23
H 8.097 61.94400000000001 41.049
H 2.947 58.37800000000001 42.97800000000001
H 8.573 52.63000000000001 41.099
H 10.293 54.145 39.359
H 11.533 54.647000000000006 41.59
H 11.675000000000002 53.007 41.144
H 10.538 53.39 42.435
H 8.898 53.175 38.272
H 7.264 53.038 38.46
H 7.371 50.81600000000001 38.529
H 8.48 50.78 39.902
H 12.650000000000002 57.83100000000001 39.48
H 13.156 59.27900000000001 40.351
H 12.590000000000002 59.28000000000001 38.66
H 9.908 63.049 41.574
H 9.553 63.277 39.767
H 11.064 63.813 40.63000000000001
H 5.091 62.357000000000006 41.41100000000001
H 4.061 60.88100000000001 43.608000000000004
H 7.169 62.67900000000001 43.08
H 5.659 62.687 44.13600000000001
H 5.859 63.782 42.847
H 2.992 60.797 40.782
H 2.91 62.32500000000001 41.603
H 0.837 61.471000000000004 42.26400000000001
H 1.737 60.784000000000006 43.605000000000004
H 1.3270000000000002 59.827000000000005 42.116
H 1.6710000000000003 54.681 43.524
H 1.289 56.22800000000001 42.69100000000001
H 2.068 56.222 44.248000000000005
H 6.049000000000001 52.101000000000006 41.922
H 3.446 51.01 38.441
H 4.616 49.635 38.469
H 5.023 51.19800000000001 37.745
H 9.634 48.788 35.458
H 10.940000000000001 49.481 36.305
H 11.134000000000002 50.77000000000001 34.232
H 7.480000000000001 51.132 35.272
H 7.169 50.80200000000001 33.477
H 7.471000000000001 52.488 34.139
H 8.935 52.00900000000001 31.812000000000005
H 10.540000000000001 51.76500000000001 32.2
H 11.041 53.71000000000001 32.99
H 9.59 53.889 33.935
H 8.346 54.762 32.119
H 9.212 54.00600000000001 30.93
H 10.556 56.13 32.804
H 8.546 56.538000000000004 30.684000000000005
H 9.834 57.702 30.803000000000004
H 8.713 57.412 32.126000000000005
H 11.22 55.62200000000001 29.873000000000005
H 12.013 54.56400000000001 31.078000000000003
H 13.650000000000002 55.815 31.411
H 12.52 56.645 32.321
H 12.881 58.557 30.955
H 11.980000000000002 57.743 29.676000000000002
H 14.560000000000002 56.62800000000001 29.366000000000003
H 15.293000000000001 59.404 29.391
H 16.216 57.96500000000001 29.884000000000004
H 15.24 58.794000000000004 31.064000000000004
H 13.414000000000001 59.03300000000001 27.96
H 12.976 57.345000000000006 27.626000000000005
H 14.672 56.706 26.478
H 15.906000000000002 57.339 27.516
H 16.151 59.042 26.166
H 14.456 59.578 26.381
H 15.266000000000002 57.43600000000001 24.418000000000003
H 15.525000000000002 60.33200000000001 24.161
H 14.595000000000002 59.803 22.9
H 16.032000000000004 58.88100000000001 23.086
H 12.990000000000002 57.05400000000001 24.458000000000002
H 12.774000000000001 58.54500000000001 23.567
H 12.658000000000001 58.616 25.305

