280
Bchla 2 -- Bchla 25
Mg 3.1580000000000004 -0.094 44.312
C 5.981 1.967 44.127
C 1.5980000000000003 2.251 42.305
C 0.535 -2.151 44.137
C 5.149 -2.67 45.58500000000001
N 3.8870000000000005 1.897 43.132000000000005
C 5.038 2.565 43.339
C 5.131 3.8610000000000007 42.57000000000001
C 3.59 4.004 42.271
C 2.946 2.644 42.52000000000001
C 2.9550000000000005 5.033000000000001 43.244
C 6.136 3.755 41.416
C 6.21 2.461 40.579
C 6.195 2.644 39.066
O 6.007 3.6830000000000003 38.4
O 6.519 1.434 38.422
N 1.341 0.027000000000000003 43.38
C 0.8660000000000001 1.125 42.713
C -0.598 1.037 42.635
C -0.9510000000000001 -0.318 43.02
C 0.3390000000000001 -0.8550000000000001 43.551
C -1.479 2.108 41.885000000000005
C -2.325 -0.9810000000000001 42.895
O -3.285 -0.34 42.56900000000001
C -2.49 -2.436 43.227000000000004
N 2.984 -2.239 44.619
C 1.7320000000000002 -2.881 44.593
C 1.8030000000000002 -4.396 45.061
C 3.316 -4.491 45.581
C 3.8600000000000003 -3.0190000000000006 45.284000000000006
C 0.7230000000000001 -4.977 46.104
C 4.234 -5.645 44.969
C 5.28 -6.178 46.068
N 5.163000000000001 -0.356 44.84000000000001
C 5.798 -1.431 45.428
C 7.171000000000001 -1.059 45.747
C 7.330000000000001 0.289 45.334
C 6.0840000000000005 0.6530000000000001 44.707
C 8.162 -1.875 46.535000000000004
C 8.239 1.4670000000000003 45.15
O 9.427 1.5780000000000003 45.35600000000001
C 7.352 2.565 44.423
C 7.283 3.7450000000000006 45.353
O 8.218 4.569 45.513000000000005
O 6.001000000000001 3.854 45.872
C 5.729000000000001 5.056000000000001 46.587
C 6.66 1.463 36.98700000000001
C 5.302 1.318 36.431
C 5.078 0.839 35.187
C 6.152000000000001 0.257 34.231
C 3.638 0.679 34.791
C 3.1020000000000003 2.034 34.274
C 2.501 1.746 32.904
C 0.9710000000000001 2.203 32.903000000000006
C 0.118 0.988 33.3
C 0.545 2.7340000000000004 31.509
C -0.641 3.659 31.518
C -1.9110000000000003 3.091 30.741
C -2.1240000000000006 4.095 29.606
C -2.5490000000000004 5.45 30.064
C -3.1570000000000005 3.469 28.691
C -3.2780000000000005 4.168000000000001 27.279
C -2.311 3.556 26.234
C -3.025 2.423 25.43
C -2.372 1.03 25.606000000000005
C -3.0780000000000003 2.687 23.904
H 1.075 3.032 41.749
H -0.29600000000000004 -2.8360000000000003 44.319
H 5.700000000000001 -3.415 46.163
H 5.376000000000001 4.7 43.221
H 3.291 4.312 41.27000000000001
H 1.94 4.68 43.428
H 3.0400000000000005 6.042000000000001 42.84300000000001
H 3.3150000000000004 5.085000000000001 44.272
H 7.120000000000001 3.815 41.88000000000001
H 5.982000000000001 4.608 40.75500000000001
H 5.339 1.846 40.804
H 7.152000000000001 1.9640000000000002 40.809
H -1.4650000000000003 2.038 40.797
H -1.165 3.109 42.181
H -2.5300000000000002 2.1470000000000002 42.169
H -3.476 -2.809 42.94800000000001
H -2.332 -2.656 44.283
H -1.797 -2.902 42.526
H 1.6870000000000003 -4.884 44.09400000000001
H 3.35 -4.606 46.664
H -0.10700000000000001 -5.37 45.518
H 0.379 -4.207 46.794000000000004
H 1.2030000000000003 -5.755 46.69800000000001
H 4.889 -5.253 44.191
H 3.628 -6.445 44.543
H 6.307 -6.009000000000001 45.744
H 5.136000000000001 -7.248000000000001 46.215
H 5.312 -5.697 47.045
H 8.316 -2.821 46.017
H 7.758000000000001 -2.083 47.526
H 9.136 -1.391 46.605
H 7.970000000000001 2.884 43.584
H 4.675000000000001 5.078 46.863
H 6.083 5.93 46.04
H 6.206 5.066000000000001 47.56700000000001
H 7.208000000000001 0.6580000000000001 36.497
H 7.169 2.36 36.633
H 4.481 1.537 37.114
H 7.159 0.587 34.48700000000001
H 5.947 0.594 33.215
H 6.082000000000001 -0.817 34.399
H 3.0800000000000005 0.322 35.657
H 3.654 -0.10200000000000001 34.032
H 3.8880000000000003 2.7890000000000006 34.254
H 2.292 2.3260000000000005 34.942
H 2.4690000000000003 0.695 32.613
H 3.072 2.336 32.187
H 0.708 2.9930000000000003 33.605000000000004
H -0.853 1.132 32.825
H 0.121 1.044 34.388
H 0.469 0.036 32.903000000000006
H 0.332 1.915 30.822000000000003
H 1.341 3.3360000000000003 31.071000000000005
H -0.396 4.636 31.103000000000005
H -0.9350000000000002 3.809 32.556
H -2.78 2.9560000000000004 31.384000000000004
H -1.7400000000000002 2.143 30.231
H -1.152 4.354 29.187000000000005
H -1.7000000000000002 6.127000000000001 29.966000000000005
H -2.999 5.445000000000001 31.057000000000002
H -3.348 5.871 29.454
H -4.121 3.5830000000000006 29.187000000000005
H -3.0000000000000004 2.4 28.547000000000004
H -2.983 5.217 27.325
H -4.301 4.146 26.903000000000002
H -1.4470000000000003 3.1430000000000002 26.754
H -1.8910000000000002 4.318 25.577000000000005
H -4.052 2.27 25.761000000000003
H -3.1960000000000006 0.37200000000000005 25.331000000000003
H -2.13 0.909 26.662
H -1.5310000000000001 0.829 24.942
H -2.599 1.8900000000000001 23.334000000000003
H -2.646 3.649 23.627
H -4.121 2.7350000000000003 23.593000000000004
Mg -2.59 34.017 26.794000000000004
C -3.6200000000000006 32.414 29.773
C -1.153 36.458 28.719
C -2.2060000000000004 35.825 24.046000000000003
C -4.517 31.709 25.002
N -2.5520000000000005 34.47200000000001 29.003
C -2.952 33.593 30.013000000000005
C -2.377 34.057 31.374
C -1.602 35.375 31.007
C -1.716 35.466 29.46
C -1.9140000000000001 36.614 31.828000000000003
C -1.5090000000000001 33.042 32.134
C -1.9890000000000003 32.76400000000001 33.585
C -0.958 32.997 34.667
O 0.23000000000000004 32.67400000000001 34.656000000000006
O -1.4470000000000003 33.677 35.743
N -1.7020000000000002 35.86 26.449
C -1.192 36.749 27.349
C -0.5510000000000002 37.807 26.605000000000004
C -0.9850000000000001 37.71 25.214
C -1.6800000000000002 36.432 25.232
C 0.22600000000000003 39.027 27.325
C -1.036 38.702 24.133
O -1.4060000000000001 38.534 23.006
C -0.576 40.11 24.499
N -3.466 33.878 24.823000000000004
C -3.083 34.73100000000001 23.853000000000005
C -3.5250000000000004 34.222 22.479
C -3.9270000000000005 32.767 22.769
C -3.9450000000000003 32.737 24.281000000000002
C -4.74 35.083 21.901000000000003
C -2.7700000000000005 31.795000000000005 22.205
C -1.443 31.788000000000004 23.012
N -3.752 32.293000000000006 27.191000000000003
C -4.441 31.482 26.372
C -5.055 30.455000000000002 27.170000000000005
C -4.721 30.752000000000002 28.478
C -3.9690000000000003 31.93 28.477
C -5.921000000000001 29.290000000000003 26.73
C -4.97 30.275 29.841
O -5.630000000000001 29.441000000000003 30.394000000000002
C -4.203 31.284 30.736000000000004
C -5.222000000000001 31.862 31.647
O -6.224 32.38 31.222
O -4.941 31.662 32.989
C -6.056 31.947000000000003 33.953
C -0.532 33.967 36.843
C -1.148 34.905 37.927
C -0.49800000000000005 35.682 38.837
C 1.005 35.92 39.103
C -1.4170000000000003 36.45 39.81
C -1.154 36.246 41.313
C -1.252 37.518 42.152
C -0.9570000000000001 37.309 43.654
C -2.264 37.101 44.496
C -0.125 38.52 44.27
C 1.4060000000000001 38.147000000000006 44.234
C 2.057 37.958 45.716
C 2.54 36.521 45.970000000000006
C 2.9970000000000003 36.305 47.453
C 3.775 36.238 45.03900000000001
C 3.468 35.083 44.103
C 3.8470000000000004 35.57000000000001 42.61500000000001
C 5.048 34.843 41.92
C 6.362000000000001 35.175 42.715
C 5.156 35.126 40.381
H -0.526 37.10900000000001 29.332
H -2.0060000000000002 36.32 23.093
H -4.957000000000001 30.834000000000003 24.519000000000002
H -3.2030000000000003 34.376 32.01
H -0.555 35.232 31.275
H -2.846 36.497 32.379
H -1.9520000000000002 37.532 31.241000000000003
H -1.135 36.669 32.588
H -0.4580000000000001 33.284000000000006 32.292
H -1.474 32.091 31.603
H -2.465 31.787 33.668
H -2.7730000000000006 33.485 33.813
H 1.186 39.15100000000001 26.824000000000005
H 0.479 38.885 28.375000000000004
H -0.267 39.997 27.389000000000003
H 0.469 39.967 24.775
H -1.197 40.391000000000005 25.349000000000004
H -0.593 40.824 23.675
H -2.716 34.179 21.749000000000002
H -4.902 32.392 22.457
H -4.665 35.043 20.814
H -4.797000000000001 36.142 22.155
H -5.626000000000001 34.539 22.228
H -2.5310000000000006 31.986000000000004 21.159
H -3.07 30.756 22.342
H -0.61 31.269 22.539
H -1.6390000000000002 31.283 23.958
H -1.179 32.82600000000001 23.217
H -5.416 28.574 26.082
H -6.720000000000001 29.767000000000003 26.163000000000004
H -6.408 28.788 27.566000000000003
H -3.527 30.646000000000004 31.305
H -5.485000000000001 32.486 34.709
H -6.484000000000001 31.045 34.39
H -6.924000000000001 32.524 33.635000000000005
H 0.358 34.454 36.445
H -0.25 33.021 37.305
H -2.233 34.905 37.82600000000001
H 1.252 36.981 39.124
H 1.5180000000000002 35.467 38.255
H 1.3660000000000003 35.32 39.939
H -2.443 36.134 39.62400000000001
H -1.351 37.52000000000001 39.612
H -0.164 35.898 41.607
H -1.94 35.61 41.721
H -2.273 37.892 42.073
H -0.7640000000000001 38.351 41.646
H -0.36 36.413 43.823
H -3.2030000000000003 37.086 43.944
H -2.434 37.799 45.316
H -2.143 36.138 44.992000000000004
H -0.44300000000000006 38.662 45.303
H -0.374 39.444 43.747
H 1.9430000000000003 38.958 43.74300000000001
H 1.6100000000000003 37.256 43.64
H 1.2560000000000002 38.259 46.391
H 2.891 38.616 45.963
H 1.697 35.837 45.87800000000001
H 3.7400000000000007 35.50800000000001 47.47800000000001
H 2.262 35.811 48.089000000000006
H 3.408 37.198 47.924
H 4.565 35.802 45.650000000000006
H 4.198 37.172 44.669
H 2.392 34.925 44.02900000000001
H 3.951 34.144 44.374
H 4.002 36.646 42.541000000000004
H 2.95 35.3 42.058
H 4.875 33.769 41.985
H 6.227 35.987 43.43
H 7.173 35.472 42.04900000000001
H 6.718000000000001 34.282 43.228
H 4.578 34.348 39.882
H 6.179000000000001 35.078 40.00800000000001
H 4.649 36.067 40.168

