280
Bchla 9 -- Bchla 14
Mg 35.716 1.255 29.884000000000004
C 33.26 2.269 32.062
C 37.975 1.1840000000000002 32.632
C 38.346000000000004 0.782 27.813
C 33.67 1.646 27.255000000000003
N 35.616 1.6870000000000003 32.102
C 34.475 2.1030000000000006 32.73400000000001
C 34.689 2.203 34.246
C 36.276 2.035 34.333
C 36.659 1.612 32.945
C 37.029 3.3020000000000005 34.882
C 33.912 1.084 35.079
C 33.167 1.39 36.356
C 33.843 2.221 37.388
O 33.42100000000001 3.3410000000000006 37.728
O 34.933 1.6400000000000001 37.876
N 37.887 0.958 30.157000000000004
C 38.55 0.788 31.322000000000003
C 39.891 0.361 31.101
C 40.027 0.20000000000000004 29.686000000000003
C 38.73 0.727 29.166000000000004
C 40.80200000000001 0.22400000000000003 32.278000000000006
C 41.264 -0.169 28.885000000000005
O 41.33400000000001 -0.005 27.663000000000004
C 42.484 -0.7440000000000001 29.583
N 36.02 1.3670000000000002 27.779000000000003
C 37.178 1.001 27.169000000000004
C 36.981 0.8910000000000001 25.658
C 35.415 1.001 25.519
C 34.996 1.352 26.933000000000003
C 37.785 1.7880000000000003 24.671000000000003
C 34.665 -0.246 24.889000000000003
C 34.104 -1.334 25.78
N 33.899 1.9220000000000002 29.647000000000002
C 33.078 1.916 28.548000000000002
C 31.778 2.415 28.813
C 31.777 2.525 30.2
C 33.078 2.193 30.658
C 30.562000000000005 2.677 27.934
C 31.029 2.8750000000000004 31.327
O 29.887 3.2940000000000005 31.372
C 31.955 2.758 32.664
C 32.02 4.078 33.279
O 32.548 5.092 32.781000000000006
O 31.387 4.147 34.48
C 31.1 5.466000000000001 35.055
C 35.582 2.283 39.059
C 36.956 1.7520000000000002 39.281
C 37.663 1.5670000000000002 40.454
C 37.082 1.906 41.858
C 39.057 0.9960000000000001 40.45000000000001
C 39.271 -0.353 41.11
C 40.193000000000005 -0.233 42.373000000000005
C 41.643 -0.44000000000000006 42.059
C 42.00600000000001 -1.9290000000000003 42.095
C 42.605 0.519 42.836
C 43.418 1.449 41.91
C 44.351 2.278 42.795
C 44.666 3.6660000000000004 42.14300000000001
C 46.05 3.6770000000000005 41.413000000000004
C 44.807 4.773 43.233
C 43.974000000000004 6.069 42.94800000000001
C 44.742 7.371 43.228
C 44.525 8.505 42.286
C 45.78600000000001 8.771 41.42400000000001
C 43.991 9.797 43.02700000000001
H 38.549 1.115 33.55800000000001
H 39.099 0.356 27.147000000000002
H 32.904 1.431 26.508000000000003
H 34.281 3.1550000000000002 34.588
H 36.555 1.259 35.046
H 37.568 3.0020000000000002 35.78
H 36.247 4.051 35.008
H 37.838 3.673 34.252
H 34.722 0.389 35.301
H 33.307 0.459 34.423
H 32.77 0.47 36.785
H 32.335 2.027 36.05800000000001
H 41.314 -0.725 32.123
H 40.23 0.11700000000000002 33.2
H 41.52900000000001 1.024 32.422
H 42.25000000000001 -1.4870000000000003 30.346000000000004
H 43.158 0.065 29.868000000000002
H 42.999 -1.3 28.799
H 37.387 -0.09500000000000001 25.431000000000004
H 35.108 1.7500000000000002 24.79
H 37.128 2.526 24.211
H 38.164 1.1220000000000003 23.896
H 38.578 2.241 25.265000000000004
H 35.37100000000001 -0.715 24.205000000000002
H 33.813 0.096 24.301
H 34.443 -2.324 25.474
H 33.014 -1.3470000000000002 25.820000000000004
H 34.482 -1.099 26.775000000000002
H 30.791000000000004 2.376 26.911000000000005
H 30.304000000000002 3.735 27.987000000000002
H 29.727 2.091 28.317
H 31.326 2.109 33.274
H 30.272000000000002 5.471 35.764
H 31.016 6.283000000000001 34.339
H 31.936 5.664 35.726
H 35.108 1.9540000000000002 39.984
H 35.775 3.3420000000000005 38.89
H 37.467 1.4470000000000003 38.368
H 37.873000000000005 2.264 42.516
H 36.72 1.008 42.359
H 36.27000000000001 2.623 41.733000000000004
H 39.772 1.6710000000000003 40.919
H 39.282 0.849 39.393
H 39.536 -1.174 40.445
H 38.274 -0.6480000000000001 41.43900000000001
H 39.775 -1.0030000000000001 43.021
H 40.001 0.6730000000000002 42.94800000000001
H 41.848 -0.15700000000000003 41.027
H 42.301 -2.254 41.097
H 41.147 -2.584 42.237
H 42.72200000000001 -2.184 42.877
H 43.228 -0.037000000000000005 43.537
H 41.94500000000001 1.215 43.355
H 42.623 2.041 41.455
H 44.03 0.9260000000000002 41.175
H 45.262 1.704 42.962
H 44.00300000000001 2.425 43.818
H 43.904 3.914 41.404
H 46.194 4.66 40.965
H 45.93600000000001 2.868 40.69200000000001
H 46.74300000000001 3.305 42.168
H 45.84 5.106000000000001 43.335
H 44.48700000000001 4.384 44.20000000000001
H 43.05700000000001 6.043000000000001 43.535
H 43.678 6.089000000000001 41.89900000000001
H 45.80100000000001 7.203 43.426
H 44.400000000000006 7.671000000000001 44.219
H 43.757000000000005 8.162 41.59300000000001
H 45.362 9.038 40.457
H 46.351000000000006 7.847 41.306000000000004
H 46.401 9.604 41.767
H 44.493 10.048000000000002 43.961
H 42.917 9.926 43.167
H 44.126000000000005 10.671 42.389
Mg 46.693 44.583000000000006 44.387
C 43.25500000000001 44.724 43.60300000000001
C 46.826 41.397000000000006 42.973
C 50.08 44.926 44.229
C 46.416 48.036 45.29800000000001
N 45.217 43.253 43.458
C 43.915 43.522 43.224000000000004
C 43.244 42.376 42.399
C 44.333 41.221 42.58
C 45.596 41.99100000000001 43.08500000000001
C 44.097 40.057 43.569
C 43.052 42.863 40.913
C 41.752 42.343 40.239000000000004
C 41.896 41.904 38.72500000000001
O 42.035 40.757000000000005 38.333
O 41.726 42.97800000000001 37.892
N 48.30200000000001 43.231 43.873
C 48.096 41.97500000000001 43.367
C 49.37200000000001 41.386 43.215
C 50.37100000000001 42.366 43.492
C 49.618 43.584 43.943000000000005
C 49.623 39.97500000000001 42.73800000000001
C 51.834 42.251000000000005 43.23
O 52.315000000000005 41.279 42.67
C 52.807 43.268 43.533
N 48.039 46.33200000000001 44.626000000000005
C 49.424 46.113 44.664
C 50.137 47.336 45.15
C 48.993 48.37700000000001 45.439
C 47.744 47.576 45.114000000000004
C 50.982 46.967 46.376
C 49.23100000000001 49.78300000000001 44.77
C 49.254 50.97200000000001 45.682
N 45.147000000000006 46.13 44.494
C 45.211 47.43000000000001 44.93200000000001
C 43.854 48.013000000000005 45.018
C 43.095 46.966 44.431000000000004
C 43.894000000000005 45.857 44.225
C 43.427 49.418000000000006 45.413
C 41.786 46.667 43.914
O 40.774 47.382 43.84700000000001
C 41.78 45.236000000000004 43.37700000000001
C 40.729 44.42700000000001 44.022
O 39.867 43.906 43.412
O 40.962 44.18 45.34400000000001
C 40.02400000000001 43.159 45.85900000000001
C 41.77700000000001 42.73 36.408
C 43.154 43.14800000000001 35.869
C 44.189 42.476 35.324
C 44.396 40.979 35.259
C 45.43500000000001 43.175 34.81
C 45.594 43.174 33.187
C 45.257 44.50500000000001 32.513
C 45.455 44.397000000000006 30.956000000000003
C 45.84400000000001 45.82 30.468000000000004
C 44.26100000000001 43.879000000000005 30.205000000000002
C 44.58 42.848 29.11
C 43.908 43.294 27.771000000000004
C 45.002 43.772000000000006 26.724
C 44.535 45.099000000000004 26.116
C 45.384 42.712 25.647000000000002
C 46.94400000000001 42.991 25.235000000000003
C 47.05100000000001 43.07000000000001 23.695
C 47.458 41.714 23.016000000000002
C 48.963 41.54800000000001 23.15
C 46.873 41.676 21.522000000000002
H 46.89 40.369 42.609
H 51.17100000000001 44.934000000000005 44.244
H 46.143 49.074 45.502
H 42.284 42.145 42.861000000000004
H 44.788 40.86200000000001 41.657000000000004
H 43.419 40.367 44.36500000000001
H 44.986 39.616 44.02
H 43.583 39.286 42.99600000000001
H 43.92400000000001 42.613 40.308
H 43.016 43.95 40.986000000000004
H 41.07 43.189 40.32600000000001
H 41.42600000000001 41.56 40.92400000000001
H 50.584 39.537 43.00800000000001
H 49.534000000000006 40.056000000000004 41.65500000000001
H 48.816 39.25800000000001 42.88900000000001
H 52.778 43.418 44.61300000000001
H 52.61 44.182 42.972
H 53.790000000000006 42.90400000000001 43.234
H 50.70700000000001 47.794 44.342
H 48.71000000000001 48.541 46.479
H 51.115 45.89200000000001 46.5
H 50.522 47.312000000000005 47.302
H 52.019000000000005 47.252 46.201
H 48.42600000000001 49.876000000000005 44.041
H 50.214 49.895 44.314
H 48.516000000000005 51.679 45.304
H 50.215 51.486000000000004 45.655
H 49.14300000000001 50.70900000000001 46.734
H 43.51500000000001 50.13100000000001 44.593
H 43.932 49.786 46.307
H 42.35600000000001 49.27300000000001 45.554
H 41.466 45.23800000000001 42.334
H 40.254000000000005 43.001 46.913
H 40.121 42.229 45.29900000000001
H 38.985 43.48400000000001 45.901
H 41.105000000000004 43.531000000000006 36.101
H 41.387 41.797 36.0
H 43.17 44.238 35.847
H 44.30500000000001 40.669 34.218
H 43.7 40.37400000000001 35.84
H 45.378 40.564 35.485
H 46.348 42.701 35.171
H 45.392 44.221 35.111
H 44.977000000000004 42.35 32.83
H 46.588 42.81400000000001 32.922
H 45.977 45.156 33.010000000000005
H 44.267 44.908 32.724
H 46.337 43.80400000000001 30.713000000000005
H 46.47 46.34 31.193000000000005
H 44.912 46.378 30.375
H 46.39200000000001 45.655 29.540000000000003
H 43.646 44.722 29.890000000000004
H 43.551 43.429 30.898000000000003
H 44.15 41.886 29.389000000000003
H 45.64800000000001 42.68 28.968000000000004
H 43.201 44.089 28.007000000000005
H 43.37400000000001 42.455 27.324
H 45.823 43.95 27.419000000000004
H 45.026 45.315000000000005 25.167
H 44.88700000000001 45.78600000000001 26.885000000000005
H 43.452 45.123 25.998
H 44.629000000000005 42.577 24.873000000000005
H 45.515 41.74300000000001 26.129
H 47.565 42.178 25.612
H 47.33800000000001 43.917 25.653000000000002
H 47.678000000000004 43.882000000000005 23.327000000000005
H 46.04 43.245 23.326
H 46.94 40.928 23.567
H 49.30700000000001 42.35300000000001 23.800000000000004
H 49.43300000000001 41.543 22.167
H 49.187000000000005 40.623 23.68
H 46.471000000000004 42.638 21.206
H 46.239 40.822 21.284
H 47.748 41.617 20.875

