280
Bchla 4 -- Bchla 10
Mg 8.828 2.979 28.391000000000002
C 10.365 1.604 31.107
C 7.597 5.545 30.492000000000004
C 7.114000000000001 4.2330000000000005 25.802
C 10.134 0.474 26.437000000000005
N 8.693 3.351 30.578000000000003
C 9.525000000000002 2.685 31.487
C 9.406 3.272 32.922
C 8.46 4.464 32.618
C 8.161000000000001 4.436 31.13
C 7.123 4.696 33.443
C 10.760000000000002 3.7270000000000003 33.625
C 10.509000000000002 4.328000000000001 35.034
C 10.968 3.4140000000000006 36.171
O 12.221000000000002 3.189 36.417
O 9.956 2.8760000000000003 36.923
N 7.544 4.728 28.173
C 7.388 5.736 29.1
C 6.471 6.693 28.492
C 6.332 6.293000000000001 27.124000000000002
C 7.022 5.053 26.955
C 5.959 7.8500000000000005 29.26
C 5.418000000000001 7.051 26.099
O 5.12 6.601 24.974000000000004
C 4.785 8.363 26.483000000000004
N 8.635 2.4480000000000004 26.519
C 7.831000000000001 3.126 25.560000000000002
C 7.672 2.298 24.305000000000003
C 8.944 1.456 24.384
C 9.323 1.476 25.858000000000004
C 6.367000000000001 1.433 24.304000000000002
C 10.116 2.066 23.583
C 10.222 1.7510000000000001 22.115000000000002
N 9.991 1.292 28.619000000000003
C 10.573 0.454 27.746
C 11.354 -0.5110000000000001 28.462
C 11.332000000000003 -0.10700000000000001 29.78
C 10.516000000000002 1.034 29.827000000000005
C 12.085 -1.615 27.781000000000002
C 11.825 -0.42000000000000004 31.053
O 12.582000000000003 -1.291 31.436
C 11.205 0.7090000000000001 32.003
C 10.440000000000001 0.028000000000000004 33.082
O 9.421 -0.608 32.964
O 10.938 0.32100000000000006 34.287
C 10.212000000000002 -0.271 35.476
C 10.442 2.436 38.219
C 10.585000000000003 3.612 39.101
C 10.938 3.628 40.413
C 11.388 2.464 41.283
C 11.155 4.989 41.129
C 9.752 5.588000000000001 41.57600000000001
C 9.542 7.039 41.239
C 9.091000000000001 7.969 42.37200000000001
C 7.654000000000001 7.531 42.831
C 9.102 9.442 41.992000000000004
C 10.452000000000002 10.007 42.316
C 10.402000000000001 11.334 43.141
C 10.943000000000001 11.173 44.557
C 12.074 12.167000000000002 44.84100000000001
C 9.848 11.107 45.671
C 9.848 9.934 46.687000000000005
C 8.67 8.916 46.459
C 7.66 8.833 47.644000000000005
C 7.954 7.651 48.642
C 6.2490000000000006 8.709 47.233000000000004
H 7.388 6.3790000000000004 31.165000000000003
H 6.566000000000001 4.634 24.947
H 10.686 -0.275 25.866000000000003
H 8.895 2.543 33.551
H 9.005 5.4 32.744
H 6.855000000000001 5.7330000000000005 33.647
H 7.101000000000001 4.029 34.30500000000001
H 6.335000000000001 4.379 32.76
H 11.201 4.41 32.9
H 11.412000000000003 2.857 33.702
H 9.473 4.656000000000001 35.119
H 11.135 5.217 35.105
H 4.892000000000001 7.697000000000001 29.423
H 6.279 8.735 28.710000000000004
H 6.4670000000000005 7.932000000000001 30.221
H 4.238 8.773 25.634
H 5.636 9.032 26.618
H 4.162 8.37 27.377000000000002
H 7.642000000000001 2.9300000000000006 23.417
H 8.8 0.42300000000000004 24.068000000000005
H 6.4590000000000005 0.583 24.979
H 6.138 1.095 23.293
H 5.576 2.107 24.631000000000004
H 11.088000000000001 1.857 24.028
H 10.1 3.151 23.687
H 10.173000000000002 2.704 21.589
H 9.271 1.263 21.901000000000003
H 11.07 1.121 21.846
H 13.127000000000002 -1.339 27.624
H 11.639 -2.062 26.892
H 12.108 -2.4270000000000005 28.508
H 12.027000000000001 1.281 32.434
H 9.156 -0.028000000000000004 35.35600000000001
H 10.523 0.16 36.428
H 10.374 -1.349 35.46
H 11.342 1.826 38.135
H 9.578 1.846 38.525
H 10.35 4.58 38.659
H 12.457000000000003 2.253 41.271
H 10.877 1.594 40.869
H 11.041 2.646 42.3
H 11.642 5.5920000000000005 40.363
H 11.695 4.988 42.076
H 9.692 5.373 42.643
H 8.983 4.976000000000001 41.10600000000001
H 8.809000000000001 7.066 40.43300000000001
H 10.489 7.336 40.789
H 9.661 7.63 43.23700000000001
H 6.946 8.352 42.93600000000001
H 7.823000000000001 7.050000000000001 43.795
H 7.297000000000001 6.769 42.13900000000001
H 8.294 10.092 42.329
H 8.911 9.357 40.922
H 11.011 10.375 41.455
H 11.061 9.262 42.82800000000001
H 9.398 11.735 43.276
H 10.899 12.154 42.622
H 11.504000000000001 10.238 44.574
H 12.984 11.571 44.763000000000005
H 12.079000000000002 12.453000000000001 45.89300000000001
H 12.336 12.989 44.175
H 8.944 10.967 45.079
H 9.807000000000002 11.991 46.308
H 9.842 10.217 47.739000000000004
H 10.774 9.381 46.53
H 9.156 7.942 46.407
H 7.992 8.997 45.609
H 7.638 9.788 48.16700000000001
H 7.105000000000001 7.47 49.301
H 8.786000000000001 7.889 49.304
H 8.11 6.706000000000001 48.12100000000001
H 6.0360000000000005 8.417 46.205
H 5.724 9.614 47.540000000000006
H 5.699 7.869000000000001 47.658
Mg 40.74100000000001 8.403 29.699000000000005
C 42.66 10.025000000000002 32.016
C 38.732 7.215 32.077
C 39.179 6.752000000000001 27.363
C 43.283 9.228000000000002 27.341
N 40.793 8.456 31.868
C 41.505 9.392 32.544
C 40.948 9.635 33.92
C 39.85300000000001 8.497 34.002
C 39.827 7.948 32.592
C 40.10000000000001 7.441 35.106
C 40.441 11.181 34.185
C 40.87 11.882 35.483
C 41.239 10.966000000000001 36.692
O 42.389 10.847 37.185
O 40.21 10.24 37.18
N 39.138000000000005 7.344 29.692000000000004
C 38.399 6.917 30.749
C 37.347 6.003 30.376000000000005
C 37.337 6.023000000000001 29.014000000000003
C 38.655 6.628 28.647
C 36.61 5.298 31.500000000000004
C 36.334 5.366 28.045000000000005
O 36.442 5.387 26.841000000000005
C 35.207 4.651 28.730000000000004
N 41.3 7.9190000000000005 27.672000000000004
C 40.367 7.314 26.915
C 40.80200000000001 7.264 25.447000000000003
C 41.951 8.327 25.387000000000004
C 42.232 8.498 26.894
C 41.216 5.861 24.829000000000004
C 41.580000000000005 9.724 24.761000000000003
C 40.484 10.599 25.310000000000002
N 42.572 9.481 29.570000000000004
C 43.553 9.669 28.591
C 44.679 10.463000000000001 29.099000000000004
C 44.364 10.637 30.455000000000002
C 43.08700000000001 10.022 30.648
C 45.856 11.013 28.335000000000004
C 44.788 11.17 31.668000000000003
O 45.805 11.75 32.015
C 43.616 11.012000000000002 32.671
C 44.297 10.490000000000002 33.878
O 44.637 9.318 34.057
O 44.61300000000001 11.499000000000002 34.741
C 45.545 11.240000000000002 35.843
C 40.322 9.61 38.459
C 39.478 10.410000000000002 39.513
C 40.066 11.285 40.35600000000001
C 41.54900000000001 11.746 40.477
C 39.148 11.913 41.409000000000006
C 38.818 10.836000000000002 42.484
C 37.376 10.284000000000002 42.164
C 36.427 10.664 43.31
C 36.623000000000005 9.693000000000001 44.519000000000005
C 34.979 10.71 42.929
C 34.436 12.105 43.364000000000004
C 33.108 11.999000000000002 44.133
C 33.076 12.806 45.469
C 33.07000000000001 14.319000000000003 45.179
C 34.230000000000004 12.507000000000001 46.45700000000001
C 33.805 12.254000000000001 47.882
C 34.574 11.105 48.582
C 35.685 11.55 49.534000000000006
C 36.86 12.239000000000003 48.849000000000004
C 36.138 10.376000000000001 50.43500000000001
H 37.99 7.007 32.851
H 38.681 6.27 26.520000000000003
H 43.95700000000001 9.442 26.508000000000003
H 41.68 9.37 34.683
H 38.87700000000001 8.959 34.149
H 40.485 6.532 34.644
H 39.146 7.206000000000001 35.578
H 40.83 7.874 35.79
H 39.353 11.122 34.153000000000006
H 40.807 11.842000000000002 33.4
H 40.043 12.466 35.886
H 41.65400000000001 12.608 35.268
H 37.229 4.662 32.133
H 35.89 4.51 31.28
H 36.128 6.144 31.99
H 34.675 5.325000000000001 29.401000000000003
H 35.723 3.8010000000000006 29.176000000000002
H 34.378 4.279 28.129000000000005
H 39.885000000000005 7.563 24.938000000000002
H 42.832 7.863000000000001 24.943000000000005
H 41.112 5.086 25.588
H 42.281000000000006 5.839 24.601000000000003
H 40.7 5.56 23.916
H 41.363 9.409 23.740000000000002
H 42.431 10.404 24.739000000000004
H 39.92 10.047 26.063000000000002
H 39.777 10.864 24.524000000000004
H 40.79900000000001 11.500000000000002 25.836000000000002
H 46.782 10.487 28.563000000000002
H 45.972 12.075 28.552
H 45.609 10.771 27.301000000000002
H 43.074000000000005 11.947 32.814
H 46.059 12.145000000000001 36.169
H 46.185 10.382 35.643
H 45.044 10.862 36.734
H 41.27000000000001 9.465 38.977
H 39.788 8.664000000000001 38.377
H 38.42100000000001 10.146 39.563
H 41.653000000000006 12.697000000000001 39.955
H 42.275 11.079 40.012
H 41.80700000000001 11.934000000000001 41.519000000000005
H 38.275 12.421 40.99900000000001
H 39.578 12.797 41.88000000000001
H 38.831 11.405000000000001 43.414
H 39.554 10.037 42.568
H 37.59700000000001 9.220000000000002 42.24
H 36.986 10.391000000000002 41.15200000000001
H 36.693 11.631 43.738
H 35.984 8.812 44.461000000000006
H 36.584 10.21 45.47800000000001
H 37.579 9.171 44.488
H 34.432 9.855 43.326
H 34.791 10.656 41.857
H 34.215 12.588 42.412
H 35.149 12.823000000000002 43.771
H 32.957 10.965 44.44400000000001
H 32.223 12.31 43.577000000000005
H 32.127 12.536000000000001 45.933
H 33.675 14.873000000000001 45.896
H 32.052 14.68 45.32900000000001
H 33.408 14.524 44.163
H 35.025 13.253000000000002 46.45700000000001
H 34.742 11.603000000000002 46.126
H 32.755 12.067 48.107000000000006
H 33.921 13.139000000000001 48.507
H 34.944 10.524000000000001 47.73700000000001
H 33.809 10.505000000000003 49.07600000000001
H 35.291 12.329 50.186
H 37.778 12.02 49.394
H 36.69800000000001 13.313000000000002 48.754
H 36.978 11.8 47.85900000000001
H 37.148 10.51 50.821000000000005
H 35.914 9.417 49.96600000000001
H 35.458 10.381 51.286

