280
Bchla 8 -- Bchla 18
Mg 44.805 2.872 46.678
C 42.564 5.571000000000001 46.818
C 42.138 0.792 46.357
C 47.013 0.524 46.123000000000005
C 47.342000000000006 5.378 46.178
N 42.641 3.171 46.669
C 41.94200000000001 4.344 46.717000000000006
C 40.483000000000004 4.049 46.338
C 40.34 2.59 46.757
C 41.789 2.143 46.48400000000001
C 39.961 2.426 48.247
C 40.236000000000004 4.257 44.798
C 39.269 5.454 44.334
C 39.839 6.574 43.447
O 39.909 7.800000000000001 43.735
O 40.258 6.011000000000001 42.288
N 44.607 0.937 46.236
C 43.419 0.246 46.169000000000004
C 43.72 -1.1440000000000001 46.025
C 45.14200000000001 -1.3250000000000002 46.069
C 45.676 0.066 46.14
C 42.621 -2.253 45.89
C 45.872 -2.717 46.064
O 45.23700000000001 -3.7250000000000005 46.117
C 47.314 -2.741 46.277
N 46.83800000000001 2.9540000000000006 45.9
C 47.545 1.827 46.153000000000006
C 49.019000000000005 2.09 46.412000000000006
C 49.175000000000004 3.5620000000000003 46.062000000000005
C 47.67600000000001 4.022 46.033
C 49.446000000000005 1.7830000000000001 47.895
C 49.96600000000001 3.979 44.73400000000001
C 51.333 4.607 44.784
N 45.003 4.992 46.726
C 46.077000000000005 5.865 46.51
C 45.657 7.249 46.552
C 44.294000000000004 7.169 46.699
C 43.899 5.793 46.779
C 46.537 8.416 46.37700000000001
C 43.082 7.966000000000001 46.811
O 42.95000000000001 9.194 46.88400000000001
C 41.94500000000001 6.984 47.0
C 41.328 7.264 48.36600000000001
O 42.00600000000001 7.201 49.389
O 40.001 7.707000000000001 48.253
C 39.367000000000004 8.023 49.50500000000001
C 40.734 6.971 41.278
C 40.929 6.279 39.954
C 39.94500000000001 5.903 39.081
C 38.433 6.215000000000001 39.304
C 40.231 5.164 37.78
C 40.224000000000004 3.607 38.037
C 41.57900000000001 2.8330000000000006 38.22200000000001
C 42.05100000000001 2.0440000000000005 36.889
C 42.658 0.718 37.242
C 42.953 2.919 35.90400000000001
C 42.39 2.823 34.428
C 42.039 4.130000000000001 33.765
C 42.943 4.450000000000001 32.506
C 44.09100000000001 5.479000000000001 32.843
C 42.191 4.949 31.209000000000003
C 42.21 3.914 30.017
C 43.42300000000001 4.168000000000001 29.071
C 43.036 4.286 27.586
C 44.105 5.092 26.712000000000003
C 42.825 2.982 26.907
H 41.262 0.14300000000000002 46.414
H 47.712 -0.302 46.263
H 48.13300000000001 6.13 46.13700000000001
H 39.873 4.807 46.83
H 39.59400000000001 2.1260000000000003 46.113
H 39.125 1.738 48.126
H 39.668 3.426 48.568
H 40.731 2.033 48.91100000000001
H 39.762 3.35 44.423
H 41.21000000000001 4.308 44.312
H 38.982 5.962 45.255
H 38.337 5.132 43.871
H 42.716 -2.971 45.076
H 41.68 -1.717 45.762
H 42.518 -2.8550000000000004 46.793000000000006
H 47.887 -2.174 45.543000000000006
H 47.64600000000001 -3.779 46.25800000000001
H 47.544 -2.496 47.313
H 49.67 1.444 45.822
H 49.62700000000001 4.102 46.894
H 49.918000000000006 0.808 48.01500000000001
H 48.604 1.968 48.562000000000005
H 50.202 2.521 48.16700000000001
H 49.412000000000006 4.488000000000001 43.946
H 50.095 2.959 44.371
H 52.118 3.973 44.373
H 51.6 4.817 45.82
H 51.226 5.529000000000001 44.21300000000001
H 47.399 8.096 45.791
H 46.889 8.667 47.378
H 45.995 9.266000000000002 45.965
H 41.251 7.276 46.21300000000001
H 39.04600000000001 7.156000000000001 50.083
H 38.484 8.645 49.361
H 39.982 8.613 50.184
H 41.72 7.2170000000000005 41.674
H 40.076 7.834 41.171
H 41.954 6.089000000000001 39.635
H 38.257 6.543000000000001 40.32800000000001
H 37.775 5.354 39.189
H 38.187 6.844000000000001 38.448
H 41.162 5.507 37.33
H 39.514 5.279 36.967
H 39.71600000000001 3.107 37.212
H 39.546 3.3420000000000005 38.849000000000004
H 41.62500000000001 2.262 39.15
H 42.35300000000001 3.598 38.283
H 41.131 1.716 36.406
H 42.012 -0.12 36.979
H 42.765 0.593 38.32
H 43.605000000000004 0.6220000000000001 36.711
H 44.01 2.6540000000000004 35.941
H 42.985 3.9440000000000004 36.272000000000006
H 41.403 2.362 34.48
H 43.08500000000001 2.245 33.819
H 41.986 4.989 34.433
H 41.048 4.17 33.313
H 43.49600000000001 3.5850000000000004 32.14
H 44.209 6.321 32.162
H 45.058 4.977 32.853
H 44.01400000000001 5.897 33.84700000000001
H 42.608 5.793 30.661000000000005
H 41.161 5.217 31.442
H 41.256 3.9290000000000003 29.49
H 42.306 2.9720000000000004 30.557
H 44.006 3.266 29.259000000000004
H 44.045 5.047000000000001 29.244000000000003
H 42.148 4.914 27.507
H 43.632 6.071 26.646
H 44.187000000000005 4.595000000000001 25.746000000000002
H 45.08500000000001 5.0600000000000005 27.188
H 42.13900000000001 3.354 26.145
H 42.23500000000001 2.317 27.538
H 43.741 2.6530000000000005 26.415000000000003
Mg 35.496 50.254000000000005 25.270000000000003
C 35.177 48.233 28.133
C 33.951 52.80200000000001 27.062000000000005
C 35.524 52.00900000000001 22.451000000000004
C 36.25500000000001 47.316 23.351000000000003
N 34.65 50.479 27.32
C 34.759 49.532 28.348
C 34.558 50.223000000000006 29.684000000000005
C 33.901 51.589 29.336000000000002
C 34.189 51.633 27.805
C 32.412 51.77300000000001 29.767000000000003
C 35.851 50.335 30.564
C 35.577 50.303000000000004 32.132
C 34.122 50.22500000000001 32.602
O 33.488 49.211 32.821
O 33.522 51.448 32.761
N 34.963 52.12400000000001 24.874000000000002
C 34.418 53.04500000000001 25.752000000000002
C 34.292 54.33 25.127000000000002
C 34.619 54.108000000000004 23.751
C 35.084 52.735 23.667
C 33.723 55.59000000000001 25.848
C 34.526 55.05800000000001 22.602000000000004
O 34.699 54.67600000000001 21.42
C 34.142 56.56700000000001 22.603000000000005
N 35.57000000000001 49.711 23.153000000000002
C 35.668 50.65100000000001 22.194
C 36.166 50.02300000000001 20.868
C 36.379000000000005 48.52900000000001 21.137
C 36.086 48.524 22.702000000000005
C 35.302 50.411 19.707
C 37.754 47.93500000000001 20.763
C 38.97 48.585 21.468000000000004
N 35.635 48.14500000000001 25.593000000000004
C 36.093 47.168 24.776000000000003
C 36.325 45.994 25.616000000000003
C 36.017 46.322 26.966
C 35.543 47.655 26.904000000000003
C 36.938 44.675000000000004 25.153
C 35.967 45.839 28.309
O 36.341 44.806 28.858
C 35.323 47.11200000000001 29.167000000000005
C 34.105 46.631 29.933
O 33.007 46.491 29.431000000000004
O 34.39500000000001 46.48 31.270000000000003
C 33.502 45.678 32.1
C 32.179 51.407 33.44
C 31.728000000000005 52.757000000000005 33.816
C 31.476000000000003 53.20700000000001 35.06
C 31.585 52.419000000000004 36.34
C 31.232000000000003 54.65800000000001 35.253
C 32.494 55.578 35.358000000000004
C 32.199 56.97 34.852
C 32.095 57.93800000000001 36.032
C 33.53 58.581 36.387
C 31.056000000000004 59.133 35.87400000000001
C 29.751000000000005 59.058 36.829
C 29.767000000000003 60.111 37.94
C 29.644 61.531000000000006 37.366
C 30.948 62.357000000000006 37.629000000000005
C 28.401 62.13900000000001 37.941
C 27.155000000000005 61.73500000000001 37.126000000000005
C 25.977 62.101000000000006 38.07000000000001
C 25.105000000000004 63.313 37.609
C 24.682 64.143 38.785
C 23.953000000000003 62.854 36.704
H 33.579 53.562000000000005 27.752
H 35.604 52.66100000000001 21.579
H 36.619 46.49900000000001 22.725000000000005
H 33.857 49.64500000000001 30.286000000000005
H 34.499 52.36000000000001 29.821000000000005
H 31.927000000000003 52.02300000000001 28.824000000000005
H 32.302 52.650000000000006 30.406
H 31.871000000000002 50.93900000000001 30.214
H 36.348 51.294000000000004 30.421
H 36.547 49.55500000000001 30.258000000000003
H 35.894 51.265 32.535
H 36.149 49.471 32.542
H 33.111 56.132 25.126000000000005
H 34.505 56.27400000000001 26.176
H 33.128 55.503 26.757000000000005
H 34.79 57.12800000000001 23.277
H 33.09 56.730000000000004 22.837
H 34.455 57.11 21.712000000000003
H 37.076 50.566 20.616
H 35.498 48.04500000000001 20.714000000000002
H 35.746 51.194 19.092
H 34.312 50.699000000000005 20.061
H 35.072 49.59 19.027
H 37.831 48.14500000000001 19.696
H 37.755 46.857 20.927000000000003
H 39.444 47.775 22.022
H 38.574 49.35600000000001 22.129000000000005
H 39.645 49.119 20.799
H 37.675 44.286 25.855
H 37.529 44.806 24.247
H 36.124 43.98800000000001 24.920000000000005
H 36.093 47.354 29.900000000000002
H 32.487 45.915 31.780000000000005
H 33.564 45.882 33.169
H 33.815 44.645 31.948000000000004
H 32.265 50.727000000000004 34.287
H 31.423000000000002 51.004000000000005 32.766000000000005
H 31.65 53.498000000000005 33.021
H 30.704 52.510000000000005 36.975
H 32.324 52.846000000000004 37.01700000000001
H 31.698000000000004 51.339000000000006 36.24000000000001
H 30.791000000000004 54.83800000000001 36.233
H 30.508000000000003 55.014 34.52
H 33.249 55.124 34.715
H 32.94 55.631 36.351
H 31.333000000000002 56.919000000000004 34.192
H 32.992 57.23800000000001 34.153000000000006
H 31.795000000000005 57.422000000000004 36.944
H 33.614 59.644000000000005 36.163
H 34.30500000000001 58.039 35.845
H 33.851 58.384 37.41
H 30.661000000000005 59.072 34.859
H 31.512 60.117000000000004 35.98100000000001
H 29.423 58.069 37.15
H 28.914000000000005 59.32500000000001 36.184
H 30.794 59.96000000000001 38.273
H 28.948 59.747 38.56
H 29.581 61.56700000000001 36.278
H 31.798000000000002 61.8 38.02300000000001
H 30.697000000000003 63.114 38.371
H 31.266 62.821 36.696
H 28.527000000000005 63.219 37.874
H 28.265 61.888000000000005 38.993
H 27.274 60.72200000000001 36.74
H 27.103 62.354 36.23
H 26.344 62.379 39.058
H 25.434 61.177 38.26700000000001
H 25.737000000000002 63.849000000000004 36.901
H 25.303000000000004 65.034 38.686
H 24.842 63.722 39.778000000000006
H 23.602000000000004 64.275 38.717
H 23.032 62.759 37.28
H 24.164 61.967 36.107
H 23.724000000000004 63.565000000000005 35.911

