280
Bchla 20 -- Bchla 23
Mg 7.142 57.546 41.51700000000001
C 6.289 54.207 41.287000000000006
C 10.288000000000002 56.721000000000004 40.38900000000001
C 7.812000000000001 60.897000000000006 41.169000000000004
C 3.941 58.30400000000001 42.532
N 8.100000000000001 55.732 40.72500000000001
C 7.55 54.468 40.808
C 8.519000000000002 53.39300000000001 40.323
C 9.885 54.17400000000001 40.37
C 9.397 55.613 40.452000000000005
C 10.941 53.738 41.48400000000001
C 8.181 52.71900000000001 38.955
C 8.311 51.211 38.915
C 9.481 50.75900000000001 38.05500000000001
O 10.648 50.52900000000001 38.453
O 9.037000000000003 50.31100000000001 36.89500000000001
N 8.804 58.605000000000004 40.858
C 9.982 58.102000000000004 40.472
C 10.932000000000002 59.166 40.197
C 10.335 60.402 40.381
C 8.908000000000001 60.029 40.772000000000006
C 12.414000000000001 58.88100000000001 39.658
C 11.019000000000002 61.80700000000001 40.278
O 12.226 61.867000000000004 39.909
C 10.280000000000001 63.06100000000001 40.55
N 5.929000000000001 59.423 41.581
C 6.46 60.624 41.577
C 5.532 61.679 42.14200000000001
C 4.204 60.944 42.529
C 4.7 59.439 42.284
C 6.082000000000001 62.754000000000005 43.13300000000001
C 2.881 61.248000000000005 41.768
C 1.6480000000000001 60.788000000000004 42.518
N 5.413 56.462 41.842
C 4.167 56.89800000000001 42.349
C 3.349 55.736 42.566
C 4.139 54.62 42.197
C 5.339 55.156 41.738
C 2.016 55.69 43.298
C 4.117 53.24300000000001 42.147
O 3.288 52.392 42.322
C 5.501 52.882 41.394000000000005
C 5.071 52.591 39.957
O 4.832 53.425000000000004 39.105
O 4.992 51.21300000000001 39.836
C 4.488000000000001 50.71300000000001 38.561
C 9.964 49.732 35.89
C 10.131 50.617000000000004 34.63
C 9.174 51.34700000000001 33.923
C 7.654000000000001 51.418 34.234
C 9.613 52.108 32.66
C 9.96 53.577000000000005 32.958
C 9.377 54.492000000000004 31.891
C 10.284000000000002 55.765 31.814
C 9.312000000000001 56.923 31.358
C 11.555 55.538 30.907
C 12.754000000000001 56.423 31.28
C 12.845000000000002 57.662000000000006 30.334000000000003
C 14.166 57.639 29.473000000000003
C 15.281000000000002 58.509 30.013000000000005
C 13.754 57.99900000000001 28.019
C 14.952000000000002 57.589000000000006 27.052
C 15.103 58.76100000000001 26.064000000000004
C 14.717000000000002 58.352000000000004 24.640000000000004
C 15.264 59.39900000000001 23.66
C 13.184000000000001 58.126 24.486000000000004
H 11.347000000000001 56.508 40.23
H 8.097 61.94400000000001 41.049
H 2.947 58.37800000000001 42.97800000000001
H 8.573 52.63000000000001 41.099
H 10.293 54.145 39.359
H 11.533 54.647000000000006 41.59
H 11.675000000000002 53.007 41.144
H 10.538 53.39 42.435
H 8.898 53.175 38.272
H 7.264 53.038 38.46
H 7.371 50.81600000000001 38.529
H 8.48 50.78 39.902
H 12.650000000000002 57.83100000000001 39.48
H 13.156 59.27900000000001 40.351
H 12.590000000000002 59.28000000000001 38.66
H 9.908 63.049 41.574
H 9.553 63.277 39.767
H 11.064 63.813 40.63000000000001
H 5.091 62.357000000000006 41.41100000000001
H 4.061 60.88100000000001 43.608000000000004
H 7.169 62.67900000000001 43.08
H 5.659 62.687 44.13600000000001
H 5.859 63.782 42.847
H 2.992 60.797 40.782
H 2.91 62.32500000000001 41.603
H 0.837 61.471000000000004 42.26400000000001
H 1.737 60.784000000000006 43.605000000000004
H 1.3270000000000002 59.827000000000005 42.116
H 1.6710000000000003 54.681 43.524
H 1.289 56.22800000000001 42.69100000000001
H 2.068 56.222 44.248000000000005
H 6.049000000000001 52.101000000000006 41.922
H 3.446 51.01 38.441
H 4.616 49.635 38.469
H 5.023 51.19800000000001 37.745
H 9.634 48.788 35.458
H 10.940000000000001 49.481 36.305
H 11.134000000000002 50.77000000000001 34.232
H 7.480000000000001 51.132 35.272
H 7.169 50.80200000000001 33.477
H 7.471000000000001 52.488 34.139
H 8.935 52.00900000000001 31.812000000000005
H 10.540000000000001 51.76500000000001 32.2
H 11.041 53.71000000000001 32.99
H 9.59 53.889 33.935
H 8.346 54.762 32.119
H 9.212 54.00600000000001 30.93
H 10.556 56.13 32.804
H 8.546 56.538000000000004 30.684000000000005
H 9.834 57.702 30.803000000000004
H 8.713 57.412 32.126000000000005
H 11.22 55.62200000000001 29.873000000000005
H 12.013 54.56400000000001 31.078000000000003
H 13.650000000000002 55.815 31.411
H 12.52 56.645 32.321
H 12.881 58.557 30.955
H 11.980000000000002 57.743 29.676000000000002
H 14.560000000000002 56.62800000000001 29.366000000000003
H 15.293000000000001 59.404 29.391
H 16.216 57.96500000000001 29.884000000000004
H 15.24 58.794000000000004 31.064000000000004
H 13.414000000000001 59.03300000000001 27.96
H 12.976 57.345000000000006 27.626000000000005
H 14.672 56.706 26.478
H 15.906000000000002 57.339 27.516
H 16.151 59.042 26.166
H 14.456 59.578 26.381
H 15.266000000000002 57.43600000000001 24.418000000000003
H 15.525000000000002 60.33200000000001 24.161
H 14.595000000000002 59.803 22.9
H 16.032000000000004 58.88100000000001 23.086
H 12.990000000000002 57.05400000000001 24.458000000000002
H 12.774000000000001 58.54500000000001 23.567
H 12.658000000000001 58.616 25.305
Mg -9.051 41.135000000000005 42.305
C -8.305 37.722 41.48700000000001
C -6.395 41.95900000000001 40.063
C -10.135000000000002 44.306 42.063
C -11.946000000000002 40.073 43.784
N -7.597 39.954 40.945
C -7.463000000000001 38.604 40.8
C -6.307 38.235 39.806
C -5.513 39.626000000000005 39.732
C -6.6000000000000005 40.578 40.205
C -4.304 39.713 40.635000000000005
C -6.799 37.608 38.512
C -6.032000000000001 36.37 37.979
C -4.965 36.511 36.796
O -3.9040000000000004 37.125 36.87
O -5.458 35.835 35.714
N -8.298000000000002 42.98100000000001 41.27000000000001
C -7.133000000000001 43.08 40.48100000000001
C -6.947000000000001 44.483 40.091
C -8.039000000000001 45.194 40.728
C -8.91 44.191 41.30200000000001
C -5.896 45.033 39.202
C -8.191000000000003 46.694 40.765
O -7.269000000000001 47.37100000000001 40.369
C -9.416 47.416 41.277
N -10.805 41.95700000000001 42.741
C -10.936000000000002 43.342 42.69200000000001
C -12.323000000000002 43.689 43.238
C -12.785000000000002 42.375 43.968
C -11.75 41.407 43.503
C -12.482 45.006 44.083
C -14.257 41.901 43.766
C -15.093 41.673 44.983
N -9.921 39.324 42.71
C -11.083 39.021 43.398
C -11.161000000000001 37.575 43.68200000000001
C -10.088 37.044 42.866
C -9.417 38.142 42.319
C -12.147000000000002 36.798 44.514
C -9.423 35.768 42.469
O -9.726 34.63 42.68900000000001
C -8.338 36.191 41.48400000000001
C -7.035 35.63000000000001 41.97
O -6.575000000000001 36.04 43.014
O -6.383000000000001 34.711 41.094
C -4.994 34.30500000000001 41.467
C -4.634 36.03 34.58
C -5.307 35.735 33.249
C -6.099000000000001 36.549 32.508
C -6.121 38.040000000000006 32.81
C -6.61 36.072 31.219
C -5.681000000000001 35.691 30.071000000000005
C -6.066000000000001 36.322 28.771000000000004
C -5.458 37.781000000000006 28.507
C -4.608 37.654 27.230000000000004
C -6.644000000000001 38.772000000000006 28.415
C -6.142000000000001 40.209 28.531
C -6.707000000000001 40.993 29.689
C -6.083 42.345 30.143000000000004
C -6.054 42.695 31.636000000000003
C -6.688000000000001 43.522 29.3
C -5.631 44.373 28.618000000000002
C -5.931000000000001 44.76 27.136
C -5.8340000000000005 46.278 26.931000000000004
C -6.247 46.796 25.524000000000004
C -4.347000000000001 46.79200000000001 27.217000000000002
H -5.558 42.253 39.426
H -10.616000000000001 45.285000000000004 42.096000000000004
H -12.779 39.789 44.43000000000001
H -5.573 37.574 40.266000000000005
H -5.285000000000001 39.900000000000006 38.702
H -4.645 39.948 41.643
H -3.6390000000000002 40.46300000000001 40.20700000000001
H -3.691 38.823 40.781
H -6.689 38.376000000000005 37.747
H -7.878 37.478 38.595
H -6.835 35.708 37.654
H -5.4830000000000005 35.835 38.754
H -5.125000000000001 45.43600000000001 39.858
H -6.291000000000001 45.90400000000001 38.679
H -5.425 44.400000000000006 38.449
H -9.416 48.49600000000001 41.131
H -9.437 47.225 42.35
H -10.403 47.092 40.949
H -12.862 43.925 42.32
H -12.529000000000002 42.468 45.02300000000001
H -11.517 45.332 44.47200000000001
H -13.223000000000003 44.867 44.870000000000005
H -12.904 45.79900000000001 43.46600000000001
H -14.251000000000001 40.982 43.18000000000001
H -14.729000000000001 42.611 43.08700000000001
H -15.224000000000002 40.601 45.129000000000005
H -16.08 42.111000000000004 44.835
H -14.721000000000002 42.061 45.931
H -11.731 35.838 44.819
H -13.036000000000001 36.669 43.89600000000001
H -12.463 37.438 45.338
H -8.66 35.877 40.491
H -5.042 33.547 42.24900000000001
H -4.445 35.144000000000005 41.894
H -4.449 33.944 40.595
H -3.796 35.334 34.602
H -4.211 37.029 34.469
H -5.309 34.769 32.745
H -7.080000000000001 38.040000000000006 33.32900000000001
H -6.199 38.534 31.841000000000005
H -5.254 38.383 33.37400000000001
H -7.3260000000000005 36.763 30.775000000000002
H -7.165 35.161 31.446000000000005
H -5.5920000000000005 34.621 29.888000000000005
H -4.708 36.024 30.432000000000002
H -7.152000000000001 36.366 28.697
H -5.700000000000001 35.614 28.028
H -4.703 38.018 29.256
H -3.7200000000000006 38.263 27.400000000000002
H -5.122 38.264 26.487
H -4.246 36.689 26.875
H -7.351000000000001 38.456 29.183000000000003
H -7.053000000000001 38.733 27.405000000000005
H -6.3580000000000005 40.726000000000006 27.596000000000004
H -5.054 40.186 28.602000000000004
H -6.858 40.358000000000004 30.562000000000005
H -7.71 41.278 29.371000000000002
H -5.019 42.195 29.957
H -6.792 43.444 31.922
H -5.133 43.22200000000001 31.883
H -6.097000000000001 41.77300000000001 32.217
H -7.379 44.04800000000001 29.959000000000003
H -7.364000000000001 43.11 28.551000000000002
H -4.675000000000001 43.869 28.761000000000003
H -5.484 45.271 29.217
H -6.948 44.532 26.817
H -5.204 44.27300000000001 26.486
H -6.481 46.793000000000006 27.641
H -6.957 47.617000000000004 25.625
H -6.864 46.098 24.959000000000003
H -5.390000000000001 46.996 24.881
H -3.695 45.92100000000001 27.165
H -4.344 47.17100000000001 28.239
H -4.026 47.56900000000001 26.523000000000003

