280
Bchla 11 -- Bchla 26
Mg 52.532 24.272 45.278
C 49.695 26.145 43.971000000000004
C 51.04500000000001 21.439 44.032
C 55.55800000000001 22.862000000000002 45.08400000000001
C 53.786 27.156000000000002 46.565000000000005
N 50.65200000000001 23.900000000000002 43.946
C 49.60000000000001 24.825 43.60600000000001
C 48.415 24.053000000000004 43.019
C 48.70000000000001 22.567 43.387
C 50.226000000000006 22.57 43.84
C 47.769000000000005 22.007000000000005 44.56400000000001
C 48.044000000000004 24.343000000000004 41.59400000000001
C 49.095000000000006 25.060000000000002 40.714
C 48.96900000000001 25.397 39.217
O 48.814 26.490000000000002 38.7
O 48.923 24.209 38.402
N 53.202 22.330000000000002 44.767
C 52.423 21.316000000000003 44.255
C 53.276 20.093 44.131
C 54.571000000000005 20.566 44.327
C 54.53600000000001 21.98 44.693
C 52.686 18.786 43.735
C 55.857 19.705 44.161
O 55.729000000000006 18.565 43.751
C 57.24900000000001 20.219 44.324000000000005
N 54.406 25.034 45.628
C 55.489 24.156 45.60300000000001
C 56.748000000000005 24.823000000000004 46.157
C 56.169000000000004 26.074 46.912000000000006
C 54.729 26.077000000000005 46.394000000000005
C 57.69100000000001 23.988 47.061
C 56.925 27.423000000000002 46.689
C 57.797 27.947000000000003 47.92000000000001
N 51.876 26.259 45.369
C 52.486 27.322000000000003 46.019
C 51.586 28.449000000000005 46.025
C 50.55800000000001 28.021 45.17400000000001
C 50.791000000000004 26.666000000000004 44.832
C 51.912000000000006 29.799000000000003 46.687000000000005
C 49.30500000000001 28.377 44.58200000000001
O 48.718 29.466 44.743
C 48.584 27.144 43.87700000000001
C 48.236 27.644000000000002 42.532
O 48.985 28.235 41.74700000000001
O 46.97500000000001 27.217000000000002 42.277
C 46.327 27.762 41.043000000000006
C 48.504000000000005 24.347 36.97
C 49.038000000000004 23.025 36.183
C 48.51 21.799 36.159
C 47.160000000000004 21.356 36.757
C 49.15800000000001 20.707 35.271
C 50.643 20.476 35.634
C 51.51400000000001 20.759000000000004 34.429
C 52.881 20.132000000000005 34.723
C 53.995 20.630000000000003 33.703
C 52.957 18.602 34.688
C 52.149 17.939 33.537
C 52.75600000000001 16.582 33.12
C 51.855000000000004 15.649 32.315
C 50.88900000000001 15.007000000000001 33.288
C 52.63100000000001 14.592 31.513000000000005
C 53.483000000000004 15.137 30.251
C 52.884 14.534000000000002 28.954000000000004
C 53.893 13.766 28.055000000000003
C 53.843 14.023000000000001 26.477000000000004
C 53.88300000000001 12.239000000000003 28.139000000000003
H 50.579 20.542 43.620000000000005
H 56.538000000000004 22.383000000000003 45.028
H 54.161 28.033 47.096000000000004
H 47.651 24.444 43.691
H 48.717000000000006 21.909 42.518
H 47.153 21.264 44.059
H 47.213 22.832000000000004 45.010000000000005
H 48.447 21.516 45.263
H 47.087 24.863 41.633
H 47.846000000000004 23.335000000000004 41.22800000000001
H 49.999 24.46 40.823
H 49.294000000000004 26.052 41.120000000000005
H 53.066 18.579 42.735
H 51.601 18.884 43.754
H 52.95100000000001 18.031 44.476000000000006
H 57.605000000000004 20.973000000000003 43.623000000000005
H 58.003 19.451 44.15400000000001
H 57.23 20.507000000000005 45.37500000000001
H 57.212 25.048 45.196
H 56.15200000000001 25.774000000000004 47.96
H 58.567 23.603 46.538
H 57.165 23.102 47.415000000000006
H 57.94800000000001 24.606 47.922000000000004
H 56.284 28.251000000000005 46.385
H 57.545 27.232000000000003 45.813
H 58.71300000000001 28.267000000000003 47.424
H 58.013000000000005 27.199000000000005 48.68300000000001
H 57.20100000000001 28.707 48.42400000000001
H 51.050000000000004 30.363000000000003 47.044
H 52.358000000000004 30.332000000000004 45.848000000000006
H 52.476 29.641000000000002 47.606
H 47.714 26.852 44.467
H 45.32600000000001 27.34 40.947
H 46.887 27.487 40.149
H 46.323 28.832000000000004 41.246
H 49.04600000000001 25.194000000000003 36.55
H 47.461 24.659 37.022
H 49.982000000000006 23.094 35.642
H 47.34100000000001 20.633 37.55200000000001
H 46.475 20.976 35.999
H 46.72 22.222000000000005 37.251
H 49.119 21.189 34.294
H 48.70000000000001 19.718 35.274
H 50.672 19.404 35.826
H 50.967 20.965000000000003 36.553
H 51.52900000000001 21.825000000000003 34.199
H 51.024 20.206 33.627
H 53.11800000000001 20.545000000000005 35.703
H 54.614000000000004 21.416 34.135
H 53.668000000000006 20.97 32.72
H 54.68900000000001 19.819 33.483000000000004
H 52.42100000000001 18.206 35.55
H 53.973000000000006 18.222 34.798
H 51.782000000000004 18.585 32.74
H 51.127 17.666 33.797
H 53.10000000000001 16.127 34.049
H 53.62100000000001 16.787 32.49000000000001
H 51.30500000000001 16.181 31.539
H 49.88700000000001 15.268 32.946
H 51.039 15.344 34.314
H 51.129 13.946000000000002 33.364
H 51.94 13.799000000000001 31.226000000000003
H 53.327 14.130000000000003 32.212
H 54.53 14.875 30.410000000000004
H 53.293 16.207 30.165000000000003
H 52.492000000000004 15.372000000000002 28.378
H 52.05100000000001 13.891 29.237000000000002
H 54.858000000000004 14.146 28.390000000000004
H 52.805 14.088000000000001 26.150000000000002
H 54.302 13.211000000000002 25.913000000000004
H 54.379 14.958 26.307000000000002
H 54.888000000000005 11.862000000000002 28.333
H 53.416 11.801000000000002 27.257
H 53.42400000000001 11.959 29.087
Mg -9.126 18.730000000000004 43.07000000000001
C -5.623 18.445 42.867
C -8.711 22.083 42.24600000000001
C -12.431000000000001 19.033 42.793
C -9.303 15.266000000000002 42.957
N -7.320000000000001 20.025 42.453
C -5.9670000000000005 19.766 42.55400000000001
C -5.07 20.986000000000004 42.549
C -6.066000000000001 22.157 42.373000000000005
C -7.448000000000001 21.426 42.335
C -5.986000000000001 23.258000000000003 43.507
C -3.936 21.031 41.43
C -4.226 20.351 40.08200000000001
C -4.566 21.252 38.858
O -4.983 22.394 38.902
O -4.154 20.569000000000003 37.738
N -10.362 20.306 42.605
C -10.015 21.604 42.359
C -11.224 22.428000000000004 42.220000000000006
C -12.336 21.546 42.382
C -11.711 20.205 42.598
C -11.197 23.932 41.97500000000001
C -13.794000000000002 22.107 42.18800000000001
O -13.918 23.281 41.86800000000001
C -15.046 21.141000000000002 42.316
N -10.602 17.364 42.777
C -11.949000000000002 17.711 42.852
C -12.887000000000002 16.376 42.87100000000001
C -11.752 15.220000000000002 42.763
C -10.485 16.009 42.845000000000006
C -13.77 16.281 44.15
C -11.807 14.336000000000002 41.444
C -11.819000000000003 12.805 41.574
N -7.7620000000000005 17.118 43.062
C -7.944 15.760000000000002 43.004
C -6.617000000000001 15.110000000000001 42.96500000000001
C -5.679 16.175 43.031
C -6.456 17.367 43.038
C -6.315 13.641000000000002 42.857
C -4.231 16.453 42.988
O -3.231 15.722000000000001 43.038
C -4.164 17.97 43.083
C -3.5420000000000003 18.424 44.281
O -4.154 18.455 45.38
O -2.218 18.846 44.04800000000001
C -1.496 19.491 45.14
C -4.399 21.306000000000004 36.473
C -5.725 20.955 35.967
C -6.1370000000000005 19.839 35.287
C -5.182000000000001 18.625 34.982
C -7.544 19.696 34.631
C -8.371 18.342 34.658
C -9.373000000000001 18.281 33.396
C -10.574000000000002 19.305 33.518
C -12.010000000000002 18.792 33.242
C -10.234000000000002 20.449 32.52000000000001
C -10.952 21.722 32.66
C -10.067000000000002 23.01 32.543
C -10.386 24.031000000000002 31.351
C -9.902 25.492000000000004 31.781000000000002
C -9.853000000000002 23.521 29.945000000000004
C -10.927 23.089 28.928000000000004
C -10.649 23.747000000000003 27.590000000000003
C -11.247 22.823 26.473
C -10.677000000000001 23.281 25.195000000000004
C -12.813 23.069000000000003 26.424000000000003
H -8.639 23.169 42.161
H -13.517000000000001 19.116 42.866
H -9.445 14.184000000000001 42.983000000000004
H -4.615 20.947 43.538
H -5.923 22.509 41.352000000000004
H -5.582000000000001 24.18 43.089000000000006
H -5.326 22.85 44.27300000000001
H -6.972 23.481 43.916
H -3.1410000000000005 20.464 41.916000000000004
H -3.607 22.062000000000005 41.298
H -5.037000000000001 19.629000000000005 40.183
H -3.369 19.729 39.827
H -11.415 24.232 40.95
H -10.312 24.386000000000003 42.421
H -11.944 24.436 42.588
H -14.909 20.569000000000003 43.234
H -15.05 20.497 41.437
H -16.006 21.639 42.18
H -13.597000000000001 16.501 42.054
H -11.833 14.613 43.665000000000006
H -13.233 15.665 44.87100000000001
H -14.782000000000002 15.934 43.94100000000001
H -13.987 17.243 44.614000000000004
H -10.98 14.667000000000002 40.815
H -12.761 14.648000000000001 41.019
H -11.511 12.313 40.651
H -12.866 12.602000000000002 41.798
H -11.126000000000001 12.603 42.391
H -7.190000000000001 13.229 42.355000000000004
H -6.334 13.325 43.9
H -5.341 13.395000000000001 42.43300000000001
H -3.567 18.212000000000003 42.20400000000001
H -1.2760000000000002 18.888 46.021
H -2.039 20.376000000000005 45.473
H -0.613 19.949000000000005 44.694
H -3.676 21.036 35.703
H -4.307 22.369 36.695
H -6.495000000000001 21.722 36.05800000000001
H -5.377 17.629 35.38
H -4.238 18.924 35.438
H -5.161 18.589 33.893
H -7.388 20.052 33.613
H -8.198 20.459 35.05200000000001
H -8.936 18.469 35.581
H -7.766000000000001 17.435000000000002 34.655
H -9.842 17.3 33.317
H -8.822 18.333 32.457
H -10.601 19.869 34.451
H -12.414000000000001 19.139 32.291
H -12.603 19.111000000000004 34.099
H -12.128 17.728 33.037
H -10.602 19.957 31.619
H -9.147 20.535 32.495
H -11.314 21.746 33.688
H -11.71 21.831 31.884
H -9.041 22.649000000000004 32.464
H -10.156 23.53 33.497
H -11.451 24.201 31.196
H -9.277 25.944000000000003 31.010000000000005
H -9.433 25.501000000000005 32.765
H -10.762 26.111000000000004 32.037
H -9.307 22.588000000000005 30.088000000000005
H -9.114 24.234000000000005 29.577000000000005
H -11.878 23.463 29.306
H -11.043000000000001 22.006 28.975000000000005
H -9.564 23.803 27.501
H -11.018 24.755000000000003 27.407000000000004
H -11.044 21.759 26.592000000000002
H -10.832 24.356000000000005 25.097000000000005
H -11.183 22.865 24.324000000000005
H -9.607 23.08 25.141
H -13.052000000000001 23.493 27.399000000000004
H -13.38 22.146000000000004 26.302000000000003
H -13.14 23.826 25.711

