280
Bchla 16 -- Bchla 19
Mg 41.128 41.857 26.986000000000004
C 40.12700000000001 44.179 29.640000000000004
C 41.31 39.41 29.487000000000002
C 42.362 39.821 24.759
C 40.706 44.363 24.683
N 40.967 41.85000000000001 29.292
C 40.42100000000001 42.87500000000001 30.173000000000002
C 40.337 42.444 31.653000000000002
C 40.946 40.93 31.521000000000004
C 41.116 40.672 30.011000000000003
C 42.224 40.714 32.30800000000001
C 38.879000000000005 42.588 32.185
C 38.608 41.92700000000001 33.503
C 37.806 42.656 34.558
O 36.63600000000001 42.977 34.464
O 38.578 42.832 35.656
N 41.790000000000006 39.861 27.081
C 41.782 39.01 28.192000000000004
C 42.266000000000005 37.687 27.802000000000003
C 42.58400000000001 37.776 26.385000000000005
C 42.256 39.192 25.977
C 42.314 36.43 28.746000000000002
C 43.165000000000006 36.784 25.443
O 43.357 36.978 24.250000000000004
C 43.446 35.412 25.898000000000003
N 41.39 42.02100000000001 25.045
C 42.033 41.096 24.33
C 42.18900000000001 41.492 22.843
C 41.281 42.702 22.769
C 41.150000000000006 43.123 24.284
C 43.629 41.801 22.450000000000003
C 39.923 42.668 22.117
C 38.933 41.74 22.788
N 40.641 43.879000000000005 27.096
C 40.411 44.754 26.019000000000002
C 40.010000000000005 46.038 26.539
C 39.836 45.769000000000005 27.921
C 40.241 44.456 28.228000000000005
C 39.646 47.283 25.784000000000002
C 39.341 46.432 29.167000000000005
O 38.79 47.540000000000006 29.341000000000005
C 39.558 45.418000000000006 30.288000000000004
C 40.418000000000006 46.035 31.393000000000004
O 41.619 46.436 31.367000000000004
O 39.694 45.959 32.546
C 40.382 46.431 33.769
C 37.972 43.741 36.706
C 37.574 42.791 37.816
C 37.692 43.059000000000005 39.146
C 38.107 44.419 39.656000000000006
C 37.27 41.983 40.20400000000001
C 38.272 40.807 40.183
C 37.583 39.425 40.324
C 38.098 38.728 41.57900000000001
C 37.744 37.244 41.398
C 37.615 39.345 42.96
C 38.697 40.124 43.707
C 39.469 39.301 44.73500000000001
C 38.609 38.788 45.914
C 39.059 39.431 47.20100000000001
C 38.555 37.19 45.934
C 37.278000000000006 36.605 46.585
C 36.291 36.027 45.586
C 34.878 36.459 45.868
C 34.301 37.107 44.649
C 34.079 35.17400000000001 46.352000000000004
H 41.17 38.614 30.220000000000002
H 42.832 39.178 24.012
H 40.576 45.214 24.011
H 40.932 43.17900000000001 32.195
H 40.172 40.215 31.8
H 42.06 39.902 33.017
H 42.405 41.638000000000005 32.85600000000001
H 43.161 40.691 31.752000000000002
H 38.23700000000001 42.28000000000001 31.359
H 38.658 43.649 32.302
H 39.473 41.65400000000001 34.107
H 37.991 41.044 33.339
H 41.633 35.714 28.285
H 41.971 36.635 29.760000000000005
H 43.348000000000006 36.085 28.737
H 43.925 35.361 26.876
H 44.12500000000001 35.027 25.138
H 42.456 34.986 26.058000000000003
H 41.847 40.643 22.251000000000005
H 41.737 43.523 22.215000000000003
H 43.814 41.38100000000001 21.462
H 44.334 41.357 23.152000000000005
H 43.75500000000001 42.873000000000005 22.294
H 40.06700000000001 42.457 21.057000000000002
H 39.412000000000006 43.624 22.230000000000004
H 38.398 41.123000000000005 22.067
H 38.142 42.27600000000001 23.313000000000002
H 39.38000000000001 41.041 23.495000000000005
H 38.67 47.638 26.114
H 39.6 47.281000000000006 24.695
H 40.393 48.035 26.039
H 38.593 45.21900000000001 30.755
H 40.75500000000001 45.577 34.334
H 39.563 47.0 34.209
H 41.153000000000006 47.172 33.554
H 37.073 44.294000000000004 36.435
H 38.636 44.543 37.026
H 37.258 41.783 37.548
H 37.852 45.182 38.92
H 39.181 44.437 39.841
H 37.575 44.6 40.59
H 36.238 41.705 39.993
H 37.241 42.487 41.171
H 38.955 40.972 41.016000000000005
H 38.875 40.753 39.276
H 37.849 38.959 39.376
H 36.49900000000001 39.533 40.369
H 39.186 38.801 41.592
H 36.655 37.23 41.443000000000005
H 38.13000000000001 36.814 42.322
H 38.217 36.814 40.516
H 37.123 38.539 43.505
H 36.764 39.999 42.76800000000001
H 38.214 40.962 44.21
H 39.396 40.535 42.980000000000004
H 40.363 39.85300000000001 45.027
H 39.878 38.503 44.115
H 37.558 38.994 45.71000000000001
H 39.366 38.678 47.927
H 38.265 40.061 47.602000000000004
H 39.869 40.121 46.963
H 39.413 36.793 46.475
H 38.617 36.954 44.87100000000001
H 36.802 37.453 47.078
H 37.413 35.823 47.332
H 36.381 34.948 45.718
H 36.52 36.229 44.54
H 34.71600000000001 37.315 46.523
H 34.801 38.012 44.303
H 33.254000000000005 37.348 44.831
H 34.363 36.432 43.796
H 33.919 34.388 45.614
H 33.095 35.481 46.706
H 34.47200000000001 34.646 47.221000000000004
Mg 26.065000000000005 50.95300000000001 26.706000000000003
C 23.951 52.215 29.088
C 28.121000000000002 49.839 29.1
C 28.157 49.986 24.246
C 24.066000000000003 52.636 24.178
N 26.141000000000002 51.278000000000006 28.897
C 25.135000000000005 51.71 29.667
C 25.495 51.528 31.230000000000004
C 26.854 50.74300000000001 31.104000000000003
C 27.116000000000003 50.625 29.589
C 28.001000000000005 51.35300000000001 31.933000000000003
C 24.408 50.766 32.04
C 24.787 50.214 33.453
C 24.268 51.007 34.712
O 23.719 52.11 34.698
O 24.641000000000002 50.306 35.88
N 27.93 50.07200000000001 26.682000000000002
C 28.561 49.60000000000001 27.737
C 29.781 48.943000000000005 27.293000000000003
C 29.903 49.05100000000001 25.875000000000004
C 28.628 49.72200000000001 25.539000000000005
C 30.861 48.38000000000001 28.202
C 31.037 48.646 24.939
O 31.095000000000002 49.077 23.791000000000004
C 32.084 47.716 25.444
N 26.12 51.313 24.517000000000003
C 27.055000000000003 50.765 23.75
C 26.752000000000002 50.943000000000005 22.253000000000004
C 25.369 51.586 22.316
C 25.2 51.889 23.758
C 27.773000000000003 51.706 21.396
C 24.299 50.82000000000001 21.58
C 23.638000000000005 51.55200000000001 20.358
N 24.377 52.102000000000004 26.606000000000005
C 23.616 52.655 25.522
C 22.390000000000004 53.257000000000005 25.998
C 22.524 53.063 27.401
C 23.716000000000005 52.38900000000001 27.695000000000004
C 21.202 53.785 25.274
C 21.720000000000002 53.18300000000001 28.591
O 20.533 53.46900000000001 28.808000000000003
C 22.59 52.785000000000004 29.757
C 22.959 54.06 30.547000000000004
O 23.296 55.163000000000004 30.090000000000003
O 22.859 53.764 31.874000000000002
C 23.135000000000005 54.861000000000004 32.855
C 24.213000000000005 51.092000000000006 37.008
C 24.358000000000004 50.357 38.372
C 25.489 50.32600000000001 39.147
C 26.819000000000003 50.83 38.775
C 25.372000000000003 49.44400000000001 40.37100000000001
C 25.554000000000002 47.93500000000001 39.982
C 26.947000000000003 47.28000000000001 40.486
C 26.801 46.108000000000004 41.519000000000005
C 26.799 44.76100000000001 40.68000000000001
C 25.539000000000005 46.252 42.443
C 25.622000000000003 45.723 43.914
C 25.32 46.732000000000006 45.14500000000001
C 26.597000000000005 47.33 45.901
C 26.665 47.038000000000004 47.405
C 26.805000000000003 48.827 45.55500000000001
C 27.300000000000004 49.013 44.098
C 28.364000000000004 50.123 43.871
C 27.962000000000003 51.542 44.435
C 26.926000000000002 52.29900000000001 43.625
C 29.211 52.393 44.631
H 28.807000000000002 49.32300000000001 29.775
H 28.858 49.892 23.414
H 23.446 52.99600000000001 23.355
H 25.654000000000003 52.548 31.578
H 26.675000000000004 49.724000000000004 31.447000000000003
H 28.522 50.52300000000001 32.409
H 27.63 51.99000000000001 32.736000000000004
H 28.681 51.921 31.298
H 24.236000000000004 49.845000000000006 31.483000000000004
H 23.534000000000002 51.402 32.18
H 25.869 50.31100000000001 33.548
H 24.402000000000005 49.199 33.545
H 30.596 48.495 29.253
H 31.799 48.905 28.023000000000003
H 31.042000000000005 47.32300000000001 28.011
H 31.535000000000004 46.89 25.897000000000002
H 32.836 48.009 26.176
H 32.723 47.329 24.651
H 26.668000000000003 49.949000000000005 21.815
H 25.436 52.54200000000001 21.797
H 27.79 51.15500000000001 20.456
H 28.731000000000005 51.77600000000001 21.911
H 27.545 52.763 21.259
H 23.5 50.72800000000001 22.315
H 24.633000000000003 49.85300000000001 21.205
H 24.061000000000003 52.551 20.249000000000002
H 22.576 51.657000000000004 20.582
H 23.656000000000002 51.00200000000001 19.417
H 21.273 53.547000000000004 24.213000000000005
H 21.298 54.869 25.324000000000005
H 20.348000000000003 53.311 25.760000000000005
H 21.961 52.11200000000001 30.340000000000003
H 24.035000000000004 55.444 32.658
H 23.152000000000005 54.540000000000006 33.896
H 22.32 55.57300000000001 32.726
H 23.164 51.370000000000005 36.904
H 24.735 52.04900000000001 36.991
H 23.435000000000002 50.003 38.831
H 26.934000000000005 50.83200000000001 37.691
H 27.435000000000002 50.019 39.163
H 27.154000000000003 51.742 39.269
H 24.409 49.542 40.872
H 26.109000000000005 49.675000000000004 41.141
H 25.546000000000003 47.88600000000001 38.893
H 24.631000000000004 47.434000000000005 40.274
H 27.574000000000005 48.018 40.986000000000004
H 27.513000000000005 46.935 39.621
H 27.663000000000004 46.207 42.179
H 27.840000000000003 44.53 40.454
H 26.335 44.86 39.699
H 26.338000000000005 44.035000000000004 41.349000000000004
H 24.71 45.665000000000006 42.047
H 25.245 47.29600000000001 42.55400000000001
H 26.594 45.278 44.129
H 24.945000000000004 44.870000000000005 43.952
H 24.594000000000005 46.364000000000004 45.87
H 24.867000000000004 47.651 44.773
H 27.498000000000005 46.864 45.502
H 26.505000000000003 47.96600000000001 47.955
H 27.673000000000002 46.681 47.61600000000001
H 25.948 46.264 47.67700000000001
H 27.542000000000005 49.20400000000001 46.264
H 25.854 49.33800000000001 45.704
H 26.411 49.34000000000001 43.559
H 27.643000000000004 48.07300000000001 43.666
H 28.532000000000004 50.217 42.79900000000001
H 29.274000000000004 49.78300000000001 44.36500000000001
H 27.622 51.463 45.467000000000006
H 27.403 52.895 42.847
H 26.347000000000005 52.897 44.329
H 26.228 51.541 43.269000000000005
H 28.882000000000005 53.376000000000005 44.293000000000006
H 30.052000000000003 51.935 44.111000000000004
H 29.556000000000004 52.321 45.663

