280
Bchla 9 -- Bchla 18
Mg 35.716 1.255 29.884000000000004
C 33.26 2.269 32.062
C 37.975 1.1840000000000002 32.632
C 38.346000000000004 0.782 27.813
C 33.67 1.646 27.255000000000003
N 35.616 1.6870000000000003 32.102
C 34.475 2.1030000000000006 32.73400000000001
C 34.689 2.203 34.246
C 36.276 2.035 34.333
C 36.659 1.612 32.945
C 37.029 3.3020000000000005 34.882
C 33.912 1.084 35.079
C 33.167 1.39 36.356
C 33.843 2.221 37.388
O 33.42100000000001 3.3410000000000006 37.728
O 34.933 1.6400000000000001 37.876
N 37.887 0.958 30.157000000000004
C 38.55 0.788 31.322000000000003
C 39.891 0.361 31.101
C 40.027 0.20000000000000004 29.686000000000003
C 38.73 0.727 29.166000000000004
C 40.80200000000001 0.22400000000000003 32.278000000000006
C 41.264 -0.169 28.885000000000005
O 41.33400000000001 -0.005 27.663000000000004
C 42.484 -0.7440000000000001 29.583
N 36.02 1.3670000000000002 27.779000000000003
C 37.178 1.001 27.169000000000004
C 36.981 0.8910000000000001 25.658
C 35.415 1.001 25.519
C 34.996 1.352 26.933000000000003
C 37.785 1.7880000000000003 24.671000000000003
C 34.665 -0.246 24.889000000000003
C 34.104 -1.334 25.78
N 33.899 1.9220000000000002 29.647000000000002
C 33.078 1.916 28.548000000000002
C 31.778 2.415 28.813
C 31.777 2.525 30.2
C 33.078 2.193 30.658
C 30.562000000000005 2.677 27.934
C 31.029 2.8750000000000004 31.327
O 29.887 3.2940000000000005 31.372
C 31.955 2.758 32.664
C 32.02 4.078 33.279
O 32.548 5.092 32.781000000000006
O 31.387 4.147 34.48
C 31.1 5.466000000000001 35.055
C 35.582 2.283 39.059
C 36.956 1.7520000000000002 39.281
C 37.663 1.5670000000000002 40.454
C 37.082 1.906 41.858
C 39.057 0.9960000000000001 40.45000000000001
C 39.271 -0.353 41.11
C 40.193000000000005 -0.233 42.373000000000005
C 41.643 -0.44000000000000006 42.059
C 42.00600000000001 -1.9290000000000003 42.095
C 42.605 0.519 42.836
C 43.418 1.449 41.91
C 44.351 2.278 42.795
C 44.666 3.6660000000000004 42.14300000000001
C 46.05 3.6770000000000005 41.413000000000004
C 44.807 4.773 43.233
C 43.974000000000004 6.069 42.94800000000001
C 44.742 7.371 43.228
C 44.525 8.505 42.286
C 45.78600000000001 8.771 41.42400000000001
C 43.991 9.797 43.02700000000001
H 38.549 1.115 33.55800000000001
H 39.099 0.356 27.147000000000002
H 32.904 1.431 26.508000000000003
H 34.281 3.1550000000000002 34.588
H 36.555 1.259 35.046
H 37.568 3.0020000000000002 35.78
H 36.247 4.051 35.008
H 37.838 3.673 34.252
H 34.722 0.389 35.301
H 33.307 0.459 34.423
H 32.77 0.47 36.785
H 32.335 2.027 36.05800000000001
H 41.314 -0.725 32.123
H 40.23 0.11700000000000002 33.2
H 41.52900000000001 1.024 32.422
H 42.25000000000001 -1.4870000000000003 30.346000000000004
H 43.158 0.065 29.868000000000002
H 42.999 -1.3 28.799
H 37.387 -0.09500000000000001 25.431000000000004
H 35.108 1.7500000000000002 24.79
H 37.128 2.526 24.211
H 38.164 1.1220000000000003 23.896
H 38.578 2.241 25.265000000000004
H 35.37100000000001 -0.715 24.205000000000002
H 33.813 0.096 24.301
H 34.443 -2.324 25.474
H 33.014 -1.3470000000000002 25.820000000000004
H 34.482 -1.099 26.775000000000002
H 30.791000000000004 2.376 26.911000000000005
H 30.304000000000002 3.735 27.987000000000002
H 29.727 2.091 28.317
H 31.326 2.109 33.274
H 30.272000000000002 5.471 35.764
H 31.016 6.283000000000001 34.339
H 31.936 5.664 35.726
H 35.108 1.9540000000000002 39.984
H 35.775 3.3420000000000005 38.89
H 37.467 1.4470000000000003 38.368
H 37.873000000000005 2.264 42.516
H 36.72 1.008 42.359
H 36.27000000000001 2.623 41.733000000000004
H 39.772 1.6710000000000003 40.919
H 39.282 0.849 39.393
H 39.536 -1.174 40.445
H 38.274 -0.6480000000000001 41.43900000000001
H 39.775 -1.0030000000000001 43.021
H 40.001 0.6730000000000002 42.94800000000001
H 41.848 -0.15700000000000003 41.027
H 42.301 -2.254 41.097
H 41.147 -2.584 42.237
H 42.72200000000001 -2.184 42.877
H 43.228 -0.037000000000000005 43.537
H 41.94500000000001 1.215 43.355
H 42.623 2.041 41.455
H 44.03 0.9260000000000002 41.175
H 45.262 1.704 42.962
H 44.00300000000001 2.425 43.818
H 43.904 3.914 41.404
H 46.194 4.66 40.965
H 45.93600000000001 2.868 40.69200000000001
H 46.74300000000001 3.305 42.168
H 45.84 5.106000000000001 43.335
H 44.48700000000001 4.384 44.20000000000001
H 43.05700000000001 6.043000000000001 43.535
H 43.678 6.089000000000001 41.89900000000001
H 45.80100000000001 7.203 43.426
H 44.400000000000006 7.671000000000001 44.219
H 43.757000000000005 8.162 41.59300000000001
H 45.362 9.038 40.457
H 46.351000000000006 7.847 41.306000000000004
H 46.401 9.604 41.767
H 44.493 10.048000000000002 43.961
H 42.917 9.926 43.167
H 44.126000000000005 10.671 42.389
Mg 35.496 50.254000000000005 25.270000000000003
C 35.177 48.233 28.133
C 33.951 52.80200000000001 27.062000000000005
C 35.524 52.00900000000001 22.451000000000004
C 36.25500000000001 47.316 23.351000000000003
N 34.65 50.479 27.32
C 34.759 49.532 28.348
C 34.558 50.223000000000006 29.684000000000005
C 33.901 51.589 29.336000000000002
C 34.189 51.633 27.805
C 32.412 51.77300000000001 29.767000000000003
C 35.851 50.335 30.564
C 35.577 50.303000000000004 32.132
C 34.122 50.22500000000001 32.602
O 33.488 49.211 32.821
O 33.522 51.448 32.761
N 34.963 52.12400000000001 24.874000000000002
C 34.418 53.04500000000001 25.752000000000002
C 34.292 54.33 25.127000000000002
C 34.619 54.108000000000004 23.751
C 35.084 52.735 23.667
C 33.723 55.59000000000001 25.848
C 34.526 55.05800000000001 22.602000000000004
O 34.699 54.67600000000001 21.42
C 34.142 56.56700000000001 22.603000000000005
N 35.57000000000001 49.711 23.153000000000002
C 35.668 50.65100000000001 22.194
C 36.166 50.02300000000001 20.868
C 36.379000000000005 48.52900000000001 21.137
C 36.086 48.524 22.702000000000005
C 35.302 50.411 19.707
C 37.754 47.93500000000001 20.763
C 38.97 48.585 21.468000000000004
N 35.635 48.14500000000001 25.593000000000004
C 36.093 47.168 24.776000000000003
C 36.325 45.994 25.616000000000003
C 36.017 46.322 26.966
C 35.543 47.655 26.904000000000003
C 36.938 44.675000000000004 25.153
C 35.967 45.839 28.309
O 36.341 44.806 28.858
C 35.323 47.11200000000001 29.167000000000005
C 34.105 46.631 29.933
O 33.007 46.491 29.431000000000004
O 34.39500000000001 46.48 31.270000000000003
C 33.502 45.678 32.1
C 32.179 51.407 33.44
C 31.728000000000005 52.757000000000005 33.816
C 31.476000000000003 53.20700000000001 35.06
C 31.585 52.419000000000004 36.34
C 31.232000000000003 54.65800000000001 35.253
C 32.494 55.578 35.358000000000004
C 32.199 56.97 34.852
C 32.095 57.93800000000001 36.032
C 33.53 58.581 36.387
C 31.056000000000004 59.133 35.87400000000001
C 29.751000000000005 59.058 36.829
C 29.767000000000003 60.111 37.94
C 29.644 61.531000000000006 37.366
C 30.948 62.357000000000006 37.629000000000005
C 28.401 62.13900000000001 37.941
C 27.155000000000005 61.73500000000001 37.126000000000005
C 25.977 62.101000000000006 38.07000000000001
C 25.105000000000004 63.313 37.609
C 24.682 64.143 38.785
C 23.953000000000003 62.854 36.704
H 33.579 53.562000000000005 27.752
H 35.604 52.66100000000001 21.579
H 36.619 46.49900000000001 22.725000000000005
H 33.857 49.64500000000001 30.286000000000005
H 34.499 52.36000000000001 29.821000000000005
H 31.927000000000003 52.02300000000001 28.824000000000005
H 32.302 52.650000000000006 30.406
H 31.871000000000002 50.93900000000001 30.214
H 36.348 51.294000000000004 30.421
H 36.547 49.55500000000001 30.258000000000003
H 35.894 51.265 32.535
H 36.149 49.471 32.542
H 33.111 56.132 25.126000000000005
H 34.505 56.27400000000001 26.176
H 33.128 55.503 26.757000000000005
H 34.79 57.12800000000001 23.277
H 33.09 56.730000000000004 22.837
H 34.455 57.11 21.712000000000003
H 37.076 50.566 20.616
H 35.498 48.04500000000001 20.714000000000002
H 35.746 51.194 19.092
H 34.312 50.699000000000005 20.061
H 35.072 49.59 19.027
H 37.831 48.14500000000001 19.696
H 37.755 46.857 20.927000000000003
H 39.444 47.775 22.022
H 38.574 49.35600000000001 22.129000000000005
H 39.645 49.119 20.799
H 37.675 44.286 25.855
H 37.529 44.806 24.247
H 36.124 43.98800000000001 24.920000000000005
H 36.093 47.354 29.900000000000002
H 32.487 45.915 31.780000000000005
H 33.564 45.882 33.169
H 33.815 44.645 31.948000000000004
H 32.265 50.727000000000004 34.287
H 31.423000000000002 51.004000000000005 32.766000000000005
H 31.65 53.498000000000005 33.021
H 30.704 52.510000000000005 36.975
H 32.324 52.846000000000004 37.01700000000001
H 31.698000000000004 51.339000000000006 36.24000000000001
H 30.791000000000004 54.83800000000001 36.233
H 30.508000000000003 55.014 34.52
H 33.249 55.124 34.715
H 32.94 55.631 36.351
H 31.333000000000002 56.919000000000004 34.192
H 32.992 57.23800000000001 34.153000000000006
H 31.795000000000005 57.422000000000004 36.944
H 33.614 59.644000000000005 36.163
H 34.30500000000001 58.039 35.845
H 33.851 58.384 37.41
H 30.661000000000005 59.072 34.859
H 31.512 60.117000000000004 35.98100000000001
H 29.423 58.069 37.15
H 28.914000000000005 59.32500000000001 36.184
H 30.794 59.96000000000001 38.273
H 28.948 59.747 38.56
H 29.581 61.56700000000001 36.278
H 31.798000000000002 61.8 38.02300000000001
H 30.697000000000003 63.114 38.371
H 31.266 62.821 36.696
H 28.527000000000005 63.219 37.874
H 28.265 61.888000000000005 38.993
H 27.274 60.72200000000001 36.74
H 27.103 62.354 36.23
H 26.344 62.379 39.058
H 25.434 61.177 38.26700000000001
H 25.737000000000002 63.849000000000004 36.901
H 25.303000000000004 65.034 38.686
H 24.842 63.722 39.778000000000006
H 23.602000000000004 64.275 38.717
H 23.032 62.759 37.28
H 24.164 61.967 36.107
H 23.724000000000004 63.565000000000005 35.911

