280
Bchla 16 -- Bchla 17
Mg 41.128 41.857 26.986000000000004
C 40.12700000000001 44.179 29.640000000000004
C 41.31 39.41 29.487000000000002
C 42.362 39.821 24.759
C 40.706 44.363 24.683
N 40.967 41.85000000000001 29.292
C 40.42100000000001 42.87500000000001 30.173000000000002
C 40.337 42.444 31.653000000000002
C 40.946 40.93 31.521000000000004
C 41.116 40.672 30.011000000000003
C 42.224 40.714 32.30800000000001
C 38.879000000000005 42.588 32.185
C 38.608 41.92700000000001 33.503
C 37.806 42.656 34.558
O 36.63600000000001 42.977 34.464
O 38.578 42.832 35.656
N 41.790000000000006 39.861 27.081
C 41.782 39.01 28.192000000000004
C 42.266000000000005 37.687 27.802000000000003
C 42.58400000000001 37.776 26.385000000000005
C 42.256 39.192 25.977
C 42.314 36.43 28.746000000000002
C 43.165000000000006 36.784 25.443
O 43.357 36.978 24.250000000000004
C 43.446 35.412 25.898000000000003
N 41.39 42.02100000000001 25.045
C 42.033 41.096 24.33
C 42.18900000000001 41.492 22.843
C 41.281 42.702 22.769
C 41.150000000000006 43.123 24.284
C 43.629 41.801 22.450000000000003
C 39.923 42.668 22.117
C 38.933 41.74 22.788
N 40.641 43.879000000000005 27.096
C 40.411 44.754 26.019000000000002
C 40.010000000000005 46.038 26.539
C 39.836 45.769000000000005 27.921
C 40.241 44.456 28.228000000000005
C 39.646 47.283 25.784000000000002
C 39.341 46.432 29.167000000000005
O 38.79 47.540000000000006 29.341000000000005
C 39.558 45.418000000000006 30.288000000000004
C 40.418000000000006 46.035 31.393000000000004
O 41.619 46.436 31.367000000000004
O 39.694 45.959 32.546
C 40.382 46.431 33.769
C 37.972 43.741 36.706
C 37.574 42.791 37.816
C 37.692 43.059000000000005 39.146
C 38.107 44.419 39.656000000000006
C 37.27 41.983 40.20400000000001
C 38.272 40.807 40.183
C 37.583 39.425 40.324
C 38.098 38.728 41.57900000000001
C 37.744 37.244 41.398
C 37.615 39.345 42.96
C 38.697 40.124 43.707
C 39.469 39.301 44.73500000000001
C 38.609 38.788 45.914
C 39.059 39.431 47.20100000000001
C 38.555 37.19 45.934
C 37.278000000000006 36.605 46.585
C 36.291 36.027 45.586
C 34.878 36.459 45.868
C 34.301 37.107 44.649
C 34.079 35.17400000000001 46.352000000000004
H 41.17 38.614 30.220000000000002
H 42.832 39.178 24.012
H 40.576 45.214 24.011
H 40.932 43.17900000000001 32.195
H 40.172 40.215 31.8
H 42.06 39.902 33.017
H 42.405 41.638000000000005 32.85600000000001
H 43.161 40.691 31.752000000000002
H 38.23700000000001 42.28000000000001 31.359
H 38.658 43.649 32.302
H 39.473 41.65400000000001 34.107
H 37.991 41.044 33.339
H 41.633 35.714 28.285
H 41.971 36.635 29.760000000000005
H 43.348000000000006 36.085 28.737
H 43.925 35.361 26.876
H 44.12500000000001 35.027 25.138
H 42.456 34.986 26.058000000000003
H 41.847 40.643 22.251000000000005
H 41.737 43.523 22.215000000000003
H 43.814 41.38100000000001 21.462
H 44.334 41.357 23.152000000000005
H 43.75500000000001 42.873000000000005 22.294
H 40.06700000000001 42.457 21.057000000000002
H 39.412000000000006 43.624 22.230000000000004
H 38.398 41.123000000000005 22.067
H 38.142 42.27600000000001 23.313000000000002
H 39.38000000000001 41.041 23.495000000000005
H 38.67 47.638 26.114
H 39.6 47.281000000000006 24.695
H 40.393 48.035 26.039
H 38.593 45.21900000000001 30.755
H 40.75500000000001 45.577 34.334
H 39.563 47.0 34.209
H 41.153000000000006 47.172 33.554
H 37.073 44.294000000000004 36.435
H 38.636 44.543 37.026
H 37.258 41.783 37.548
H 37.852 45.182 38.92
H 39.181 44.437 39.841
H 37.575 44.6 40.59
H 36.238 41.705 39.993
H 37.241 42.487 41.171
H 38.955 40.972 41.016000000000005
H 38.875 40.753 39.276
H 37.849 38.959 39.376
H 36.49900000000001 39.533 40.369
H 39.186 38.801 41.592
H 36.655 37.23 41.443000000000005
H 38.13000000000001 36.814 42.322
H 38.217 36.814 40.516
H 37.123 38.539 43.505
H 36.764 39.999 42.76800000000001
H 38.214 40.962 44.21
H 39.396 40.535 42.980000000000004
H 40.363 39.85300000000001 45.027
H 39.878 38.503 44.115
H 37.558 38.994 45.71000000000001
H 39.366 38.678 47.927
H 38.265 40.061 47.602000000000004
H 39.869 40.121 46.963
H 39.413 36.793 46.475
H 38.617 36.954 44.87100000000001
H 36.802 37.453 47.078
H 37.413 35.823 47.332
H 36.381 34.948 45.718
H 36.52 36.229 44.54
H 34.71600000000001 37.315 46.523
H 34.801 38.012 44.303
H 33.254000000000005 37.348 44.831
H 34.363 36.432 43.796
H 33.919 34.388 45.614
H 33.095 35.481 46.706
H 34.47200000000001 34.646 47.221000000000004
Mg 29.464000000000002 59.145 41.038
C 26.578 57.38900000000001 40.289
C 31.349 56.531000000000006 39.782
C 32.15 61.189 41.086
C 27.354000000000003 61.82000000000001 41.949
N 28.992000000000004 57.292 39.871
C 27.772000000000002 56.748000000000005 39.893
C 27.779000000000003 55.38900000000001 39.127
C 29.329 54.99700000000001 39.218
C 29.967000000000002 56.344 39.732
C 29.581 53.727000000000004 40.066
C 27.374000000000002 55.594 37.685
C 26.460000000000004 54.527 37.103
C 26.578 54.02100000000001 35.616
O 26.517 52.865 35.253
O 26.748000000000005 55.106 34.848
N 31.533 58.788 40.650000000000006
C 32.11 57.714 40.08400000000001
C 33.515 57.958 40.033
C 33.806 59.24700000000001 40.574000000000005
C 32.479 59.816 40.84
C 34.477 56.891 39.661
C 35.162 59.858000000000004 40.593
O 36.13 59.214 40.224000000000004
C 35.397 61.264 41.132
N 29.713 61.282 41.565000000000005
C 30.944000000000003 61.846 41.414
C 30.859000000000005 63.33400000000001 41.52
C 29.292 63.522 41.793000000000006
C 28.699000000000005 62.136 41.849
C 31.799 63.962 42.566
C 28.518000000000004 64.48 40.783
C 27.642000000000003 65.63900000000001 41.314
N 27.437000000000005 59.547 41.14
C 26.744000000000003 60.627 41.589
C 25.412 60.28 41.819
C 25.254000000000005 58.98400000000001 41.348
C 26.489000000000004 58.611000000000004 40.88
C 24.327000000000005 61.25500000000001 42.363
C 24.372000000000003 57.928 41.168000000000006
O 23.159 57.918000000000006 41.346
C 25.149000000000004 56.755 40.397
C 25.258000000000003 55.582 41.187
O 25.993 55.31600000000001 42.141000000000005
O 24.334000000000003 54.682 40.665000000000006
C 24.175000000000004 53.35900000000001 41.24400000000001
C 27.286 54.743 33.541
C 27.201000000000004 55.98 32.679
C 27.487 56.09100000000001 31.367000000000004
C 27.642000000000003 54.99700000000001 30.343
C 27.831000000000003 57.414 30.802
C 29.234000000000005 57.897 31.172000000000004
C 29.900000000000002 58.63 29.951000000000004
C 31.150000000000002 57.87500000000001 29.42
C 30.909 57.732 27.875
C 32.502 58.702000000000005 29.749
C 33.738 57.79600000000001 29.593000000000004
C 34.432 57.44 30.908
C 34.689 55.910000000000004 31.158
C 33.435 55.077 31.692
C 35.909 55.83400000000001 32.119
C 36.959 54.842000000000006 31.612000000000002
C 37.604 55.366 30.299
C 37.293000000000006 54.33800000000001 29.090000000000003
C 38.425 53.265 28.914000000000005
C 37.182 55.138 27.798
H 31.952 55.655 39.535
H 32.919 61.96200000000001 41.153000000000006
H 26.805000000000003 62.682 42.334
H 27.083 54.71900000000001 39.631
H 29.817 54.888000000000005 38.25
H 28.669000000000004 53.37400000000001 40.547
H 30.340000000000003 53.938 40.82
H 30.006000000000004 52.972 39.405
H 28.168000000000003 55.748 36.954
H 26.927000000000003 56.588 37.67
H 25.440000000000005 54.851 37.309
H 26.664 53.691 37.772
H 34.813 56.525 40.631
H 35.297 57.28300000000001 39.059
H 34.022 56.083 39.088
H 35.106 61.939 40.327
H 36.479 61.373 41.202
H 34.844 61.421 42.058
H 31.143 63.61000000000001 40.505
H 29.109 64.048 42.73
H 32.596 64.443 41.998
H 32.191 63.234 43.277
H 31.269 64.751 43.099
H 27.851 63.867000000000004 40.17700000000001
H 29.188000000000002 65.018 40.11200000000001
H 26.690000000000005 65.116 41.404
H 27.544000000000004 66.417 40.55800000000001
H 27.779000000000003 66.009 42.33
H 24.062 61.952 41.569
H 24.634 61.907 43.181000000000004
H 23.429 60.71200000000001 42.659000000000006
H 24.616000000000003 56.618 39.456
H 23.133 53.074000000000005 41.102
H 24.529 53.25500000000001 42.27
H 24.724000000000004 52.659000000000006 40.614
H 26.795000000000005 53.95600000000001 32.968
H 28.339 54.461000000000006 33.557
H 27.135 56.889 33.277
H 26.695 54.931 29.806000000000004
H 27.834000000000003 54.05100000000001 30.849000000000004
H 28.427000000000003 55.144000000000005 29.601000000000003
H 27.097 58.161 31.103000000000005
H 27.693000000000005 57.369 29.722000000000005
H 29.805 57.063 31.582000000000004
H 29.259000000000004 58.57300000000001 32.027
H 30.19 59.606 30.340000000000003
H 29.212000000000003 58.907 29.152000000000005
H 31.139000000000003 56.854000000000006 29.800000000000004
H 29.965000000000003 57.196 27.771000000000004
H 31.776 57.213 27.468000000000004
H 30.822000000000003 58.727000000000004 27.439
H 32.362 59.035000000000004 30.777
H 32.544 59.535 29.047
H 34.437 58.43 29.049
H 33.49600000000001 56.867000000000004 29.077
H 33.738 57.685 31.712000000000003
H 35.243 58.15200000000001 31.06
H 34.932 55.43600000000001 30.208
H 33.758 54.374 32.46000000000001
H 32.928 54.621 30.842
H 32.758 55.736 32.235
H 35.486 55.470000000000006 33.056
H 36.541 56.702000000000005 32.306
H 36.673 53.790000000000006 31.572
H 37.827 54.90500000000001 32.268
H 38.688 55.432 30.396
H 37.33 56.375 29.993
H 36.322 53.851000000000006 29.182000000000002
H 39.065 53.293 29.796
H 39.059 53.357 28.033
H 37.980000000000004 52.28000000000001 28.779000000000003
H 36.111 55.29600000000001 27.675
H 37.555 54.538000000000004 26.968
H 37.607 56.13300000000001 27.929

