280
Bchla 5 -- Bchla 27
Mg 24.459 -7.804000000000001 45.73
C 26.586 -5.045000000000001 44.577
C 21.887000000000004 -6.074000000000001 44.19
C 22.841 -10.552 45.751
C 27.522000000000002 -9.37 46.768
N 24.343000000000004 -5.766 44.356
C 25.305 -4.83 44.045
C 24.688 -3.749 43.084
C 23.167000000000005 -3.9430000000000005 43.211000000000006
C 23.119 -5.331 43.95600000000001
C 22.332 -2.8730000000000007 44.03
C 25.237 -3.8220000000000005 41.618
C 25.488 -2.499 40.927
C 24.417000000000005 -2.034 39.891
O 23.317 -1.624 40.184
O 24.875000000000004 -2.272 38.628
N 22.604000000000003 -8.235 45.19100000000001
C 21.647 -7.401 44.68
C 20.381 -8.155 44.469
C 20.679 -9.472000000000001 44.906
C 22.095 -9.47 45.265
C 19.082 -7.63 43.836000000000006
C 19.818 -10.733 44.789
O 18.676 -10.595 44.359
C 20.227 -12.028 45.167
N 25.207 -9.776 45.955000000000005
C 24.194 -10.69 46.16700000000001
C 24.843000000000004 -12.02 46.714
C 26.381 -11.701 46.729
C 26.353000000000005 -10.162000000000003 46.569
C 24.303000000000004 -12.52 48.082
C 27.322000000000003 -12.424 45.683
C 27.761 -13.868 45.982
N 26.632 -7.372000000000001 45.76700000000001
C 27.69 -8.054000000000002 46.33400000000001
C 28.898000000000003 -7.265000000000001 46.339
C 28.501000000000005 -6.051000000000001 45.663
C 27.123000000000005 -6.133000000000001 45.258
C 30.216 -7.747000000000001 46.862
C 28.993000000000002 -4.841 45.175
O 30.137 -4.417 45.08200000000001
C 27.848000000000003 -4.189 44.347
C 27.671 -2.819 44.959
O 27.621000000000002 -1.7800000000000002 44.296
O 27.393 -2.803 46.385
C 26.881000000000004 -1.5110000000000001 46.839000000000006
C 23.97 -2.108 37.49000000000001
C 23.949 -3.434 36.77
C 24.911 -4.045 36.109
C 26.430000000000003 -3.609 35.953
C 24.583 -5.311 35.474
C 23.957 -5.257 34.139
C 23.241 -6.58 33.77000000000001
C 22.733000000000004 -6.697000000000001 32.370000000000005
C 21.624 -7.747000000000001 32.217
C 23.981 -6.913 31.374
C 23.822000000000003 -6.118000000000001 30.051000000000002
C 25.165000000000003 -5.529000000000001 29.557000000000002
C 25.278 -3.933 29.677000000000003
C 26.354000000000003 -3.4940000000000007 30.732
C 25.475 -3.367 28.305000000000003
C 24.156 -3.5830000000000006 27.430000000000003
C 24.512 -3.892 25.894
C 23.607 -5.058 25.347000000000005
C 24.461 -6.168 24.693000000000005
C 22.679000000000002 -4.49 24.291
H 21.044 -5.517000000000001 43.777
H 22.37 -11.509 45.98500000000001
H 28.345000000000002 -9.943 47.2
H 24.831000000000003 -2.766 43.535
H 22.699 -4.122 42.243
H 21.798 -2.303 43.27000000000001
H 22.988 -2.174 44.548
H 21.676 -3.2770000000000006 44.801
H 24.553000000000004 -4.272 40.898
H 26.195000000000004 -4.342 41.598
H 26.494 -2.546 40.510000000000005
H 25.503 -1.726 41.696
H 18.222 -8.027 44.376
H 19.151 -7.952 42.797
H 19.012 -6.547000000000001 43.928000000000004
H 20.354 -12.038000000000002 46.25
H 21.098 -12.408000000000001 44.633
H 19.4 -12.623 44.778000000000006
H 24.715000000000003 -12.875 46.051
H 26.808 -11.853 47.72
H 25.179000000000002 -12.58 48.72800000000001
H 23.876000000000005 -13.512000000000002 47.938
H 23.571000000000005 -11.76 48.358
H 28.203 -11.782000000000002 45.654
H 26.828000000000003 -12.521000000000003 44.71600000000001
H 27.326 -14.008000000000001 46.97200000000001
H 28.839000000000002 -13.929 46.138000000000005
H 27.422000000000004 -14.643 45.295
H 30.43 -8.657 46.303
H 30.177 -8.08 47.899
H 31.044 -7.089 46.598
H 28.225 -4.065000000000001 43.33200000000001
H 26.346000000000004 -1.907 47.703
H 26.354000000000003 -0.9760000000000001 46.049
H 27.739000000000004 -0.964 47.23
H 24.516 -1.3650000000000002 36.909
H 22.959 -1.7100000000000002 37.58
H 22.941 -3.849 36.776
H 26.903000000000002 -3.981 36.862
H 26.442 -2.523 36.044
H 26.811000000000003 -3.93 34.984
H 23.906 -5.93 36.062
H 25.462000000000003 -5.942 35.347
H 24.747000000000003 -5.140000000000001 33.398
H 23.269 -4.411 34.152
H 22.379 -6.564000000000001 34.436
H 23.845 -7.452000000000001 34.022
H 22.186 -5.795 32.096000000000004
H 20.892 -7.35 31.515000000000004
H 21.22 -8.011 33.194
H 21.983 -8.658 31.738
H 24.079 -7.985000000000001 31.199000000000005
H 24.932 -6.648000000000001 31.836000000000002
H 23.048 -5.36 30.178000000000004
H 23.519000000000002 -6.885 29.339
H 25.249000000000002 -5.845000000000001 28.517000000000003
H 26.041000000000004 -5.962 30.04
H 24.391 -3.509 30.146
H 25.819000000000003 -2.872 31.449
H 27.173 -2.8900000000000006 30.343
H 26.711 -4.311 31.359
H 26.354000000000003 -3.809 27.837
H 25.652000000000005 -2.296 28.409
H 23.647 -2.623 27.335
H 23.489 -4.347000000000001 27.83
H 25.570000000000004 -4.0920000000000005 25.726
H 24.341000000000005 -2.9740000000000006 25.331000000000003
H 22.994 -5.4830000000000005 26.141000000000002
H 23.82 -6.919 24.232
H 25.078 -6.549 25.507000000000005
H 25.199 -5.761000000000001 24.001
H 22.9 -3.45 24.051000000000002
H 21.674000000000003 -4.418 24.706000000000003
H 22.665000000000003 -5.104000000000001 23.39
Mg -5.21 24.541000000000004 27.195
C -3.5410000000000004 26.384000000000004 29.693000000000005
C -6.38 22.499 29.726
C -6.783000000000001 22.591 24.876000000000005
C -3.732 26.393000000000004 24.817
N -5.009 24.475 29.485
C -4.393000000000001 25.403000000000002 30.316000000000003
C -4.7780000000000005 25.157000000000004 31.761
C -5.380000000000001 23.705 31.74
C -5.612 23.568 30.252
C -4.487 22.583 32.401
C -5.828000000000001 26.148000000000003 32.285
C -5.66 26.572 33.748
C -5.928 25.52 34.86
O -5.178000000000001 24.808000000000003 35.42
O -7.247 25.651000000000003 35.24
N -6.480000000000001 22.853 27.281
C -6.765 22.191000000000003 28.426000000000002
C -7.522000000000001 21.026000000000003 28.101000000000003
C -7.817 21.045 26.694
C -6.985000000000001 22.142 26.232000000000003
C -7.947000000000001 20.031 29.145000000000003
C -8.63 20.1 25.809
O -8.907 20.385000000000005 24.623000000000005
C -9.087 18.724 26.28
N -5.32 24.558 25.17
C -5.973000000000001 23.615 24.382
C -5.699 23.91 22.943
C -4.772 25.174000000000003 22.837
C -4.608 25.452000000000005 24.340000000000003
C -5.2490000000000006 22.679000000000002 22.100000000000005
C -5.373 26.38 22.083
C -4.944 26.457 20.605000000000004
N -3.895 26.018000000000004 27.181
C -3.3810000000000002 26.779000000000003 26.132000000000005
C -2.501 27.909000000000002 26.61
C -2.55 27.715 28.000000000000004
C -3.426 26.623 28.301
C -1.787 28.935 25.749
C -2.033 28.274000000000004 29.24
O -1.249 29.202000000000005 29.443
C -2.781 27.475000000000005 30.39
C -1.665 26.984 31.333000000000002
O -0.581 26.549 31.003000000000004
O -2.033 27.276000000000003 32.645
C -1.033 26.854 33.626
C -7.564000000000001 24.944000000000003 36.511
C -8.753 24.01 36.285
C -9.206 23.034 37.178
C -8.642 22.672000000000004 38.542
C -10.439 22.214 36.802
C -11.605 22.545 37.716
C -12.141000000000002 21.385 38.532
C -12.837 20.297 37.695
C -14.376 20.604 37.604
C -12.473 18.878 38.236
C -11.075 18.359 37.854
C -10.252 18.044000000000004 39.133
C -8.796 17.661 38.813
C -7.707000000000001 18.676 39.491
C -8.488 16.152 39.028
C -7.214 15.591 38.264
C -6.276000000000001 14.932 39.298
C -4.745 15.127000000000002 38.87
C -3.893 13.923000000000002 39.358
C -4.266 16.497 39.329
H -6.796000000000001 21.923 30.555000000000003
H -7.246000000000001 22.043 24.053000000000004
H -3.2010000000000005 26.863 23.987
H -3.9420000000000006 25.157000000000004 32.46000000000001
H -6.324000000000001 23.596 32.274
H -3.587 22.935 32.906
H -4.09 21.819000000000003 31.733000000000004
H -5.035 22.071 33.19200000000001
H -6.837 25.751000000000005 32.176
H -5.779 27.088 31.735000000000003
H -6.234000000000001 27.469 33.98
H -4.65 26.933000000000003 33.941
H -7.011000000000001 19.854 29.675000000000004
H -8.293 19.055 28.805
H -8.678 20.404 29.862000000000002
H -8.257 18.167 26.715
H -9.457 18.282 25.355000000000004
H -9.853000000000002 18.807000000000002 27.051
H -6.6690000000000005 24.060000000000002 22.468
H -3.772 24.984 22.445
H -5.161 21.829 22.777
H -4.267000000000001 22.885000000000005 21.675
H -6.057000000000001 22.545 21.38
H -5.165000000000001 27.269000000000002 22.678000000000004
H -6.454 26.277000000000005 21.986000000000004
H -4.658 25.466 20.252
H -4.057 27.051 20.384
H -5.81 26.77 20.021
H -2.5470000000000006 29.614000000000004 25.362000000000002
H -1.261 28.538 24.881
H -1.105 29.457000000000004 26.42
H -3.5050000000000003 28.048000000000002 30.969
H -1.16 25.838 34.001000000000005
H -1.124 27.594 34.421
H 0.018 26.831 33.338
H -7.981 25.702 37.173
H -6.805 24.425000000000004 37.095
H -9.302 24.101 35.348
H -8.292 21.656 38.362
H -9.496 22.631 39.219
H -7.753000000000001 23.206000000000003 38.876
H -10.150000000000002 21.164 36.741
H -10.782 22.469 35.8
H -12.41 22.862000000000002 37.052
H -11.396 23.503000000000004 38.19200000000001
H -12.859 21.829 39.222
H -11.377000000000002 20.940000000000005 39.17
H -12.531 20.202000000000005 36.653000000000006
H -14.660000000000002 21.651000000000003 37.502
H -14.864 20.149000000000004 38.46600000000001
H -14.707 20.129 36.681
H -13.228 18.159 37.915
H -12.479 19.016 39.317
H -10.479000000000001 19.056 37.265
H -11.241000000000001 17.402 37.358
H -10.608000000000002 17.17 39.678
H -10.286 18.836 39.881
H -8.582 17.67 37.744
H -7.003 18.174 40.154
H -8.335 19.35 40.074
H -7.156000000000001 19.274 38.765
H -9.352 15.546 38.758
H -8.252000000000002 16.061 40.089
H -6.637 16.369 37.763
H -7.396000000000001 14.835000000000003 37.501
H -6.461000000000001 13.864 39.412000000000006
H -6.274000000000001 15.379000000000001 40.292
H -4.618 15.064000000000002 37.789
H -4.547 13.094000000000001 39.626000000000005
H -3.447 14.255000000000003 40.295
H -3.045 13.638000000000002 38.736
H -3.37 16.434 39.947
H -4.981 16.928 40.031
H -3.993 17.069000000000003 38.442

