280
Bchla 11 -- Bchla 12
Mg 52.532 24.272 45.278
C 49.695 26.145 43.971000000000004
C 51.04500000000001 21.439 44.032
C 55.55800000000001 22.862000000000002 45.08400000000001
C 53.786 27.156000000000002 46.565000000000005
N 50.65200000000001 23.900000000000002 43.946
C 49.60000000000001 24.825 43.60600000000001
C 48.415 24.053000000000004 43.019
C 48.70000000000001 22.567 43.387
C 50.226000000000006 22.57 43.84
C 47.769000000000005 22.007000000000005 44.56400000000001
C 48.044000000000004 24.343000000000004 41.59400000000001
C 49.095000000000006 25.060000000000002 40.714
C 48.96900000000001 25.397 39.217
O 48.814 26.490000000000002 38.7
O 48.923 24.209 38.402
N 53.202 22.330000000000002 44.767
C 52.423 21.316000000000003 44.255
C 53.276 20.093 44.131
C 54.571000000000005 20.566 44.327
C 54.53600000000001 21.98 44.693
C 52.686 18.786 43.735
C 55.857 19.705 44.161
O 55.729000000000006 18.565 43.751
C 57.24900000000001 20.219 44.324000000000005
N 54.406 25.034 45.628
C 55.489 24.156 45.60300000000001
C 56.748000000000005 24.823000000000004 46.157
C 56.169000000000004 26.074 46.912000000000006
C 54.729 26.077000000000005 46.394000000000005
C 57.69100000000001 23.988 47.061
C 56.925 27.423000000000002 46.689
C 57.797 27.947000000000003 47.92000000000001
N 51.876 26.259 45.369
C 52.486 27.322000000000003 46.019
C 51.586 28.449000000000005 46.025
C 50.55800000000001 28.021 45.17400000000001
C 50.791000000000004 26.666000000000004 44.832
C 51.912000000000006 29.799000000000003 46.687000000000005
C 49.30500000000001 28.377 44.58200000000001
O 48.718 29.466 44.743
C 48.584 27.144 43.87700000000001
C 48.236 27.644000000000002 42.532
O 48.985 28.235 41.74700000000001
O 46.97500000000001 27.217000000000002 42.277
C 46.327 27.762 41.043000000000006
C 48.504000000000005 24.347 36.97
C 49.038000000000004 23.025 36.183
C 48.51 21.799 36.159
C 47.160000000000004 21.356 36.757
C 49.15800000000001 20.707 35.271
C 50.643 20.476 35.634
C 51.51400000000001 20.759000000000004 34.429
C 52.881 20.132000000000005 34.723
C 53.995 20.630000000000003 33.703
C 52.957 18.602 34.688
C 52.149 17.939 33.537
C 52.75600000000001 16.582 33.12
C 51.855000000000004 15.649 32.315
C 50.88900000000001 15.007000000000001 33.288
C 52.63100000000001 14.592 31.513000000000005
C 53.483000000000004 15.137 30.251
C 52.884 14.534000000000002 28.954000000000004
C 53.893 13.766 28.055000000000003
C 53.843 14.023000000000001 26.477000000000004
C 53.88300000000001 12.239000000000003 28.139000000000003
H 50.579 20.542 43.620000000000005
H 56.538000000000004 22.383000000000003 45.028
H 54.161 28.033 47.096000000000004
H 47.651 24.444 43.691
H 48.717000000000006 21.909 42.518
H 47.153 21.264 44.059
H 47.213 22.832000000000004 45.010000000000005
H 48.447 21.516 45.263
H 47.087 24.863 41.633
H 47.846000000000004 23.335000000000004 41.22800000000001
H 49.999 24.46 40.823
H 49.294000000000004 26.052 41.120000000000005
H 53.066 18.579 42.735
H 51.601 18.884 43.754
H 52.95100000000001 18.031 44.476000000000006
H 57.605000000000004 20.973000000000003 43.623000000000005
H 58.003 19.451 44.15400000000001
H 57.23 20.507000000000005 45.37500000000001
H 57.212 25.048 45.196
H 56.15200000000001 25.774000000000004 47.96
H 58.567 23.603 46.538
H 57.165 23.102 47.415000000000006
H 57.94800000000001 24.606 47.922000000000004
H 56.284 28.251000000000005 46.385
H 57.545 27.232000000000003 45.813
H 58.71300000000001 28.267000000000003 47.424
H 58.013000000000005 27.199000000000005 48.68300000000001
H 57.20100000000001 28.707 48.42400000000001
H 51.050000000000004 30.363000000000003 47.044
H 52.358000000000004 30.332000000000004 45.848000000000006
H 52.476 29.641000000000002 47.606
H 47.714 26.852 44.467
H 45.32600000000001 27.34 40.947
H 46.887 27.487 40.149
H 46.323 28.832000000000004 41.246
H 49.04600000000001 25.194000000000003 36.55
H 47.461 24.659 37.022
H 49.982000000000006 23.094 35.642
H 47.34100000000001 20.633 37.55200000000001
H 46.475 20.976 35.999
H 46.72 22.222000000000005 37.251
H 49.119 21.189 34.294
H 48.70000000000001 19.718 35.274
H 50.672 19.404 35.826
H 50.967 20.965000000000003 36.553
H 51.52900000000001 21.825000000000003 34.199
H 51.024 20.206 33.627
H 53.11800000000001 20.545000000000005 35.703
H 54.614000000000004 21.416 34.135
H 53.668000000000006 20.97 32.72
H 54.68900000000001 19.819 33.483000000000004
H 52.42100000000001 18.206 35.55
H 53.973000000000006 18.222 34.798
H 51.782000000000004 18.585 32.74
H 51.127 17.666 33.797
H 53.10000000000001 16.127 34.049
H 53.62100000000001 16.787 32.49000000000001
H 51.30500000000001 16.181 31.539
H 49.88700000000001 15.268 32.946
H 51.039 15.344 34.314
H 51.129 13.946000000000002 33.364
H 51.94 13.799000000000001 31.226000000000003
H 53.327 14.130000000000003 32.212
H 54.53 14.875 30.410000000000004
H 53.293 16.207 30.165000000000003
H 52.492000000000004 15.372000000000002 28.378
H 52.05100000000001 13.891 29.237000000000002
H 54.858000000000004 14.146 28.390000000000004
H 52.805 14.088000000000001 26.150000000000002
H 54.302 13.211000000000002 25.913000000000004
H 54.379 14.958 26.307000000000002
H 54.888000000000005 11.862000000000002 28.333
H 53.416 11.801000000000002 27.257
H 53.42400000000001 11.959 29.087
Mg 47.671 15.890000000000002 28.454
C 45.34400000000001 15.655000000000001 31.048000000000002
C 49.480000000000004 18.075000000000003 30.515000000000004
C 49.687 16.659 25.896000000000004
C 45.306 14.621000000000002 26.300000000000004
N 47.507000000000005 16.717 30.64
C 46.409000000000006 16.477 31.405
C 46.52 17.235 32.787
C 47.758 18.22 32.48
C 48.27100000000001 17.699 31.127000000000002
C 47.166 19.656 32.251
C 46.904 16.168 33.87700000000001
C 47.20400000000001 16.686 35.31
C 48.31600000000001 16.299 36.239
O 49.14300000000001 15.375 36.104
O 48.287000000000006 17.131 37.333
N 49.43000000000001 17.014 28.320000000000004
C 50.06900000000001 17.827 29.271
C 51.20000000000001 18.391 28.663000000000004
C 51.38300000000001 17.851 27.397
C 50.14500000000001 17.128 27.157
C 52.11500000000001 19.271 29.450000000000003
C 52.515 18.076 26.341
O 52.574000000000005 17.523 25.248000000000005
C 53.788 18.861 26.669
N 47.442 15.767 26.396
C 48.48400000000001 16.017000000000003 25.572
C 48.260000000000005 15.53 24.127000000000002
C 46.801 15.004 24.224
C 46.51 15.008 25.714000000000002
C 48.611000000000004 16.583 23.024
C 46.486000000000004 13.650000000000002 23.531
C 46.966 12.438000000000002 24.21
N 45.75600000000001 15.167000000000002 28.599
C 44.938 14.697 27.686
C 43.69800000000001 14.180000000000001 28.274000000000004
C 43.863 14.561000000000002 29.644
C 45.089 15.181000000000001 29.786
C 42.778 13.18 27.748000000000005
C 43.211000000000006 14.491 30.940000000000005
O 42.192 13.935000000000002 31.282
C 44.145 15.276 31.869
C 43.419 16.438 32.555
O 43.17 17.49 32.026
O 43.04200000000001 16.055 33.82
C 42.339 17.133 34.553
C 49.50200000000001 17.037 38.132000000000005
C 49.561 18.263 39.01400000000001
C 50.65100000000001 18.917 39.569
C 52.126000000000005 18.574 39.316
C 50.51500000000001 20.089000000000002 40.599
C 50.806000000000004 21.538 39.927
C 52.14200000000001 22.186 40.17600000000001
C 53.08700000000001 22.243 38.992
C 54.529 21.795000000000005 39.323
C 53.150000000000006 23.665 38.33
C 52.77100000000001 23.536 36.896
C 52.58700000000001 24.871 36.211
C 53.013000000000005 24.900000000000002 34.764
C 54.11200000000001 25.946 34.523
C 51.83 24.921000000000003 33.76
C 52.077 24.161 32.463
C 50.842 23.450000000000003 31.96
C 50.397 24.029000000000003 30.560000000000002
C 48.86600000000001 23.981 30.309000000000005
C 51.22800000000001 23.381000000000004 29.377
H 50.098 18.647 31.209000000000003
H 50.414 16.702000000000005 25.082000000000004
H 44.812000000000005 14.14 25.454000000000004
H 45.63400000000001 17.83 33.010000000000005
H 48.522 18.246 33.258
H 47.138 20.013 31.222
H 47.84 20.429 32.621
H 46.166 19.793 32.662
H 47.758 15.61 33.494
H 46.098 15.434000000000001 33.898
H 46.248 16.587 35.825
H 47.421 17.732 35.09700000000001
H 51.803 19.483 30.473
H 52.347 20.143 28.837000000000003
H 53.025000000000006 18.677 29.539000000000005
H 53.61800000000001 19.925 26.834000000000003
H 54.61200000000001 18.703 25.973000000000003
H 54.192 18.417 27.579
H 49.00300000000001 14.733 24.135000000000005
H 46.204 15.805 23.788
H 49.400000000000006 17.254 23.362
H 47.726 17.181 22.805
H 48.986000000000004 16.126 22.108000000000004
H 46.997 13.776000000000002 22.577
H 45.423 13.597000000000001 23.295
H 46.251 12.146 24.979
H 47.972 12.581 24.604
H 46.988 11.578 23.54
H 43.376000000000005 12.596 27.048000000000002
H 41.933 13.490000000000002 27.133000000000003
H 42.416 12.613000000000001 28.605
H 44.526 14.581 32.618
H 41.57800000000001 16.677 35.186
H 41.709 17.79 33.953
H 43.02300000000001 17.668 35.211
H 50.335 17.193 37.446
H 49.725 16.096 38.635000000000005
H 48.60600000000001 18.712 39.285
H 52.82 19.021 40.028
H 52.31300000000001 18.945 38.308
H 52.23800000000001 17.491 39.253
H 51.04500000000001 19.916 41.536
H 49.456 20.241000000000003 40.808
H 50.036 22.216 40.294
H 50.716 21.469 38.843
H 52.716 21.608 40.9
H 52.016 23.147 40.674
H 52.732 21.57 38.211
H 54.792 20.96 38.675
H 54.634 21.465 40.357
H 55.297 22.563 39.229
H 54.12400000000001 24.154 38.327
H 52.464000000000006 24.251000000000005 38.941
H 51.77 23.108 36.945
H 53.41100000000001 22.819 36.381
H 52.991 25.651000000000003 36.856
H 51.51400000000001 25.016 36.342
H 53.470000000000006 23.924 34.599
H 54.939 25.416000000000004 34.05
H 54.376 26.489000000000004 35.431
H 53.726 26.752000000000002 33.899
H 51.684 25.986000000000004 33.578
H 50.872 24.625000000000004 34.187
H 52.82 23.364000000000004 32.479
H 52.454 24.890000000000004 31.745
H 50.003 23.46 32.656
H 51.087 22.393 31.863
H 50.69200000000001 25.078 30.597
H 48.584 25.027000000000005 30.189000000000004
H 48.483000000000004 23.592 31.253
H 48.59300000000001 23.266 29.534000000000002
H 51.99300000000001 24.116 29.127000000000002
H 50.656 23.163 28.475
H 51.79600000000001 22.472 29.573

